# generated using pymatgen
data_TeMo2Se2S
_symmetry_space_group_name_H-M   'P 1'
_cell_length_a   3.34363098
_cell_length_b   3.34359004
_cell_length_c   41.75879025
_cell_angle_alpha   90.00492371
_cell_angle_beta   90.00000000
_cell_angle_gamma   120.00040506
_symmetry_Int_Tables_number   1
_chemical_formula_structural   TeMo2Se2S
_chemical_formula_sum   'Te2 Mo4 Se4 S2'
_cell_volume   404.30408435
_cell_formula_units_Z   2
loop_
 _symmetry_equiv_pos_site_id
 _symmetry_equiv_pos_as_xyz
  1  'x, y, z'
loop_
 _atom_site_type_symbol
 _atom_site_label
 _atom_site_symmetry_multiplicity
 _atom_site_fract_x
 _atom_site_fract_y
 _atom_site_fract_z
 _atom_site_occupancy
  Te  Te0  1  0.66674429  0.33348758  0.42436962  1
  Te  Te1  1  0.66691615  0.33383131  0.51531355  1
  Mo  Mo2  1  0.33334527  0.66669053  0.09375140  1
  Mo  Mo3  1  0.33350942  0.66701883  0.46982433  1
  Mo  Mo4  1  0.66655324  0.33310648  0.27940568  1
  Mo  Mo5  1  0.66657733  0.33315467  0.65993653  1
  Se  Se6  1  0.33319852  0.66639803  0.31930431  1
  Se  Se7  1  0.33322623  0.66645346  0.69985031  1
  Se  Se8  1  0.33322206  0.66644511  0.23947709  1
  Se  Se9  1  0.33324925  0.66649949  0.62003343  1
  S  S10  1  0.66665760  0.33331420  0.05740335  1
  S  S11  1  0.66680065  0.33360031  0.13007840  1
