# generated using pymatgen
data_TeMo2Se2S
_symmetry_space_group_name_H-M   'P 1'
_cell_length_a   3.34494761
_cell_length_b   3.34503339
_cell_length_c   38.03378252
_cell_angle_alpha   90.00062266
_cell_angle_beta   89.99999729
_cell_angle_gamma   119.99912187
_symmetry_Int_Tables_number   1
_chemical_formula_structural   TeMo2Se2S
_chemical_formula_sum   'Te2 Mo4 Se4 S2'
_cell_volume   368.54775546
_cell_formula_units_Z   2
loop_
 _symmetry_equiv_pos_site_id
 _symmetry_equiv_pos_as_xyz
  1  'x, y, z'
loop_
 _atom_site_type_symbol
 _atom_site_label
 _atom_site_symmetry_multiplicity
 _atom_site_fract_x
 _atom_site_fract_y
 _atom_site_fract_z
 _atom_site_occupancy
  Te  Te0  1  0.33336923  0.66673887  0.70743143  1
  Te  Te1  1  0.33334800  0.66669651  0.60771111  1
  Mo  Mo2  1  0.33329379  0.66658680  0.09392530  1
  Mo  Mo3  1  0.33331135  0.66662129  0.46963109  1
  Mo  Mo4  1  0.66668829  0.33337748  0.28180484  1
  Mo  Mo5  1  0.66668854  0.33337794  0.65759632  1
  Se  Se6  1  0.33335119  0.66670257  0.32564498  1
  Se  Se7  1  0.66664895  0.33329729  0.42576228  1
  Se  Se8  1  0.66665013  0.33329975  0.51348950  1
  Se  Se9  1  0.33334812  0.66669652  0.23790637  1
  S  S10  1  0.66665051  0.33330115  0.05405057  1
  S  S11  1  0.66665190  0.33330384  0.13379421  1
