# generated using pymatgen
data_TeMo2Se2S
_symmetry_space_group_name_H-M   'P 1'
_cell_length_a   3.34434487
_cell_length_b   3.34433901
_cell_length_c   37.99416145
_cell_angle_alpha   90.00035245
_cell_angle_beta   90.00000852
_cell_angle_gamma   120.00002226
_symmetry_Int_Tables_number   1
_chemical_formula_structural   TeMo2Se2S
_chemical_formula_sum   'Te2 Mo4 Se4 S2'
_cell_volume   368.01773511
_cell_formula_units_Z   2
loop_
 _symmetry_equiv_pos_site_id
 _symmetry_equiv_pos_as_xyz
  1  'x, y, z'
loop_
 _atom_site_type_symbol
 _atom_site_label
 _atom_site_symmetry_multiplicity
 _atom_site_fract_x
 _atom_site_fract_y
 _atom_site_fract_z
 _atom_site_occupancy
  Te  Te0  1  0.33338248  0.66676559  0.70745750  1
  Te  Te1  1  0.33335125  0.66670332  0.60761532  1
  Mo  Mo2  1  0.33330092  0.66660161  0.09390873  1
  Mo  Mo3  1  0.33330392  0.66660722  0.46964859  1
  Mo  Mo4  1  0.66668366  0.33336759  0.28180724  1
  Mo  Mo5  1  0.66669349  0.33338755  0.65755590  1
  Se  Se6  1  0.33334993  0.66670044  0.32566921  1
  Se  Se7  1  0.66663828  0.33327627  0.05006221  1
  Se  Se8  1  0.66663327  0.33326572  0.13776514  1
  Se  Se9  1  0.33334726  0.66669486  0.23794238  1
  S  S10  1  0.66665588  0.33331131  0.42973599  1
  S  S11  1  0.66665966  0.33331853  0.50957979  1
