# generated using pymatgen
data_YCu3(SnO3)4
_symmetry_space_group_name_H-M   'P 1'
_cell_length_a   6.74662661
_cell_length_b   6.74655823
_cell_length_c   6.74675660
_cell_angle_alpha   109.56518059
_cell_angle_beta   109.53839050
_cell_angle_gamma   109.32107292
_symmetry_Int_Tables_number   1
_chemical_formula_structural   YCu3(SnO3)4
_chemical_formula_sum   'Y1 Cu3 Sn4 O12'
_cell_volume   236.36406344
_cell_formula_units_Z   1
loop_
 _symmetry_equiv_pos_site_id
 _symmetry_equiv_pos_as_xyz
  1  'x, y, z'
loop_
 _atom_site_type_symbol
 _atom_site_label
 _atom_site_symmetry_multiplicity
 _atom_site_fract_x
 _atom_site_fract_y
 _atom_site_fract_z
 _atom_site_occupancy
  Y  Y0  1  0.00000180  0.99999842  0.99999637  1
  Cu  Cu1  1  0.49999731  0.99999715  0.50000138  1
  Cu  Cu2  1  0.50000166  0.50000003  0.99999563  1
  Cu  Cu3  1  0.00000552  0.50000598  0.50000341  1
  Sn  Sn4  1  0.50000190  0.00000481  0.00000141  1
  Sn  Sn5  1  0.99998774  0.99998982  0.49998967  1
  Sn  Sn6  1  0.00000382  0.50000082  0.00000128  1
  Sn  Sn7  1  0.49999959  0.49999793  0.50000055  1
  O  O8  1  0.83177242  0.29687389  0.12863218  1
  O  O9  1  0.16823252  0.70313435  0.87137373  1
  O  O10  1  0.83175722  0.70313263  0.53488612  1
  O  O11  1  0.29711772  0.46485402  0.16773283  1
  O  O12  1  0.46615006  0.16751882  0.29861409  1
  O  O13  1  0.13113579  0.83250741  0.29864854  1
  O  O14  1  0.70284129  0.87054650  0.16769940  1
  O  O15  1  0.53384656  0.83247650  0.70138930  1
  O  O16  1  0.16824247  0.29686781  0.46511871  1
  O  O17  1  0.70289275  0.53515017  0.83226793  1
  O  O18  1  0.86886011  0.16748772  0.70135538  1
  O  O19  1  0.29715278  0.12945123  0.83229207  1
