# generated using pymatgen
data_TeMo2Se2S
_symmetry_space_group_name_H-M   'P 1'
_cell_length_a   3.34465138
_cell_length_b   3.34463159
_cell_length_c   38.00496091
_cell_angle_alpha   90.00010402
_cell_angle_beta   90.00000000
_cell_angle_gamma   120.00019573
_symmetry_Int_Tables_number   1
_chemical_formula_structural   TeMo2Se2S
_chemical_formula_sum   'Te2 Mo4 Se4 S2'
_cell_volume   368.18764375
_cell_formula_units_Z   2
loop_
 _symmetry_equiv_pos_site_id
 _symmetry_equiv_pos_as_xyz
  1  'x, y, z'
loop_
 _atom_site_type_symbol
 _atom_site_label
 _atom_site_symmetry_multiplicity
 _atom_site_fract_x
 _atom_site_fract_y
 _atom_site_fract_z
 _atom_site_occupancy
  Te  Te0  1  0.33336072  0.66672243  0.70743586  1
  Te  Te1  1  0.33334892  0.66669883  0.60767354  1
  Mo  Mo2  1  0.33330909  0.66661817  0.09391003  1
  Mo  Mo3  1  0.33330790  0.66661580  0.46963385  1
  Mo  Mo4  1  0.66670083  0.33340166  0.28179155  1
  Mo  Mo5  1  0.66668971  0.33337943  0.65758019  1
  Se  Se6  1  0.66664572  0.33329044  0.05011034  1
  Se  Se7  1  0.66664815  0.33329530  0.42581717  1
  Se  Se8  1  0.66664722  0.33329343  0.13774136  1
  Se  Se9  1  0.66664811  0.33329522  0.51345853  1
  S  S10  1  0.33334786  0.66669672  0.32176191  1
  S  S11  1  0.33334578  0.66669257  0.24183368  1
