# generated using pymatgen
data_TeMo2Se2S
_symmetry_space_group_name_H-M   'P 1'
_cell_length_a   3.34334201
_cell_length_b   3.34338983
_cell_length_c   38.02326048
_cell_angle_alpha   90.00120784
_cell_angle_beta   89.99999969
_cell_angle_gamma   119.99796188
_symmetry_Int_Tables_number   1
_chemical_formula_structural   TeMo2Se2S
_chemical_formula_sum   'Te2 Mo4 Se4 S2'
_cell_volume   368.09229561
_cell_formula_units_Z   2
loop_
 _symmetry_equiv_pos_site_id
 _symmetry_equiv_pos_as_xyz
  1  'x, y, z'
loop_
 _atom_site_type_symbol
 _atom_site_label
 _atom_site_symmetry_multiplicity
 _atom_site_fract_x
 _atom_site_fract_y
 _atom_site_fract_z
 _atom_site_occupancy
  Te  Te0  1  0.66664649  0.33329357  0.41973732  1
  Te  Te1  1  0.66665251  0.33330557  0.51949820  1
  Mo  Mo2  1  0.33330626  0.66661263  0.09392200  1
  Mo  Mo3  1  0.33331550  0.66663119  0.46961571  1
  Mo  Mo4  1  0.66667254  0.33339895  0.28179583  1
  Mo  Mo5  1  0.66669052  0.33338360  0.65759178  1
  Se  Se6  1  0.33335470  0.66671095  0.70145678  1
  Se  Se7  1  0.66663073  0.33326222  0.05004929  1
  Se  Se8  1  0.66665125  0.33330361  0.13780170  1
  Se  Se9  1  0.33335001  0.66670160  0.61370261  1
  S  S10  1  0.33336488  0.66669878  0.32163163  1
  S  S11  1  0.33336461  0.66669735  0.24194515  1
