# generated using pymatgen
data_Mg14ZrCd
_symmetry_space_group_name_H-M   'P 1'
_cell_length_a   6.40830735
_cell_length_b   6.40830682
_cell_length_c   10.16626333
_cell_angle_alpha   90.00000000
_cell_angle_beta   90.00000000
_cell_angle_gamma   120.00000277
_symmetry_Int_Tables_number   1
_chemical_formula_structural   Mg14ZrCd
_chemical_formula_sum   'Mg14 Zr1 Cd1'
_cell_volume   361.55852367
_cell_formula_units_Z   1
loop_
 _symmetry_equiv_pos_site_id
 _symmetry_equiv_pos_as_xyz
  1  'x, y, z'
loop_
 _atom_site_type_symbol
 _atom_site_label
 _atom_site_symmetry_multiplicity
 _atom_site_fract_x
 _atom_site_fract_y
 _atom_site_fract_z
 _atom_site_occupancy
  Mg  Mg0  1  0.17196762  0.83598331  0.12500000  1
  Mg  Mg1  1  0.16522966  0.83261433  0.62500000  1
  Mg  Mg2  1  0.66401669  0.32803238  0.12500000  1
  Mg  Mg3  1  0.66738567  0.33477034  0.62500000  1
  Mg  Mg4  1  0.66401669  0.83598331  0.12500000  1
  Mg  Mg5  1  0.66738567  0.83261433  0.62500000  1
  Mg  Mg6  1  0.33046345  0.16953655  0.37507174  1
  Mg  Mg7  1  0.33046345  0.16953655  0.87492826  1
  Mg  Mg8  1  0.33046345  0.66092790  0.37507174  1
  Mg  Mg9  1  0.33046345  0.66092790  0.87492826  1
  Mg  Mg10  1  0.83907210  0.16953655  0.37507174  1
  Mg  Mg11  1  0.83907210  0.16953655  0.87492826  1
  Mg  Mg12  1  0.83333300  0.66666700  0.37258669  1
  Mg  Mg13  1  0.83333300  0.66666700  0.87741331  1
  Zr  Zr14  1  0.16666700  0.33333300  0.12500000  1
  Cd  Cd15  1  0.16666700  0.33333300  0.62500000  1
