# generated using pymatgen
data_Te6Mo3WSe2
_symmetry_space_group_name_H-M   'P 1'
_cell_length_a   3.49927150
_cell_length_b   3.49926382
_cell_length_c   39.55989220
_cell_angle_alpha   89.99993730
_cell_angle_beta   90.00000000
_cell_angle_gamma   120.00007257
_symmetry_Int_Tables_number   1
_chemical_formula_structural   Te6Mo3WSe2
_chemical_formula_sum   'Te6 Mo3 W1 Se2'
_cell_volume   419.50751025
_cell_formula_units_Z   1
loop_
 _symmetry_equiv_pos_site_id
 _symmetry_equiv_pos_as_xyz
  1  'x, y, z'
loop_
 _atom_site_type_symbol
 _atom_site_label
 _atom_site_symmetry_multiplicity
 _atom_site_fract_x
 _atom_site_fract_y
 _atom_site_fract_z
 _atom_site_occupancy
  Te  Te0  1  0.33335692  0.66671485  0.32811402  1
  Te  Te1  1  0.33335494  0.66671088  0.70412648  1
  Te  Te2  1  0.66663816  0.33327532  0.04761723  1
  Te  Te3  1  0.66664949  0.33329799  0.14022925  1
  Te  Te4  1  0.33335748  0.66671595  0.23549959  1
  Te  Te5  1  0.33335566  0.66671231  0.61092558  1
  Mo  Mo6  1  0.33330794  0.66661588  0.09390130  1
  Mo  Mo7  1  0.33331302  0.66662604  0.46966140  1
  Mo  Mo8  1  0.66669405  0.33338810  0.28182605  1
  W  W9  1  0.66669042  0.33338084  0.65753144  1
  Se  Se10  1  0.66664614  0.33329128  0.42873819  1
  Se  Se11  1  0.66663578  0.33327056  0.51057748  1
