# generated using pymatgen
data_CaCuO2
_symmetry_space_group_name_H-M   'P 1'
_cell_length_a   3.03838666
_cell_length_b   8.24787126
_cell_length_c   8.60252527
_cell_angle_alpha   85.21126693
_cell_angle_beta   90.52896827
_cell_angle_gamma   99.68717279
_symmetry_Int_Tables_number   1
_chemical_formula_structural   CaCuO2
_chemical_formula_sum   'Ca4 Cu4 O8'
_cell_volume   211.76291163
_cell_formula_units_Z   4
loop_
 _symmetry_equiv_pos_site_id
 _symmetry_equiv_pos_as_xyz
  1  'x, y, z'
loop_
 _atom_site_type_symbol
 _atom_site_label
 _atom_site_symmetry_multiplicity
 _atom_site_fract_x
 _atom_site_fract_y
 _atom_site_fract_z
 _atom_site_occupancy
  Ca  Ca0  1  0.28485129  0.07080011  0.33512904  1
  Ca  Ca1  1  0.71110743  0.90909688  0.69287797  1
  Ca  Ca2  1  0.16032332  0.80180794  0.05972367  1
  Ca  Ca3  1  0.83607834  0.17845418  0.96820544  1
  Cu  Cu4  1  0.38446119  0.26208565  0.61920183  1
  Cu  Cu5  1  0.94232416  0.43844217  0.20179248  1
  Cu  Cu6  1  0.05397364  0.54144046  0.82661272  1
  Cu  Cu7  1  0.61080368  0.71745579  0.40923723  1
  O  O8  1  0.15896457  0.81377611  0.51206305  1
  O  O9  1  0.48131192  0.39602958  0.78309412  1
  O  O10  1  0.51475745  0.58376444  0.24529009  1
  O  O11  1  0.83659140  0.16589937  0.51624709  1
  O  O12  1  0.26229269  0.01654157  0.85481323  1
  O  O13  1  0.38059650  0.29955093  0.14975236  1
  O  O14  1  0.73396264  0.96374430  0.17300157  1
  O  O15  1  0.61587679  0.68044352  0.87857911  1
