# generated using pymatgen
data_CaMg14MnO16
_symmetry_space_group_name_H-M   'P 1'
_cell_length_a   8.62812175
_cell_length_b   8.63997521
_cell_length_c   4.33968894
_cell_angle_alpha   90.00000000
_cell_angle_beta   90.00000000
_cell_angle_gamma   90.00000000
_symmetry_Int_Tables_number   1
_chemical_formula_structural   CaMg14MnO16
_chemical_formula_sum   'Ca1 Mg14 Mn1 O16'
_cell_volume   323.50974133
_cell_formula_units_Z   1
loop_
 _symmetry_equiv_pos_site_id
 _symmetry_equiv_pos_as_xyz
  1  'x, y, z'
loop_
 _atom_site_type_symbol
 _atom_site_label
 _atom_site_symmetry_multiplicity
 _atom_site_fract_x
 _atom_site_fract_y
 _atom_site_fract_z
 _atom_site_occupancy
  Ca  Ca0  1  0.00000000  0.00000000  0.00000000  1
  Mg  Mg1  1  0.50000000  0.00000000  0.00000000  1
  Mg  Mg2  1  0.50000000  0.50000000  0.00000000  1
  Mg  Mg3  1  0.00000000  0.25390568  0.50000000  1
  Mg  Mg4  1  0.00000000  0.74609432  0.50000000  1
  Mg  Mg5  1  0.50000000  0.25064584  0.50000000  1
  Mg  Mg6  1  0.50000000  0.74935416  0.50000000  1
  Mg  Mg7  1  0.25576572  0.00000000  0.50000000  1
  Mg  Mg8  1  0.25244063  0.50000000  0.50000000  1
  Mg  Mg9  1  0.74423428  0.00000000  0.50000000  1
  Mg  Mg10  1  0.74755937  0.50000000  0.50000000  1
  Mg  Mg11  1  0.25442436  0.25245157  0.00000000  1
  Mg  Mg12  1  0.25442436  0.74754843  0.00000000  1
  Mg  Mg13  1  0.74557564  0.25245157  0.00000000  1
  Mg  Mg14  1  0.74557564  0.74754843  0.00000000  1
  Mn  Mn15  1  0.00000000  0.50000000  0.00000000  1
  O  O16  1  0.26390159  0.00000000  0.00000000  1
  O  O17  1  0.26002093  0.50000000  0.00000000  1
  O  O18  1  0.73609841  0.00000000  0.00000000  1
  O  O19  1  0.73997907  0.50000000  0.00000000  1
  O  O20  1  0.24946196  0.25028965  0.50000000  1
  O  O21  1  0.24946196  0.74971035  0.50000000  1
  O  O22  1  0.75053804  0.25028965  0.50000000  1
  O  O23  1  0.75053804  0.74971035  0.50000000  1
  O  O24  1  0.00000000  0.00000000  0.50000000  1
  O  O25  1  0.00000000  0.50000000  0.50000000  1
  O  O26  1  0.50000000  0.00000000  0.50000000  1
  O  O27  1  0.50000000  0.50000000  0.50000000  1
  O  O28  1  0.00000000  0.25707368  0.00000000  1
  O  O29  1  0.00000000  0.74292632  0.00000000  1
  O  O30  1  0.50000000  0.25125362  0.00000000  1
  O  O31  1  0.50000000  0.74874638  0.00000000  1
