# generated using pymatgen
data_Na3IrN2
_symmetry_space_group_name_H-M   'P 1'
_cell_length_a   7.73134609
_cell_length_b   7.03127753
_cell_length_c   11.05423074
_cell_angle_alpha   90.00000000
_cell_angle_beta   131.27813324
_cell_angle_gamma   90.00000000
_symmetry_Int_Tables_number   1
_chemical_formula_structural   Na3IrN2
_chemical_formula_sum   'Na12 Ir4 N8'
_cell_volume   451.60224493
_cell_formula_units_Z   4
loop_
 _symmetry_equiv_pos_site_id
 _symmetry_equiv_pos_as_xyz
  1  'x, y, z'
loop_
 _atom_site_type_symbol
 _atom_site_label
 _atom_site_symmetry_multiplicity
 _atom_site_fract_x
 _atom_site_fract_y
 _atom_site_fract_z
 _atom_site_occupancy
  Na  Na0  1  0.14238879  0.98976352  0.94530015  1
  Na  Na1  1  0.85761121  0.48976352  0.55469985  1
  Na  Na2  1  0.85761121  0.01023648  0.05469985  1
  Na  Na3  1  0.14238879  0.51023648  0.44530015  1
  Na  Na4  1  0.19454229  0.51825115  0.95839263  1
  Na  Na5  1  0.80545771  0.01825115  0.54160737  1
  Na  Na6  1  0.80545771  0.48174885  0.04160737  1
  Na  Na7  1  0.19454229  0.98174885  0.45839263  1
  Na  Na8  1  0.66463137  0.72993592  0.75854040  1
  Na  Na9  1  0.33536863  0.22993592  0.74145960  1
  Na  Na10  1  0.33536863  0.27006408  0.24145960  1
  Na  Na11  1  0.66463137  0.77006408  0.25854040  1
  Ir  Ir12  1  0.26192666  0.79796195  0.75181836  1
  Ir  Ir13  1  0.73807334  0.29796195  0.74818164  1
  Ir  Ir14  1  0.73807334  0.20203805  0.24818164  1
  Ir  Ir15  1  0.26192666  0.70203805  0.25181836  1
  N  N16  1  0.96084578  0.24840675  0.95897922  1
  N  N17  1  0.03915422  0.74840675  0.54102078  1
  N  N18  1  0.03915422  0.75159325  0.04102078  1
  N  N19  1  0.96084578  0.25159325  0.45897922  1
  N  N20  1  0.54043109  0.43422460  0.54863364  1
  N  N21  1  0.45956891  0.93422460  0.95136636  1
  N  N22  1  0.45956891  0.56577540  0.45136636  1
  N  N23  1  0.54043109  0.06577540  0.04863364  1
