# generated using pymatgen
data_CsMn2N3
_symmetry_space_group_name_H-M   'P 1'
_cell_length_a   8.94891459
_cell_length_b   13.42986202
_cell_length_c   9.66984104
_cell_angle_alpha   90.00000000
_cell_angle_beta   116.55031423
_cell_angle_gamma   90.00000000
_symmetry_Int_Tables_number   1
_chemical_formula_structural   CsMn2N3
_chemical_formula_sum   'Cs8 Mn16 N24'
_cell_volume   1039.58995916
_cell_formula_units_Z   8
loop_
 _symmetry_equiv_pos_site_id
 _symmetry_equiv_pos_as_xyz
  1  'x, y, z'
loop_
 _atom_site_type_symbol
 _atom_site_label
 _atom_site_symmetry_multiplicity
 _atom_site_fract_x
 _atom_site_fract_y
 _atom_site_fract_z
 _atom_site_occupancy
  Cs  Cs0  1  0.00000000  0.28707259  0.75000000  1
  Cs  Cs1  1  0.50000000  0.21292741  0.25000000  1
  Cs  Cs2  1  0.50000000  0.13457003  0.75000000  1
  Cs  Cs3  1  0.00000000  0.36542997  0.25000000  1
  Cs  Cs4  1  0.50000000  0.78707259  0.75000000  1
  Cs  Cs5  1  0.00000000  0.71292741  0.25000000  1
  Cs  Cs6  1  0.00000000  0.63457003  0.75000000  1
  Cs  Cs7  1  0.50000000  0.86542997  0.25000000  1
  Mn  Mn8  1  0.13569604  0.99903525  0.84822741  1
  Mn  Mn9  1  0.36430396  0.49903525  0.65177259  1
  Mn  Mn10  1  0.36430396  0.50096475  0.15177259  1
  Mn  Mn11  1  0.13569604  0.00096475  0.34822741  1
  Mn  Mn12  1  0.12450888  0.95412583  0.57954875  1
  Mn  Mn13  1  0.37549112  0.45412583  0.92045125  1
  Mn  Mn14  1  0.37549112  0.54587417  0.42045125  1
  Mn  Mn15  1  0.12450888  0.04587417  0.07954875  1
  Mn  Mn16  1  0.63569604  0.49903525  0.84822741  1
  Mn  Mn17  1  0.86430396  0.99903525  0.65177259  1
  Mn  Mn18  1  0.86430396  0.00096475  0.15177259  1
  Mn  Mn19  1  0.63569604  0.50096475  0.34822741  1
  Mn  Mn20  1  0.62450888  0.45412583  0.57954875  1
  Mn  Mn21  1  0.87549112  0.95412583  0.92045125  1
  Mn  Mn22  1  0.87549112  0.04587417  0.42045125  1
  Mn  Mn23  1  0.62450888  0.54587417  0.07954875  1
  N  N24  1  0.18826819  0.10968307  0.95314979  1
  N  N25  1  0.31173181  0.60968307  0.54685021  1
  N  N26  1  0.31173181  0.39031693  0.04685021  1
  N  N27  1  0.18826819  0.89031693  0.45314979  1
  N  N28  1  0.27118535  0.95943811  0.77434812  1
  N  N29  1  0.22881465  0.45943811  0.72565188  1
  N  N30  1  0.22881465  0.54056189  0.22565188  1
  N  N31  1  0.27118535  0.04056189  0.27434812  1
  N  N32  1  0.40578695  0.42166436  0.52100428  1
  N  N33  1  0.09421305  0.92166436  0.97899572  1
  N  N34  1  0.09421305  0.07833564  0.47899572  1
  N  N35  1  0.40578695  0.57833564  0.02100428  1
  N  N36  1  0.68826819  0.60968307  0.95314979  1
  N  N37  1  0.81173181  0.10968307  0.54685021  1
  N  N38  1  0.81173181  0.89031693  0.04685021  1
  N  N39  1  0.68826819  0.39031693  0.45314979  1
  N  N40  1  0.77118535  0.45943811  0.77434812  1
  N  N41  1  0.72881465  0.95943811  0.72565188  1
  N  N42  1  0.72881465  0.04056189  0.22565188  1
  N  N43  1  0.77118535  0.54056189  0.27434812  1
  N  N44  1  0.90578695  0.92166436  0.52100428  1
  N  N45  1  0.59421305  0.42166436  0.97899572  1
  N  N46  1  0.59421305  0.57833564  0.47899572  1
  N  N47  1  0.90578695  0.07833564  0.02100428  1
