# generated using pymatgen
data_SrMg30ZnO32
_symmetry_space_group_name_H-M   'P 1'
_cell_length_a   8.60695944
_cell_length_b   8.60390132
_cell_length_c   8.60390132
_cell_angle_alpha   90.00000000
_cell_angle_beta   90.00000000
_cell_angle_gamma   90.00000000
_symmetry_Int_Tables_number   1
_chemical_formula_structural   SrMg30ZnO32
_chemical_formula_sum   'Sr1 Mg30 Zn1 O32'
_cell_volume   637.14840143
_cell_formula_units_Z   1
loop_
 _symmetry_equiv_pos_site_id
 _symmetry_equiv_pos_as_xyz
  1  'x, y, z'
loop_
 _atom_site_type_symbol
 _atom_site_label
 _atom_site_symmetry_multiplicity
 _atom_site_fract_x
 _atom_site_fract_y
 _atom_site_fract_z
 _atom_site_occupancy
  Sr  Sr0  1  -0.00000000  0.50000000  0.50000000  1
  Mg  Mg1  1  -0.00000000  -0.00000000  0.50000000  1
  Mg  Mg2  1  -0.00000000  0.50000000  -0.00000000  1
  Mg  Mg3  1  0.50000000  -0.00000000  -0.00000000  1
  Mg  Mg4  1  0.50000000  -0.00000000  0.50000000  1
  Mg  Mg5  1  0.50000000  0.50000000  -0.00000000  1
  Mg  Mg6  1  0.50000000  0.50000000  0.50000000  1
  Mg  Mg7  1  -0.00000000  0.24512608  0.24512608  1
  Mg  Mg8  1  -0.00000000  0.24512608  0.75487392  1
  Mg  Mg9  1  -0.00000000  0.75487392  0.24512608  1
  Mg  Mg10  1  -0.00000000  0.75487392  0.75487392  1
  Mg  Mg11  1  0.50000000  0.24971216  0.24971216  1
  Mg  Mg12  1  0.50000000  0.24971216  0.75028784  1
  Mg  Mg13  1  0.50000000  0.75028784  0.24971216  1
  Mg  Mg14  1  0.50000000  0.75028784  0.75028784  1
  Mg  Mg15  1  0.25019387  -0.00000000  0.24971058  1
  Mg  Mg16  1  0.25019387  -0.00000000  0.75028942  1
  Mg  Mg17  1  0.25474415  0.50000000  0.24510019  1
  Mg  Mg18  1  0.25474415  0.50000000  0.75489981  1
  Mg  Mg19  1  0.74980613  -0.00000000  0.24971058  1
  Mg  Mg20  1  0.74980613  -0.00000000  0.75028942  1
  Mg  Mg21  1  0.74525585  0.50000000  0.24510019  1
  Mg  Mg22  1  0.74525585  0.50000000  0.75489981  1
  Mg  Mg23  1  0.25019387  0.24971058  -0.00000000  1
  Mg  Mg24  1  0.25474415  0.24510019  0.50000000  1
  Mg  Mg25  1  0.25019387  0.75028942  -0.00000000  1
  Mg  Mg26  1  0.25474415  0.75489981  0.50000000  1
  Mg  Mg27  1  0.74980613  0.24971058  -0.00000000  1
  Mg  Mg28  1  0.74525585  0.24510019  0.50000000  1
  Mg  Mg29  1  0.74980613  0.75028942  -0.00000000  1
  Mg  Mg30  1  0.74525585  0.75489981  0.50000000  1
  Zn  Zn31  1  -0.00000000  -0.00000000  -0.00000000  1
  O  O32  1  0.25415768  -0.00000000  -0.00000000  1
  O  O33  1  0.25360891  -0.00000000  0.50000000  1
  O  O34  1  0.25360891  0.50000000  -0.00000000  1
  O  O35  1  0.27022435  0.50000000  0.50000000  1
  O  O36  1  0.74584232  -0.00000000  -0.00000000  1
  O  O37  1  0.74639109  -0.00000000  0.50000000  1
  O  O38  1  0.74639109  0.50000000  -0.00000000  1
  O  O39  1  0.72977565  0.50000000  0.50000000  1
  O  O40  1  0.24932121  0.25020733  0.25020733  1
  O  O41  1  0.24932121  0.25020733  0.74979267  1
  O  O42  1  0.24932121  0.74979267  0.25020733  1
  O  O43  1  0.24932121  0.74979267  0.74979267  1
  O  O44  1  0.75067879  0.25020733  0.25020733  1
  O  O45  1  0.75067879  0.25020733  0.74979267  1
  O  O46  1  0.75067879  0.74979267  0.25020733  1
  O  O47  1  0.75067879  0.74979267  0.74979267  1
  O  O48  1  -0.00000000  -0.00000000  0.24976748  1
  O  O49  1  -0.00000000  -0.00000000  0.75023252  1
  O  O50  1  -0.00000000  0.50000000  0.22990185  1
  O  O51  1  -0.00000000  0.50000000  0.77009815  1
  O  O52  1  0.50000000  -0.00000000  0.24955661  1
  O  O53  1  0.50000000  -0.00000000  0.75044339  1
  O  O54  1  0.50000000  0.50000000  0.24655089  1
  O  O55  1  0.50000000  0.50000000  0.75344911  1
  O  O56  1  -0.00000000  0.24976748  -0.00000000  1
  O  O57  1  -0.00000000  0.22990185  0.50000000  1
  O  O58  1  -0.00000000  0.75023252  -0.00000000  1
  O  O59  1  -0.00000000  0.77009815  0.50000000  1
  O  O60  1  0.50000000  0.24955661  -0.00000000  1
  O  O61  1  0.50000000  0.24655089  0.50000000  1
  O  O62  1  0.50000000  0.75044339  -0.00000000  1
  O  O63  1  0.50000000  0.75344911  0.50000000  1
