# generated using pymatgen
data_YSb(WO4)2
_symmetry_space_group_name_H-M   'P 1'
_cell_length_a   5.41056572
_cell_length_b   5.65853821
_cell_length_c   10.48675653
_cell_angle_alpha   89.99866544
_cell_angle_beta   98.09185860
_cell_angle_gamma   90.00613926
_symmetry_Int_Tables_number   1
_chemical_formula_structural   YSb(WO4)2
_chemical_formula_sum   'Y2 Sb2 W4 O16'
_cell_volume   317.86481889
_cell_formula_units_Z   2
loop_
 _symmetry_equiv_pos_site_id
 _symmetry_equiv_pos_as_xyz
  1  'x, y, z'
loop_
 _atom_site_type_symbol
 _atom_site_label
 _atom_site_symmetry_multiplicity
 _atom_site_fract_x
 _atom_site_fract_y
 _atom_site_fract_z
 _atom_site_occupancy
  Y  Y0  1  0.25005534  0.73907547  0.25003573  1
  Y  Y1  1  0.74994366  0.26092353  0.74996427  1
  Sb  Sb2  1  0.74900177  0.33405074  0.25002011  1
  Sb  Sb3  1  0.25099823  0.66594826  0.74997989  1
  W  W4  1  0.24603140  0.17289428  0.49727171  1
  W  W5  1  0.25339018  0.17267397  0.00255821  1
  W  W6  1  0.75396860  0.82710572  0.50272829  1
  W  W7  1  0.74660982  0.82732603  0.99744179  1
  O  O8  1  0.38190166  0.40222172  0.12999703  1
  O  O9  1  0.11876462  0.40252887  0.37052083  1
  O  O10  1  0.61809834  0.59777728  0.87000297  1
  O  O11  1  0.88123438  0.59747013  0.62947917  1
  O  O12  1  0.50300284  0.93485186  0.61427108  1
  O  O13  1  0.99623813  0.93484020  0.88580973  1
  O  O14  1  0.49699716  0.06514814  0.38572892  1
  O  O15  1  0.00376187  0.06515980  0.11419027  1
  O  O16  1  0.88173610  0.60423942  0.13641486  1
  O  O17  1  0.61793161  0.60404187  0.36344030  1
  O  O18  1  0.11826390  0.39576158  0.86358514  1
  O  O19  1  0.38206839  0.39595913  0.63655970  1
  O  O20  1  0.46731071  0.89874280  0.09912188  1
  O  O21  1  0.53268929  0.10125820  0.90087812  1
  O  O22  1  0.03283766  0.89916311  0.40072046  1
  O  O23  1  0.96716234  0.10083789  0.59927954  1
