# generated using pymatgen
data_Zn3Fe3(AsO4)4
_symmetry_space_group_name_H-M   'P 1'
_cell_length_a   5.28463919
_cell_length_b   8.62645646
_cell_length_c   15.42035970
_cell_angle_alpha   100.78678687
_cell_angle_beta   90.00000000
_cell_angle_gamma   90.00000000
_symmetry_Int_Tables_number   1
_chemical_formula_structural   Zn3Fe3(AsO4)4
_chemical_formula_sum   'Zn6 Fe6 As8 O32'
_cell_volume   690.55755451
_cell_formula_units_Z   2
loop_
 _symmetry_equiv_pos_site_id
 _symmetry_equiv_pos_as_xyz
  1  'x, y, z'
loop_
 _atom_site_type_symbol
 _atom_site_label
 _atom_site_symmetry_multiplicity
 _atom_site_fract_x
 _atom_site_fract_y
 _atom_site_fract_z
 _atom_site_occupancy
  Zn  Zn0  1  0.93982508  0.02318492  0.71520547  1
  Zn  Zn1  1  0.43982508  0.47681508  0.78479453  1
  Zn  Zn2  1  0.06017492  0.97681508  0.28479453  1
  Zn  Zn3  1  0.56017492  0.52318492  0.21520547  1
  Zn  Zn4  1  0.00000000  -0.00000000  -0.00000000  1
  Zn  Zn5  1  0.50000000  0.50000000  0.50000000  1
  Fe  Fe6  1  0.00421156  0.32379555  0.12460160  1
  Fe  Fe7  1  0.99578844  0.67620445  0.87539840  1
  Fe  Fe8  1  0.50421156  0.17620445  0.37539840  1
  Fe  Fe9  1  0.49578844  0.82379555  0.62460160  1
  Fe  Fe10  1  0.50000000  0.50000000  -0.00000000  1
  Fe  Fe11  1  0.00000000  -0.00000000  0.50000000  1
  As  As12  1  0.52139618  0.88294248  0.85192110  1
  As  As13  1  0.00469309  0.30929183  0.89426724  1
  As  As14  1  0.50469309  0.19070817  0.60573276  1
  As  As15  1  0.49530691  0.80929183  0.39426724  1
  As  As16  1  0.47860382  0.11705752  0.14807890  1
  As  As17  1  0.99530691  0.69070817  0.10573276  1
  As  As18  1  0.97860382  0.38294248  0.35192110  1
  As  As19  1  0.02139618  0.61705752  0.64807890  1
  O  O20  1  0.09886075  0.56689763  0.74895485  1
  O  O21  1  0.57016834  0.26347277  0.51161478  1
  O  O22  1  0.09100570  0.19138190  0.79880017  1
  O  O23  1  0.11542442  0.81537783  0.65402684  1
  O  O24  1  0.90899430  0.80861810  0.20119983  1
  O  O25  1  0.40113925  0.06689763  0.24895485  1
  O  O26  1  0.59100570  0.30861810  0.70119983  1
  O  O27  1  0.78961731  0.89504203  0.39529312  1
  O  O28  1  0.81069927  0.50878720  0.42740381  1
  O  O29  1  0.90113925  0.43310237  0.25104515  1
  O  O30  1  0.38457558  0.31537783  0.15402684  1
  O  O31  1  0.21038269  0.10495797  0.60470688  1
  O  O32  1  0.21429935  0.47398448  0.90226247  1
  O  O33  1  0.18930073  0.49121280  0.57259619  1
  O  O34  1  0.79931070  0.11807526  0.12774449  1
  O  O35  1  0.29931070  0.38192474  0.37225551  1
  O  O36  1  0.71429935  0.02601552  0.59773753  1
  O  O37  1  0.40899430  0.69138190  0.29880017  1
  O  O38  1  0.31069927  0.99121280  0.07259619  1
  O  O39  1  0.28961731  0.60495797  0.10470688  1
  O  O40  1  0.70068930  0.61807526  0.62774449  1
  O  O41  1  0.20068930  0.88192474  0.87225551  1
  O  O42  1  0.42983166  0.73652723  0.48838522  1
  O  O43  1  0.07016834  0.23652723  0.98838522  1
  O  O44  1  0.78570065  0.52601552  0.09773753  1
  O  O45  1  0.59886075  0.93310237  0.75104515  1
  O  O46  1  0.88457558  0.18462217  0.34597316  1
  O  O47  1  0.68930073  0.00878720  0.92740381  1
  O  O48  1  0.92983166  0.76347277  0.01161478  1
  O  O49  1  0.71038269  0.39504203  0.89529312  1
  O  O50  1  0.28570065  0.97398448  0.40226247  1
  O  O51  1  0.61542442  0.68462217  0.84597316  1
