# generated using pymatgen
data_Ba2Tl2Zn2Cu3O10
_symmetry_space_group_name_H-M   'P 1'
_cell_length_a   3.77671294
_cell_length_b   3.75612078
_cell_length_c   19.00282162
_cell_angle_alpha   94.83978968
_cell_angle_beta   95.67402848
_cell_angle_gamma   90.03008465
_symmetry_Int_Tables_number   1
_chemical_formula_structural   Ba2Tl2Zn2Cu3O10
_chemical_formula_sum   'Ba2 Tl2 Zn2 Cu3 O10'
_cell_volume   267.28214683
_cell_formula_units_Z   1
loop_
 _symmetry_equiv_pos_site_id
 _symmetry_equiv_pos_as_xyz
  1  'x, y, z'
loop_
 _atom_site_type_symbol
 _atom_site_label
 _atom_site_symmetry_multiplicity
 _atom_site_fract_x
 _atom_site_fract_y
 _atom_site_fract_z
 _atom_site_occupancy
  Ba  Ba0  1  0.10181525  0.16938314  0.27986975  1
  Ba  Ba1  1  0.80504649  0.82935444  0.71962500  1
  Tl  Tl2  1  0.64418435  0.72290217  0.43572602  1
  Tl  Tl3  1  0.20521228  0.27093929  0.56353719  1
  Zn  Zn4  1  0.87127743  0.92212840  0.91357943  1
  Zn  Zn5  1  0.98952014  0.06132696  0.08585084  1
  Cu  Cu6  1  0.35474888  0.38316906  0.84141198  1
  Cu  Cu7  1  0.53295696  0.61493712  0.15802450  1
  Cu  Cu8  1  0.41241145  0.51066064  0.99973183  1
  O  O9  1  0.35393199  0.87342100  0.82053437  1
  O  O10  1  0.29271037  0.31187380  0.67547943  1
  O  O11  1  0.86445144  0.39663562  0.86029292  1
  O  O12  1  0.80631024  0.76554547  0.54975732  1
  O  O13  1  0.92565226  0.53709515  0.02604444  1
  O  O14  1  0.04361249  0.63226576  0.17830366  1
  O  O15  1  0.62996328  0.68383068  0.32378637  1
  O  O16  1  0.51811575  0.10712115  0.13777544  1
  O  O17  1  0.25833063  0.22772607  0.44958148  1
  O  O18  1  0.39083832  0.99764607  0.97205002  1
