# generated using pymatgen
data_LiMg30SbO32
_symmetry_space_group_name_H-M   'P 1'
_cell_length_a   8.57364445
_cell_length_b   8.57495197
_cell_length_c   8.57495197
_cell_angle_alpha   90.00000000
_cell_angle_beta   90.00000000
_cell_angle_gamma   90.00000000
_symmetry_Int_Tables_number   1
_chemical_formula_structural   LiMg30SbO32
_chemical_formula_sum   'Li1 Mg30 Sb1 O32'
_cell_volume   630.41837272
_cell_formula_units_Z   1
loop_
 _symmetry_equiv_pos_site_id
 _symmetry_equiv_pos_as_xyz
  1  'x, y, z'
loop_
 _atom_site_type_symbol
 _atom_site_label
 _atom_site_symmetry_multiplicity
 _atom_site_fract_x
 _atom_site_fract_y
 _atom_site_fract_z
 _atom_site_occupancy
  Li  Li0  1  -0.00000000  0.00000000  0.00000000  1
  Mg  Mg1  1  -0.00000000  0.00000000  0.50000000  1
  Mg  Mg2  1  -0.00000000  0.50000000  0.00000000  1
  Mg  Mg3  1  0.50000000  0.00000000  0.00000000  1
  Mg  Mg4  1  0.50000000  0.00000000  0.50000000  1
  Mg  Mg5  1  0.50000000  0.50000000  0.00000000  1
  Mg  Mg6  1  0.50000000  0.50000000  0.50000000  1
  Mg  Mg7  1  -0.00000000  0.24007497  0.24007497  1
  Mg  Mg8  1  -0.00000000  0.24007497  0.75992503  1
  Mg  Mg9  1  -0.00000000  0.75992503  0.24007497  1
  Mg  Mg10  1  -0.00000000  0.75992503  0.75992503  1
  Mg  Mg11  1  0.50000000  0.24836174  0.24836174  1
  Mg  Mg12  1  0.50000000  0.24836174  0.75163826  1
  Mg  Mg13  1  0.50000000  0.75163826  0.24836174  1
  Mg  Mg14  1  0.50000000  0.75163826  0.75163826  1
  Mg  Mg15  1  0.24768217  0.00000000  0.24604662  1
  Mg  Mg16  1  0.24768217  0.00000000  0.75395338  1
  Mg  Mg17  1  0.25571156  0.50000000  0.24260704  1
  Mg  Mg18  1  0.25571156  0.50000000  0.75739296  1
  Mg  Mg19  1  0.75231783  0.00000000  0.24604662  1
  Mg  Mg20  1  0.75231783  0.00000000  0.75395338  1
  Mg  Mg21  1  0.74428844  0.50000000  0.24260704  1
  Mg  Mg22  1  0.74428844  0.50000000  0.75739296  1
  Mg  Mg23  1  0.24768217  0.24604662  -0.00000000  1
  Mg  Mg24  1  0.25571156  0.24260704  0.50000000  1
  Mg  Mg25  1  0.24768217  0.75395338  -0.00000000  1
  Mg  Mg26  1  0.25571156  0.75739296  0.50000000  1
  Mg  Mg27  1  0.75231783  0.24604662  0.00000000  1
  Mg  Mg28  1  0.74428844  0.24260704  0.50000000  1
  Mg  Mg29  1  0.75231783  0.75395338  0.00000000  1
  Mg  Mg30  1  0.74428844  0.75739296  0.50000000  1
  Sb  Sb31  1  -0.00000000  0.50000000  0.50000000  1
  O  O32  1  0.25701562  0.00000000  -0.00000000  1
  O  O33  1  0.25292177  0.00000000  0.50000000  1
  O  O34  1  0.25292177  0.50000000  0.00000000  1
  O  O35  1  0.26281868  0.50000000  0.50000000  1
  O  O36  1  0.74298438  0.00000000  0.00000000  1
  O  O37  1  0.74707823  0.00000000  0.50000000  1
  O  O38  1  0.74707823  0.50000000  -0.00000000  1
  O  O39  1  0.73718132  0.50000000  0.50000000  1
  O  O40  1  0.24911417  0.25121560  0.25121560  1
  O  O41  1  0.24911417  0.25121560  0.74878440  1
  O  O42  1  0.24911417  0.74878440  0.25121560  1
  O  O43  1  0.24911417  0.74878440  0.74878440  1
  O  O44  1  0.75088583  0.25121560  0.25121560  1
  O  O45  1  0.75088583  0.25121560  0.74878440  1
  O  O46  1  0.75088583  0.74878440  0.25121560  1
  O  O47  1  0.75088583  0.74878440  0.74878440  1
  O  O48  1  -0.00000000  0.00000000  0.25537759  1
  O  O49  1  -0.00000000  0.00000000  0.74462241  1
  O  O50  1  -0.00000000  0.50000000  0.23858609  1
  O  O51  1  -0.00000000  0.50000000  0.76141391  1
  O  O52  1  0.50000000  0.00000000  0.25136298  1
  O  O53  1  0.50000000  0.00000000  0.74863702  1
  O  O54  1  0.50000000  0.50000000  0.24902703  1
  O  O55  1  0.50000000  0.50000000  0.75097297  1
  O  O56  1  -0.00000000  0.25537759  -0.00000000  1
  O  O57  1  -0.00000000  0.23858609  0.50000000  1
  O  O58  1  -0.00000000  0.74462241  -0.00000000  1
  O  O59  1  -0.00000000  0.76141391  0.50000000  1
  O  O60  1  0.50000000  0.25136298  -0.00000000  1
  O  O61  1  0.50000000  0.24902703  0.50000000  1
  O  O62  1  0.50000000  0.74863702  0.00000000  1
  O  O63  1  0.50000000  0.75097297  0.50000000  1
