# generated using pymatgen
data_CaMg
_symmetry_space_group_name_H-M   'P 1'
_cell_length_a   12.42378622
_cell_length_b   3.56370863
_cell_length_c   5.99370950
_cell_angle_alpha   90.00000000
_cell_angle_beta   108.53574236
_cell_angle_gamma   90.00000000
_symmetry_Int_Tables_number   1
_chemical_formula_structural   CaMg
_chemical_formula_sum   'Ca4 Mg4'
_cell_volume   251.60408542
_cell_formula_units_Z   4
loop_
 _symmetry_equiv_pos_site_id
 _symmetry_equiv_pos_as_xyz
  1  'x, y, z'
loop_
 _atom_site_type_symbol
 _atom_site_label
 _atom_site_symmetry_multiplicity
 _atom_site_fract_x
 _atom_site_fract_y
 _atom_site_fract_z
 _atom_site_occupancy
  Ca  Ca0  1  0.60361361  0.50000000  0.81766428  1
  Ca  Ca1  1  0.89638639  0.00000000  0.18233672  1
  Ca  Ca2  1  0.10361361  0.00000000  0.81766428  1
  Ca  Ca3  1  0.39638639  0.50000000  0.18233672  1
  Mg  Mg4  1  0.85173916  0.50000000  0.65455727  1
  Mg  Mg5  1  0.64826084  0.00000000  0.34544273  1
  Mg  Mg6  1  0.35173916  0.00000000  0.65455727  1
  Mg  Mg7  1  0.14826084  0.50000000  0.34544273  1
