# generated using pymatgen
data_Ba2CaCuBi2F14
_symmetry_space_group_name_H-M   'P 1'
_cell_length_a   5.54999807
_cell_length_b   7.73610690
_cell_length_c   16.36709958
_cell_angle_alpha   89.80264640
_cell_angle_beta   90.06518598
_cell_angle_gamma   111.06932675
_symmetry_Int_Tables_number   1
_chemical_formula_structural   Ba2CaCuBi2F14
_chemical_formula_sum   'Ba4 Ca2 Cu2 Bi4 F28'
_cell_volume   655.74365585
_cell_formula_units_Z   2
loop_
 _symmetry_equiv_pos_site_id
 _symmetry_equiv_pos_as_xyz
  1  'x, y, z'
loop_
 _atom_site_type_symbol
 _atom_site_label
 _atom_site_symmetry_multiplicity
 _atom_site_fract_x
 _atom_site_fract_y
 _atom_site_fract_z
 _atom_site_occupancy
  Ba  Ba0  1  0.08764546  0.36829537  0.62544690  1
  Ba  Ba1  1  0.28011194  0.36866227  0.12514854  1
  Ba  Ba2  1  0.91102699  0.63027716  0.37378179  1
  Ba  Ba3  1  0.71657789  0.62931278  0.87456536  1
  Ca  Ca4  1  0.42894516  0.99637639  0.74961690  1
  Ca  Ca5  1  0.56759427  0.99916171  0.24945597  1
  Cu  Cu6  1  0.49787929  0.99818126  0.99951434  1
  Cu  Cu7  1  0.49857940  0.99736444  0.49949011  1
  Bi  Bi8  1  0.05005810  0.21896955  0.87880581  1
  Bi  Bi9  1  0.94636711  0.77899429  0.12025024  1
  Bi  Bi10  1  0.16624983  0.22000227  0.37903742  1
  Bi  Bi11  1  0.83387870  0.77889231  0.62017753  1
  F  F12  1  0.86269934  0.95152358  0.33161970  1
  F  F13  1  0.88418601  0.29675734  0.46069637  1
  F  F14  1  0.11659893  0.70185407  0.53858189  1
  F  F15  1  0.60032983  0.47819102  0.60462663  1
  F  F16  1  0.62903793  0.03903211  0.61181480  1
  F  F17  1  0.58580812  0.95447721  0.88667237  1
  F  F18  1  0.41066672  0.29706058  0.96059454  1
  F  F19  1  0.91093432  0.04859539  0.16783759  1
  F  F20  1  0.36314284  0.33254457  0.78675575  1
  F  F21  1  0.39941779  0.52047043  0.39520633  1
  F  F22  1  0.81046634  0.23984300  0.76491668  1
  F  F23  1  0.11738516  0.51918265  0.89559216  1
  F  F24  1  0.42515036  0.24100972  0.26461069  1
  F  F25  1  0.18590325  0.75686991  0.23377236  1
  F  F26  1  0.41006284  0.04199459  0.11241085  1
  F  F27  1  0.63421788  0.66650142  0.21290160  1
  F  F28  1  0.13866386  0.85088334  0.98659436  1
  F  F29  1  0.13640519  0.04808515  0.66762799  1
  F  F30  1  0.85685390  0.14562283  0.01244297  1
  F  F31  1  0.71103142  0.85132880  0.48619268  1
  F  F32  1  0.58424602  0.70031639  0.03900336  1
  F  F33  1  0.57537565  0.75642697  0.73460279  1
  F  F34  1  0.96257063  0.33242454  0.28667436  1
  F  F35  1  0.28851029  0.14505639  0.51278868  1
  F  F36  1  0.36871959  0.95648263  0.38712046  1
  F  F37  1  0.08644800  0.94978198  0.83141913  1
  F  F38  1  0.04094889  0.66855209  0.71248322  1
  F  F39  1  0.87881577  0.47873050  0.10351077  1
