# generated using pymatgen
data_ZnFe(SiO3)2
_symmetry_space_group_name_H-M   'P 1'
_cell_length_a   5.30559308
_cell_length_b   9.21203759
_cell_length_c   18.62577430
_cell_angle_alpha   90.00000000
_cell_angle_beta   90.00000000
_cell_angle_gamma   90.00000000
_symmetry_Int_Tables_number   1
_chemical_formula_structural   ZnFe(SiO3)2
_chemical_formula_sum   'Zn8 Fe8 Si16 O48'
_cell_volume   910.34073299
_cell_formula_units_Z   8
loop_
 _symmetry_equiv_pos_site_id
 _symmetry_equiv_pos_as_xyz
  1  'x, y, z'
loop_
 _atom_site_type_symbol
 _atom_site_label
 _atom_site_symmetry_multiplicity
 _atom_site_fract_x
 _atom_site_fract_y
 _atom_site_fract_z
 _atom_site_occupancy
  Zn  Zn0  1  0.61665340  0.15021004  0.62457110  1
  Zn  Zn1  1  0.38334660  0.84978996  0.37542890  1
  Zn  Zn2  1  0.61665340  0.65021004  0.87542890  1
  Zn  Zn3  1  0.11665340  0.84978996  0.87542890  1
  Zn  Zn4  1  0.88334660  0.15021004  0.12457110  1
  Zn  Zn5  1  0.38334660  0.34978996  0.12457110  1
  Zn  Zn6  1  0.11665340  0.34978996  0.62457110  1
  Zn  Zn7  1  0.88334660  0.65021004  0.37542890  1
  Fe  Fe8  1  0.37804367  0.99002768  0.12309447  1
  Fe  Fe9  1  0.62195633  0.00997232  0.87690553  1
  Fe  Fe10  1  0.87804367  0.00997232  0.37690553  1
  Fe  Fe11  1  0.12195633  0.99002768  0.62309447  1
  Fe  Fe12  1  0.37804367  0.49002768  0.37690553  1
  Fe  Fe13  1  0.62195633  0.50997232  0.62309447  1
  Fe  Fe14  1  0.87804367  0.50997232  0.12309447  1
  Fe  Fe15  1  0.12195633  0.49002768  0.87690553  1
  Si  Si16  1  0.56526381  0.66152426  0.22818304  1
  Si  Si17  1  0.71162685  0.83494134  0.52531293  1
  Si  Si18  1  0.78837315  0.83494134  0.02531293  1
  Si  Si19  1  0.93473619  0.16152426  0.77181696  1
  Si  Si20  1  0.06526381  0.33847574  0.27181696  1
  Si  Si21  1  0.43473619  0.83847574  0.72818304  1
  Si  Si22  1  0.21162685  0.66505866  0.52531293  1
  Si  Si23  1  0.71162685  0.33494134  0.97468707  1
  Si  Si24  1  0.78837315  0.33494134  0.47468707  1
  Si  Si25  1  0.93473619  0.66152426  0.72818304  1
  Si  Si26  1  0.43473619  0.33847574  0.77181696  1
  Si  Si27  1  0.56526381  0.16152426  0.27181696  1
  Si  Si28  1  0.28837315  0.16505866  0.47468707  1
  Si  Si29  1  0.06526381  0.83847574  0.22818304  1
  Si  Si30  1  0.28837315  0.66505866  0.02531293  1
  Si  Si31  1  0.21162685  0.16505866  0.97468707  1
  O  O32  1  0.92925898  0.50555127  0.68821258  1
  O  O33  1  0.30027298  0.01878922  0.93372599  1
  O  O34  1  0.07074102  0.49444873  0.31178742  1
  O  O35  1  0.71025445  0.33830074  0.06276318  1
  O  O36  1  0.21025445  0.16169926  0.06276318  1
  O  O37  1  0.91905367  0.20763373  0.94899951  1
  O  O38  1  0.94305397  0.66164352  0.81594650  1
  O  O39  1  0.05694603  0.83835648  0.31594650  1
  O  O40  1  0.71025445  0.83830074  0.43723682  1
  O  O41  1  0.94305397  0.16164352  0.68405350  1
  O  O42  1  0.42925898  0.49444873  0.81178742  1
  O  O43  1  0.78974555  0.33830074  0.56276318  1
  O  O44  1  0.69972702  0.98121078  0.06627401  1
  O  O45  1  0.44305397  0.83835648  0.81594650  1
  O  O46  1  0.57074102  0.00555127  0.31178742  1
  O  O47  1  0.30027298  0.51878922  0.56627401  1
  O  O48  1  0.42925898  0.99444873  0.68821258  1
  O  O49  1  0.16690488  0.76515278  0.69873211  1
  O  O50  1  0.33309512  0.76515278  0.19873211  1
  O  O51  1  0.58094633  0.70763373  0.05100049  1
  O  O52  1  0.78974555  0.83830074  0.93723682  1
  O  O53  1  0.55694603  0.66164352  0.31594650  1
  O  O54  1  0.80027298  0.48121078  0.93372599  1
  O  O55  1  0.16690488  0.26515278  0.80126789  1
  O  O56  1  0.28974555  0.16169926  0.56276318  1
  O  O57  1  0.55694603  0.16164352  0.18405350  1
  O  O58  1  0.69972702  0.48121078  0.43372599  1
  O  O59  1  0.21025445  0.66169926  0.43723682  1
  O  O60  1  0.19972702  0.51878922  0.06627401  1
  O  O61  1  0.66690488  0.73484722  0.69873211  1
  O  O62  1  0.07074102  0.99444873  0.18821258  1
  O  O63  1  0.83309512  0.73484722  0.19873211  1
  O  O64  1  0.83309512  0.23484722  0.30126789  1
  O  O65  1  0.80027298  0.98121078  0.56627401  1
  O  O66  1  0.28974555  0.66169926  0.93723682  1
  O  O67  1  0.19972702  0.01878922  0.43372599  1
  O  O68  1  0.33309512  0.26515278  0.30126789  1
  O  O69  1  0.08094633  0.79236627  0.05100049  1
  O  O70  1  0.41905367  0.79236627  0.55100049  1
  O  O71  1  0.66690488  0.23484722  0.80126789  1
  O  O72  1  0.41905367  0.29236627  0.94899951  1
  O  O73  1  0.58094633  0.20763373  0.44899951  1
  O  O74  1  0.08094633  0.29236627  0.44899951  1
  O  O75  1  0.44305397  0.33835648  0.68405350  1
  O  O76  1  0.57074102  0.50555127  0.18821258  1
  O  O77  1  0.91905367  0.70763373  0.55100049  1
  O  O78  1  0.05694603  0.33835648  0.18405350  1
  O  O79  1  0.92925898  0.00555127  0.81178742  1
