# generated using pymatgen
data_TiMnZn(PO4)3
_symmetry_space_group_name_H-M   'P 1'
_cell_length_a   8.55560187
_cell_length_b   8.55560197
_cell_length_c   8.55560251
_cell_angle_alpha   60.64941176
_cell_angle_beta   60.64941548
_cell_angle_gamma   60.64941655
_symmetry_Int_Tables_number   1
_chemical_formula_structural   TiMnZn(PO4)3
_chemical_formula_sum   'Ti2 Mn2 Zn2 P6 O24'
_cell_volume   449.32260363
_cell_formula_units_Z   2
loop_
 _symmetry_equiv_pos_site_id
 _symmetry_equiv_pos_as_xyz
  1  'x, y, z'
loop_
 _atom_site_type_symbol
 _atom_site_label
 _atom_site_symmetry_multiplicity
 _atom_site_fract_x
 _atom_site_fract_y
 _atom_site_fract_z
 _atom_site_occupancy
  Ti  Ti0  1  0.14453446  0.14453446  0.14453446  1
  Ti  Ti1  1  0.64453446  0.64453446  0.64453446  1
  Mn  Mn2  1  0.35552774  0.35552774  0.35552774  1
  Mn  Mn3  1  0.85552774  0.85552774  0.85552774  1
  Zn  Zn4  1  0.99766723  0.99766723  0.99766723  1
  Zn  Zn5  1  0.49766723  0.49766723  0.49766723  1
  P  P6  1  0.04528525  0.45540973  0.75092148  1
  P  P7  1  0.45540973  0.75092148  0.04528525  1
  P  P8  1  0.75092148  0.04528525  0.45540973  1
  P  P9  1  0.25092148  0.95540973  0.54528525  1
  P  P10  1  0.54528525  0.25092148  0.95540973  1
  P  P11  1  0.95540973  0.54528525  0.25092148  1
  O  O12  1  0.11073178  0.50999455  0.31369519  1
  O  O13  1  0.31369519  0.11073178  0.50999455  1
  O  O14  1  0.05390704  0.25903091  0.91419484  1
  O  O15  1  0.50999455  0.31369519  0.11073178  1
  O  O16  1  0.00999455  0.61073178  0.81369519  1
  O  O17  1  0.24052020  0.43704043  0.59039851  1
  O  O18  1  0.25903091  0.91419484  0.05390704  1
  O  O19  1  0.43704043  0.59039851  0.24052020  1
  O  O20  1  0.18649708  0.00427009  0.38036950  1
  O  O21  1  0.59039851  0.24052020  0.43704043  1
  O  O22  1  0.09039851  0.93704043  0.74052020  1
  O  O23  1  0.38036950  0.18649708  0.00427009  1
  O  O24  1  0.61073178  0.81369519  0.00999455  1
  O  O25  1  0.91419484  0.05390704  0.25903091  1
  O  O26  1  0.41419484  0.75903091  0.55390704  1
  O  O27  1  0.81369519  0.00999455  0.61073178  1
  O  O28  1  0.55390704  0.41419484  0.75903091  1
  O  O29  1  0.74052020  0.09039851  0.93704043  1
  O  O30  1  0.75903091  0.55390704  0.41419484  1
  O  O31  1  0.00427009  0.38036950  0.18649708  1
  O  O32  1  0.50427009  0.68649708  0.88036950  1
  O  O33  1  0.93704043  0.74052020  0.09039851  1
  O  O34  1  0.68649708  0.88036950  0.50427009  1
  O  O35  1  0.88036950  0.50427009  0.68649708  1
