# generated using pymatgen
data_TiVZn(PO4)3
_symmetry_space_group_name_H-M   'P 1'
_cell_length_a   8.56588314
_cell_length_b   8.56588295
_cell_length_c   8.56588283
_cell_angle_alpha   60.46238894
_cell_angle_beta   60.46239088
_cell_angle_gamma   60.46239450
_symmetry_Int_Tables_number   1
_chemical_formula_structural   TiVZn(PO4)3
_chemical_formula_sum   'Ti2 V2 Zn2 P6 O24'
_cell_volume   449.07341026
_cell_formula_units_Z   2
loop_
 _symmetry_equiv_pos_site_id
 _symmetry_equiv_pos_as_xyz
  1  'x, y, z'
loop_
 _atom_site_type_symbol
 _atom_site_label
 _atom_site_symmetry_multiplicity
 _atom_site_fract_x
 _atom_site_fract_y
 _atom_site_fract_z
 _atom_site_occupancy
  Ti  Ti0  1  0.14460011  0.14460011  0.14460011  1
  Ti  Ti1  1  0.64460011  0.64460011  0.64460011  1
  V  V2  1  0.35713119  0.35713119  0.35713119  1
  V  V3  1  0.85713119  0.85713119  0.85713119  1
  Zn  Zn4  1  0.99848671  0.99848671  0.99848671  1
  Zn  Zn5  1  0.49848671  0.49848671  0.49848671  1
  P  P6  1  0.04488660  0.45600067  0.75131818  1
  P  P7  1  0.45600067  0.75131818  0.04488660  1
  P  P8  1  0.75131818  0.04488660  0.45600067  1
  P  P9  1  0.25131818  0.95600067  0.54488660  1
  P  P10  1  0.54488660  0.25131818  0.95600067  1
  P  P11  1  0.95600067  0.54488660  0.25131818  1
  O  O12  1  0.11189711  0.50579004  0.31431956  1
  O  O13  1  0.31431956  0.11189711  0.50579004  1
  O  O14  1  0.05420065  0.25935975  0.91465558  1
  O  O15  1  0.50579004  0.31431956  0.11189711  1
  O  O16  1  0.00579004  0.61189711  0.81431956  1
  O  O17  1  0.23995134  0.43737043  0.59058082  1
  O  O18  1  0.25935975  0.91465558  0.05420065  1
  O  O19  1  0.43737043  0.59058082  0.23995134  1
  O  O20  1  0.18746159  0.00158755  0.38039913  1
  O  O21  1  0.59058082  0.23995134  0.43737043  1
  O  O22  1  0.09058082  0.93737043  0.73995134  1
  O  O23  1  0.38039913  0.18746159  0.00158755  1
  O  O24  1  0.61189711  0.81431956  0.00579004  1
  O  O25  1  0.91465558  0.05420065  0.25935975  1
  O  O26  1  0.41465558  0.75935975  0.55420065  1
  O  O27  1  0.81431956  0.00579004  0.61189711  1
  O  O28  1  0.55420065  0.41465558  0.75935975  1
  O  O29  1  0.73995134  0.09058082  0.93737043  1
  O  O30  1  0.75935975  0.55420065  0.41465558  1
  O  O31  1  0.00158755  0.38039913  0.18746159  1
  O  O32  1  0.50158755  0.68746159  0.88039913  1
  O  O33  1  0.93737043  0.73995134  0.09058082  1
  O  O34  1  0.68746159  0.88039913  0.50158755  1
  O  O35  1  0.88039913  0.50158755  0.68746159  1
