# generated using pymatgen
data_CaFe(SiO3)2
_symmetry_space_group_name_H-M   'P 1'
_cell_length_a   5.47404694
_cell_length_b   9.84924116
_cell_length_c   19.04748285
_cell_angle_alpha   90.00000000
_cell_angle_beta   90.00000000
_cell_angle_gamma   90.00000000
_symmetry_Int_Tables_number   1
_chemical_formula_structural   CaFe(SiO3)2
_chemical_formula_sum   'Ca8 Fe8 Si16 O48'
_cell_volume   1026.94900799
_cell_formula_units_Z   8
loop_
 _symmetry_equiv_pos_site_id
 _symmetry_equiv_pos_as_xyz
  1  'x, y, z'
loop_
 _atom_site_type_symbol
 _atom_site_label
 _atom_site_symmetry_multiplicity
 _atom_site_fract_x
 _atom_site_fract_y
 _atom_site_fract_z
 _atom_site_occupancy
  Ca  Ca0  1  0.60932381  0.14470564  0.62190716  1
  Ca  Ca1  1  0.39067619  0.85529436  0.37809284  1
  Ca  Ca2  1  0.60932381  0.64470564  0.87809284  1
  Ca  Ca3  1  0.10932381  0.85529436  0.87809284  1
  Ca  Ca4  1  0.89067619  0.14470564  0.12190716  1
  Ca  Ca5  1  0.39067619  0.35529436  0.12190716  1
  Ca  Ca6  1  0.10932381  0.35529436  0.62190716  1
  Ca  Ca7  1  0.89067619  0.64470564  0.37809284  1
  Fe  Fe8  1  0.38643046  0.99474935  0.12688024  1
  Fe  Fe9  1  0.61356954  0.00525065  0.87311976  1
  Fe  Fe10  1  0.88643046  0.00525065  0.37311976  1
  Fe  Fe11  1  0.11356954  0.99474935  0.62688024  1
  Fe  Fe12  1  0.38643046  0.49474935  0.37311976  1
  Fe  Fe13  1  0.61356954  0.50525065  0.62688024  1
  Fe  Fe14  1  0.88643046  0.50525065  0.12688024  1
  Fe  Fe15  1  0.11356954  0.49474935  0.87311976  1
  Si  Si16  1  0.56328123  0.66701298  0.22567191  1
  Si  Si17  1  0.74714775  0.83037707  0.52578409  1
  Si  Si18  1  0.75285225  0.83037707  0.02578409  1
  Si  Si19  1  0.93671877  0.16701298  0.77432809  1
  Si  Si20  1  0.06328123  0.33298702  0.27432809  1
  Si  Si21  1  0.43671877  0.83298702  0.72567191  1
  Si  Si22  1  0.24714775  0.66962293  0.52578409  1
  Si  Si23  1  0.74714775  0.33037707  0.97421591  1
  Si  Si24  1  0.75285225  0.33037707  0.47421591  1
  Si  Si25  1  0.93671877  0.66701298  0.72567191  1
  Si  Si26  1  0.43671877  0.33298702  0.77432809  1
  Si  Si27  1  0.56328123  0.16701298  0.27432809  1
  Si  Si28  1  0.25285225  0.16962293  0.47421591  1
  Si  Si29  1  0.06328123  0.83298702  0.22567191  1
  Si  Si30  1  0.25285225  0.66962293  0.02578409  1
  Si  Si31  1  0.24714775  0.16962293  0.97421591  1
  O  O32  1  0.91494232  0.52229532  0.68474816  1
  O  O33  1  0.31604284  0.03414198  0.92994539  1
  O  O34  1  0.08505768  0.47770468  0.31525184  1
  O  O35  1  0.75094036  0.34543810  0.05990382  1
  O  O36  1  0.25094036  0.15456190  0.05990382  1
  O  O37  1  0.95989312  0.21423915  0.95356323  1
  O  O38  1  0.95250943  0.65717301  0.81124353  1
  O  O39  1  0.04749057  0.84282699  0.31124353  1
  O  O40  1  0.75094036  0.84543810  0.44009618  1
  O  O41  1  0.95250943  0.15717301  0.68875647  1
  O  O42  1  0.41494232  0.47770468  0.81525184  1
  O  O43  1  0.74905964  0.34543810  0.55990382  1
  O  O44  1  0.68395716  0.96585802  0.07005461  1
  O  O45  1  0.45250943  0.84282699  0.81124353  1
  O  O46  1  0.58505768  0.02229532  0.31525184  1
  O  O47  1  0.31604284  0.53414198  0.57005461  1
  O  O48  1  0.41494232  0.97770468  0.68474816  1
  O  O49  1  0.17999477  0.75446146  0.70021430  1
  O  O50  1  0.32000523  0.75446146  0.20021430  1
  O  O51  1  0.54010688  0.71423915  0.04643677  1
  O  O52  1  0.74905964  0.84543810  0.94009618  1
  O  O53  1  0.54749057  0.65717301  0.31124353  1
  O  O54  1  0.81604284  0.46585802  0.92994539  1
  O  O55  1  0.17999477  0.25446146  0.79978570  1
  O  O56  1  0.24905964  0.15456190  0.55990382  1
  O  O57  1  0.54749057  0.15717301  0.18875647  1
  O  O58  1  0.68395716  0.46585802  0.42994539  1
  O  O59  1  0.25094036  0.65456190  0.44009618  1
  O  O60  1  0.18395716  0.53414198  0.07005461  1
  O  O61  1  0.67999477  0.74553854  0.70021430  1
  O  O62  1  0.08505768  0.97770468  0.18474816  1
  O  O63  1  0.82000523  0.74553854  0.20021430  1
  O  O64  1  0.82000523  0.24553854  0.29978570  1
  O  O65  1  0.81604284  0.96585802  0.57005461  1
  O  O66  1  0.24905964  0.65456190  0.94009618  1
  O  O67  1  0.18395716  0.03414198  0.42994539  1
  O  O68  1  0.32000523  0.25446146  0.29978570  1
  O  O69  1  0.04010688  0.78576085  0.04643677  1
  O  O70  1  0.45989312  0.78576085  0.54643677  1
  O  O71  1  0.67999477  0.24553854  0.79978570  1
  O  O72  1  0.45989312  0.28576085  0.95356323  1
  O  O73  1  0.54010688  0.21423915  0.45356323  1
  O  O74  1  0.04010688  0.28576085  0.45356323  1
  O  O75  1  0.45250943  0.34282699  0.68875647  1
  O  O76  1  0.58505768  0.52229532  0.18474816  1
  O  O77  1  0.95989312  0.71423915  0.54643677  1
  O  O78  1  0.04749057  0.34282699  0.18875647  1
  O  O79  1  0.91494232  0.02229532  0.81525184  1
