# generated using pymatgen
data_CaV2O5
_symmetry_space_group_name_H-M   'P 1'
_cell_length_a   3.81783960
_cell_length_b   5.89916029
_cell_length_c   11.32365793
_cell_angle_alpha   90.00000000
_cell_angle_beta   90.00000000
_cell_angle_gamma   108.88027758
_symmetry_Int_Tables_number   1
_chemical_formula_structural   CaV2O5
_chemical_formula_sum   'Ca2 V4 O10'
_cell_volume   241.31042962
_cell_formula_units_Z   2
loop_
 _symmetry_equiv_pos_site_id
 _symmetry_equiv_pos_as_xyz
  1  'x, y, z'
loop_
 _atom_site_type_symbol
 _atom_site_label
 _atom_site_symmetry_multiplicity
 _atom_site_fract_x
 _atom_site_fract_y
 _atom_site_fract_z
 _atom_site_occupancy
  Ca  Ca0  1  0.89660580  0.79321060  0.75000000  1
  Ca  Ca1  1  0.10339520  0.20679040  0.25000000  1
  V  V2  1  0.20249230  0.40498559  0.59610485  1
  V  V3  1  0.79750870  0.59501541  0.40389415  1
  V  V4  1  0.79750870  0.59501541  0.09610585  1
  V  V5  1  0.20249230  0.40498559  0.90389515  1
  O  O6  1  0.71162715  0.42325431  0.25000000  1
  O  O7  1  0.28837385  0.57674669  0.75000000  1
  O  O8  1  0.24071984  0.48143769  0.07516695  1
  O  O9  1  0.75928216  0.51856331  0.92483305  1
  O  O10  1  0.75928216  0.51856331  0.57516695  1
  O  O11  1  0.24071984  0.48143769  0.42483205  1
  O  O12  1  0.05557111  0.11114121  0.61964280  1
  O  O13  1  0.94442889  0.88885779  0.38035720  1
  O  O14  1  0.05557111  0.11114121  0.88035720  1
  O  O15  1  0.94442889  0.88885779  0.11964380  1
