# generated using pymatgen
data_SrSn(PO4)2
_symmetry_space_group_name_H-M   'P 1'
_cell_length_a   5.69344495
_cell_length_b   7.04855820
_cell_length_c   9.28742969
_cell_angle_alpha   110.70439599
_cell_angle_beta   100.56013401
_cell_angle_gamma   98.08233810
_symmetry_Int_Tables_number   1
_chemical_formula_structural   SrSn(PO4)2
_chemical_formula_sum   'Sr2 Sn2 P4 O16'
_cell_volume   334.07601320
_cell_formula_units_Z   2
loop_
 _symmetry_equiv_pos_site_id
 _symmetry_equiv_pos_as_xyz
  1  'x, y, z'
loop_
 _atom_site_type_symbol
 _atom_site_label
 _atom_site_symmetry_multiplicity
 _atom_site_fract_x
 _atom_site_fract_y
 _atom_site_fract_z
 _atom_site_occupancy
  Sr  Sr0  1  0.24361039  0.76320140  0.03065258  1
  Sr  Sr1  1  0.75638961  0.23679860  0.96934742  1
  Sn  Sn2  1  0.67204633  0.82406004  0.54945837  1
  Sn  Sn3  1  0.32795367  0.17593996  0.45054163  1
  P  P4  1  0.39309686  0.43036913  0.22771543  1
  P  P5  1  0.60690314  0.56963087  0.77228457  1
  P  P6  1  0.83935325  0.03387173  0.30180864  1
  P  P7  1  0.16064675  0.96612827  0.69819136  1
  O  O8  1  0.82584028  0.56167040  0.89050056  1
  O  O9  1  0.63386199  0.47485278  0.18701320  1
  O  O10  1  0.65320407  0.79008145  0.75657911  1
  O  O11  1  0.95628097  0.09752126  0.69720351  1
  O  O12  1  0.36613801  0.52514722  0.81298680  1
  O  O13  1  0.01297397  0.74599598  0.57384758  1
  O  O14  1  0.98702603  0.25400402  0.42615242  1
  O  O15  1  0.28421518  0.99144674  0.86422343  1
  O  O16  1  0.34679593  0.20991855  0.24342089  1
  O  O17  1  0.71578482  0.00855326  0.13577657  1
  O  O18  1  0.17415972  0.43832960  0.10949944  1
  O  O19  1  0.39803536  0.59192618  0.39991144  1
  O  O20  1  0.60196464  0.40807382  0.60008856  1
  O  O21  1  0.62133929  0.96323195  0.37734177  1
  O  O22  1  0.04371903  0.90247874  0.30279649  1
  O  O23  1  0.37866071  0.03676805  0.62265823  1
