# generated using pymatgen
data_CaTa2Bi2O9
_symmetry_space_group_name_H-M   'P 1'
_cell_length_a   3.95475695
_cell_length_b   3.93784216
_cell_length_c   14.85761303
_cell_angle_alpha   111.28096561
_cell_angle_beta   109.37637066
_cell_angle_gamma   90.02396774
_symmetry_Int_Tables_number   1
_chemical_formula_structural   CaTa2Bi2O9
_chemical_formula_sum   'Ca1 Ta2 Bi2 O9'
_cell_volume   201.46068272
_cell_formula_units_Z   1
loop_
 _symmetry_equiv_pos_site_id
 _symmetry_equiv_pos_as_xyz
  1  'x, y, z'
loop_
 _atom_site_type_symbol
 _atom_site_label
 _atom_site_symmetry_multiplicity
 _atom_site_fract_x
 _atom_site_fract_y
 _atom_site_fract_z
 _atom_site_occupancy
  Ca  Ca0  1  0.50000000  0.50000000  -0.00000000  1
  Ta  Ta1  1  0.79093345  0.77821086  0.83983600  1
  Ta  Ta2  1  0.20906655  0.22178914  0.16016400  1
  Bi  Bi3  1  0.16461794  0.14487178  0.40096977  1
  Bi  Bi4  1  0.83538206  0.85512822  0.59903023  1
  O  O5  1  0.62442290  0.58441346  0.69184718  1
  O  O6  1  0.37557710  0.41558654  0.30815282  1
  O  O7  1  0.81966619  0.30729317  0.85754476  1
  O  O8  1  0.25515054  0.74683379  0.50232541  1
  O  O9  1  0.74484946  0.25316621  0.49767459  1
  O  O10  1  0.31992863  0.81465779  0.85819724  1
  O  O11  1  0.18033381  0.69270683  0.14245524  1
  O  O12  1  0.68007137  0.18534221  0.14180276  1
  O  O13  1  -0.00000000  0.00000000  -0.00000000  1
