# generated using pymatgen
data_MgCr(Si2O5)2
_symmetry_space_group_name_H-M   'P 1'
_cell_length_a   7.34417407
_cell_length_b   7.34417407
_cell_length_c   14.92063882
_cell_angle_alpha   90.00000000
_cell_angle_beta   90.00000000
_cell_angle_gamma   90.00000000
_symmetry_Int_Tables_number   1
_chemical_formula_structural   MgCr(Si2O5)2
_chemical_formula_sum   'Mg4 Cr4 Si16 O40'
_cell_volume   804.77289610
_cell_formula_units_Z   4
loop_
 _symmetry_equiv_pos_site_id
 _symmetry_equiv_pos_as_xyz
  1  'x, y, z'
loop_
 _atom_site_type_symbol
 _atom_site_label
 _atom_site_symmetry_multiplicity
 _atom_site_fract_x
 _atom_site_fract_y
 _atom_site_fract_z
 _atom_site_occupancy
  Mg  Mg0  1  0.25000000  0.75000000  0.50000000  1
  Mg  Mg1  1  0.75000000  0.25000000  0.50000000  1
  Mg  Mg2  1  0.75000000  0.25000000  0.00000000  1
  Mg  Mg3  1  0.25000000  0.75000000  0.00000000  1
  Cr  Cr4  1  0.25000000  0.25000000  0.57058228  1
  Cr  Cr5  1  0.75000000  0.75000000  0.92941772  1
  Cr  Cr6  1  0.75000000  0.75000000  0.42941772  1
  Cr  Cr7  1  0.25000000  0.25000000  0.07058228  1
  Si  Si8  1  0.91181943  0.49173815  0.64478541  1
  Si  Si9  1  0.58818057  0.00826185  0.64478541  1
  Si  Si10  1  0.99173815  0.41181943  0.85521459  1
  Si  Si11  1  0.49173815  0.58818057  0.64478541  1
  Si  Si12  1  0.00826185  0.91181943  0.64478541  1
  Si  Si13  1  0.08818057  0.99173815  0.85521459  1
  Si  Si14  1  0.41181943  0.50826185  0.85521459  1
  Si  Si15  1  0.50826185  0.08818057  0.85521459  1
  Si  Si16  1  0.08818057  0.50826185  0.35521459  1
  Si  Si17  1  0.41181943  0.99173815  0.35521459  1
  Si  Si18  1  0.00826185  0.58818057  0.14478541  1
  Si  Si19  1  0.50826185  0.41181943  0.35521459  1
  Si  Si20  1  0.99173815  0.08818057  0.35521459  1
  Si  Si21  1  0.91181943  0.00826185  0.14478541  1
  Si  Si22  1  0.58818057  0.49173815  0.14478541  1
  Si  Si23  1  0.49173815  0.91181943  0.14478541  1
  O  O24  1  0.98124903  0.33721241  0.57561387  1
  O  O25  1  0.51875097  0.16278759  0.57561387  1
  O  O26  1  0.83721241  0.48124903  0.92438613  1
  O  O27  1  0.33721241  0.51875097  0.57561387  1
  O  O28  1  0.16278759  0.98124903  0.57561387  1
  O  O29  1  0.01875097  0.83721241  0.92438613  1
  O  O30  1  0.48124903  0.66278759  0.92438613  1
  O  O31  1  0.66278759  0.01875097  0.92438613  1
  O  O32  1  0.01875097  0.66278759  0.42438613  1
  O  O33  1  0.48124903  0.83721241  0.42438613  1
  O  O34  1  0.16278759  0.51875097  0.07561387  1
  O  O35  1  0.66278759  0.48124903  0.42438613  1
  O  O36  1  0.83721241  0.01875097  0.42438613  1
  O  O37  1  0.98124903  0.16278759  0.07561387  1
  O  O38  1  0.51875097  0.33721241  0.07561387  1
  O  O39  1  0.00162617  0.30738352  0.37495208  1
  O  O40  1  0.33721241  0.98124903  0.07561387  1
  O  O41  1  0.50162617  0.80738352  0.62504792  1
  O  O42  1  0.19261648  0.49837383  0.87495208  1
  O  O43  1  0.69261648  0.50162617  0.62504792  1
  O  O44  1  0.80738352  0.99837383  0.62504792  1
  O  O45  1  0.00162617  0.19261648  0.87495208  1
  O  O46  1  0.49837383  0.30738352  0.87495208  1
  O  O47  1  0.30738352  0.00162617  0.87495208  1
  O  O48  1  0.44627341  0.94627341  0.25000000  1
  O  O49  1  0.55372659  0.44627341  0.25000000  1
  O  O50  1  0.94627341  0.05372759  0.25000000  1
  O  O51  1  0.05372759  0.55372659  0.25000000  1
  O  O52  1  0.55372659  0.05372759  0.75000000  1
  O  O53  1  0.44627341  0.55372659  0.75000000  1
  O  O54  1  0.05372759  0.94627341  0.75000000  1
  O  O55  1  0.94627341  0.44627341  0.75000000  1
  O  O56  1  0.69261648  0.99837383  0.12504792  1
  O  O57  1  0.50162617  0.69261648  0.12504792  1
  O  O58  1  0.99837383  0.80738352  0.12504792  1
  O  O59  1  0.19261648  0.00162617  0.37495208  1
  O  O60  1  0.30738352  0.49837383  0.37495208  1
  O  O61  1  0.80738352  0.50162617  0.12504792  1
  O  O62  1  0.49837383  0.19261648  0.37495208  1
  O  O63  1  0.99837383  0.69261648  0.62504792  1
