# generated using pymatgen
data_CaMn2O4
_symmetry_space_group_name_H-M   'P 1'
_cell_length_a   5.16379149
_cell_length_b   6.21302775
_cell_length_c   11.17854363
_cell_angle_alpha   89.84215146
_cell_angle_beta   89.83040101
_cell_angle_gamma   92.95690140
_symmetry_Int_Tables_number   1
_chemical_formula_structural   CaMn2O4
_chemical_formula_sum   'Ca4 Mn8 O16'
_cell_volume   358.15818184
_cell_formula_units_Z   4
loop_
 _symmetry_equiv_pos_site_id
 _symmetry_equiv_pos_as_xyz
  1  'x, y, z'
loop_
 _atom_site_type_symbol
 _atom_site_label
 _atom_site_symmetry_multiplicity
 _atom_site_fract_x
 _atom_site_fract_y
 _atom_site_fract_z
 _atom_site_occupancy
  Ca  Ca0  1  0.86761258  0.23211510  0.75082162  1
  Ca  Ca1  1  0.13239521  0.76797676  0.24920219  1
  Ca  Ca2  1  0.50628948  0.28258853  0.24920803  1
  Ca  Ca3  1  0.49366479  0.71749512  0.75076900  1
  Mn  Mn4  1  0.50322666  0.75332365  0.48599726  1
  Mn  Mn5  1  0.50710044  0.75326804  0.01365149  1
  Mn  Mn6  1  0.49670012  0.24664788  0.51398620  1
  Mn  Mn7  1  0.49301035  0.24669411  0.98632901  1
  Mn  Mn8  1  0.99997550  0.49997276  0.49997791  1
  Mn  Mn9  1  0.00003202  0.99996486  0.00002112  1
  Mn  Mn10  1  0.99994186  0.99998483  0.50001434  1
  Mn  Mn11  1  0.00006281  0.49996694  0.00003178  1
  O  O12  1  0.83083792  0.77563478  0.40094313  1
  O  O13  1  0.83158561  0.71493118  0.09711640  1
  O  O14  1  0.16907696  0.22436658  0.59905831  1
  O  O15  1  0.16850148  0.28503548  0.90291478  1
  O  O16  1  0.20012044  0.72184469  0.58947851  1
  O  O17  1  0.20260102  0.77595630  0.91283756  1
  O  O18  1  0.79980417  0.27810819  0.41048704  1
  O  O19  1  0.79746941  0.22402809  0.08717579  1
  O  O20  1  0.68465111  0.47378024  0.60926745  1
  O  O21  1  0.69142057  0.96301883  0.89809810  1
  O  O22  1  0.32006838  0.03036266  0.39778176  1
  O  O23  1  0.32092628  0.53073605  0.10802677  1
  O  O24  1  0.31527556  0.52624260  0.39067999  1
  O  O25  1  0.30866155  0.03698254  0.10190906  1
  O  O26  1  0.67978270  0.96966592  0.60223184  1
  O  O27  1  0.67920401  0.46930530  0.89198556  1
