# generated using pymatgen
data_Mn3P3O13
_symmetry_space_group_name_H-M   'P 1'
_cell_length_a   6.21814306
_cell_length_b   7.43618442
_cell_length_c   10.47021133
_cell_angle_alpha   99.44951269
_cell_angle_beta   90.00000000
_cell_angle_gamma   90.00000000
_symmetry_Int_Tables_number   1
_chemical_formula_structural   Mn3P3O13
_chemical_formula_sum   'Mn6 P6 O26'
_cell_volume   477.56541579
_cell_formula_units_Z   2
loop_
 _symmetry_equiv_pos_site_id
 _symmetry_equiv_pos_as_xyz
  1  'x, y, z'
loop_
 _atom_site_type_symbol
 _atom_site_label
 _atom_site_symmetry_multiplicity
 _atom_site_fract_x
 _atom_site_fract_y
 _atom_site_fract_z
 _atom_site_occupancy
  Mn  Mn0  1  0.25000000  0.36813658  0.19681139  1
  Mn  Mn1  1  0.75000000  0.63186342  0.80318861  1
  Mn  Mn2  1  0.25000000  0.76568133  0.44743433  1
  Mn  Mn3  1  0.50000000  0.00000000  0.00000000  1
  Mn  Mn4  1  0.75000000  0.23431867  0.55256567  1
  Mn  Mn5  1  0.00000000  0.00000000  0.00000000  1
  P  P6  1  0.25000000  0.21322306  0.47371674  1
  P  P7  1  0.75000000  0.78677694  0.52628326  1
  P  P8  1  0.25000000  0.73939065  0.76822214  1
  P  P9  1  0.75000000  0.26060935  0.23177786  1
  P  P10  1  0.75000000  0.30664151  0.88328056  1
  P  P11  1  0.25000000  0.69335849  0.11671944  1
  O  O12  1  0.75000000  0.35158121  0.74121956  1
  O  O13  1  0.55359903  0.74068958  0.43524118  1
  O  O14  1  0.25000000  0.80266653  0.63752436  1
  O  O15  1  0.54499537  0.20265209  0.91099783  1
  O  O16  1  0.75000000  0.64839286  0.62306166  1
  O  O17  1  0.75000000  0.87461992  0.89984003  1
  O  O18  1  0.25000000  0.35160714  0.37693834  1
  O  O19  1  0.04499537  0.79734791  0.08900217  1
  O  O20  1  0.25000000  0.01889958  0.40014938  1
  O  O21  1  0.75000000  0.98110042  0.59985062  1
  O  O22  1  0.05446910  0.62773571  0.79729893  1
  O  O23  1  0.25000000  0.12538008  0.10015997  1
  O  O24  1  0.55446810  0.37226429  0.20270107  1
  O  O25  1  0.75000000  0.50864192  0.95348996  1
  O  O26  1  0.75000000  0.19733347  0.36247564  1
  O  O27  1  0.45500463  0.79734791  0.08900217  1
  O  O28  1  0.94640097  0.74068958  0.43524118  1
  O  O29  1  0.44640097  0.25931042  0.56475882  1
  O  O30  1  0.44553190  0.62773571  0.79729893  1
  O  O31  1  0.25000000  0.64841879  0.25878044  1
  O  O32  1  0.75000000  0.07982863  0.12179781  1
  O  O33  1  0.25000000  0.92017137  0.87820219  1
  O  O34  1  0.94553190  0.37226429  0.20270107  1
  O  O35  1  0.95500463  0.20265209  0.91099783  1
  O  O36  1  0.05359903  0.25931042  0.56475882  1
  O  O37  1  0.25000000  0.49135808  0.04651004  1
