# generated using pymatgen
data_BaCaMnF7
_symmetry_space_group_name_H-M   'P 1'
_cell_length_a   5.89036597
_cell_length_b   9.89806702
_cell_length_c   10.53821648
_cell_angle_alpha   90.00000000
_cell_angle_beta   90.00000000
_cell_angle_gamma   92.77816379
_symmetry_Int_Tables_number   1
_chemical_formula_structural   BaCaMnF7
_chemical_formula_sum   'Ba4 Ca4 Mn4 F28'
_cell_volume   613.69000497
_cell_formula_units_Z   4
loop_
 _symmetry_equiv_pos_site_id
 _symmetry_equiv_pos_as_xyz
  1  'x, y, z'
loop_
 _atom_site_type_symbol
 _atom_site_label
 _atom_site_symmetry_multiplicity
 _atom_site_fract_x
 _atom_site_fract_y
 _atom_site_fract_z
 _atom_site_occupancy
  Ba  Ba0  1  0.27940555  0.50694531  0.32662575  1
  Ba  Ba1  1  0.72059445  0.99305469  0.82662575  1
  Ba  Ba2  1  0.72059445  0.49305469  0.67337425  1
  Ba  Ba3  1  0.27940555  0.00694531  0.17337425  1
  Ca  Ca4  1  0.70584939  0.82391965  0.41364412  1
  Ca  Ca5  1  0.29415061  0.67608035  0.91364412  1
  Ca  Ca6  1  0.70584939  0.32391965  0.08635588  1
  Ca  Ca7  1  0.29415061  0.17608035  0.58635588  1
  Mn  Mn8  1  0.19115884  0.80356863  0.62123328  1
  Mn  Mn9  1  0.80884116  0.19643137  0.37876672  1
  Mn  Mn10  1  0.19115884  0.30356863  0.87876672  1
  Mn  Mn11  1  0.80884116  0.69643137  0.12123328  1
  F  F12  1  0.11799115  0.10293051  0.41165552  1
  F  F13  1  0.33986798  0.36338510  0.03005022  1
  F  F14  1  0.48089220  0.72864788  0.71913978  1
  F  F15  1  0.51910780  0.27135212  0.28086022  1
  F  F16  1  0.91134749  0.35560721  0.46173592  1
  F  F17  1  0.28686644  0.47179675  0.80233303  1
  F  F18  1  0.02486340  0.74008830  0.77092244  1
  F  F19  1  0.08865251  0.14439279  0.96173592  1
  F  F20  1  0.33986798  0.86338510  0.46994978  1
  F  F21  1  0.51910780  0.77135212  0.21913978  1
  F  F22  1  0.11799115  0.60293051  0.08834448  1
  F  F23  1  0.88200885  0.89706949  0.58834448  1
  F  F24  1  0.97513660  0.75991170  0.27092244  1
  F  F25  1  0.38719889  0.88436918  0.96079297  1
  F  F26  1  0.08865251  0.64439279  0.53826408  1
  F  F27  1  0.91134749  0.85560721  0.03826408  1
  F  F28  1  0.97513660  0.25991170  0.22907756  1
  F  F29  1  0.88200885  0.39706949  0.91165552  1
  F  F30  1  0.61280111  0.61563082  0.46079297  1
  F  F31  1  0.66013202  0.63661490  0.96994978  1
  F  F32  1  0.61280111  0.11563082  0.03920703  1
  F  F33  1  0.02486340  0.24008830  0.72907756  1
  F  F34  1  0.38719889  0.38436918  0.53920703  1
  F  F35  1  0.71313356  0.02820325  0.30233303  1
  F  F36  1  0.71313356  0.52820325  0.19766697  1
  F  F37  1  0.28686644  0.97179675  0.69766697  1
  F  F38  1  0.66013202  0.13661490  0.53005022  1
  F  F39  1  0.48089220  0.22864788  0.78086022  1
