# generated using pymatgen
data_Ca2Ni9O13
_symmetry_space_group_name_H-M   'P 1'
_cell_length_a   3.01324480
_cell_length_b   5.14758623
_cell_length_c   16.55238577
_cell_angle_alpha   98.72172727
_cell_angle_beta   90.00848282
_cell_angle_gamma   106.95520509
_symmetry_Int_Tables_number   1
_chemical_formula_structural   Ca2Ni9O13
_chemical_formula_sum   'Ca2 Ni9 O13'
_cell_volume   242.47594045
_cell_formula_units_Z   1
loop_
 _symmetry_equiv_pos_site_id
 _symmetry_equiv_pos_as_xyz
  1  'x, y, z'
loop_
 _atom_site_type_symbol
 _atom_site_label
 _atom_site_symmetry_multiplicity
 _atom_site_fract_x
 _atom_site_fract_y
 _atom_site_fract_z
 _atom_site_occupancy
  Ca  Ca0  1  0.21663334  0.43229093  0.23065799  1
  Ca  Ca1  1  0.78336666  0.56770907  0.76934201  1
  Ni  Ni2  1  0.50000000  0.00000000  0.50000000  1
  Ni  Ni3  1  0.64637801  0.29396717  0.03838894  1
  Ni  Ni4  1  0.35362199  0.70603283  0.96161106  1
  Ni  Ni5  1  0.75211506  0.50435946  0.42168823  1
  Ni  Ni6  1  0.24788494  0.49564054  0.57831177  1
  Ni  Ni7  1  0.94096899  0.88103814  0.12013027  1
  Ni  Ni8  1  0.05903101  0.11896186  0.87986973  1
  Ni  Ni9  1  0.99846584  0.99583848  0.33955645  1
  Ni  Ni10  1  0.00153416  0.00416152  0.66044355  1
  O  O11  1  0.00000000  0.00000000  0.00000000  1
  O  O12  1  0.88933222  0.77924656  0.22918636  1
  O  O13  1  0.11066778  0.22075344  0.77081364  1
  O  O14  1  0.29347014  0.58624710  0.06989418  1
  O  O15  1  0.70652986  0.41375290  0.93010582  1
  O  O16  1  0.57971079  0.15980590  0.14002995  1
  O  O17  1  0.42028921  0.84019410  0.85997005  1
  O  O18  1  0.62597319  0.25184759  0.32049516  1
  O  O19  1  0.37402681  0.74815241  0.67950484  1
  O  O20  1  0.37958774  0.75983865  0.38722723  1
  O  O21  1  0.62041226  0.24016135  0.61277277  1
  O  O22  1  0.13011734  0.26021951  0.46554932  1
  O  O23  1  0.86988266  0.73978049  0.53445068  1
