# generated using pymatgen
data_MgCr2O4
_symmetry_space_group_name_H-M   'P 1'
_cell_length_a   5.98481726
_cell_length_b   5.98476532
_cell_length_c   17.99076983
_cell_angle_alpha   60.05815994
_cell_angle_beta   60.06081101
_cell_angle_gamma   59.99737260
_symmetry_Int_Tables_number   1
_chemical_formula_structural   MgCr2O4
_chemical_formula_sum   'Mg6 Cr12 O24'
_cell_volume   456.05164623
_cell_formula_units_Z   6
loop_
 _symmetry_equiv_pos_site_id
 _symmetry_equiv_pos_as_xyz
  1  'x, y, z'
loop_
 _atom_site_type_symbol
 _atom_site_label
 _atom_site_symmetry_multiplicity
 _atom_site_fract_x
 _atom_site_fract_y
 _atom_site_fract_z
 _atom_site_occupancy
  Mg  Mg0  1  0.12002450  0.12001745  0.04662828  1
  Mg  Mg1  1  0.12488897  0.12488840  0.37511500  1
  Mg  Mg2  1  0.49570663  0.49569316  0.00428882  1
  Mg  Mg3  1  0.12531079  0.12531531  0.70802990  1
  Mg  Mg4  1  0.87700775  0.87700058  0.28965601  1
  Mg  Mg5  1  0.87545520  0.87545922  0.62454832  1
  Cr  Cr6  1  0.00202116  0.49849772  0.16700474  1
  Cr  Cr7  1  0.49845179  0.49846263  0.16700234  1
  Cr  Cr8  1  0.00080648  0.50046311  0.49942888  1
  Cr  Cr9  1  0.49848568  0.00201754  0.16700231  1
  Cr  Cr10  1  0.50055726  0.50052445  0.33278921  1
  Cr  Cr11  1  0.50046040  0.50047749  0.49943145  1
  Cr  Cr12  1  0.00305207  0.49964717  0.83253458  1
  Cr  Cr13  1  0.50045064  0.00079690  0.49943533  1
  Cr  Cr14  1  0.49965694  0.00305403  0.83252780  1
  Cr  Cr15  1  0.50115401  0.50115181  0.66552132  1
  Cr  Cr16  1  0.49963144  0.49963982  0.83255068  1
  Cr  Cr17  1  0.87730190  0.87725022  0.95601516  1
  O  O18  1  0.25511098  0.25512892  0.09023878  1
  O  O19  1  0.26014010  0.26014866  0.23985901  1
  O  O20  1  0.25514920  0.71900773  0.09023767  1
  O  O21  1  0.71901266  0.25515146  0.09023918  1
  O  O22  1  0.28399253  0.73778760  0.24680229  1
  O  O23  1  0.26048551  0.26048987  0.42069017  1
  O  O24  1  0.73779979  0.28399128  0.24679844  1
  O  O25  1  0.74134812  0.74148960  0.09202017  1
  O  O26  1  0.26051053  0.71694618  0.42068123  1
  O  O27  1  0.26080030  0.26079381  0.57254415  1
  O  O28  1  0.73780392  0.73779532  0.24680523  1
  O  O29  1  0.71695530  0.26049848  0.42068366  1
  O  O30  1  0.28280862  0.73887256  0.57982085  1
  O  O31  1  0.26169471  0.26169524  0.75337043  1
  O  O32  1  0.73887303  0.28281444  0.57982263  1
  O  O33  1  0.73946407  0.73946833  0.42720660  1
  O  O34  1  0.26084443  0.26083870  0.90582169  1
  O  O35  1  0.26167743  0.71651092  0.75337546  1
  O  O36  1  0.73888307  0.73888471  0.57981880  1
  O  O37  1  0.71651002  0.26167847  0.75337562  1
  O  O38  1  0.27277536  0.74923119  0.90955587  1
  O  O39  1  0.73834719  0.73833553  0.76164673  1
  O  O40  1  0.74920150  0.27273761  0.90960203  1
  O  O41  1  0.74938602  0.74934736  0.90947316  1
