# generated using pymatgen
data_Mo3P3O13
_symmetry_space_group_name_H-M   'P 1'
_cell_length_a   6.59412735
_cell_length_b   7.67918876
_cell_length_c   10.99055990
_cell_angle_alpha   98.96204184
_cell_angle_beta   90.00000000
_cell_angle_gamma   90.00000000
_symmetry_Int_Tables_number   1
_chemical_formula_structural   Mo3P3O13
_chemical_formula_sum   'Mo6 P6 O26'
_cell_volume   549.74069895
_cell_formula_units_Z   2
loop_
 _symmetry_equiv_pos_site_id
 _symmetry_equiv_pos_as_xyz
  1  'x, y, z'
loop_
 _atom_site_type_symbol
 _atom_site_label
 _atom_site_symmetry_multiplicity
 _atom_site_fract_x
 _atom_site_fract_y
 _atom_site_fract_z
 _atom_site_occupancy
  Mo  Mo0  1  0.25000000  0.36978693  0.20321568  1
  Mo  Mo1  1  0.75000000  0.63021307  0.79678432  1
  Mo  Mo2  1  0.25000000  0.77027048  0.44982562  1
  Mo  Mo3  1  0.50000000  -0.00000000  0.00000000  1
  Mo  Mo4  1  0.75000000  0.22972952  0.55017438  1
  Mo  Mo5  1  0.00000000  -0.00000000  0.00000000  1
  P  P6  1  0.25000000  0.21145858  0.47943610  1
  P  P7  1  0.75000000  0.78854142  0.52056390  1
  P  P8  1  0.25000000  0.74381341  0.76888106  1
  P  P9  1  0.75000000  0.25618659  0.23111894  1
  P  P10  1  0.75000000  0.30808871  0.88149615  1
  P  P11  1  0.25000000  0.69191129  0.11850385  1
  O  O12  1  0.75000000  0.34100540  0.74401724  1
  O  O13  1  0.56319144  0.74437954  0.44023148  1
  O  O14  1  0.25000000  0.80623781  0.64542765  1
  O  O15  1  0.55826110  0.20613946  0.90952218  1
  O  O16  1  0.75000000  0.65983307  0.62088537  1
  O  O17  1  0.75000000  0.87620578  0.91340220  1
  O  O18  1  0.25000000  0.34016693  0.37911463  1
  O  O19  1  0.05826110  0.79386054  0.09047782  1
  O  O20  1  0.25000000  0.02247283  0.40602860  1
  O  O21  1  0.75000000  0.97752717  0.59397140  1
  O  O22  1  0.05942267  0.63778534  0.79207839  1
  O  O23  1  0.25000000  0.12379422  0.08659780  1
  O  O24  1  0.55942267  0.36221466  0.20792161  1
  O  O25  1  0.75000000  0.50247133  0.94900421  1
  O  O26  1  0.75000000  0.19376219  0.35457235  1
  O  O27  1  0.44173890  0.79386054  0.09047782  1
  O  O28  1  0.93680856  0.74437954  0.44023148  1
  O  O29  1  0.43680856  0.25562046  0.55976852  1
  O  O30  1  0.44057733  0.63778534  0.79207839  1
  O  O31  1  0.25000000  0.65899460  0.25598276  1
  O  O32  1  0.75000000  0.08709954  0.12342986  1
  O  O33  1  0.25000000  0.91290046  0.87657014  1
  O  O34  1  0.94057733  0.36221466  0.20792161  1
  O  O35  1  0.94173890  0.20613946  0.90952218  1
  O  O36  1  0.06319144  0.25562046  0.55976852  1
  O  O37  1  0.25000000  0.49752867  0.05099579  1
