# generated using pymatgen
data_Zn(SbO2)4
_symmetry_space_group_name_H-M   'P 1'
_cell_length_a   3.25596592
_cell_length_b   8.71987425
_cell_length_c   10.32627221
_cell_angle_alpha   58.65414790
_cell_angle_beta   69.84936031
_cell_angle_gamma   73.64799715
_symmetry_Int_Tables_number   1
_chemical_formula_structural   Zn(SbO2)4
_chemical_formula_sum   'Zn1 Sb4 O8'
_cell_volume   233.13914906
_cell_formula_units_Z   1
loop_
 _symmetry_equiv_pos_site_id
 _symmetry_equiv_pos_as_xyz
  1  'x, y, z'
loop_
 _atom_site_type_symbol
 _atom_site_label
 _atom_site_symmetry_multiplicity
 _atom_site_fract_x
 _atom_site_fract_y
 _atom_site_fract_z
 _atom_site_occupancy
  Zn  Zn0  1  0.18584122  0.20637863  0.17474129  1
  Sb  Sb1  1  0.67585702  0.17967939  0.51448235  1
  Sb  Sb2  1  0.15434624  0.60630727  0.18817609  1
  Sb  Sb3  1  0.83117604  0.43639697  0.86978714  1
  Sb  Sb4  1  0.41277400  0.80960449  0.52853102  1
  O  O5  1  0.82540171  0.69620558  0.69317987  1
  O  O6  1  0.48102883  0.38804735  0.76618211  1
  O  O7  1  0.51731483  0.61718181  0.31049756  1
  O  O8  1  0.22215719  0.33147610  0.31164131  1
  O  O9  1  0.18851851  0.99204921  0.61826413  1
  O  O10  1  0.80945063  0.19795546  0.06195964  1
  O  O11  1  0.91063168  0.02826902  0.39556549  1
  O  O12  1  0.16366510  0.50108673  0.97578398  1
