# generated using pymatgen
data_Ta2Zn2CrO8
_symmetry_space_group_name_H-M   'P 1'
_cell_length_a   5.29808263
_cell_length_b   5.99921823
_cell_length_c   10.23003147
_cell_angle_alpha   106.56518633
_cell_angle_beta   91.40432909
_cell_angle_gamma   90.26351778
_symmetry_Int_Tables_number   1
_chemical_formula_structural   Ta2Zn2CrO8
_chemical_formula_sum   'Ta4 Zn4 Cr2 O16'
_cell_volume   311.54331697
_cell_formula_units_Z   2
loop_
 _symmetry_equiv_pos_site_id
 _symmetry_equiv_pos_as_xyz
  1  'x, y, z'
loop_
 _atom_site_type_symbol
 _atom_site_label
 _atom_site_symmetry_multiplicity
 _atom_site_fract_x
 _atom_site_fract_y
 _atom_site_fract_z
 _atom_site_occupancy
  Ta  Ta0  1  0.72748562  0.27196942  0.23422057  1
  Ta  Ta1  1  0.76940500  0.03655189  0.76625168  1
  Ta  Ta2  1  0.26861672  0.72519101  0.76614803  1
  Ta  Ta3  1  0.22680437  0.96141020  0.23416659  1
  Zn  Zn4  1  0.76543059  0.43434714  0.56307828  1
  Zn  Zn5  1  0.73019089  0.87065155  0.43736039  1
  Zn  Zn6  1  0.23065045  0.56278357  0.43708018  1
  Zn  Zn7  1  0.26595118  0.12667120  0.56269466  1
  Cr  Cr8  1  0.74598381  0.64914575  0.00002812  1
  Cr  Cr9  1  0.24585930  0.34931621  0.00109377  1
  O  O10  1  0.05790639  0.18893944  0.14561858  1
  O  O11  1  0.44033965  0.03492063  0.85346224  1
  O  O12  1  0.93887922  0.81061418  0.85431672  1
  O  O13  1  0.55634471  0.96035552  0.14643743  1
  O  O14  1  0.57724522  0.42249544  0.11731643  1
  O  O15  1  0.91784807  0.30270604  0.88262626  1
  O  O16  1  0.41414696  0.57237961  0.88392887  1
  O  O17  1  0.07326464  0.69853018  0.11827262  1
  O  O18  1  0.42885660  0.28231749  0.35848491  1
  O  O19  1  0.06725644  0.92291827  0.64192005  1
  O  O20  1  0.35629503  0.84037940  0.38809390  1
  O  O21  1  0.13945032  0.45190269  0.61208596  1
  O  O22  1  0.63964242  0.15627838  0.61170374  1
  O  O23  1  0.85643498  0.54555668  0.38799257  1
  O  O24  1  0.92883047  0.07501458  0.35826201  1
  O  O25  1  0.56705896  0.71427152  0.64176941  1
