# generated using pymatgen
data_Ca2Mn9O13
_symmetry_space_group_name_H-M   'P 1'
_cell_length_a   3.16303406
_cell_length_b   5.41608314
_cell_length_c   17.17977865
_cell_angle_alpha   98.60371370
_cell_angle_beta   90.27554208
_cell_angle_gamma   106.14376899
_symmetry_Int_Tables_number   1
_chemical_formula_structural   Ca2Mn9O13
_chemical_formula_sum   'Ca2 Mn9 O13'
_cell_volume   279.19038649
_cell_formula_units_Z   1
loop_
 _symmetry_equiv_pos_site_id
 _symmetry_equiv_pos_as_xyz
  1  'x, y, z'
loop_
 _atom_site_type_symbol
 _atom_site_label
 _atom_site_symmetry_multiplicity
 _atom_site_fract_x
 _atom_site_fract_y
 _atom_site_fract_z
 _atom_site_occupancy
  Ca  Ca0  1  0.22906439  0.44925146  0.23047688  1
  Ca  Ca1  1  0.77093561  0.55074854  0.76952312  1
  Mn  Mn2  1  0.50000000  0.00000000  0.50000000  1
  Mn  Mn3  1  0.64849062  0.29694085  0.04005906  1
  Mn  Mn4  1  0.35150938  0.70305915  0.95994094  1
  Mn  Mn5  1  0.75505014  0.50791306  0.41967322  1
  Mn  Mn6  1  0.24494986  0.49208694  0.58032678  1
  Mn  Mn7  1  0.94510397  0.88467394  0.12303693  1
  Mn  Mn8  1  0.05489603  0.11532606  0.87696307  1
  Mn  Mn9  1  0.99827914  0.99051723  0.33255896  1
  Mn  Mn10  1  0.00172086  0.00948277  0.66744104  1
  O  O11  1  0.00000000  0.00000000  -0.00000000  1
  O  O12  1  0.87998638  0.76000320  0.22650292  1
  O  O13  1  0.12001362  0.23999680  0.77349708  1
  O  O14  1  0.29642194  0.59280932  0.06729359  1
  O  O15  1  0.70357806  0.40719068  0.93270641  1
  O  O16  1  0.59168043  0.17629901  0.14100705  1
  O  O17  1  0.40831957  0.82370099  0.85899295  1
  O  O18  1  0.63545530  0.26854614  0.32093742  1
  O  O19  1  0.36454470  0.73145386  0.67906258  1
  O  O20  1  0.38664022  0.75843205  0.38639340  1
  O  O21  1  0.61335978  0.24156795  0.61360660  1
  O  O22  1  0.13214057  0.27451130  0.46933152  1
  O  O23  1  0.86785943  0.72548870  0.53066848  1
