# generated using pymatgen
data_Nb2VZn2O8
_symmetry_space_group_name_H-M   'P 1'
_cell_length_a   5.31344441
_cell_length_b   5.96255360
_cell_length_c   10.20663837
_cell_angle_alpha   106.95958116
_cell_angle_beta   89.67362031
_cell_angle_gamma   90.01302583
_symmetry_Int_Tables_number   1
_chemical_formula_structural   Nb2VZn2O8
_chemical_formula_sum   'Nb4 V2 Zn4 O16'
_cell_volume   309.29542381
_cell_formula_units_Z   2
loop_
 _symmetry_equiv_pos_site_id
 _symmetry_equiv_pos_as_xyz
  1  'x, y, z'
loop_
 _atom_site_type_symbol
 _atom_site_label
 _atom_site_symmetry_multiplicity
 _atom_site_fract_x
 _atom_site_fract_y
 _atom_site_fract_z
 _atom_site_occupancy
  Nb  Nb0  1  0.73622092  0.27462237  0.23036656  1
  Nb  Nb1  1  0.76504016  0.04429214  0.76756437  1
  Nb  Nb2  1  0.26489913  0.72429775  0.76766816  1
  Nb  Nb3  1  0.23607123  0.95520409  0.23050881  1
  V  V4  1  0.75086478  0.64662827  0.99912673  1
  V  V5  1  0.25081249  0.35261634  0.99902642  1
  Zn  Zn6  1  0.76846563  0.43478178  0.56073982  1
  Zn  Zn7  1  0.73325223  0.87209572  0.43789943  1
  Zn  Zn8  1  0.23332283  0.56523623  0.43760992  1
  Zn  Zn9  1  0.26862245  0.12684963  0.56062350  1
  O  O10  1  0.07386812  0.18579250  0.14021019  1
  O  O11  1  0.42715135  0.04536905  0.85736824  1
  O  O12  1  0.92723534  0.81308972  0.85754363  1
  O  O13  1  0.57388635  0.95386088  0.14037642  1
  O  O14  1  0.59550717  0.43167413  0.11546411  1
  O  O15  1  0.90641047  0.31580100  0.88236529  1
  O  O16  1  0.40634019  0.56772268  0.88256126  1
  O  O17  1  0.09544233  0.68317042  0.11573204  1
  O  O18  1  0.43585152  0.28278380  0.35587634  1
  O  O19  1  0.06449636  0.92587414  0.64160260  1
  O  O20  1  0.36502554  0.84082461  0.38770889  1
  O  O21  1  0.13667609  0.45225283  0.61073671  1
  O  O22  1  0.63662578  0.15943324  0.61066562  1
  O  O23  1  0.86494638  0.54639677  0.38754734  1
  O  O24  1  0.93592076  0.07251886  0.35588612  1
  O  O25  1  0.56466339  0.71682707  0.64164145  1
