# generated using pymatgen
data_EuGe3
_symmetry_space_group_name_H-M   'P 1'
_cell_length_a   5.13129251
_cell_length_b   6.28017152
_cell_length_c   6.28017152
_cell_angle_alpha   120.01501633
_cell_angle_beta   90.00000000
_cell_angle_gamma   90.00000000
_symmetry_Int_Tables_number   1
_chemical_formula_structural   EuGe3
_chemical_formula_sum   'Eu2 Ge6'
_cell_volume   175.24057870
_cell_formula_units_Z   2
loop_
 _symmetry_equiv_pos_site_id
 _symmetry_equiv_pos_as_xyz
  1  'x, y, z'
loop_
 _atom_site_type_symbol
 _atom_site_label
 _atom_site_symmetry_multiplicity
 _atom_site_fract_x
 _atom_site_fract_y
 _atom_site_fract_z
 _atom_site_occupancy
  Eu  Eu0  1  0.25000000  0.66668923  0.33331077  1
  Eu  Eu1  1  0.75000000  0.33331077  0.66668923  1
  Ge  Ge2  1  0.75000000  0.85871998  0.71735192  1
  Ge  Ge3  1  0.75000000  0.85868166  0.14131834  1
  Ge  Ge4  1  0.75000000  0.28264808  0.14128002  1
  Ge  Ge5  1  0.25000000  0.14128002  0.28264808  1
  Ge  Ge6  1  0.25000000  0.14131834  0.85868166  1
  Ge  Ge7  1  0.25000000  0.71735192  0.85871998  1
