# generated using pymatgen
data_ZnFeO2
_symmetry_space_group_name_H-M   'P 1'
_cell_length_a   3.09294886
_cell_length_b   8.03014099
_cell_length_c   8.71133365
_cell_angle_alpha   89.65271745
_cell_angle_beta   73.78080081
_cell_angle_gamma   89.27708919
_symmetry_Int_Tables_number   1
_chemical_formula_structural   ZnFeO2
_chemical_formula_sum   'Zn4 Fe4 O8'
_cell_volume   207.73335703
_cell_formula_units_Z   4
loop_
 _symmetry_equiv_pos_site_id
 _symmetry_equiv_pos_as_xyz
  1  'x, y, z'
loop_
 _atom_site_type_symbol
 _atom_site_label
 _atom_site_symmetry_multiplicity
 _atom_site_fract_x
 _atom_site_fract_y
 _atom_site_fract_z
 _atom_site_occupancy
  Zn  Zn0  1  0.38929275  0.06970655  0.28070724  1
  Zn  Zn1  1  0.60745255  0.91014688  0.74751142  1
  Zn  Zn2  1  0.13106184  0.73675223  0.11982783  1
  Zn  Zn3  1  0.86316795  0.24338231  0.90833234  1
  Fe  Fe4  1  0.44717508  0.24654358  0.58715476  1
  Fe  Fe5  1  0.06241312  0.40262587  0.23303377  1
  Fe  Fe6  1  0.93360419  0.57731679  0.79521574  1
  Fe  Fe7  1  0.54958215  0.73287392  0.44106547  1
  O  O8  1  0.93148928  0.72958915  0.59189810  1
  O  O9  1  0.46632539  0.38296654  0.79182929  1
  O  O10  1  0.52989817  0.59711426  0.23614857  1
  O  O11  1  0.06503631  0.25029530  0.43632181  1
  O  O12  1  0.09453688  0.06625696  0.75074973  1
  O  O13  1  0.66818185  0.25588240  0.13361622  1
  O  O14  1  0.90177522  0.91366849  0.27766671  1
  O  O15  1  0.32728226  0.72421378  0.89454098  1
