# generated using pymatgen
data_Sr6Ca2Mn3(FeO4)5
_symmetry_space_group_name_H-M   'P 1'
_cell_length_a   11.13542448
_cell_length_b   11.29314439
_cell_length_c   17.65648528
_cell_angle_alpha   108.63284216
_cell_angle_beta   108.55429442
_cell_angle_gamma   89.79743464
_symmetry_Int_Tables_number   1
_chemical_formula_structural   Sr6Ca2Mn3(FeO4)5
_chemical_formula_sum   'Sr24 Ca8 Mn12 Fe20 O80'
_cell_volume   1982.69633190
_cell_formula_units_Z   4
loop_
 _symmetry_equiv_pos_site_id
 _symmetry_equiv_pos_as_xyz
  1  'x, y, z'
loop_
 _atom_site_type_symbol
 _atom_site_label
 _atom_site_symmetry_multiplicity
 _atom_site_fract_x
 _atom_site_fract_y
 _atom_site_fract_z
 _atom_site_occupancy
  Sr  Sr0  1  0.30758435  0.05900041  0.60841479  1
  Sr  Sr1  1  0.30782681  0.55925248  0.60887098  1
  Sr  Sr2  1  0.80785361  0.05984037  0.60911970  1
  Sr  Sr3  1  0.80851703  0.55871298  0.60993896  1
  Sr  Sr4  1  0.19543045  0.43545401  0.38921577  1
  Sr  Sr5  1  0.19998672  0.44191467  0.89347209  1
  Sr  Sr6  1  0.19733814  0.93819714  0.38922350  1
  Sr  Sr7  1  0.69715356  0.43829698  0.38962426  1
  Sr  Sr8  1  0.70037713  0.44180903  0.89358253  1
  Sr  Sr9  1  0.69757916  0.93927492  0.38930478  1
  Sr  Sr10  1  0.70097458  0.94114458  0.89366227  1
  Sr  Sr11  1  0.05673449  0.29394379  0.10970923  1
  Sr  Sr12  1  0.05777848  0.29950065  0.60866445  1
  Sr  Sr13  1  0.05841582  0.80098031  0.60991046  1
  Sr  Sr14  1  0.55736483  0.29963495  0.60827652  1
  Sr  Sr15  1  0.55706624  0.80041694  0.11010475  1
  Sr  Sr16  1  0.55785614  0.80046336  0.60847123  1
  Sr  Sr17  1  0.44579186  0.19896084  0.38811461  1
  Sr  Sr18  1  0.45041890  0.20267394  0.89361661  1
  Sr  Sr19  1  0.44410414  0.69941836  0.38709188  1
  Sr  Sr20  1  0.44947625  0.70207467  0.89351179  1
  Sr  Sr21  1  0.94628556  0.19784482  0.38623303  1
  Sr  Sr22  1  0.94962173  0.20154188  0.89327185  1
  Sr  Sr23  1  0.94549496  0.70149882  0.38817790  1
  Ca  Ca24  1  0.30148841  0.06300110  0.10421187  1
  Ca  Ca25  1  0.29929361  0.56422184  0.10536123  1
  Ca  Ca26  1  0.80362826  0.06128779  0.10571388  1
  Ca  Ca27  1  0.79996263  0.56681210  0.10464854  1
  Ca  Ca28  1  0.20277176  0.93940333  0.89824679  1
  Ca  Ca29  1  0.05626349  0.78865055  0.10369939  1
  Ca  Ca30  1  0.55311161  0.28767590  0.10387597  1
  Ca  Ca31  1  0.95370947  0.70941118  0.89785380  1
  Mn  Mn32  1  0.11338743  0.09527884  0.75360196  1
  Mn  Mn33  1  0.11009112  0.60251383  0.75354000  1
  Mn  Mn34  1  0.60635756  0.09536764  0.24677341  1
  Mn  Mn35  1  0.61268299  0.09658364  0.75211562  1
  Mn  Mn36  1  0.61537410  0.59850500  0.75206817  1
  Mn  Mn37  1  0.35886002  0.40133180  0.24624631  1
  Mn  Mn38  1  0.36254057  0.40554349  0.75211382  1
  Mn  Mn39  1  0.35205753  0.90423796  0.24473579  1
  Mn  Mn40  1  0.35946349  0.90498536  0.75323282  1
  Mn  Mn41  1  0.86335524  0.40860281  0.75358098  1
  Mn  Mn42  1  0.86096699  0.89979665  0.24691705  1
  Mn  Mn43  1  0.86567867  0.90016578  0.75251092  1
  Fe  Fe44  1  0.00763753  -0.00004632  0.00286746  1
  Fe  Fe45  1  0.00324393  0.00019693  0.49913047  1
  Fe  Fe46  1  0.00553197  0.50243558  0.00274935  1
  Fe  Fe47  1  0.00308553  0.50008269  0.50011437  1
  Fe  Fe48  1  0.50511885  0.00136640  0.00251683  1
  Fe  Fe49  1  0.50293664  0.00033844  0.49936003  1
  Fe  Fe50  1  0.50768020  0.50294145  0.00649740  1
  Fe  Fe51  1  0.50313005  0.50070354  0.49943560  1
  Fe  Fe52  1  0.25592450  0.25154931  0.00265075  1
  Fe  Fe53  1  0.25401929  0.25017550  0.50051237  1
  Fe  Fe54  1  0.25420597  0.75194564  0.00193801  1
  Fe  Fe55  1  0.25266408  0.74996451  0.50001023  1
  Fe  Fe56  1  0.75702402  0.25253774  0.00578917  1
  Fe  Fe57  1  0.75302834  0.24961118  0.49914944  1
  Fe  Fe58  1  0.75774025  0.75227956  0.00305164  1
  Fe  Fe59  1  0.75394065  0.75026848  0.50029553  1
  Fe  Fe60  1  0.10656944  0.08254323  0.24395886  1
  Fe  Fe61  1  0.10354668  0.58852239  0.24546387  1
  Fe  Fe62  1  0.60439734  0.58444942  0.24433066  1
  Fe  Fe63  1  0.85089435  0.40685391  0.24421442  1
  O  O64  1  0.12469017  0.12357564  0.49347025  1
  O  O65  1  0.12822323  0.11753114  0.99033999  1
  O  O66  1  0.12287407  0.62175879  0.49192142  1
  O  O67  1  0.12166301  0.62520542  0.99146548  1
  O  O68  1  0.62508471  0.12381608  0.49531817  1
  O  O69  1  0.62706097  0.12636855  0.99845835  1
  O  O70  1  0.62428854  0.62333763  0.49263991  1
  O  O71  1  0.62759589  0.62194622  0.99406300  1
  O  O72  1  0.13646125  0.38293236  0.01244486  1
  O  O73  1  0.12959250  0.37607739  0.50398046  1
  O  O74  1  0.13393771  0.87859704  0.01087117  1
  O  O75  1  0.12935934  0.87582461  0.50350303  1
  O  O76  1  0.63643773  0.38098103  0.01680375  1
  O  O77  1  0.62968220  0.37745506  0.50428614  1
  O  O78  1  0.63602154  0.88100247  0.01029284  1
  O  O79  1  0.62858557  0.87553523  0.50235885  1
  O  O80  1  0.37423614  0.12182259  0.49377896  1
  O  O81  1  0.37546342  0.12124151  0.99490158  1
  O  O82  1  0.37339442  0.62194252  0.49306983  1
  O  O83  1  0.37530594  0.62094772  0.99745607  1
  O  O84  1  0.87505024  0.12214400  0.49496973  1
  O  O85  1  0.87654726  0.11972108  0.99546234  1
  O  O86  1  0.87325099  0.62017375  0.49115010  1
  O  O87  1  0.87975510  0.62485033  0.99597889  1
  O  O88  1  0.38786416  0.38399907  0.01652552  1
  O  O89  1  0.38012132  0.37839844  0.50432051  1
  O  O90  1  0.37937605  0.88510511  0.00945986  1
  O  O91  1  0.38007160  0.87778525  0.50439773  1
  O  O92  1  0.88251128  0.38689163  0.01450743  1
  O  O93  1  0.87901168  0.37722432  0.50247283  1
  O  O94  1  0.88821953  0.88231589  0.01390314  1
  O  O95  1  0.88015987  0.87809098  0.50469134  1
  O  O96  1  0.09786510  0.09501499  0.13906088  1
  O  O97  1  0.07885783  0.08036256  0.63768537  1
  O  O98  1  0.09206820  0.60341056  0.14026155  1
  O  O99  1  0.07046229  0.58316460  0.63582666  1
  O  O100  1  0.58063673  0.09127170  0.13567645  1
  O  O101  1  0.57548634  0.08263098  0.63623501  1
  O  O102  1  0.59403888  0.60090960  0.14049100  1
  O  O103  1  0.57573685  0.58459418  0.63563627  1
  O  O104  1  0.43857390  0.41957086  0.36155992  1
  O  O105  1  0.44088523  0.41479392  0.86708552  1
  O  O106  1  0.43388809  0.92135918  0.36090502  1
  O  O107  1  0.44454251  0.91645346  0.86714712  1
  O  O108  1  0.93564181  0.40699502  0.35578775  1
  O  O109  1  0.93987254  0.41230475  0.86699117  1
  O  O110  1  0.93956537  0.91940480  0.36314453  1
  O  O111  1  0.94472265  0.90649193  0.86626576  1
  O  O112  1  0.32743715  0.28922676  0.13631939  1
  O  O113  1  0.32519810  0.30322794  0.63619247  1
  O  O114  1  0.32484417  0.79102842  0.13549247  1
  O  O115  1  0.32073679  0.80334485  0.63666888  1
  O  O116  1  0.83544226  0.28084315  0.14096526  1
  O  O117  1  0.82941130  0.30806393  0.63751218  1
  O  O118  1  0.82877297  0.78983581  0.13549882  1
  O  O119  1  0.82568716  0.80135740  0.63507682  1
  O  O120  1  0.19058813  0.19542501  0.35579145  1
  O  O121  1  0.19259610  0.20535015  0.86664994  1
  O  O122  1  0.18546019  0.70142523  0.35690763  1
  O  O123  1  0.19382406  0.70900656  0.86670074  1
  O  O124  1  0.68284164  0.19529243  0.36263373  1
  O  O125  1  0.69020063  0.20118954  0.86736075  1
  O  O126  1  0.68830246  0.69777294  0.35509335  1
  O  O127  1  0.69780679  0.70105311  0.86640395  1
  O  O128  1  0.43025550  0.05921176  0.23930804  1
  O  O129  1  0.44062956  0.06181541  0.75152245  1
  O  O130  1  0.43017849  0.55675492  0.23903379  1
  O  O131  1  0.44466097  0.56440035  0.75226509  1
  O  O132  1  0.93439987  0.05728417  0.23917075  1
  O  O133  1  0.94209088  0.06253504  0.75209451  1
  O  O134  1  0.92520407  0.55895705  0.23862008  1
  O  O135  1  0.94091244  0.57568162  0.76023429  1
  O  O136  1  0.18232941  0.43593202  0.24828211  1
  O  O137  1  0.19167750  0.44283968  0.75202708  1
  O  O138  1  0.17424517  0.92174722  0.24078840  1
  O  O139  1  0.19034263  0.93333778  0.75999464  1
  O  O140  1  0.67344326  0.42408953  0.23997452  1
  O  O141  1  0.69147526  0.43598724  0.75097272  1
  O  O142  1  0.69103269  0.94029208  0.24873264  1
  O  O143  1  0.69483518  0.93841188  0.75201883  1
