# generated using pymatgen
data_B2Mo3
_symmetry_space_group_name_H-M   'P 1'
_cell_length_a   3.14376371
_cell_length_b   6.06520858
_cell_length_c   6.06520858
_cell_angle_alpha   90.00000000
_cell_angle_beta   90.00000000
_cell_angle_gamma   90.00000000
_symmetry_Int_Tables_number   1
_chemical_formula_structural   B2Mo3
_chemical_formula_sum   'B4 Mo6'
_cell_volume   115.64886575
_cell_formula_units_Z   2
loop_
 _symmetry_equiv_pos_site_id
 _symmetry_equiv_pos_as_xyz
  1  'x, y, z'
loop_
 _atom_site_type_symbol
 _atom_site_label
 _atom_site_symmetry_multiplicity
 _atom_site_fract_x
 _atom_site_fract_y
 _atom_site_fract_z
 _atom_site_occupancy
  B  B0  1  0.00000000  0.61203308  0.11203308  1
  B  B1  1  -0.00000000  0.38796692  0.88796692  1
  B  B2  1  -0.00000000  0.88796692  0.61203308  1
  B  B3  1  0.00000000  0.11203308  0.38796692  1
  Mo  Mo4  1  -0.00000000  0.50000000  0.50000000  1
  Mo  Mo5  1  -0.00000000  0.00000000  0.00000000  1
  Mo  Mo6  1  0.50000000  0.17174319  0.67174319  1
  Mo  Mo7  1  0.50000000  0.82825681  0.32825681  1
  Mo  Mo8  1  0.50000000  0.32825681  0.17174319  1
  Mo  Mo9  1  0.50000000  0.67174319  0.82825681  1
