# generated using pymatgen
data_EuTl3
_symmetry_space_group_name_H-M   'P 1'
_cell_length_a   5.43028985
_cell_length_b   7.23362752
_cell_length_c   7.23362752
_cell_angle_alpha   119.55236918
_cell_angle_beta   90.00000000
_cell_angle_gamma   90.00000000
_symmetry_Int_Tables_number   1
_chemical_formula_structural   EuTl3
_chemical_formula_sum   'Eu2 Tl6'
_cell_volume   247.17653937
_cell_formula_units_Z   2
loop_
 _symmetry_equiv_pos_site_id
 _symmetry_equiv_pos_as_xyz
  1  'x, y, z'
loop_
 _atom_site_type_symbol
 _atom_site_label
 _atom_site_symmetry_multiplicity
 _atom_site_fract_x
 _atom_site_fract_y
 _atom_site_fract_z
 _atom_site_occupancy
  Eu  Eu0  1  0.75000000  0.66660569  0.33339431  1
  Eu  Eu1  1  0.25000000  0.33339431  0.66660569  1
  Tl  Tl2  1  0.75000000  0.16632156  0.32829445  1
  Tl  Tl3  1  0.75000000  0.16394909  0.83605091  1
  Tl  Tl4  1  0.75000000  0.67170555  0.83367844  1
  Tl  Tl5  1  0.25000000  0.83367844  0.67170555  1
  Tl  Tl6  1  0.25000000  0.83605091  0.16394909  1
  Tl  Tl7  1  0.25000000  0.32829445  0.16632156  1
