# generated using pymatgen
data_MgZn5
_symmetry_space_group_name_H-M   'P 1'
_cell_length_a   4.56867279
_cell_length_b   2.88821710
_cell_length_c   14.66001238
_cell_angle_alpha   90.00000000
_cell_angle_beta   90.00000000
_cell_angle_gamma   90.00000000
_symmetry_Int_Tables_number   1
_chemical_formula_structural   MgZn5
_chemical_formula_sum   'Mg2 Zn10'
_cell_volume   193.44353809
_cell_formula_units_Z   2
loop_
 _symmetry_equiv_pos_site_id
 _symmetry_equiv_pos_as_xyz
  1  'x, y, z'
loop_
 _atom_site_type_symbol
 _atom_site_label
 _atom_site_symmetry_multiplicity
 _atom_site_fract_x
 _atom_site_fract_y
 _atom_site_fract_z
 _atom_site_occupancy
  Mg  Mg0  1  0.50000000  0.50000000  0.72234379  1
  Mg  Mg1  1  0.50000000  0.00000000  0.22234379  1
  Zn  Zn2  1  0.00000000  0.00000000  0.99945295  1
  Zn  Zn3  1  0.00000000  0.00000000  0.66230537  1
  Zn  Zn4  1  0.00000000  0.50000000  0.83640557  1
  Zn  Zn5  1  0.50000000  -0.00000000  0.89384480  1
  Zn  Zn6  1  0.50000000  -0.00000000  0.55231451  1
  Zn  Zn7  1  0.00000000  0.50000000  0.49945295  1
  Zn  Zn8  1  -0.00000000  0.50000000  0.16230537  1
  Zn  Zn9  1  0.00000000  0.00000000  0.33640557  1
  Zn  Zn10  1  0.50000000  0.50000000  0.39384480  1
  Zn  Zn11  1  0.50000000  0.50000000  0.05231451  1
