# generated using pymatgen
data_Na2Zn2S3
_symmetry_space_group_name_H-M   'P 1'
_cell_length_a   7.45737824
_cell_length_b   7.45737824
_cell_length_c   11.27325982
_cell_angle_alpha   90.00000000
_cell_angle_beta   90.00000000
_cell_angle_gamma   90.00000000
_symmetry_Int_Tables_number   1
_chemical_formula_structural   Na2Zn2S3
_chemical_formula_sum   'Na8 Zn8 S12'
_cell_volume   626.93405142
_cell_formula_units_Z   4
loop_
 _symmetry_equiv_pos_site_id
 _symmetry_equiv_pos_as_xyz
  1  'x, y, z'
loop_
 _atom_site_type_symbol
 _atom_site_label
 _atom_site_symmetry_multiplicity
 _atom_site_fract_x
 _atom_site_fract_y
 _atom_site_fract_z
 _atom_site_occupancy
  Na  Na0  1  0.96523415  0.24465867  0.39659893  1
  Na  Na1  1  0.03476585  0.75534133  0.89659893  1
  Na  Na2  1  0.74465867  0.53476585  0.64659893  1
  Na  Na3  1  0.25534133  0.46523415  0.14659893  1
  Na  Na4  1  0.75534133  0.03476585  0.10340107  1
  Na  Na5  1  0.24465867  0.96523415  0.60340107  1
  Na  Na6  1  0.53476585  0.74465867  0.35340107  1
  Na  Na7  1  0.46523415  0.25534133  0.85340107  1
  Zn  Zn8  1  0.23721764  0.95178901  0.13494764  1
  Zn  Zn9  1  0.76278236  0.04821099  0.63494764  1
  Zn  Zn10  1  0.45178901  0.26278236  0.38494764  1
  Zn  Zn11  1  0.54821099  0.73721764  0.88494764  1
  Zn  Zn12  1  0.04821099  0.76278236  0.36505236  1
  Zn  Zn13  1  0.95178901  0.23721764  0.86505236  1
  Zn  Zn14  1  0.26278236  0.45178901  0.61505236  1
  Zn  Zn15  1  0.73721764  0.54821099  0.11505236  1
  S  S16  1  0.51814790  0.24005258  0.58887264  1
  S  S17  1  0.48185210  0.75994742  0.08887264  1
  S  S18  1  0.74005258  0.98185210  0.83887264  1
  S  S19  1  0.25994742  0.01814790  0.33887264  1
  S  S20  1  0.75994742  0.48185210  0.91112736  1
  S  S21  1  0.24005258  0.51814790  0.41112736  1
  S  S22  1  0.98185210  0.74005258  0.16112736  1
  S  S23  1  0.01814790  0.25994742  0.66112736  1
  S  S24  1  0.67853277  0.32146723  0.25000000  1
  S  S25  1  0.32146723  0.67853277  0.75000000  1
  S  S26  1  0.82146723  0.82146723  0.50000000  1
  S  S27  1  0.17853277  0.17853277  -0.00000000  1
