# generated using pymatgen
data_Y2Mg
_symmetry_space_group_name_H-M   'P 1'
_cell_length_a   12.66148131
_cell_length_b   3.58232637
_cell_length_c   8.06835952
_cell_angle_alpha   90.00000000
_cell_angle_beta   105.01635422
_cell_angle_gamma   90.00000000
_symmetry_Int_Tables_number   1
_chemical_formula_structural   Y2Mg
_chemical_formula_sum   'Y8 Mg4'
_cell_volume   353.46421616
_cell_formula_units_Z   4
loop_
 _symmetry_equiv_pos_site_id
 _symmetry_equiv_pos_as_xyz
  1  'x, y, z'
loop_
 _atom_site_type_symbol
 _atom_site_label
 _atom_site_symmetry_multiplicity
 _atom_site_fract_x
 _atom_site_fract_y
 _atom_site_fract_z
 _atom_site_occupancy
  Y  Y0  1  0.17639703  0.00000000  0.12420506  1
  Y  Y1  1  0.36036112  0.50000000  0.46053105  1
  Y  Y2  1  0.13963888  0.00000000  0.53946895  1
  Y  Y3  1  0.32360297  0.50000000  0.87579494  1
  Y  Y4  1  0.67639703  0.50000000  0.12420506  1
  Y  Y5  1  0.86036112  0.00000000  0.46053105  1
  Y  Y6  1  0.63963888  0.50000000  0.53946895  1
  Y  Y7  1  0.82360297  -0.00000000  0.87579494  1
  Mg  Mg8  1  0.47182563  0.00000000  0.20366704  1
  Mg  Mg9  1  0.02817437  0.50000000  0.79633296  1
  Mg  Mg10  1  0.97182563  0.50000000  0.20366704  1
  Mg  Mg11  1  0.52817437  -0.00000000  0.79633296  1
