# generated using pymatgen
data_Ba2Ca2Tl2Fe3O10
_symmetry_space_group_name_H-M   'P 1'
_cell_length_a   3.98786955
_cell_length_b   3.96159931
_cell_length_c   18.60019664
_cell_angle_alpha   95.88002330
_cell_angle_beta   96.05126226
_cell_angle_gamma   89.99643345
_symmetry_Int_Tables_number   1
_chemical_formula_structural   Ba2Ca2Tl2Fe3O10
_chemical_formula_sum   'Ba2 Ca2 Tl2 Fe3 O10'
_cell_volume   290.66031710
_cell_formula_units_Z   1
loop_
 _symmetry_equiv_pos_site_id
 _symmetry_equiv_pos_as_xyz
  1  'x, y, z'
loop_
 _atom_site_type_symbol
 _atom_site_label
 _atom_site_symmetry_multiplicity
 _atom_site_fract_x
 _atom_site_fract_y
 _atom_site_fract_z
 _atom_site_occupancy
  Ba  Ba0  1  0.09211246  0.16268784  0.28671813  1
  Ba  Ba1  1  0.79178123  0.83664418  0.71232371  1
  Ca  Ca2  1  0.88278375  0.94218873  0.90876594  1
  Ca  Ca3  1  0.98365307  0.06413382  0.08997980  1
  Tl  Tl4  1  0.61680185  0.72237421  0.43757545  1
  Tl  Tl5  1  0.17578346  0.27213324  0.56174977  1
  Fe  Fe6  1  0.34265469  0.39305471  0.82407307  1
  Fe  Fe7  1  0.53154269  0.61010686  0.17456937  1
  Fe  Fe8  1  0.42979506  0.50517735  0.99941345  1
  O  O9  1  0.34340908  0.89422956  0.82738135  1
  O  O10  1  0.28707775  0.32007940  0.67702409  1
  O  O11  1  0.84384325  0.39424321  0.82671796  1
  O  O12  1  0.84261091  0.76726868  0.54957763  1
  O  O13  1  0.92948624  0.50595138  0.99961444  1
  O  O14  1  0.03058447  0.60930190  0.17226359  1
  O  O15  1  0.62259382  0.67674254  0.32275162  1
  O  O16  1  0.52946112  0.10889963  0.17146356  1
  O  O17  1  0.29672473  0.22745661  0.44970670  1
  O  O18  1  0.42838736  0.00528914  0.99929239  1
