# generated using pymatgen
data_Mg2Ga
_symmetry_space_group_name_H-M   'P 1'
_cell_length_a   11.18374077
_cell_length_b   3.02516394
_cell_length_c   7.69745388
_cell_angle_alpha   90.00000000
_cell_angle_beta   109.77588654
_cell_angle_gamma   90.00000000
_symmetry_Int_Tables_number   1
_chemical_formula_structural   Mg2Ga
_chemical_formula_sum   'Mg8 Ga4'
_cell_volume   245.06622148
_cell_formula_units_Z   4
loop_
 _symmetry_equiv_pos_site_id
 _symmetry_equiv_pos_as_xyz
  1  'x, y, z'
loop_
 _atom_site_type_symbol
 _atom_site_label
 _atom_site_symmetry_multiplicity
 _atom_site_fract_x
 _atom_site_fract_y
 _atom_site_fract_z
 _atom_site_occupancy
  Mg  Mg0  1  0.17375691  0.00000000  0.12449104  1
  Mg  Mg1  1  0.36405544  0.50000000  0.47464967  1
  Mg  Mg2  1  0.13594456  0.00000000  0.52535033  1
  Mg  Mg3  1  0.32624309  0.50000000  0.87550896  1
  Mg  Mg4  1  0.67375691  0.50000000  0.12449104  1
  Mg  Mg5  1  0.86405544  -0.00000000  0.47464967  1
  Mg  Mg6  1  0.63594456  0.50000000  0.52535033  1
  Mg  Mg7  1  0.82624309  0.00000000  0.87550896  1
  Ga  Ga8  1  0.46061844  0.00000000  0.20881814  1
  Ga  Ga9  1  0.03938156  0.50000000  0.79118186  1
  Ga  Ga10  1  0.96061844  0.50000000  0.20881814  1
  Ga  Ga11  1  0.53938156  -0.00000000  0.79118186  1
