# generated using pymatgen
data_TlCr5Te8
_symmetry_space_group_name_H-M   'P 1'
_cell_length_a   4.12184230
_cell_length_b   9.47637717
_cell_length_c   10.36956130
_cell_angle_alpha   104.06282331
_cell_angle_beta   101.27229735
_cell_angle_gamma   90.24114194
_symmetry_Int_Tables_number   1
_chemical_formula_structural   TlCr5Te8
_chemical_formula_sum   'Tl1 Cr5 Te8'
_cell_volume   384.74861890
_cell_formula_units_Z   1
loop_
 _symmetry_equiv_pos_site_id
 _symmetry_equiv_pos_as_xyz
  1  'x, y, z'
loop_
 _atom_site_type_symbol
 _atom_site_label
 _atom_site_symmetry_multiplicity
 _atom_site_fract_x
 _atom_site_fract_y
 _atom_site_fract_z
 _atom_site_occupancy
  Tl  Tl0  1  0.97009139  0.98881846  0.96422098  1
  Cr  Cr1  1  0.15397999  0.48818431  0.31778131  1
  Cr  Cr2  1  0.20915103  0.82891786  0.40643152  1
  Cr  Cr3  1  0.50236664  0.49968948  0.00213140  1
  Cr  Cr4  1  0.79138179  0.17435849  0.59234511  1
  Cr  Cr5  1  0.84747589  0.51405106  0.68135437  1
  Te  Te6  1  0.07204085  0.66094540  0.13897186  1
  Te  Te7  1  0.26152830  0.34384817  0.52253455  1
  Te  Te8  1  0.32074009  0.01555211  0.65594622  1
  Te  Te9  1  0.41715756  0.66753122  0.81916841  1
  Te  Te10  1  0.58452110  0.33092549  0.18125743  1
  Te  Te11  1  0.68107711  0.98911348  0.34385928  1
  Te  Te12  1  0.73934634  0.65792185  0.47592285  1
  Te  Te13  1  0.93110192  0.34064261  0.86199470  1
