# generated using pymatgen
data_CuBrO2
_symmetry_space_group_name_H-M   'P 1'
_cell_length_a   3.19799845
_cell_length_b   3.19799872
_cell_length_c   6.22228336
_cell_angle_alpha   75.10908469
_cell_angle_beta   75.10908325
_cell_angle_gamma   59.99999101
_symmetry_Int_Tables_number   1
_chemical_formula_structural   CuBrO2
_chemical_formula_sum   'Cu1 Br1 O2'
_cell_volume   52.62863539
_cell_formula_units_Z   1
loop_
 _symmetry_equiv_pos_site_id
 _symmetry_equiv_pos_as_xyz
  1  'x, y, z'
loop_
 _atom_site_type_symbol
 _atom_site_label
 _atom_site_symmetry_multiplicity
 _atom_site_fract_x
 _atom_site_fract_y
 _atom_site_fract_z
 _atom_site_occupancy
  Cu  Cu0  1  0.50000000  0.50000000  0.50000000  1
  Br  Br1  1  -0.00000000  0.00000000  -0.00000000  1
  O  O2  1  0.88766032  0.88766032  0.33701905  1
  O  O3  1  0.11233968  0.11233968  0.66298095  1
