# generated using pymatgen
data_V6O7F5
_symmetry_space_group_name_H-M   'P 1'
_cell_length_a   4.73536709
_cell_length_b   7.75890001
_cell_length_c   5.64068327
_cell_angle_alpha   94.66798661
_cell_angle_beta   93.68612745
_cell_angle_gamma   87.26085471
_symmetry_Int_Tables_number   1
_chemical_formula_structural   V6O7F5
_chemical_formula_sum   'V6 O7 F5'
_cell_volume   205.94216949
_cell_formula_units_Z   1
loop_
 _symmetry_equiv_pos_site_id
 _symmetry_equiv_pos_as_xyz
  1  'x, y, z'
loop_
 _atom_site_type_symbol
 _atom_site_label
 _atom_site_symmetry_multiplicity
 _atom_site_fract_x
 _atom_site_fract_y
 _atom_site_fract_z
 _atom_site_occupancy
  V  V0  1  0.49587118  0.66505433  0.16911843  1
  V  V1  1  0.53765724  0.01260184  0.47453344  1
  V  V2  1  0.49870625  0.33248784  0.83530995  1
  V  V3  1  0.00311076  0.67032435  0.66735133  1
  V  V4  1  0.98997166  0.32554366  0.33566678  1
  V  V5  1  0.99349199  0.99977764  0.00657740  1
  O  O6  1  0.79615607  0.09843164  0.29705367  1
  O  O7  1  0.69720137  0.09779879  0.79309279  1
  O  O8  1  0.69406622  0.77040303  0.46907667  1
  O  O9  1  0.69869846  0.43334075  0.13539639  1
  O  O10  1  0.29759463  0.56646289  0.86643728  1
  O  O11  1  0.30456863  0.22923957  0.53334835  1
  O  O12  1  0.30233876  0.90077341  0.20600732  1
  F  F13  1  0.80262659  0.43634252  0.63385740  1
  F  F14  1  0.80342926  0.76614458  0.96746215  1
  F  F15  1  0.19368838  0.23128298  0.03530137  1
  F  F16  1  0.19844739  0.90148277  0.70509658  1
  F  F17  1  0.19237517  0.56250542  0.36931370  1
