# generated using pymatgen
data_Li9Mn7O16
_symmetry_space_group_name_H-M   'P 1'
_cell_length_a   5.77408092
_cell_length_b   6.00534751
_cell_length_c   10.26952614
_cell_angle_alpha   103.26447655
_cell_angle_beta   106.32748167
_cell_angle_gamma   61.26593197
_symmetry_Int_Tables_number   1
_chemical_formula_structural   Li9Mn7O16
_chemical_formula_sum   'Li9 Mn7 O16'
_cell_volume   297.76944450
_cell_formula_units_Z   1
loop_
 _symmetry_equiv_pos_site_id
 _symmetry_equiv_pos_as_xyz
  1  'x, y, z'
loop_
 _atom_site_type_symbol
 _atom_site_label
 _atom_site_symmetry_multiplicity
 _atom_site_fract_x
 _atom_site_fract_y
 _atom_site_fract_z
 _atom_site_occupancy
  Li  Li0  1  0.50000000  0.50000000  -0.00000000  1
  Li  Li1  1  0.00000000  0.50000000  -0.00000000  1
  Li  Li2  1  0.24874219  0.74669501  0.24417939  1
  Li  Li3  1  0.74343262  0.75171748  0.23858271  1
  Li  Li4  1  0.00000000  -0.00000000  0.50000000  1
  Li  Li5  1  0.50000000  -0.00000000  0.50000000  1
  Li  Li6  1  0.75125781  0.25330499  0.75582061  1
  Li  Li7  1  0.25656738  0.24828252  0.76141729  1
  Li  Li8  1  0.50000000  -0.00000000  -0.00000000  1
  Mn  Mn9  1  0.00000000  -0.00000000  -0.00000000  1
  Mn  Mn10  1  0.74608911  0.76099544  0.75597542  1
  Mn  Mn11  1  0.75110913  0.23900456  0.24402458  1
  Mn  Mn12  1  0.25391089  0.23900456  0.24402458  1
  Mn  Mn13  1  0.50000000  0.50000000  0.50000000  1
  Mn  Mn14  1  0.00000000  0.50000000  0.50000000  1
  Mn  Mn15  1  0.24889087  0.76099544  0.75597542  1
  O  O16  1  0.65050853  0.10077148  0.87619694  1
  O  O17  1  0.12491694  0.10077148  0.87619694  1
  O  O18  1  0.38564246  0.36793916  0.13922408  1
  O  O19  1  0.88012047  0.37595428  0.13619523  1
  O  O20  1  0.13967189  0.60537790  0.38320432  1
  O  O21  1  0.63815453  0.60537790  0.38320432  1
  O  O22  1  0.88632733  0.86504624  0.63770090  1
  O  O23  1  0.38192806  0.87333954  0.63719566  1
  O  O24  1  0.34949147  0.89922852  0.12380306  1
  O  O25  1  0.87508306  0.89922852  0.12380306  1
  O  O26  1  0.11367267  0.13495376  0.36229910  1
  O  O27  1  0.61807194  0.12666046  0.36280434  1
  O  O28  1  0.86032811  0.39462210  0.61679568  1
  O  O29  1  0.36184547  0.39462210  0.61679568  1
  O  O30  1  0.61435754  0.63206084  0.86077592  1
  O  O31  1  0.11987953  0.62404572  0.86380477  1
