# generated using pymatgen
data_LiMg
_symmetry_space_group_name_H-M   'P 1'
_cell_length_a   11.23264892
_cell_length_b   3.14749273
_cell_length_c   7.42096286
_cell_angle_alpha   90.00000000
_cell_angle_beta   106.88112898
_cell_angle_gamma   90.00000000
_symmetry_Int_Tables_number   1
_chemical_formula_structural   LiMg
_chemical_formula_sum   'Li6 Mg6'
_cell_volume   251.06024279
_cell_formula_units_Z   6
loop_
 _symmetry_equiv_pos_site_id
 _symmetry_equiv_pos_as_xyz
  1  'x, y, z'
loop_
 _atom_site_type_symbol
 _atom_site_label
 _atom_site_symmetry_multiplicity
 _atom_site_fract_x
 _atom_site_fract_y
 _atom_site_fract_z
 _atom_site_occupancy
  Li  Li0  1  0.38848776  -0.00000000  0.27704729  1
  Li  Li1  1  0.16723467  0.50000000  0.33462718  1
  Li  Li2  1  0.05418357  0.00000000  0.60841891  1
  Li  Li3  1  0.88848776  0.50000000  0.27704729  1
  Li  Li4  1  0.66723467  -0.00000000  0.33462718  1
  Li  Li5  1  0.55418357  0.50000000  0.60841891  1
  Mg  Mg6  1  0.00249557  -0.00000000  0.00887498  1
  Mg  Mg7  1  0.33317895  -0.00000000  0.66088016  1
  Mg  Mg8  1  0.22108647  0.50000000  0.94348448  1
  Mg  Mg9  1  0.50249557  0.50000000  0.00887498  1
  Mg  Mg10  1  0.83317895  0.50000000  0.66088016  1
  Mg  Mg11  1  0.72108647  0.00000000  0.94348448  1
