# generated using pymatgen
data_Li9Mn7O16
_symmetry_space_group_name_H-M   'P 1'
_cell_length_a   5.75098284
_cell_length_b   6.00496101
_cell_length_c   9.84058352
_cell_angle_alpha   95.56648924
_cell_angle_beta   89.99999978
_cell_angle_gamma   61.38951311
_symmetry_Int_Tables_number   1
_chemical_formula_structural   Li9Mn7O16
_chemical_formula_sum   'Li9 Mn7 O16'
_cell_volume   296.51624129
_cell_formula_units_Z   1
loop_
 _symmetry_equiv_pos_site_id
 _symmetry_equiv_pos_as_xyz
  1  'x, y, z'
loop_
 _atom_site_type_symbol
 _atom_site_label
 _atom_site_symmetry_multiplicity
 _atom_site_fract_x
 _atom_site_fract_y
 _atom_site_fract_z
 _atom_site_occupancy
  Li  Li0  1  0.50000000  0.50000000  -0.00000000  1
  Li  Li1  1  0.00000000  0.50000000  -0.00000000  1
  Li  Li2  1  0.12569609  0.74860782  0.24516438  1
  Li  Li3  1  0.62357847  0.75284306  0.24067602  1
  Li  Li4  1  0.75003843  1.00000000  0.50000000  1
  Li  Li5  1  0.24996157  0.00000000  0.50000000  1
  Li  Li6  1  0.37642153  0.24715694  0.75932398  1
  Li  Li7  1  0.87430391  0.25139218  0.75483562  1
  Li  Li8  1  0.50000000  -0.00000000  -0.00000000  1
  Mn  Mn9  1  0.00000000  -0.00000000  -0.00000000  1
  Mn  Mn10  1  0.62903398  0.23853479  0.24391435  1
  Mn  Mn11  1  0.13243123  0.23853479  0.24391435  1
  Mn  Mn12  1  0.25001485  0.49997031  0.50024018  1
  Mn  Mn13  1  0.74998515  0.50002969  0.49975982  1
  Mn  Mn14  1  0.86756877  0.76146521  0.75608565  1
  Mn  Mn15  1  0.37096602  0.76146521  0.75608565  1
  O  O16  1  0.71111459  0.10042006  0.87526621  1
  O  O17  1  0.18846535  0.10042006  0.87526621  1
  O  O18  1  0.31567879  0.36864242  0.13946798  1
  O  O19  1  0.81218606  0.37562787  0.13569230  1
  O  O20  1  0.94708547  0.60614460  0.38348554  1
  O  O21  1  0.44676993  0.60614460  0.38348554  1
  O  O22  1  0.56374096  0.87251808  0.63713871  1
  O  O23  1  0.06723548  0.86552904  0.63752554  1
  O  O24  1  0.28888541  0.89957994  0.12473379  1
  O  O25  1  0.81153465  0.89957994  0.12473379  1
  O  O26  1  0.93276452  0.13447096  0.36247446  1
  O  O27  1  0.43625904  0.12748192  0.36286129  1
  O  O28  1  0.55323007  0.39385540  0.61651446  1
  O  O29  1  0.05291453  0.39385540  0.61651446  1
  O  O30  1  0.18781394  0.62437213  0.86430770  1
  O  O31  1  0.68432121  0.63135758  0.86053202  1
