# generated using pymatgen
data_Dy2CuGe6
_symmetry_space_group_name_H-M   'P 1'
_cell_length_a   4.07882951
_cell_length_b   4.05283086
_cell_length_c   10.88523945
_cell_angle_alpha   100.72887359
_cell_angle_beta   90.00000000
_cell_angle_gamma   90.00000000
_symmetry_Int_Tables_number   1
_chemical_formula_structural   Dy2CuGe6
_chemical_formula_sum   'Dy2 Cu1 Ge6'
_cell_volume   176.79623970
_cell_formula_units_Z   1
loop_
 _symmetry_equiv_pos_site_id
 _symmetry_equiv_pos_as_xyz
  1  'x, y, z'
loop_
 _atom_site_type_symbol
 _atom_site_label
 _atom_site_symmetry_multiplicity
 _atom_site_fract_x
 _atom_site_fract_y
 _atom_site_fract_z
 _atom_site_occupancy
  Dy  Dy0  1  0.00000000  0.00459249  0.00918498  1
  Dy  Dy1  1  -0.00000000  0.66933271  0.33866542  1
  Cu  Cu2  1  0.50000000  0.22412866  0.44825731  1
  Ge  Ge3  1  0.00000000  0.28523905  0.57047810  1
  Ge  Ge4  1  0.00000000  0.40166088  0.80332177  1
  Ge  Ge5  1  0.50000000  0.54317654  0.08635307  1
  Ge  Ge6  1  0.50000000  0.11557129  0.23114257  1
  Ge  Ge7  1  0.50000000  0.90227375  0.80454750  1
  Ge  Ge8  1  0.50000000  0.78502464  0.57004928  1
