# generated using pymatgen
data_MgGa2
_symmetry_space_group_name_H-M   'P 1'
_cell_length_a   5.23824312
_cell_length_b   5.23824361
_cell_length_c   14.63165666
_cell_angle_alpha   90.00000000
_cell_angle_beta   90.00000000
_cell_angle_gamma   120.00000358
_symmetry_Int_Tables_number   1
_chemical_formula_structural   MgGa2
_chemical_formula_sum   'Mg6 Ga12'
_cell_volume   347.69261063
_cell_formula_units_Z   6
loop_
 _symmetry_equiv_pos_site_id
 _symmetry_equiv_pos_as_xyz
  1  'x, y, z'
loop_
 _atom_site_type_symbol
 _atom_site_label
 _atom_site_symmetry_multiplicity
 _atom_site_fract_x
 _atom_site_fract_y
 _atom_site_fract_z
 _atom_site_occupancy
  Mg  Mg0  1  0.66666700  0.33333300  0.16626414  1
  Mg  Mg1  1  -0.00000000  -0.00000000  0.16706986  1
  Mg  Mg2  1  0.33333300  0.66666700  0.49959714  1
  Mg  Mg3  1  0.66666700  0.33333300  0.50040286  1
  Mg  Mg4  1  -0.00000000  -0.00000000  0.83293014  1
  Mg  Mg5  1  0.33333300  0.66666700  0.83373586  1
  Ga  Ga6  1  0.66543803  0.66543803  -0.00000000  1
  Ga  Ga7  1  0.33456197  1.00000000  -0.00000000  1
  Ga  Ga8  1  0.33333300  0.66666700  0.16666700  1
  Ga  Ga9  1  1.00000000  0.33456197  -0.00000000  1
  Ga  Ga10  1  0.33210403  0.99877103  0.33333300  1
  Ga  Ga11  1  0.00122897  0.33333300  0.33333300  1
  Ga  Ga12  1  -0.00000000  -0.00000000  0.50000000  1
  Ga  Ga13  1  0.66666700  0.66789597  0.33333300  1
  Ga  Ga14  1  0.99877103  0.33210403  0.66666700  1
  Ga  Ga15  1  0.66789597  0.66666700  0.66666700  1
  Ga  Ga16  1  0.66666700  0.33333300  0.83333300  1
  Ga  Ga17  1  0.33333300  0.00122897  0.66666700  1
