# generated using pymatgen
data_Li9Mn7O16
_symmetry_space_group_name_H-M   'P 1'
_cell_length_a   3.01095038
_cell_length_b   19.47577672
_cell_length_c   5.09868072
_cell_angle_alpha   92.92227534
_cell_angle_beta   91.83616757
_cell_angle_gamma   85.21511641
_symmetry_Int_Tables_number   1
_chemical_formula_structural   Li9Mn7O16
_chemical_formula_sum   'Li9 Mn7 O16'
_cell_volume   297.44420425
_cell_formula_units_Z   1
loop_
 _symmetry_equiv_pos_site_id
 _symmetry_equiv_pos_as_xyz
  1  'x, y, z'
loop_
 _atom_site_type_symbol
 _atom_site_label
 _atom_site_symmetry_multiplicity
 _atom_site_fract_x
 _atom_site_fract_y
 _atom_site_fract_z
 _atom_site_occupancy
  Li  Li0  1  0.87497882  0.12497890  0.37500269  1
  Li  Li1  1  0.25827506  0.24613071  0.24238597  1
  Li  Li2  1  0.62150860  0.37535629  0.13059964  1
  Li  Li3  1  0.99995811  0.49966438  0.99958596  1
  Li  Li4  1  0.37500494  0.62500031  0.87499146  1
  Li  Li5  1  0.75009474  0.75031026  0.75032807  1
  Li  Li6  1  0.12862382  0.87458813  0.61938940  1
  Li  Li7  1  0.49154691  0.00390677  0.50776559  1
  Li  Li8  1  0.37501111  0.12498232  0.87505447  1
  Mn  Mn9  1  0.99218400  0.00487608  0.99291978  1
  Mn  Mn10  1  0.75784261  0.24513993  0.75698397  1
  Mn  Mn11  1  0.13527819  0.37285537  0.62171227  1
  Mn  Mn12  1  0.50070763  0.49917921  0.49978495  1
  Mn  Mn13  1  0.87497704  0.62502039  0.37495273  1
  Mn  Mn14  1  0.24919339  0.75085302  0.25017812  1
  Mn  Mn15  1  0.61492382  0.87712621  0.12830802  1
  O  O16  1  0.46957793  0.05420283  0.16133725  1
  O  O17  1  0.79842661  0.19328969  0.04499241  1
  O  O18  1  0.21860642  0.30659872  0.90597650  1
  O  O19  1  0.53373860  0.43722404  0.79469857  1
  O  O20  1  0.90392131  0.56325545  0.66974562  1
  O  O21  1  0.27919000  0.68891649  0.54434479  1
  O  O22  1  0.65538750  0.81410110  0.42335842  1
  O  O23  1  0.02842705  0.93759920  0.28855610  1
  O  O24  1  0.28046490  0.19576918  0.58873792  1
  O  O25  1  0.72172443  0.31237229  0.46144077  1
  O  O26  1  0.09456048  0.43589306  0.32670298  1
  O  O27  1  0.47079840  0.56113607  0.20564108  1
  O  O28  1  0.84599406  0.68679535  0.08013787  1
  O  O29  1  0.21607202  0.81279138  0.95532671  1
  O  O30  1  0.53134599  0.94339187  0.84402342  1
  O  O31  1  0.95164750  0.05669700  0.70503149  1
