# generated using pymatgen
data_Cr5(TeO6)3
_symmetry_space_group_name_H-M   'P 1'
_cell_length_a   8.42217955
_cell_length_b   8.42217988
_cell_length_c   10.45636031
_cell_angle_alpha   84.25333505
_cell_angle_beta   84.25333331
_cell_angle_gamma   61.34281188
_symmetry_Int_Tables_number   1
_chemical_formula_structural   Cr5(TeO6)3
_chemical_formula_sum   'Cr10 Te6 O36'
_cell_volume   646.42176852
_cell_formula_units_Z   2
loop_
 _symmetry_equiv_pos_site_id
 _symmetry_equiv_pos_as_xyz
  1  'x, y, z'
loop_
 _atom_site_type_symbol
 _atom_site_label
 _atom_site_symmetry_multiplicity
 _atom_site_fract_x
 _atom_site_fract_y
 _atom_site_fract_z
 _atom_site_occupancy
  Cr  Cr0  1  0.80812563  0.50248860  0.97803004  1
  Cr  Cr1  1  0.11715068  0.19359766  0.47447214  1
  Cr  Cr2  1  0.32398706  0.36557424  0.28334584  1
  Cr  Cr3  1  0.96874024  0.71503874  0.78636803  1
  Cr  Cr4  1  0.63442576  0.67601294  0.71665416  1
  Cr  Cr5  1  0.97389747  0.02610253  0.00000000  1
  Cr  Cr6  1  0.63141511  0.36858489  0.50000000  1
  Cr  Cr7  1  0.28496126  0.03125876  0.21363197  1
  Cr  Cr8  1  0.80640234  0.88284932  0.52552786  1
  Cr  Cr9  1  0.49751140  0.19187437  0.02196996  1
  Te  Te10  1  0.45700276  0.87542067  0.95468017  1
  Te  Te11  1  0.80626967  0.19486551  0.25482650  1
  Te  Te12  1  0.80513449  0.19373033  0.74517350  1
  Te  Te13  1  0.48435327  0.84529148  0.45298333  1
  Te  Te14  1  0.15470852  0.51564673  0.54701667  1
  Te  Te15  1  0.12457933  0.54299724  0.04531983  1
  O  O16  1  0.41523218  0.10817178  0.88509757  1
  O  O17  1  0.74053888  0.44569248  0.80850262  1
  O  O18  1  0.55737545  0.61911330  0.55894707  1
  O  O19  1  0.73391366  0.11822467  0.42708788  1
  O  O20  1  0.55430752  0.25946112  0.19149738  1
  O  O21  1  0.88177533  0.26608634  0.57291212  1
  O  O22  1  0.39625203  0.79635901  0.31121002  1
  O  O23  1  0.02602934  0.10125190  0.82390858  1
  O  O24  1  0.57771350  0.29349101  0.67656607  1
  O  O25  1  0.09693662  0.42364227  0.39304338  1
  O  O26  1  0.56965568  0.63778612  0.04445691  1
  O  O27  1  0.51831643  0.96849439  0.10337414  1
  O  O28  1  0.86666477  0.95215488  0.68393099  1
  O  O29  1  0.71682507  0.74827992  0.86550320  1
  O  O30  1  0.36221388  0.43034432  0.95554309  1
  O  O31  1  0.21492431  0.58887913  0.19568358  1
  O  O32  1  0.03461589  0.75431742  0.45113826  1
  O  O33  1  0.25172008  0.28317493  0.13449680  1
  O  O34  1  0.38088670  0.44262455  0.44105293  1
  O  O35  1  0.24568258  0.96538411  0.54886174  1
  O  O36  1  0.71746182  0.80741394  0.38832996  1
  O  O37  1  0.88698809  0.64434120  0.63548096  1
  O  O38  1  0.89874810  0.97397066  0.17609142  1
  O  O39  1  0.41112087  0.78507569  0.80431642  1
  O  O40  1  0.05154821  0.77224430  0.94514814  1
  O  O41  1  0.72469085  0.12902903  0.92672647  1
  O  O42  1  0.03150561  0.48168357  0.89662586  1
  O  O43  1  0.20364099  0.60374797  0.68878998  1
  O  O44  1  0.04784512  0.13333523  0.31606901  1
  O  O45  1  0.35565880  0.11301191  0.36451904  1
  O  O46  1  0.19258606  0.28253818  0.61167004  1
  O  O47  1  0.87097097  0.27530915  0.07327353  1
  O  O48  1  0.70650899  0.42228650  0.32343393  1
  O  O49  1  0.57635773  0.90306338  0.60695662  1
  O  O50  1  0.22775570  0.94845179  0.05485186  1
  O  O51  1  0.89182822  0.58476782  0.11490243  1
