# generated using pymatgen
data_V6O7F5
_symmetry_space_group_name_H-M   'P 1'
_cell_length_a   7.62117658
_cell_length_b   5.63095892
_cell_length_c   5.63095892
_cell_angle_alpha   69.55098000
_cell_angle_beta   69.81972939
_cell_angle_gamma   69.81972939
_symmetry_Int_Tables_number   1
_chemical_formula_structural   V6O7F5
_chemical_formula_sum   'V6 O7 F5'
_cell_volume   205.48473195
_cell_formula_units_Z   1
loop_
 _symmetry_equiv_pos_site_id
 _symmetry_equiv_pos_as_xyz
  1  'x, y, z'
loop_
 _atom_site_type_symbol
 _atom_site_label
 _atom_site_symmetry_multiplicity
 _atom_site_fract_x
 _atom_site_fract_y
 _atom_site_fract_z
 _atom_site_occupancy
  V  V0  1  0.82982692  0.66587613  0.66587613  1
  V  V1  1  0.66153872  0.33381668  0.33381668  1
  V  V2  1  0.32737620  0.66026169  0.66026169  1
  V  V3  1  0.19244693  0.34604914  0.34604914  1
  V  V4  1  0.50032229  0.99863890  0.99863890  1
  V  V5  1  0.00249840  -0.00051965  -0.00051965  1
  O  O6  1  0.66600746  0.03246068  0.63314210  1
  O  O7  1  0.32947895  0.36731436  0.97592786  1
  O  O8  1  0.36573792  0.43423966  0.43423966  1
  O  O9  1  0.00170297  0.29974115  0.69305653  1
  O  O10  1  0.66600746  0.63314210  0.03246068  1
  O  O11  1  0.32947895  0.97592786  0.36731436  1
  O  O12  1  0.00170297  0.69305653  0.29974115  1
  F  F13  1  0.96495199  0.23059084  0.23059084  1
  F  F14  1  0.62616544  0.56638246  0.56638246  1
  F  F15  1  0.29697723  0.89598116  0.89598116  1
  F  F16  1  0.70550266  0.09858013  0.09858013  1
  F  F17  1  0.03227555  0.76846021  0.76846021  1
