# generated using pymatgen
data_LiNiP2O7
_symmetry_space_group_name_H-M   'P 1'
_cell_length_a   7.16197931
_cell_length_b   8.33818400
_cell_length_c   4.90401223
_cell_angle_alpha   90.00000000
_cell_angle_beta   109.98527045
_cell_angle_gamma   90.00000000
_symmetry_Int_Tables_number   1
_chemical_formula_structural   LiNiP2O7
_chemical_formula_sum   'Li2 Ni2 P4 O14'
_cell_volume   275.22160176
_cell_formula_units_Z   2
loop_
 _symmetry_equiv_pos_site_id
 _symmetry_equiv_pos_as_xyz
  1  'x, y, z'
loop_
 _atom_site_type_symbol
 _atom_site_label
 _atom_site_symmetry_multiplicity
 _atom_site_fract_x
 _atom_site_fract_y
 _atom_site_fract_z
 _atom_site_occupancy
  Li  Li0  1  0.65784738  0.85437499  0.17655578  1
  Li  Li1  1  0.34215262  0.35437499  0.82344422  1
  Ni  Ni2  1  0.27864063  0.00162130  0.77936811  1
  Ni  Ni3  1  0.72135937  0.50162130  0.22063189  1
  P  P4  1  0.47419788  0.67905321  0.59992046  1
  P  P5  1  0.92135690  0.28146548  0.79078978  1
  P  P6  1  0.07864310  0.78146548  0.20921022  1
  P  P7  1  0.52580212  0.17905321  0.40007954  1
  O  O8  1  0.75837944  0.15440703  0.60672851  1
  O  O9  1  0.39962313  0.17982605  0.59526433  1
  O  O10  1  0.48845747  0.03609275  0.19267577  1
  O  O11  1  0.12103587  0.19797168  0.85926302  1
  O  O12  1  0.51154253  0.53609275  0.80732423  1
  O  O13  1  0.51396232  0.33894326  0.24270665  1
  O  O14  1  0.87896413  0.69797168  0.14073698  1
  O  O15  1  0.07789433  0.93413976  0.38967008  1
  O  O16  1  0.12796786  0.83690449  0.94616482  1
  O  O17  1  0.48603768  0.83894326  0.75729335  1
  O  O18  1  0.87203214  0.33690449  0.05383518  1
  O  O19  1  0.60037687  0.67982605  0.40473567  1
  O  O20  1  0.24162056  0.65440703  0.39327149  1
  O  O21  1  0.92210567  0.43413976  0.61032992  1
