# generated using pymatgen
data_Co2(PO3)5
_symmetry_space_group_name_H-M   'P 1'
_cell_length_a   12.86185828
_cell_length_b   8.48690282
_cell_length_c   5.29682446
_cell_angle_alpha   90.00000000
_cell_angle_beta   94.57465436
_cell_angle_gamma   90.00000000
_symmetry_Int_Tables_number   1
_chemical_formula_structural   Co2(PO3)5
_chemical_formula_sum   'Co4 P10 O30'
_cell_volume   576.34532020
_cell_formula_units_Z   2
loop_
 _symmetry_equiv_pos_site_id
 _symmetry_equiv_pos_as_xyz
  1  'x, y, z'
loop_
 _atom_site_type_symbol
 _atom_site_label
 _atom_site_symmetry_multiplicity
 _atom_site_fract_x
 _atom_site_fract_y
 _atom_site_fract_z
 _atom_site_occupancy
  Co  Co0  1  0.03770962  0.72024233  0.13653300  1
  Co  Co1  1  0.96499060  0.28784496  0.86848258  1
  Co  Co2  1  0.46499060  0.71215504  0.36848258  1
  Co  Co3  1  0.53770962  0.27975767  0.63653300  1
  P  P4  1  0.14483047  0.49612143  0.60674337  1
  P  P5  1  0.10014400  0.17519318  0.41821509  1
  P  P6  1  0.39988470  0.17607594  0.08497777  1
  P  P7  1  0.64483047  0.50387857  0.10674337  1
  P  P8  1  0.89988470  0.82392406  0.58497777  1
  P  P9  1  0.85904781  0.50568013  0.38455451  1
  P  P10  1  0.35904781  0.49431987  0.88455451  1
  P  P11  1  0.75009336  0.07017124  0.75246528  1
  P  P12  1  0.60014400  0.82480682  0.91821509  1
  P  P13  1  0.25009336  0.92982876  0.25246528  1
  O  O14  1  0.06989727  0.47678857  0.80976717  1
  O  O15  1  0.67123572  0.66823042  0.97849297  1
  O  O16  1  0.32875319  0.32919371  0.00913298  1
  O  O17  1  0.93626221  0.52938879  0.18649633  1
  O  O18  1  0.62331509  0.38361524  0.90154232  1
  O  O19  1  0.33047550  0.84194387  0.41859846  1
  O  O20  1  0.03476597  0.14484824  0.63549972  1
  O  O21  1  0.30948240  0.04794965  0.06918345  1
  O  O22  1  0.19340802  0.04954092  0.43553246  1
  O  O23  1  0.17123572  0.33176958  0.47849297  1
  O  O24  1  0.69340802  0.95045908  0.93553246  1
  O  O25  1  0.47018346  0.14365622  0.87749119  1
  O  O26  1  0.95060118  0.80312717  0.84926314  1
  O  O27  1  0.75346210  0.45082532  0.23848821  1
  O  O28  1  0.12331509  0.61638476  0.40154232  1
  O  O29  1  0.56989727  0.52321143  0.30976717  1
  O  O30  1  0.16794348  0.84765410  0.08073924  1
  O  O31  1  0.37987664  0.61314234  0.08874504  1
  O  O32  1  0.53476597  0.85515176  0.13549972  1
  O  O33  1  0.83047550  0.15805613  0.91859846  1
  O  O34  1  0.45060118  0.19687283  0.34926314  1
  O  O35  1  0.25346210  0.54917468  0.73848821  1
  O  O36  1  0.87987664  0.38685766  0.58874504  1
  O  O37  1  0.97018346  0.85634378  0.37749119  1
  O  O38  1  0.80948240  0.95205035  0.56918345  1
  O  O39  1  0.43626221  0.47061121  0.68649633  1
  O  O40  1  0.04801518  0.19024843  0.15663870  1
  O  O41  1  0.66794348  0.15234590  0.58073924  1
  O  O42  1  0.82875319  0.67080629  0.50913298  1
  O  O43  1  0.54801518  0.80975157  0.65663870  1
