# generated using pymatgen
data_U3(FeGe)4
_symmetry_space_group_name_H-M   'P 1'
_cell_length_a   4.11453266
_cell_length_b   6.48611406
_cell_length_c   7.88878877
_cell_angle_alpha   114.27375892
_cell_angle_beta   105.11656021
_cell_angle_gamma   90.00000000
_symmetry_Int_Tables_number   1
_chemical_formula_structural   U3(FeGe)4
_chemical_formula_sum   'U3 Fe4 Ge4'
_cell_volume   183.89723981
_cell_formula_units_Z   1
loop_
 _symmetry_equiv_pos_site_id
 _symmetry_equiv_pos_as_xyz
  1  'x, y, z'
loop_
 _atom_site_type_symbol
 _atom_site_label
 _atom_site_symmetry_multiplicity
 _atom_site_fract_x
 _atom_site_fract_y
 _atom_site_fract_z
 _atom_site_occupancy
  U  U0  1  -0.00000000  -0.00000000  -0.00000000  1
  U  U1  1  0.13704389  0.63704389  0.27408778  1
  U  U2  1  0.86295611  0.36295611  0.72591222  1
  Fe  Fe3  1  0.67577090  0.97046015  0.35154179  1
  Fe  Fe4  1  0.32422910  0.02953985  0.64845821  1
  Fe  Fe5  1  0.32422910  0.61891836  0.64845821  1
  Fe  Fe6  1  0.67577090  0.38108164  0.35154179  1
  Ge  Ge7  1  0.79246286  0.79246286  0.58492571  1
  Ge  Ge8  1  0.20753714  0.20753714  0.41507429  1
  Ge  Ge9  1  0.50000000  0.69896677  1.00000000  1
  Ge  Ge10  1  0.50000000  0.30103323  0.00000000  1
