# generated using pymatgen
data_Ba2Tl2Fe3O10
_symmetry_space_group_name_H-M   'P 1'
_cell_length_a   3.68724670
_cell_length_b   3.88829541
_cell_length_c   18.27076174
_cell_angle_alpha   90.08638489
_cell_angle_beta   90.26313141
_cell_angle_gamma   90.16314082
_symmetry_Int_Tables_number   1
_chemical_formula_structural   Ba2Tl2Fe3O10
_chemical_formula_sum   'Ba2 Tl2 Fe3 O10'
_cell_volume   261.94569119
_cell_formula_units_Z   1
loop_
 _symmetry_equiv_pos_site_id
 _symmetry_equiv_pos_as_xyz
  1  'x, y, z'
loop_
 _atom_site_type_symbol
 _atom_site_label
 _atom_site_symmetry_multiplicity
 _atom_site_fract_x
 _atom_site_fract_y
 _atom_site_fract_z
 _atom_site_occupancy
  Ba  Ba0  1  0.22271850  0.20310318  0.26867827  1
  Ba  Ba1  1  0.77627835  0.70581332  0.72845915  1
  Tl  Tl2  1  0.72481231  0.69909830  0.43497956  1
  Tl  Tl3  1  0.24021328  0.19519166  0.56397706  1
  Fe  Fe4  1  0.29685232  0.20747064  0.86495520  1
  Fe  Fe5  1  0.72870516  0.70234193  0.13327114  1
  Fe  Fe6  1  0.23621975  0.70868143  0.98516873  1
  O  O7  1  0.29621719  0.70773795  0.86985846  1
  O  O8  1  0.26794945  0.20536435  0.67523171  1
  O  O9  1  0.79237310  0.20712662  0.81939392  1
  O  O10  1  0.72267053  0.72768463  0.54931348  1
  O  O11  1  0.73571452  0.70771244  0.02859391  1
  O  O12  1  0.22765027  0.70201788  0.16367810  1
  O  O13  1  0.71289373  0.70428418  0.32409720  1
  O  O14  1  0.72483679  0.20238997  0.16552484  1
  O  O15  1  0.21065592  0.22456358  0.45038054  1
  O  O16  1  0.23370783  0.20812294  0.96749274  1
