# generated using pymatgen
data_LiCrP2O7
_symmetry_space_group_name_H-M   'P 1'
_cell_length_a   9.14507649
_cell_length_b   8.33408816
_cell_length_c   6.67997609
_cell_angle_alpha   90.00000000
_cell_angle_beta   104.55534098
_cell_angle_gamma   90.00000000
_symmetry_Int_Tables_number   1
_chemical_formula_structural   LiCrP2O7
_chemical_formula_sum   'Li4 Cr4 P8 O28'
_cell_volume   492.78017921
_cell_formula_units_Z   4
loop_
 _symmetry_equiv_pos_site_id
 _symmetry_equiv_pos_as_xyz
  1  'x, y, z'
loop_
 _atom_site_type_symbol
 _atom_site_label
 _atom_site_symmetry_multiplicity
 _atom_site_fract_x
 _atom_site_fract_y
 _atom_site_fract_z
 _atom_site_occupancy
  Li  Li0  1  0.24831859  0.42223541  0.26069746  1
  Li  Li1  1  0.75168141  0.57776459  0.73930254  1
  Li  Li2  1  0.75168141  0.92223541  0.73930254  1
  Li  Li3  1  0.24831859  0.07776459  0.26069746  1
  Cr  Cr4  1  0.75003354  0.43380287  0.24950232  1
  Cr  Cr5  1  0.75003354  0.06619713  0.24950232  1
  Cr  Cr6  1  0.24996646  0.93380287  0.75049768  1
  Cr  Cr7  1  0.24996646  0.56619713  0.75049768  1
  P  P8  1  0.94655949  0.25000000  0.00302626  1
  P  P9  1  0.53027089  0.75000000  0.07983960  1
  P  P10  1  0.46972911  0.25000000  0.92016040  1
  P  P11  1  0.05344051  0.75000000  0.99697374  1
  P  P12  1  0.44466458  0.75000000  0.50084909  1
  P  P13  1  0.96798704  0.75000000  0.42183572  1
  P  P14  1  0.55533542  0.25000000  0.49915091  1
  P  P15  1  0.03201296  0.25000000  0.57816428  1
  O  O16  1  0.64612760  0.09481085  0.48217663  1
  O  O17  1  0.85486772  0.09493970  0.01728768  1
  O  O18  1  0.37816860  0.09875332  0.91949066  1
  O  O19  1  0.39451547  0.25000000  0.37025617  1
  O  O20  1  0.62183140  0.90124668  0.08050934  1
  O  O21  1  0.95319954  0.25000000  0.76319280  1
  O  O22  1  0.10604971  0.25000000  0.13641415  1
  O  O23  1  0.04680046  0.75000000  0.23680720  1
  O  O24  1  0.14513228  0.59493970  0.98271232  1
  O  O25  1  0.12326944  0.09842795  0.57557443  1
  O  O26  1  0.87673056  0.59842795  0.42442557  1
  O  O27  1  0.60907096  0.25000000  0.11490872  1
  O  O28  1  0.85486772  0.40506030  0.01728768  1
  O  O29  1  0.14513228  0.90506030  0.98271232  1
  O  O30  1  0.10952219  0.75000000  0.61343112  1
  O  O31  1  0.37816860  0.40124668  0.91949066  1
  O  O32  1  0.12326944  0.40157205  0.57557443  1
  O  O33  1  0.62183140  0.59875332  0.08050934  1
  O  O34  1  0.35387240  0.90518915  0.51782337  1
  O  O35  1  0.87673056  0.90157205  0.42442557  1
  O  O36  1  0.89395029  0.75000000  0.86358585  1
  O  O37  1  0.60548453  0.75000000  0.62974383  1
  O  O38  1  0.35387240  0.59481085  0.51782337  1
  O  O39  1  0.64612760  0.40518915  0.48217663  1
  O  O40  1  0.39092904  0.75000000  0.88509028  1
  O  O41  1  0.44547186  0.75000000  0.25921651  1
  O  O42  1  0.89047781  0.25000000  0.38656888  1
  O  O43  1  0.55452814  0.25000000  0.74078349  1
