# generated using pymatgen
data_NbVO4
_symmetry_space_group_name_H-M   'P 1'
_cell_length_a   6.24233541
_cell_length_b   5.67687623
_cell_length_c   5.66961532
_cell_angle_alpha   73.18175553
_cell_angle_beta   56.54635165
_cell_angle_gamma   56.59643215
_symmetry_Int_Tables_number   1
_chemical_formula_structural   NbVO4
_chemical_formula_sum   'Nb2 V2 O8'
_cell_volume   139.91004694
_cell_formula_units_Z   2
loop_
 _symmetry_equiv_pos_site_id
 _symmetry_equiv_pos_as_xyz
  1  'x, y, z'
loop_
 _atom_site_type_symbol
 _atom_site_label
 _atom_site_symmetry_multiplicity
 _atom_site_fract_x
 _atom_site_fract_y
 _atom_site_fract_z
 _atom_site_occupancy
  Nb  Nb0  1  0.00017910  0.49870794  0.50041955  1
  Nb  Nb1  1  0.49958361  0.50115963  0.49950240  1
  V  V2  1  0.25187212  0.99782845  0.99847189  1
  V  V3  1  0.74828099  0.00197284  0.00145933  1
  O  O4  1  0.29640873  0.20153404  0.20096195  1
  O  O5  1  0.25374841  0.30200905  0.69094955  1
  O  O6  1  0.25324693  0.69129437  0.30211737  1
  O  O7  1  0.19801810  0.79842469  0.79919244  1
  O  O8  1  0.80474041  0.19937216  0.19864099  1
  O  O9  1  0.74661808  0.30852415  0.69817214  1
  O  O10  1  0.74653978  0.69835110  0.30890006  1
  O  O11  1  0.70076373  0.80082158  0.80121133  1
