# generated using pymatgen
data_Na6Li3Fe6(PO4)8
_symmetry_space_group_name_H-M   'P 1'
_cell_length_a   6.54129064
_cell_length_b   10.64349426
_cell_length_c   10.61775937
_cell_angle_alpha   91.40444351
_cell_angle_beta   89.95072942
_cell_angle_gamma   72.28260850
_symmetry_Int_Tables_number   1
_chemical_formula_structural   Na6Li3Fe6(PO4)8
_chemical_formula_sum   'Na6 Li3 Fe6 P8 O32'
_cell_volume   703.93087082
_cell_formula_units_Z   1
loop_
 _symmetry_equiv_pos_site_id
 _symmetry_equiv_pos_as_xyz
  1  'x, y, z'
loop_
 _atom_site_type_symbol
 _atom_site_label
 _atom_site_symmetry_multiplicity
 _atom_site_fract_x
 _atom_site_fract_y
 _atom_site_fract_z
 _atom_site_occupancy
  Na  Na0  1  0.93518024  0.84602093  0.01347583  1
  Na  Na1  1  0.79672159  0.16108007  0.53185118  1
  Na  Na2  1  0.20733025  0.85719932  0.54558162  1
  Na  Na3  1  0.59240108  0.00090016  0.75086645  1
  Na  Na4  1  0.35545645  0.99038249  0.25295266  1
  Na  Na5  1  0.07157564  0.13927065  0.95683245  1
  Li  Li6  1  0.96413450  0.49855673  0.96542464  1
  Li  Li7  1  0.68931494  0.13093107  0.26758277  1
  Li  Li8  1  0.45504941  0.51125389  0.53395402  1
  Fe  Fe9  1  0.68968758  0.69041018  0.25154496  1
  Fe  Fe10  1  0.62297133  0.69192178  0.75512894  1
  Fe  Fe11  1  0.49180414  0.49759118  0.99776863  1
  Fe  Fe12  1  0.35068136  0.32004651  0.24436517  1
  Fe  Fe13  1  0.32119808  0.30707523  0.74892653  1
  Fe  Fe14  1  0.99861194  0.49911534  0.49914730  1
  P  P15  1  0.74121032  0.82587733  0.50865989  1
  P  P16  1  0.82287090  0.40363556  0.23394561  1
  P  P17  1  0.77684444  0.39881932  0.74036745  1
  P  P18  1  0.42784323  0.82358535  0.00966436  1
  P  P19  1  0.57431062  0.16958441  0.99079565  1
  P  P20  1  0.23002196  0.60362212  0.26028539  1
  P  P21  1  0.17465800  0.59595860  0.75864114  1
  P  P22  1  0.27223997  0.17112735  0.48478679  1
  O  O23  1  0.00060372  0.68804535  0.22949879  1
  O  O24  1  0.92734477  0.69301889  0.50974907  1
  O  O25  1  0.94593864  0.67683906  0.79600257  1
  O  O26  1  0.83127799  0.93998227  0.53879820  1
  O  O27  1  0.80594003  0.50984445  0.34589496  1
  O  O28  1  0.63779465  0.83727440  0.37361214  1
  O  O29  1  0.75628632  0.49450176  0.62461485  1
  O  O30  1  0.61729010  0.80489288  0.10794588  1
  O  O31  1  0.56533750  0.82216073  0.60511011  1
  O  O32  1  0.73831422  0.50638676  0.12375092  1
  O  O33  1  0.51648918  0.84988200  0.88181196  1
  O  O34  1  0.69828065  0.50152234  0.85499988  1
  O  O35  1  0.68191007  0.31879138  0.27057932  1
  O  O36  1  0.62271459  0.30547985  0.99447360  1
  O  O37  1  0.63254557  0.31312953  0.70783530  1
  O  O38  1  0.77732969  0.06109421  0.94617376  1
  O  O39  1  0.23114003  0.93508923  0.05628493  1
  O  O40  1  0.37935831  0.68852663  0.28485826  1
  O  O41  1  0.36905830  0.69243687  0.00013726  1
  O  O42  1  0.31635147  0.67951956  0.72025575  1
  O  O43  1  0.30634660  0.49919627  0.14797114  1
  O  O44  1  0.50664638  0.14489277  0.12693649  1
  O  O45  1  0.25601790  0.49663053  0.87141504  1
  O  O46  1  0.44466557  0.17429197  0.38263033  1
  O  O47  1  0.38586198  0.17772251  0.89909003  1
  O  O48  1  0.24868179  0.50987761  0.37695649  1
  O  O49  1  0.38300029  0.15405253  0.61425030  1
  O  O50  1  0.19956727  0.49288635  0.64358003  1
  O  O51  1  0.16980083  0.06242586  0.45084660  1
  O  O52  1  0.04861820  0.31786708  0.19742371  1
  O  O53  1  0.08694044  0.30614817  0.48352975  1
  O  O54  1  0.00299995  0.31526663  0.77417713  1
