# generated using pymatgen
data_LiV(PO3)4
_symmetry_space_group_name_H-M   'P 1'
_cell_length_a   9.54888346
_cell_length_b   10.48555818
_cell_length_c   9.09849796
_cell_angle_alpha   90.00000000
_cell_angle_beta   90.97173011
_cell_angle_gamma   90.00000000
_symmetry_Int_Tables_number   1
_chemical_formula_structural   LiV(PO3)4
_chemical_formula_sum   'Li4 V4 P16 O48'
_cell_volume   910.85948792
_cell_formula_units_Z   4
loop_
 _symmetry_equiv_pos_site_id
 _symmetry_equiv_pos_as_xyz
  1  'x, y, z'
loop_
 _atom_site_type_symbol
 _atom_site_label
 _atom_site_symmetry_multiplicity
 _atom_site_fract_x
 _atom_site_fract_y
 _atom_site_fract_z
 _atom_site_occupancy
  Li  Li0  1  0.99997507  0.18445193  0.88952453  1
  Li  Li1  1  0.50049190  0.32947478  0.61865569  1
  Li  Li2  1  0.99950810  0.82947478  0.38134431  1
  Li  Li3  1  0.50002493  0.68445193  0.11047547  1
  V  V4  1  0.51206375  0.28732727  0.25680186  1
  V  V5  1  0.98793625  0.78732727  0.74319814  1
  V  V6  1  0.48703318  0.71151618  0.74599013  1
  V  V7  1  0.01296682  0.21151618  0.25400987  1
  P  P8  1  0.70491474  0.88805896  0.93886367  1
  P  P9  1  0.76815183  0.51708037  0.75383960  1
  P  P10  1  0.79924637  0.61103381  0.25356354  1
  P  P11  1  0.26478435  0.98180500  0.75498594  1
  P  P12  1  0.30234775  0.88787898  0.26318901  1
  P  P13  1  0.71698262  0.89391796  0.53918105  1
  P  P14  1  0.73184817  0.01708037  0.24616040  1
  P  P15  1  0.79508526  0.38805896  0.06113633  1
  P  P16  1  0.20483702  0.60542660  0.54020448  1
  P  P17  1  0.78301738  0.39391796  0.46081895  1
  P  P18  1  0.70075363  0.11103281  0.74643646  1
  P  P19  1  0.21569845  0.61232810  0.94238670  1
  P  P20  1  0.19765225  0.38787898  0.73681099  1
  P  P21  1  0.23521565  0.48180500  0.24501406  1
  P  P22  1  0.29516298  0.10542660  0.45979552  1
  P  P23  1  0.28430155  0.11232810  0.05761330  1
  O  O24  1  0.14860851  0.13138459  0.40396173  1
  O  O25  1  0.81985851  0.53389795  0.40944985  1
  O  O26  1  0.62520057  0.12167096  0.24797610  1
  O  O27  1  0.40197484  0.20914708  0.42818341  1
  O  O28  1  0.09802516  0.70914708  0.57181659  1
  O  O29  1  0.89841493  0.27776055  0.07497072  1
  O  O30  1  0.13181910  0.37464641  0.24930539  1
  O  O31  1  0.38928305  0.44830352  0.25266490  1
  O  O32  1  0.79297611  0.42830688  0.89349676  1
  O  O33  1  0.35128871  0.37283978  0.73465736  1
  O  O34  1  0.88508459  0.05251807  0.26177583  1
  O  O35  1  0.29894871  0.07445642  0.88982258  1
  O  O36  1  0.14728161  0.47014848  0.59079889  1
  O  O37  1  0.11071695  0.94830352  0.74733510  1
  O  O38  1  0.61491541  0.55251807  0.73822417  1
  O  O39  1  0.87118607  0.86200917  0.56644388  1
  O  O40  1  0.87479943  0.62167096  0.75202390  1
  O  O41  1  0.15516753  0.48985073  0.86440874  1
  O  O42  1  0.34483247  0.98985073  0.13559126  1
  O  O43  1  0.37105354  0.63522260  0.91667160  1
  O  O44  1  0.60226495  0.21935994  0.73782366  1
  O  O45  1  0.09802570  0.28097812  0.75206134  1
  O  O46  1  0.63289648  0.00656123  0.86019825  1
  O  O47  1  0.62881393  0.36200917  0.43355612  1
  O  O48  1  0.29878857  0.08665583  0.63255419  1
  O  O49  1  0.14871129  0.87283978  0.26534264  1
  O  O50  1  0.85123506  0.86250570  0.88881667  1
  O  O51  1  0.88658217  0.29896446  0.40386684  1
  O  O52  1  0.80669287  0.41058214  0.63380416  1
  O  O53  1  0.11841447  0.72135340  0.90750040  1
  O  O54  1  0.20105129  0.57445642  0.11017742  1
  O  O55  1  0.40197430  0.78097812  0.24793866  1
  O  O56  1  0.38158553  0.22135340  0.09249960  1
  O  O57  1  0.36818090  0.87464641  0.75069461  1
  O  O58  1  0.68014149  0.03389795  0.59055015  1
  O  O59  1  0.70702389  0.92830688  0.10650324  1
  O  O60  1  0.12894646  0.13522260  0.08332840  1
  O  O61  1  0.89773505  0.71935994  0.26217634  1
  O  O62  1  0.61341783  0.79896446  0.59613316  1
  O  O63  1  0.64876494  0.36250570  0.11118333  1
  O  O64  1  0.69330713  0.91058214  0.36619584  1
  O  O65  1  0.85143851  0.12349204  0.78114996  1
  O  O66  1  0.35139149  0.63138459  0.59603827  1
  O  O67  1  0.86710352  0.50656123  0.13980175  1
  O  O68  1  0.64856149  0.62349204  0.21885004  1
  O  O69  1  0.20121143  0.58665583  0.36744581  1
  O  O70  1  0.60158507  0.77776055  0.92502928  1
  O  O71  1  0.35271839  0.97014848  0.40920111  1
