# generated using pymatgen
data_In(MoSe)3
_symmetry_space_group_name_H-M   'P 1'
_cell_length_a   4.51605879
_cell_length_b   9.74827948
_cell_length_c   9.75701090
_cell_angle_alpha   119.99690710
_cell_angle_beta   90.00000000
_cell_angle_gamma   90.00000000
_symmetry_Int_Tables_number   1
_chemical_formula_structural   In(MoSe)3
_chemical_formula_sum   'In2 Mo6 Se6'
_cell_volume   372.00477559
_cell_formula_units_Z   2
loop_
 _symmetry_equiv_pos_site_id
 _symmetry_equiv_pos_as_xyz
  1  'x, y, z'
loop_
 _atom_site_type_symbol
 _atom_site_label
 _atom_site_symmetry_multiplicity
 _atom_site_fract_x
 _atom_site_fract_y
 _atom_site_fract_z
 _atom_site_occupancy
  In  In0  1  0.75000000  0.66652114  0.33353735  1
  In  In1  1  0.25000000  0.33347886  0.66646265  1
  Mo  Mo2  1  0.75000000  0.01945849  0.85209887  1
  Mo  Mo3  1  0.75000000  0.14802712  0.16737222  1
  Mo  Mo4  1  0.75000000  0.83254509  0.98055351  1
  Mo  Mo5  1  0.25000000  0.98054151  0.14790113  1
  Mo  Mo6  1  0.25000000  0.85197288  0.83262778  1
  Mo  Mo7  1  0.25000000  0.16745491  0.01944649  1
  Se  Se8  1  0.75000000  0.70874667  0.66935570  1
  Se  Se9  1  0.75000000  0.33092596  0.03965784  1
  Se  Se10  1  0.75000000  0.96024533  0.29095763  1
  Se  Se11  1  0.25000000  0.29125333  0.33064430  1
  Se  Se12  1  0.25000000  0.66907404  0.96034216  1
  Se  Se13  1  0.25000000  0.03975467  0.70904237  1
