# generated using pymatgen
data_CeAl4
_symmetry_space_group_name_H-M   'P 1'
_cell_length_a   4.29445589
_cell_length_b   8.78673453
_cell_length_c   8.78673453
_cell_angle_alpha   80.58240710
_cell_angle_beta   75.85530263
_cell_angle_gamma   75.85530263
_symmetry_Int_Tables_number   1
_chemical_formula_structural   CeAl4
_chemical_formula_sum   'Ce3 Al12'
_cell_volume   309.85125622
_cell_formula_units_Z   3
loop_
 _symmetry_equiv_pos_site_id
 _symmetry_equiv_pos_as_xyz
  1  'x, y, z'
loop_
 _atom_site_type_symbol
 _atom_site_label
 _atom_site_symmetry_multiplicity
 _atom_site_fract_x
 _atom_site_fract_y
 _atom_site_fract_z
 _atom_site_occupancy
  Ce  Ce0  1  -0.00000000  0.99483737  0.00516263  1
  Ce  Ce1  1  0.33310980  0.66833141  0.66544899  1
  Ce  Ce2  1  0.66689020  0.33455101  0.33166859  1
  Al  Al3  1  -0.00000000  0.39340136  0.60659864  1
  Al  Al4  1  0.00000000  0.61440897  0.38559103  1
  Al  Al5  1  0.50000000  0.74993371  0.25006629  1
  Al  Al6  1  0.50000000  0.25574412  0.74425588  1
  Al  Al7  1  0.83724944  0.40785815  0.91764298  1
  Al  Al8  1  0.16275056  0.08235702  0.59214185  1
  Al  Al9  1  0.67003677  0.71598332  0.94394314  1
  Al  Al10  1  0.32996323  0.05605686  0.28401668  1
  Al  Al11  1  0.66290024  0.94457067  0.72962886  1
  Al  Al12  1  0.33709976  0.27037114  0.05542933  1
  Al  Al13  1  0.82913554  0.92066191  0.42106702  1
  Al  Al14  1  0.17086446  0.57893298  0.07933809  1
