# generated using pymatgen
data_ZnHIO4
_symmetry_space_group_name_H-M   'P 1'
_cell_length_a   5.49062074
_cell_length_b   6.49405911
_cell_length_c   6.42136776
_cell_angle_alpha   92.57055125
_cell_angle_beta   96.09009286
_cell_angle_gamma   64.99218885
_symmetry_Int_Tables_number   1
_chemical_formula_structural   ZnHIO4
_chemical_formula_sum   'Zn2 H2 I2 O8'
_cell_volume   206.32666385
_cell_formula_units_Z   2
loop_
 _symmetry_equiv_pos_site_id
 _symmetry_equiv_pos_as_xyz
  1  'x, y, z'
loop_
 _atom_site_type_symbol
 _atom_site_label
 _atom_site_symmetry_multiplicity
 _atom_site_fract_x
 _atom_site_fract_y
 _atom_site_fract_z
 _atom_site_occupancy
  Zn  Zn0  1  0.54881948  0.91586835  0.36426398  1
  Zn  Zn1  1  0.46468782  0.08413165  0.86426398  1
  H  H2  1  0.74962626  0.12068726  0.60603406  1
  H  H3  1  0.87031353  0.87931274  0.10603406  1
  I  I4  1  0.93739603  0.36847626  0.13465316  1
  I  I5  1  0.30587229  0.63152374  0.63465316  1
  O  O6  1  0.14452295  0.07709711  0.23101979  1
  O  O7  1  0.22162007  0.92290289  0.73101979  1
  O  O8  1  0.65326085  0.33110119  0.99866778  1
  O  O9  1  0.98436203  0.66889881  0.49866778  1
  O  O10  1  0.12676421  0.36731008  0.91268107  1
  O  O11  1  0.49407429  0.63268992  0.41268107  1
  O  O12  1  0.56394517  0.13638984  0.58468017  1
  O  O13  1  0.70033502  0.86361016  0.08468017  1
