# generated using pymatgen
data_Mg4Fe5(TeO6)3
_symmetry_space_group_name_H-M   'P 1'
_cell_length_a   8.73256017
_cell_length_b   8.73255966
_cell_length_c   10.67856107
_cell_angle_alpha   84.82941355
_cell_angle_beta   84.82941116
_cell_angle_gamma   63.24252731
_symmetry_Int_Tables_number   1
_chemical_formula_structural   Mg4Fe5(TeO6)3
_chemical_formula_sum   'Mg8 Fe10 Te6 O36'
_cell_volume   723.04042398
_cell_formula_units_Z   2
loop_
 _symmetry_equiv_pos_site_id
 _symmetry_equiv_pos_as_xyz
  1  'x, y, z'
loop_
 _atom_site_type_symbol
 _atom_site_label
 _atom_site_symmetry_multiplicity
 _atom_site_fract_x
 _atom_site_fract_y
 _atom_site_fract_z
 _atom_site_occupancy
  Mg  Mg0  1  0.87207446  0.54795479  0.32603738  1
  Mg  Mg1  1  0.47852958  0.56058687  0.22434308  1
  Mg  Mg2  1  0.45204521  0.12792554  0.67396262  1
  Mg  Mg3  1  0.43941313  0.52147042  0.77565692  1
  Mg  Mg4  1  0.17547882  0.87901620  0.71523446  1
  Mg  Mg5  1  0.14973295  0.24953554  0.83243347  1
  Mg  Mg6  1  0.75046446  0.85026705  0.16756653  1
  Mg  Mg7  1  0.12098380  0.82452118  0.28476554  1
  Fe  Fe8  1  0.78957014  0.49232791  0.97909176  1
  Fe  Fe9  1  0.09576894  0.18764456  0.47595868  1
  Fe  Fe10  1  0.33086804  0.33143259  0.30036561  1
  Fe  Fe11  1  0.94742374  0.72567849  0.80626855  1
  Fe  Fe12  1  0.66856741  0.66913196  0.69963439  1
  Fe  Fe13  1  0.97980560  0.02019440  0.00000000  1
  Fe  Fe14  1  0.62186695  0.37813305  0.50000000  1
  Fe  Fe15  1  0.27432151  0.05257726  0.19373145  1
  Fe  Fe16  1  0.81235544  0.90423106  0.52404132  1
  Fe  Fe17  1  0.50767209  0.21042986  0.02090824  1
  Te  Te18  1  0.46390941  0.86263426  0.95115006  1
  Te  Te19  1  0.80716279  0.19540137  0.25598892  1
  Te  Te20  1  0.80459863  0.19283721  0.74401108  1
  Te  Te21  1  0.46642721  0.85158809  0.43939873  1
  Te  Te22  1  0.14841191  0.53357279  0.56060127  1
  Te  Te23  1  0.13736574  0.53609059  0.04884894  1
  O  O24  1  0.40038992  0.08825107  0.86153105  1
  O  O25  1  0.70528864  0.46428350  0.82398768  1
  O  O26  1  0.55819087  0.58926756  0.59262275  1
  O  O27  1  0.72179655  0.12899706  0.43453203  1
  O  O28  1  0.53571650  0.29471136  0.17601232  1
  O  O29  1  0.87100294  0.27820345  0.56546797  1
  O  O30  1  0.36085851  0.80374680  0.29007357  1
  O  O31  1  0.05468764  0.08096480  0.82820223  1
  O  O32  1  0.55383923  0.29009934  0.67531197  1
  O  O33  1  0.09473355  0.40367001  0.39841059  1
  O  O34  1  0.56062638  0.64477454  0.05632972  1
  O  O35  1  0.52765232  0.97118338  0.08320505  1
  O  O36  1  0.89350863  0.95202213  0.68267504  1
  O  O37  1  0.69957861  0.76287270  0.87062379  1
  O  O38  1  0.35522546  0.43937362  0.94367028  1
  O  O39  1  0.22619825  0.59441266  0.18940377  1
  O  O40  1  0.02507264  0.76657518  0.44284046  1
  O  O41  1  0.23712730  0.30042139  0.12937621  1
  O  O42  1  0.41073244  0.44180913  0.40737725  1
  O  O43  1  0.23342482  0.97492736  0.55715954  1
  O  O44  1  0.70584704  0.79349802  0.34728597  1
  O  O45  1  0.90637864  0.62859810  0.63783774  1
  O  O46  1  0.91903520  0.94531236  0.17179777  1
  O  O47  1  0.40558734  0.77380175  0.81059623  1
  O  O48  1  0.05545626  0.75990416  0.95904526  1
  O  O49  1  0.73529864  0.10830830  0.93662682  1
  O  O50  1  0.02881662  0.47234768  0.91679495  1
  O  O51  1  0.19625320  0.63914149  0.70992643  1
  O  O52  1  0.04797787  0.10649137  0.31732496  1
  O  O53  1  0.37140190  0.09362136  0.36216226  1
  O  O54  1  0.20650198  0.29415296  0.65271403  1
  O  O55  1  0.89169170  0.26470136  0.06337318  1
  O  O56  1  0.70990066  0.44616077  0.32468803  1
  O  O57  1  0.59632999  0.90526645  0.60158941  1
  O  O58  1  0.24009584  0.94454374  0.04095474  1
  O  O59  1  0.91174893  0.59961008  0.13846895  1
