# generated using pymatgen
data_Eu5(MoO6)2
_symmetry_space_group_name_H-M   'P 1'
_cell_length_a   5.93271017
_cell_length_b   7.05767487
_cell_length_c   7.85826725
_cell_angle_alpha   106.26815547
_cell_angle_beta   90.00000000
_cell_angle_gamma   114.85365743
_symmetry_Int_Tables_number   1
_chemical_formula_structural   Eu5(MoO6)2
_chemical_formula_sum   'Eu5 Mo2 O12'
_cell_volume   283.97641883
_cell_formula_units_Z   1
loop_
 _symmetry_equiv_pos_site_id
 _symmetry_equiv_pos_as_xyz
  1  'x, y, z'
loop_
 _atom_site_type_symbol
 _atom_site_label
 _atom_site_symmetry_multiplicity
 _atom_site_fract_x
 _atom_site_fract_y
 _atom_site_fract_z
 _atom_site_occupancy
  Eu  Eu0  1  0.30670874  0.61341748  0.63608552  1
  Eu  Eu1  1  0.69329126  0.38658252  0.36391448  1
  Eu  Eu2  1  0.31452806  0.62905611  0.17810441  1
  Eu  Eu3  1  0.68547194  0.37094389  0.82189559  1
  Eu  Eu4  1  -0.00000000  0.00000000  0.50000000  1
  Mo  Mo5  1  0.77443788  0.00000000  -0.00000000  1
  Mo  Mo6  1  0.22556212  0.00000000  -0.00000000  1
  O  O7  1  0.90260504  0.31299770  0.07778937  1
  O  O8  1  0.41039266  0.31299770  0.07778937  1
  O  O9  1  0.09739496  0.68700230  0.92221063  1
  O  O10  1  0.58960734  0.68700230  0.92221063  1
  O  O11  1  0.09480864  0.68790417  0.42070646  1
  O  O12  1  0.59309552  0.68790417  0.42070646  1
  O  O13  1  0.90519136  0.31209583  0.57929354  1
  O  O14  1  0.40690448  0.31209583  0.57929354  1
  O  O15  1  0.00106260  0.00212520  0.19245730  1
  O  O16  1  0.99893740  0.99787480  0.80754270  1
  O  O17  1  0.50044883  0.00089765  0.17026127  1
  O  O18  1  0.49955117  0.99910235  0.82973873  1
