# generated using pymatgen
data_BaYbFe4O7
_symmetry_space_group_name_H-M   'P 1'
_cell_length_a   6.42995503
_cell_length_b   6.42995503
_cell_length_c   6.41128727
_cell_angle_alpha   120.09636958
_cell_angle_beta   120.09636958
_cell_angle_gamma   90.00000000
_symmetry_Int_Tables_number   1
_chemical_formula_structural   BaYbFe4O7
_chemical_formula_sum   'Ba1 Yb1 Fe4 O7'
_cell_volume   186.88565511
_cell_formula_units_Z   1
loop_
 _symmetry_equiv_pos_site_id
 _symmetry_equiv_pos_as_xyz
  1  'x, y, z'
loop_
 _atom_site_type_symbol
 _atom_site_label
 _atom_site_symmetry_multiplicity
 _atom_site_fract_x
 _atom_site_fract_y
 _atom_site_fract_z
 _atom_site_occupancy
  Ba  Ba0  1  0.25000000  0.75000000  0.50000000  1
  Yb  Yb1  1  -0.00000000  -0.00000000  -0.00000000  1
  Fe  Fe2  1  0.14440709  0.40563390  0.76622951  1
  Fe  Fe3  1  0.62182242  0.36059560  0.76622951  1
  Fe  Fe4  1  0.63940440  0.85559291  0.23377049  1
  Fe  Fe5  1  0.59436610  0.37817758  0.23377049  1
  O  O6  1  0.81273743  0.73009512  0.04448896  1
  O  O7  1  0.23175153  0.31439384  0.04448896  1
  O  O8  1  0.68560616  0.18726257  0.95551104  1
  O  O9  1  0.26990488  0.76824847  0.95551104  1
  O  O10  1  0.74543795  0.74543795  0.49087589  1
  O  O11  1  0.25456205  0.25456205  0.50912411  1
  O  O12  1  0.75000000  0.25000000  0.50000000  1
