# generated using pymatgen
data_TlIn(PS3)2
_symmetry_space_group_name_H-M   'P 1'
_cell_length_a   6.70521607
_cell_length_b   9.30097698
_cell_length_c   8.98454485
_cell_angle_alpha   90.00000000
_cell_angle_beta   90.08204672
_cell_angle_gamma   90.00000000
_symmetry_Int_Tables_number   1
_chemical_formula_structural   TlIn(PS3)2
_chemical_formula_sum   'Tl2 In2 P4 S12'
_cell_volume   560.32110657
_cell_formula_units_Z   2
loop_
 _symmetry_equiv_pos_site_id
 _symmetry_equiv_pos_as_xyz
  1  'x, y, z'
loop_
 _atom_site_type_symbol
 _atom_site_label
 _atom_site_symmetry_multiplicity
 _atom_site_fract_x
 _atom_site_fract_y
 _atom_site_fract_z
 _atom_site_occupancy
  Tl  Tl0  1  0.79367763  0.19954996  0.00408177  1
  Tl  Tl1  1  0.20632237  0.69954996  0.99591823  1
  In  In2  1  0.70031289  0.56469707  0.48085098  1
  In  In3  1  0.29968711  0.06469707  0.51914902  1
  P  P4  1  0.68727402  0.70677400  0.79071717  1
  P  P5  1  0.31272598  0.20677400  0.20928283  1
  P  P6  1  0.79614360  0.89525267  0.64728615  1
  P  P7  1  0.20385640  0.39525267  0.35271385  1
  S  S8  1  0.60225407  0.06174385  0.69399582  1
  S  S9  1  0.39774593  0.56174385  0.30600418  1
  S  S10  1  0.69580569  0.76965808  0.00160213  1
  S  S11  1  0.30419431  0.26965808  0.99839787  1
  S  S12  1  0.79331546  0.83142440  0.43042787  1
  S  S13  1  0.20668454  0.33142440  0.56957213  1
  S  S14  1  0.87788007  0.53883016  0.73359511  1
  S  S15  1  0.12211993  0.03883016  0.26640489  1
  S  S16  1  0.92966157  0.45661577  0.27201295  1
  S  S17  1  0.07033843  0.95661577  0.72798705  1
  S  S18  1  0.42363537  0.66533403  0.69062074  1
  S  S19  1  0.57636463  0.16533403  0.30937926  1
