# generated using pymatgen
data_Tl4SnSe3
_symmetry_space_group_name_H-M   'P 1'
_cell_length_a   8.51384543
_cell_length_b   8.51384543
_cell_length_c   8.82397192
_cell_angle_alpha   118.84403961
_cell_angle_beta   118.84403961
_cell_angle_gamma   90.00000000
_symmetry_Int_Tables_number   1
_chemical_formula_structural   Tl4SnSe3
_chemical_formula_sum   'Tl8 Sn2 Se6'
_cell_volume   467.62847775
_cell_formula_units_Z   2
loop_
 _symmetry_equiv_pos_site_id
 _symmetry_equiv_pos_as_xyz
  1  'x, y, z'
loop_
 _atom_site_type_symbol
 _atom_site_label
 _atom_site_symmetry_multiplicity
 _atom_site_fract_x
 _atom_site_fract_y
 _atom_site_fract_z
 _atom_site_occupancy
  Tl  Tl0  1  0.00597689  0.80503559  0.31101248  1
  Tl  Tl1  1  0.30503559  0.50597689  0.31101248  1
  Tl  Tl2  1  0.80503559  0.30503559  0.31101248  1
  Tl  Tl3  1  0.50597689  0.00597689  0.31101248  1
  Tl  Tl4  1  0.99402311  0.19496441  0.68898752  1
  Tl  Tl5  1  0.69496441  0.49402311  0.68898752  1
  Tl  Tl6  1  0.19496441  0.69496441  0.68898752  1
  Tl  Tl7  1  0.49402311  0.99402311  0.68898752  1
  Sn  Sn8  1  0.50000000  0.50000000  0.00000000  1
  Sn  Sn9  1  0.00000000  -0.00000000  0.00000000  1
  Se  Se10  1  0.75000000  0.75000000  0.50000000  1
  Se  Se11  1  0.25000000  0.25000000  0.50000000  1
  Se  Se12  1  0.66500964  0.83499036  -0.00000000  1
  Se  Se13  1  0.33499036  0.16500964  0.00000000  1
  Se  Se14  1  0.83499036  0.33499036  0.00000000  1
  Se  Se15  1  0.16500964  0.66500964  1.00000000  1
