# generated using pymatgen
data_CsFe2F6
_symmetry_space_group_name_H-M   'P 1'
_cell_length_a   7.51674988
_cell_length_b   7.51674988
_cell_length_c   7.51674988
_cell_angle_alpha   60.00000000
_cell_angle_beta   60.00000000
_cell_angle_gamma   60.00000000
_symmetry_Int_Tables_number   1
_chemical_formula_structural   CsFe2F6
_chemical_formula_sum   'Cs2 Fe4 F12'
_cell_volume   300.31380704
_cell_formula_units_Z   2
loop_
 _symmetry_equiv_pos_site_id
 _symmetry_equiv_pos_as_xyz
  1  'x, y, z'
loop_
 _atom_site_type_symbol
 _atom_site_label
 _atom_site_symmetry_multiplicity
 _atom_site_fract_x
 _atom_site_fract_y
 _atom_site_fract_z
 _atom_site_occupancy
  Cs  Cs0  1  0.37500000  0.37500000  0.37500000  1
  Cs  Cs1  1  0.62500000  0.62500000  0.62500000  1
  Fe  Fe2  1  -0.00000000  0.00000000  0.50000000  1
  Fe  Fe3  1  -0.00000000  0.50000000  -0.00000000  1
  Fe  Fe4  1  0.50000000  0.00000000  -0.00000000  1
  Fe  Fe5  1  -0.00000000  0.00000000  -0.00000000  1
  F  F6  1  0.93126778  0.31873222  0.31873222  1
  F  F7  1  0.31873222  0.93126778  0.93126778  1
  F  F8  1  0.31873222  0.93126778  0.31873222  1
  F  F9  1  0.93126778  0.31873222  0.93126778  1
  F  F10  1  0.31873222  0.31873222  0.93126778  1
  F  F11  1  0.93126778  0.93126778  0.31873222  1
  F  F12  1  0.06873222  0.68126778  0.68126778  1
  F  F13  1  0.68126778  0.06873222  0.06873222  1
  F  F14  1  0.68126778  0.06873222  0.68126778  1
  F  F15  1  0.06873222  0.68126778  0.06873222  1
  F  F16  1  0.68126778  0.68126778  0.06873222  1
  F  F17  1  0.06873222  0.06873222  0.68126778  1
