# generated using pymatgen
data_Na4Sr(SiO3)3
_symmetry_space_group_name_H-M   'P 1'
_cell_length_a   6.69399898
_cell_length_b   6.70421783
_cell_length_c   6.69989602
_cell_angle_alpha   109.54959875
_cell_angle_beta   109.48786757
_cell_angle_gamma   109.37147368
_symmetry_Int_Tables_number   1
_chemical_formula_structural   Na4Sr(SiO3)3
_chemical_formula_sum   'Na4 Sr1 Si3 O9'
_cell_volume   231.47517691
_cell_formula_units_Z   1
loop_
 _symmetry_equiv_pos_site_id
 _symmetry_equiv_pos_as_xyz
  1  'x, y, z'
loop_
 _atom_site_type_symbol
 _atom_site_label
 _atom_site_symmetry_multiplicity
 _atom_site_fract_x
 _atom_site_fract_y
 _atom_site_fract_z
 _atom_site_occupancy
  Na  Na0  1  0.49625211  0.49625211  0.99250421  1
  Na  Na1  1  0.52472936  0.02472936  0.04945872  1
  Na  Na2  1  0.47012784  0.44373953  0.46704269  1
  Na  Na3  1  0.99691485  0.02330316  0.46704269  1
  Sr  Sr4  1  0.99519472  0.49519472  0.99038944  1
  Si  Si5  1  0.96076467  0.96076467  0.92152934  1
  Si  Si6  1  0.49682020  0.96144262  0.53050640  1
  Si  Si7  1  0.03368620  0.56906378  0.53050640  1
  O  O8  1  0.73896366  0.97746502  0.73094079  1
  O  O9  1  0.99197713  0.75347577  0.73094079  1
  O  O10  1  0.86716600  0.83805918  0.06619866  1
  O  O11  1  0.19903265  0.22813947  0.06619866  1
  O  O12  1  0.45861957  0.83441619  0.25942597  1
  O  O13  1  0.80080640  0.42500978  0.25942597  1
  O  O14  1  0.53059911  0.23102142  0.65386594  1
  O  O15  1  0.12326682  0.42284451  0.65386594  1
  O  O16  1  0.26307870  0.76307870  0.52615740  1
