# generated using pymatgen
data_MgNiPO5
_symmetry_space_group_name_H-M   'P 1'
_cell_length_a   5.28157332
_cell_length_b   6.79846530
_cell_length_c   8.27229245
_cell_angle_alpha   89.83004097
_cell_angle_beta   141.88366612
_cell_angle_gamma   76.02727116
_symmetry_Int_Tables_number   1
_chemical_formula_structural   MgNiPO5
_chemical_formula_sum   'Mg2 Ni2 P2 O10'
_cell_volume   168.43748846
_cell_formula_units_Z   2
loop_
 _symmetry_equiv_pos_site_id
 _symmetry_equiv_pos_as_xyz
  1  'x, y, z'
loop_
 _atom_site_type_symbol
 _atom_site_label
 _atom_site_symmetry_multiplicity
 _atom_site_fract_x
 _atom_site_fract_y
 _atom_site_fract_z
 _atom_site_occupancy
  Mg  Mg0  1  0.51294178  0.23321473  0.17705719  1
  Mg  Mg1  1  0.50828157  0.73445159  0.83407685  1
  Ni  Ni2  1  0.49810287  0.49401678  0.49963054  1
  Ni  Ni3  1  0.49762857  0.99421422  0.49901948  1
  P  P4  1  0.49726826  0.24495742  0.83224476  1
  P  P5  1  0.49285446  0.74378409  0.16361436  1
  O  O6  1  0.26769116  0.12986411  0.60931201  1
  O  O7  1  0.71853842  0.36619530  0.83950355  1
  O  O8  1  0.71960877  0.86344155  0.38243293  1
  O  O9  1  0.26988219  0.62654974  0.15812732  1
  O  O10  1  0.83041131  0.58554615  0.21391673  1
  O  O11  1  0.15423235  0.90595550  0.87346168  1
  O  O12  1  0.16600458  0.39997211  0.78826757  1
  O  O13  1  0.84131571  0.07932164  0.12185040  1
  O  O14  1  0.49950109  0.74786631  0.59016812  1
  O  O15  1  0.49486493  0.24091776  0.40781750  1
