# generated using pymatgen
data_Sc3As2
_symmetry_space_group_name_H-M   'P 1'
_cell_length_a   3.86413163
_cell_length_b   10.35425381
_cell_length_c   10.35425381
_cell_angle_alpha   90.00000000
_cell_angle_beta   90.00000000
_cell_angle_gamma   90.00000000
_symmetry_Int_Tables_number   1
_chemical_formula_structural   Sc3As2
_chemical_formula_sum   'Sc12 As8'
_cell_volume   414.27576219
_cell_formula_units_Z   4
loop_
 _symmetry_equiv_pos_site_id
 _symmetry_equiv_pos_as_xyz
  1  'x, y, z'
loop_
 _atom_site_type_symbol
 _atom_site_label
 _atom_site_symmetry_multiplicity
 _atom_site_fract_x
 _atom_site_fract_y
 _atom_site_fract_z
 _atom_site_occupancy
  Sc  Sc0  1  0.50000000  0.81165916  0.14032780  1
  Sc  Sc1  1  0.50000000  0.18834084  0.85967220  1
  Sc  Sc2  1  0.50000000  0.14032780  0.18834084  1
  Sc  Sc3  1  0.50000000  0.85967220  0.81165916  1
  Sc  Sc4  1  -0.00000000  0.71997690  0.39662806  1
  Sc  Sc5  1  0.00000000  0.28002310  0.60337194  1
  Sc  Sc6  1  0.00000000  0.39662806  0.28002310  1
  Sc  Sc7  1  -0.00000000  0.60337194  0.71997690  1
  Sc  Sc8  1  0.50000000  0.50000000  0.00000000  1
  Sc  Sc9  1  0.50000000  -0.00000000  0.50000000  1
  Sc  Sc10  1  0.50000000  0.50000000  0.50000000  1
  Sc  Sc11  1  0.00000000  -0.00000000  0.00000000  1
  As  As12  1  0.50000000  0.58274888  0.25410756  1
  As  As13  1  0.50000000  0.41725112  0.74589244  1
  As  As14  1  0.50000000  0.25410756  0.41725112  1
  As  As15  1  0.50000000  0.74589244  0.58274888  1
  As  As16  1  0.00000000  0.95577752  0.27807281  1
  As  As17  1  -0.00000000  0.04422248  0.72192719  1
  As  As18  1  0.00000000  0.27807281  0.04422248  1
  As  As19  1  -0.00000000  0.72192719  0.95577752  1
