# generated using pymatgen
data_TiNb2Zn2O8
_symmetry_space_group_name_H-M   'P 1'
_cell_length_a   5.29644216
_cell_length_b   5.93016082
_cell_length_c   10.13955244
_cell_angle_alpha   107.02541160
_cell_angle_beta   89.53605634
_cell_angle_gamma   90.14045784
_symmetry_Int_Tables_number   1
_chemical_formula_structural   TiNb2Zn2O8
_chemical_formula_sum   'Ti2 Nb4 Zn4 O16'
_cell_volume   304.50374004
_cell_formula_units_Z   2
loop_
 _symmetry_equiv_pos_site_id
 _symmetry_equiv_pos_as_xyz
  1  'x, y, z'
loop_
 _atom_site_type_symbol
 _atom_site_label
 _atom_site_symmetry_multiplicity
 _atom_site_fract_x
 _atom_site_fract_y
 _atom_site_fract_z
 _atom_site_occupancy
  Ti  Ti0  1  0.75335584  0.63311473  0.00062765  1
  Ti  Ti1  1  0.24509322  0.36917074  0.00108658  1
  Nb  Nb2  1  0.73335832  0.26103523  0.22852050  1
  Nb  Nb3  1  0.75777154  0.03021991  0.77228151  1
  Nb  Nb4  1  0.26482221  0.73809259  0.77148399  1
  Nb  Nb5  1  0.23972252  0.97252577  0.22923835  1
  Zn  Zn6  1  0.76888214  0.43083129  0.55990959  1
  Zn  Zn7  1  0.72851437  0.87177140  0.43759715  1
  Zn  Zn8  1  0.22797869  0.56901626  0.43901852  1
  Zn  Zn9  1  0.26870827  0.12907444  0.56371036  1
  O  O10  1  0.09063506  0.20203152  0.13110645  1
  O  O11  1  0.40818234  0.07313979  0.87059562  1
  O  O12  1  0.90873891  0.80109947  0.86950108  1
  O  O13  1  0.58907762  0.92777694  0.12897633  1
  O  O14  1  0.58272138  0.43354699  0.11023599  1
  O  O15  1  0.91426939  0.32220269  0.89001470  1
  O  O16  1  0.41412991  0.56724502  0.89003331  1
  O  O17  1  0.08120503  0.68055857  0.11036668  1
  O  O18  1  0.42981381  0.28154395  0.35565482  1
  O  O19  1  0.06969325  0.92539542  0.64890544  1
  O  O20  1  0.36033057  0.84348805  0.38650777  1
  O  O21  1  0.13543077  0.45452101  0.61438032  1
  O  O22  1  0.63717610  0.15776568  0.61451935  1
  O  O23  1  0.86191536  0.54676707  0.38601230  1
  O  O24  1  0.92711547  0.07656226  0.35273119  1
  O  O25  1  0.56805591  0.71954721  0.64554744  1
