# generated using pymatgen
data_Pr3ReO7
_symmetry_space_group_name_H-M   'P 1'
_cell_length_a   6.70730134
_cell_length_b   6.70730135
_cell_length_c   7.68737523
_cell_angle_alpha   90.00000000
_cell_angle_beta   90.00000000
_cell_angle_gamma   111.40847667
_symmetry_Int_Tables_number   1
_chemical_formula_structural   Pr3ReO7
_chemical_formula_sum   'Pr6 Re2 O14'
_cell_volume   321.97655456
_cell_formula_units_Z   2
loop_
 _symmetry_equiv_pos_site_id
 _symmetry_equiv_pos_as_xyz
  1  'x, y, z'
loop_
 _atom_site_type_symbol
 _atom_site_label
 _atom_site_symmetry_multiplicity
 _atom_site_fract_x
 _atom_site_fract_y
 _atom_site_fract_z
 _atom_site_occupancy
  O  O0  1  0.34354373  0.60619575  0.75000000  1
  O  O1  1  0.65645627  0.39380425  0.25000000  1
  O  O2  1  0.60619575  0.34354373  0.75000000  1
  O  O3  1  0.39380425  0.65645627  0.25000000  1
  O  O4  1  0.05910237  0.30940476  0.03741062  1
  O  O5  1  0.94089763  0.69059524  0.53741062  1
  O  O6  1  0.30940476  0.05910237  0.46258938  1
  O  O7  1  0.69059524  0.94089763  0.96258938  1
  O  O8  1  0.92319272  0.92319272  0.25000000  1
  O  O9  1  0.07680728  0.07680728  0.75000000  1
  O  O10  1  0.30940476  0.05910237  0.03741062  1
  O  O11  1  0.69059524  0.94089763  0.53741062  1
  O  O12  1  0.05910237  0.30940476  0.46258938  1
  O  O13  1  0.94089763  0.69059524  0.96258938  1
  Pr  Pr14  1  0.58089098  0.02637027  0.25000000  1
  Pr  Pr15  1  0.41910902  0.97362973  0.75000000  1
  Pr  Pr16  1  0.50000000  0.50000000  0.50000000  1
  Pr  Pr17  1  0.50000000  0.50000000  0.00000000  1
  Pr  Pr18  1  0.97362973  0.41910902  0.75000000  1
  Pr  Pr19  1  0.02637027  0.58089098  0.25000000  1
  Re  Re20  1  0.00000000  0.00000000  0.00000000  1
  Re  Re21  1  0.00000000  0.00000000  0.50000000  1
