# generated using pymatgen
data_SrCeN2
_symmetry_space_group_name_H-M   'P 1'
_cell_length_a   7.39015660
_cell_length_b   9.73767469
_cell_length_c   6.34097062
_cell_angle_alpha   29.27258901
_cell_angle_beta   54.35716219
_cell_angle_gamma   40.63055958
_symmetry_Int_Tables_number   1
_chemical_formula_structural   SrCeN2
_chemical_formula_sum   'Sr2 Ce2 N4'
_cell_volume   140.71639309
_cell_formula_units_Z   2
loop_
 _symmetry_equiv_pos_site_id
 _symmetry_equiv_pos_as_xyz
  1  'x, y, z'
loop_
 _atom_site_type_symbol
 _atom_site_label
 _atom_site_symmetry_multiplicity
 _atom_site_fract_x
 _atom_site_fract_y
 _atom_site_fract_z
 _atom_site_occupancy
  Sr  Sr0  1  0.00000000  -0.00000000  -0.00000000  1
  Sr  Sr1  1  0.75000000  0.50000000  -0.00000000  1
  Ce  Ce2  1  0.25000000  0.50000000  -0.00000000  1
  Ce  Ce3  1  0.50000000  -0.00000000  -0.00000000  1
  N  N4  1  0.27945830  1.00000000  0.44108339  1
  N  N5  1  0.02945830  0.50000000  0.44108339  1
  N  N6  1  0.72054170  0.00000000  0.55891661  1
  N  N7  1  0.47054170  0.50000000  0.55891661  1
