# generated using pymatgen
data_BaNb4O11
_symmetry_space_group_name_H-M   'P 1'
_cell_length_a   6.40315541
_cell_length_b   6.40320249
_cell_length_c   12.66412305
_cell_angle_alpha   89.99973392
_cell_angle_beta   90.00000001
_cell_angle_gamma   119.99976110
_symmetry_Int_Tables_number   1
_chemical_formula_structural   BaNb4O11
_chemical_formula_sum   'Ba2 Nb8 O22'
_cell_volume   449.67431020
_cell_formula_units_Z   2
loop_
 _symmetry_equiv_pos_site_id
 _symmetry_equiv_pos_as_xyz
  1  'x, y, z'
loop_
 _atom_site_type_symbol
 _atom_site_label
 _atom_site_symmetry_multiplicity
 _atom_site_fract_x
 _atom_site_fract_y
 _atom_site_fract_z
 _atom_site_occupancy
  Ba  Ba0  1  0.33332681  0.66666822  0.75000002  1
  Ba  Ba1  1  0.66665859  0.33333178  0.24999998  1
  Nb  Nb2  1  0.66668614  0.33333590  0.74999981  1
  Nb  Nb3  1  0.33335024  0.66666410  0.25000019  1
  Nb  Nb4  1  0.64556269  0.00000000  0.50000000  1
  Nb  Nb5  1  0.35442676  0.35443025  0.50000904  1
  Nb  Nb6  1  0.99999652  0.64556975  0.49999096  1
  Nb  Nb7  1  0.35444130  1.00000000  -0.00000000  1
  Nb  Nb8  1  0.64558467  0.64557042  0.99999408  1
  Nb  Nb9  1  0.00001425  0.35442958  0.00000592  1
  O  O10  1  0.66667232  0.33333070  0.03351785  1
  O  O11  1  0.33334162  0.66666930  0.96648215  1
  O  O12  1  0.33332386  0.66667113  0.53351690  1
  O  O13  1  0.66665273  0.33332887  0.46648310  1
  O  O14  1  0.24347147  1.00000000  0.50000000  1
  O  O15  1  0.75650882  0.75651798  0.49999962  1
  O  O16  1  0.99999085  0.24348202  0.50000038  1
  O  O17  1  0.75652687  0.00000000  0.00000000  1
  O  O18  1  0.24348771  0.24348213  0.00000180  1
  O  O19  1  0.00000558  0.75651787  0.99999820  1
  O  O20  1  0.63586419  0.56487153  0.84781259  1
  O  O21  1  0.92900048  0.36412942  0.84781427  1
  O  O22  1  0.43513196  0.07099949  0.84781375  1
  O  O23  1  0.07099266  0.43512847  0.15218741  1
  O  O24  1  0.56487106  0.63587058  0.15218573  1
  O  O25  1  0.36413247  0.92900051  0.15218625  1
  O  O26  1  0.36413211  0.43513475  0.34781524  1
  O  O27  1  0.07098679  0.63586419  0.34781362  1
  O  O28  1  0.56487111  0.92900372  0.34781234  1
  O  O29  1  0.92899736  0.56486525  0.65218476  1
  O  O30  1  0.43512260  0.36413581  0.65218638  1
  O  O31  1  0.63586739  0.07099628  0.65218766  1
