# generated using pymatgen
data_Sr2Y2Cr2O7
_symmetry_space_group_name_H-M   'P 1'
_cell_length_a   12.89451007
_cell_length_b   12.89451007
_cell_length_c   12.89451007
_cell_angle_alpha   36.19898374
_cell_angle_beta   154.42804777
_cell_angle_gamma   154.81343307
_symmetry_Int_Tables_number   1
_chemical_formula_structural   Sr2Y2Cr2O7
_chemical_formula_sum   'Sr4 Y4 Cr4 O14'
_cell_volume   393.32332482
_cell_formula_units_Z   2
loop_
 _symmetry_equiv_pos_site_id
 _symmetry_equiv_pos_as_xyz
  1  'x, y, z'
loop_
 _atom_site_type_symbol
 _atom_site_label
 _atom_site_symmetry_multiplicity
 _atom_site_fract_x
 _atom_site_fract_y
 _atom_site_fract_z
 _atom_site_occupancy
  Sr  Sr0  1  0.03632692  0.86625411  0.88092458  1
  Sr  Sr1  1  0.98532952  0.15540234  0.11907542  1
  Sr  Sr2  1  0.03632692  0.65540234  0.67007281  1
  Sr  Sr3  1  0.98532952  0.36625411  0.32992719  1
  Y  Y4  1  0.02197425  0.52197425  0.50000000  1
  Y  Y5  1  0.02197425  0.02197425  -0.00000000  1
  Y  Y6  1  0.52721018  0.72813486  0.29907532  1
  Y  Y7  1  0.42905954  0.22813486  0.70092468  1
  Cr  Cr8  1  0.52617367  0.45710208  0.92694603  1
  Cr  Cr9  1  0.53015505  0.59922664  0.07305397  1
  Cr  Cr10  1  0.52617367  0.09922664  0.56907259  1
  Cr  Cr11  1  0.53015505  0.95710208  0.43092741  1
  O  O12  1  0.00381611  0.83657676  0.66724035  1
  O  O13  1  0.16933641  0.33657676  0.33275965  1
  O  O14  1  0.45147658  0.18068425  0.15159121  1
  O  O15  1  0.02909504  0.29988636  0.84840879  1
  O  O16  1  0.45147658  0.79988636  0.77079232  1
  O  O17  1  0.02909504  0.68068425  0.22920768  1
  O  O18  1  0.61885189  0.75987716  0.73015153  1
  O  O19  1  0.02972663  0.88870036  0.26984847  1
  O  O20  1  0.61885189  0.38870036  0.35897472  1
  O  O21  1  0.02972663  0.25987716  0.64102528  1
  O  O22  1  0.51165663  0.89551825  0.28099405  1
  O  O23  1  0.61452421  0.23066258  0.71900595  1
  O  O24  1  0.51165663  0.73066258  0.11613837  1
  O  O25  1  0.61452421  0.39551825  0.88386163  1
