# generated using pymatgen
data_Li4Mn3CoO8
_symmetry_space_group_name_H-M   'P 1'
_cell_length_a   5.76366517
_cell_length_b   6.09329316
_cell_length_c   5.88987234
_cell_angle_alpha   118.54114859
_cell_angle_beta   90.00000000
_cell_angle_gamma   61.77393335
_symmetry_Int_Tables_number   1
_chemical_formula_structural   Li4Mn3CoO8
_chemical_formula_sum   'Li4 Mn3 Co1 O8'
_cell_volume   153.13000940
_cell_formula_units_Z   1
loop_
 _symmetry_equiv_pos_site_id
 _symmetry_equiv_pos_as_xyz
  1  'x, y, z'
loop_
 _atom_site_type_symbol
 _atom_site_label
 _atom_site_symmetry_multiplicity
 _atom_site_fract_x
 _atom_site_fract_y
 _atom_site_fract_z
 _atom_site_occupancy
  Li  Li0  1  0.50000000  0.50000000  0.00000000  1
  Li  Li1  1  -0.00000000  0.50000000  0.00000000  1
  Li  Li2  1  -0.00000000  0.00000000  0.50000000  1
  Li  Li3  1  0.50000000  0.00000000  0.50000000  1
  Mn  Mn4  1  0.50000000  0.00000000  0.00000000  1
  Mn  Mn5  1  0.50000000  0.50000000  0.50000000  1
  Mn  Mn6  1  -0.00000000  0.50000000  0.50000000  1
  Co  Co7  1  -0.00000000  0.00000000  0.00000000  1
  O  O8  1  0.74042332  0.00898009  0.77201264  1
  O  O9  1  0.25059659  0.00898009  0.77201264  1
  O  O10  1  0.24448360  0.51103280  0.28169532  1
  O  O11  1  0.76459929  0.47080142  0.25506873  1
  O  O12  1  0.25957668  0.99101991  0.22798736  1
  O  O13  1  0.74940341  0.99101991  0.22798736  1
  O  O14  1  0.75551640  0.48896720  0.71830468  1
  O  O15  1  0.23540071  0.52919858  0.74493127  1
