# generated using pymatgen
data_Li2CoO3
_symmetry_space_group_name_H-M   'P 1'
_cell_length_a   5.00800196
_cell_length_b   4.89828927
_cell_length_c   5.09587851
_cell_angle_alpha   61.27456519
_cell_angle_beta   97.94500485
_cell_angle_gamma   106.71410772
_symmetry_Int_Tables_number   1
_chemical_formula_structural   Li2CoO3
_chemical_formula_sum   'Li4 Co2 O6'
_cell_volume   104.98984206
_cell_formula_units_Z   2
loop_
 _symmetry_equiv_pos_site_id
 _symmetry_equiv_pos_as_xyz
  1  'x, y, z'
loop_
 _atom_site_type_symbol
 _atom_site_label
 _atom_site_symmetry_multiplicity
 _atom_site_fract_x
 _atom_site_fract_y
 _atom_site_fract_z
 _atom_site_occupancy
  Li  Li0  1  0.50000000  0.50728063  0.98543873  1
  Li  Li1  1  0.50000000  0.82605237  0.34789427  1
  Li  Li2  1  0.50000000  0.16666700  0.66666700  1
  Li  Li3  1  0.00000000  0.66666700  0.66666700  1
  Co  Co4  1  0.00000000  0.00750089  -0.01500178  1
  Co  Co5  1  1.00000000  0.32583211  0.34833478  1
  O  O6  1  0.22497577  0.76663326  0.01441290  1
  O  O7  1  0.22497577  0.11437916  0.31892010  1
  O  O8  1  0.23366036  0.39827200  0.66666700  1
  O  O9  1  0.77502423  0.21895384  0.01441290  1
  O  O10  1  0.77502423  0.56669974  0.31892010  1
  O  O11  1  0.76633964  0.93506200  0.66666700  1
