# generated using pymatgen
data_YCo(WO4)2
_symmetry_space_group_name_H-M   'P 1'
_cell_length_a   5.09894762
_cell_length_b   6.09706381
_cell_length_c   6.19937062
_cell_angle_alpha   108.78056007
_cell_angle_beta   116.43005286
_cell_angle_gamma   90.49828701
_symmetry_Int_Tables_number   1
_chemical_formula_structural   YCo(WO4)2
_chemical_formula_sum   'Y1 Co1 W2 O8'
_cell_volume   160.74928582
_cell_formula_units_Z   1
loop_
 _symmetry_equiv_pos_site_id
 _symmetry_equiv_pos_as_xyz
  1  'x, y, z'
loop_
 _atom_site_type_symbol
 _atom_site_label
 _atom_site_symmetry_multiplicity
 _atom_site_fract_x
 _atom_site_fract_y
 _atom_site_fract_z
 _atom_site_occupancy
  Y  Y0  1  0.62398531  0.72265522  0.09922574  1
  Co  Co1  1  0.13188368  0.22780995  0.10381215  1
  W  W2  1  0.86527524  0.38702958  0.57985409  1
  W  W3  1  0.38357367  0.05851510  0.61910519  1
  O  O4  1  0.13283486  0.65203368  0.82927712  1
  O  O5  1  0.60979971  0.49739818  0.33497782  1
  O  O6  1  0.16331151  0.19390965  0.79719404  1
  O  O7  1  0.57989608  0.05269364  0.39885141  1
  O  O8  1  0.63596240  0.94690972  0.86272572  1
  O  O9  1  0.11430283  0.79431606  0.36882450  1
  O  O10  1  0.08588744  0.25276794  0.40210126  1
  O  O11  1  0.66928628  0.39245827  0.80014696  1
