# generated using pymatgen
data_Nb23Ir3S52
_symmetry_space_group_name_H-M   'P 1'
_cell_length_a   3.43356435
_cell_length_b   6.75166223
_cell_length_c   78.67564352
_cell_angle_alpha   89.60761507
_cell_angle_beta   90.00000000
_cell_angle_gamma   120.56735845
_symmetry_Int_Tables_number   1
_chemical_formula_structural   Nb23Ir3S52
_chemical_formula_sum   'Nb23 Ir3 S52'
_cell_volume   1570.36895656
_cell_formula_units_Z   1
loop_
 _symmetry_equiv_pos_site_id
 _symmetry_equiv_pos_as_xyz
  1  'x, y, z'
loop_
 _atom_site_type_symbol
 _atom_site_label
 _atom_site_symmetry_multiplicity
 _atom_site_fract_x
 _atom_site_fract_y
 _atom_site_fract_z
 _atom_site_occupancy
  Nb  Nb0  1  0.99905366  0.99905366  0.69243496  1
  Nb  Nb1  1  0.00015263  0.50015263  0.30771617  1
  Nb  Nb2  1  0.99974435  0.49974435  0.53857601  1
  Nb  Nb3  1  0.00026343  0.00026343  0.07677957  1
  Nb  Nb4  1  0.99985312  0.99985312  0.15376418  1
  Nb  Nb5  1  0.99983334  0.99983334  0.23074515  1
  Nb  Nb6  1  0.00016666  0.00016666  0.30771585  1
  Nb  Nb7  1  0.00014688  0.00014688  0.38469682  1
  Nb  Nb8  1  0.99973657  0.99973657  0.46168143  1
  Nb  Nb9  1  0.99923605  0.99923605  0.99973273  1
  Nb  Nb10  1  0.00076395  0.00076395  0.53872927  1
  Nb  Nb11  1  0.05457052  0.05457052  0.61482544  1
  Nb  Nb12  1  0.00094634  0.00094634  0.84602704  1
  Nb  Nb13  1  0.94542948  0.94542948  0.92363656  1
  Nb  Nb14  1  0.00025565  0.50025565  0.99988599  1
  Nb  Nb15  1  0.00017186  0.50017186  0.07677852  1
  Nb  Nb16  1  0.99986062  0.49986062  0.15375914  1
  Nb  Nb17  1  0.99984737  0.49984737  0.23074483  1
  Nb  Nb18  1  0.00013938  0.50013938  0.38470186  1
  Nb  Nb19  1  0.99982814  0.49982814  0.46168248  1
  Nb  Nb20  1  0.00140874  0.50140874  0.69236174  1
  Nb  Nb21  1  0.00000000  0.50000000  0.76923100  1
  Nb  Nb22  1  0.99859126  0.49859126  0.84610026  1
  Ir  Ir23  1  0.00000000  0.00000000  0.76923100  1
  Ir  Ir24  1  0.96272387  0.46272387  0.61581100  1
  Ir  Ir25  1  0.03727613  0.53727613  0.92265100  1
  S  S26  1  0.33541062  0.83541062  0.01950093  1
  S  S27  1  0.33493345  0.83493345  0.17345308  1
  S  S28  1  0.33463399  0.83463399  0.09646953  1
  S  S29  1  0.33497083  0.83497083  0.25043327  1
  S  S30  1  0.33487078  0.83487078  0.40439366  1
  S  S31  1  0.33508158  0.83508158  0.32740353  1
  S  S32  1  0.33516711  0.83516711  0.48138034  1
  S  S33  1  0.33491826  0.83491826  0.55835802  1
  S  S34  1  0.34699838  0.84699838  0.78754276  1
  S  S35  1  0.33687061  0.83687061  0.71203963  1
  S  S36  1  0.33544936  0.83544936  0.86574382  1
  S  S37  1  0.32013914  0.82013914  0.63146540  1
  S  S38  1  0.33263142  0.83263142  0.94415238  1
  S  S39  1  0.33443559  0.33443559  0.01952610  1
  S  S40  1  0.33466937  0.33466937  0.09646847  1
  S  S41  1  0.33495577  0.33495577  0.17346053  1
  S  S42  1  0.33495668  0.33495668  0.25043494  1
  S  S43  1  0.33483960  0.33483960  0.40439043  1
  S  S44  1  0.33510546  0.33510546  0.32739912  1
  S  S45  1  0.33520287  0.33520287  0.48137576  1
  S  S46  1  0.33689672  0.33689672  0.55820012  1
  S  S47  1  0.34125508  0.34125508  0.63581940  1
  S  S48  1  0.32650951  0.32650951  0.78845025  1
  S  S49  1  0.33594857  0.33594857  0.71205385  1
  S  S50  1  0.33505027  0.33505027  0.86572576  1
  S  S51  1  0.66479713  0.66479713  0.05708524  1
  S  S52  1  0.35078528  0.35078528  0.93862631  1
  S  S53  1  0.66516040  0.66516040  0.13407057  1
  S  S54  1  0.66489454  0.66489454  0.21106188  1
  S  S55  1  0.66504332  0.66504332  0.28802606  1
  S  S56  1  0.66504423  0.66504423  0.36500047  1
  S  S57  1  0.66533063  0.66533063  0.44199253  1
  S  S58  1  0.66556441  0.66556441  0.51893590  1
  S  S59  1  0.64921472  0.64921472  0.59983569  1
  S  S60  1  0.66494973  0.66494973  0.67273624  1
  S  S61  1  0.67349049  0.67349049  0.75001175  1
  S  S62  1  0.66405143  0.66405143  0.82640815  1
  S  S63  1  0.65874492  0.65874492  0.90264260  1
  S  S64  1  0.66310328  0.66310328  0.98026188  1
  S  S65  1  0.66502917  0.16502917  0.28802773  1
  S  S66  1  0.66483289  0.16483289  0.05708066  1
  S  S67  1  0.66506655  0.16506655  0.36500792  1
  S  S68  1  0.66512922  0.16512922  0.13406734  1
  S  S69  1  0.66491842  0.16491842  0.21105747  1
  S  S70  1  0.66536601  0.16536601  0.44199147  1
  S  S71  1  0.66458938  0.16458938  0.51896107  1
  S  S72  1  0.66736858  0.16736858  0.59430962  1
  S  S73  1  0.66455064  0.16455064  0.67271818  1
  S  S74  1  0.65300162  0.15300162  0.75091924  1
  S  S75  1  0.66312939  0.16312939  0.82642237  1
  S  S76  1  0.67986086  0.17986086  0.90699660  1
  S  S77  1  0.66508174  0.16508174  0.98010398  1
