# generated using pymatgen
data_Na3La8Ti9Mn3O36
_symmetry_space_group_name_H-M   'P 1'
_cell_length_a   5.53283448
_cell_length_b   5.50117964
_cell_length_c   33.20386699
_cell_angle_alpha   60.24502505
_cell_angle_beta   60.20237750
_cell_angle_gamma   60.77792726
_symmetry_Int_Tables_number   1
_chemical_formula_structural   Na3La8Ti9Mn3O36
_chemical_formula_sum   'Na3 La8 Ti9 Mn3 O36'
_cell_volume   721.17896023
_cell_formula_units_Z   1
loop_
 _symmetry_equiv_pos_site_id
 _symmetry_equiv_pos_as_xyz
  1  'x, y, z'
loop_
 _atom_site_type_symbol
 _atom_site_label
 _atom_site_symmetry_multiplicity
 _atom_site_fract_x
 _atom_site_fract_y
 _atom_site_fract_z
 _atom_site_occupancy
  Na  Na0  1  0.24534370  0.24894242  0.04328327  1
  Na  Na1  1  0.24907823  0.24813084  0.20968586  1
  Na  Na2  1  0.24787087  0.25402963  0.70609568  1
  La  La3  1  0.74915959  0.75166756  0.12652504  1
  La  La4  1  0.26152980  0.24597833  0.54068667  1
  La  La5  1  0.75515704  0.75009086  0.29136124  1
  La  La6  1  0.76370614  0.75982082  0.45304357  1
  La  La7  1  0.24680933  0.25014529  0.87689725  1
  La  La8  1  0.74728984  0.73546779  0.62736585  1
  La  La9  1  0.76086539  0.76357011  0.78691278  1
  La  La10  1  0.73230526  0.73974492  0.96342557  1
  Ti  Ti11  1  0.99370573  0.99072772  0.00273302  1
  Ti  Ti12  1  0.99421806  0.00112919  0.16838503  1
  Ti  Ti13  1  0.01416847  0.99345072  0.33234434  1
  Ti  Ti14  1  0.49364133  0.49552594  0.08672588  1
  Ti  Ti15  1  0.00813961  0.00745282  0.49621086  1
  Ti  Ti16  1  0.49979878  0.49574594  0.25241990  1
  Ti  Ti17  1  0.00475675  0.99030478  0.66673832  1
  Ti  Ti18  1  0.51972848  0.50565682  0.41110470  1
  Ti  Ti19  1  0.99521256  0.01072466  0.83244190  1
  Mn  Mn20  1  0.50247843  0.49719085  0.58295067  1
  Mn  Mn21  1  0.50553734  0.50143638  0.74907686  1
  Mn  Mn22  1  0.49023860  0.50448306  0.91818062  1
  O  O23  1  0.19993304  0.73912306  0.05224715  1
  O  O24  1  0.31383336  0.18275149  0.12556518  1
  O  O25  1  0.25219631  0.69183096  0.13409201  1
  O  O26  1  0.75900058  0.29133978  0.03378185  1
  O  O27  1  0.18774219  0.74674183  0.21832557  1
  O  O28  1  0.69980135  0.79557051  0.04204017  1
  O  O29  1  0.31285234  0.18863120  0.28918056  1
  O  O30  1  0.80422552  0.24664532  0.11703404  1
  O  O31  1  0.24475351  0.71232777  0.29745289  1
  O  O32  1  0.75510385  0.30577977  0.19851146  1
  O  O33  1  0.20356298  0.75252579  0.38224331  1
  O  O34  1  0.69921655  0.79979619  0.20780717  1
  O  O35  1  0.30516506  0.19261264  0.46136164  1
  O  O36  1  0.79673970  0.25523622  0.28324022  1
  O  O37  1  0.23534864  0.70180307  0.46732198  1
  O  O38  1  0.75189716  0.30109942  0.36600263  1
  O  O39  1  0.15379284  0.76981633  0.55089558  1
  O  O40  1  0.71316901  0.78953386  0.37500712  1
  O  O41  1  0.33234295  0.17596379  0.61963248  1
  O  O42  1  0.76746820  0.26199301  0.45355532  1
  O  O43  1  0.26135678  0.68289695  0.63295118  1
  O  O44  1  0.74446360  0.33427290  0.52844206  1
  O  O45  1  0.21243414  0.73667842  0.71701196  1
  O  O46  1  0.68358352  0.81400197  0.54047552  1
  O  O47  1  0.30475047  0.19115766  0.79576427  1
  O  O48  1  0.84178475  0.22739904  0.61433387  1
  O  O49  1  0.21796019  0.70403911  0.80585652  1
  O  O50  1  0.79006194  0.28604666  0.69603067  1
  O  O51  1  0.13715691  0.78540305  0.88741557  1
  O  O52  1  0.70042973  0.80549693  0.70909717  1
  O  O53  1  0.31689197  0.18473653  0.95586880  1
  O  O54  1  0.78861315  0.26432307  0.78430068  1
  O  O55  1  0.25577499  0.68887004  0.96863914  1
  O  O56  1  0.72472830  0.34475448  0.86337017  1
  O  O57  1  0.67047093  0.82351209  0.87570231  1
  O  O58  1  0.83065419  0.23387162  0.94984692  1
