# generated using pymatgen
data_Nb10N11O
_symmetry_space_group_name_H-M   'P 1'
_cell_length_a   5.25719947
_cell_length_b   10.55240742
_cell_length_c   10.55060501
_cell_angle_alpha   90.00000000
_cell_angle_beta   90.00000000
_cell_angle_gamma   120.14079229
_symmetry_Int_Tables_number   1
_chemical_formula_structural   Nb10N11O
_chemical_formula_sum   'Nb20 N22 O2'
_cell_volume   506.16966188
_cell_formula_units_Z   2
loop_
 _symmetry_equiv_pos_site_id
 _symmetry_equiv_pos_as_xyz
  1  'x, y, z'
loop_
 _atom_site_type_symbol
 _atom_site_label
 _atom_site_symmetry_multiplicity
 _atom_site_fract_x
 _atom_site_fract_y
 _atom_site_fract_z
 _atom_site_occupancy
  Nb  Nb0  1  0.00090399  0.83810416  0.74973692  1
  Nb  Nb1  1  -0.00000044  0.66246155  0.25082478  1
  Nb  Nb2  1  0.33307945  0.83276584  0.49525931  1
  Nb  Nb3  1  0.35228199  0.83082860  -0.00975241  1
  Nb  Nb4  1  0.32416858  0.66308204  0.74747473  1
  Nb  Nb5  1  0.32946300  0.50372386  0.24827816  1
  Nb  Nb6  1  0.67028884  0.83922236  0.25156979  1
  Nb  Nb7  1  -0.00000044  0.16246155  0.24917522  1
  Nb  Nb8  1  0.33307945  0.33276584  0.00474069  1
  Nb  Nb9  1  0.64309619  0.65504866  -0.00590255  1
  Nb  Nb10  1  0.35228199  0.33082860  0.50975241  1
  Nb  Nb11  1  0.66909670  0.66580435  0.49976136  1
  Nb  Nb12  1  0.32416858  0.16308204  0.75252527  1
  Nb  Nb13  1  0.67675498  0.50104076  0.75131764  1
  Nb  Nb14  1  0.32946300  0.00372386  0.25172184  1
  Nb  Nb15  1  0.67028884  0.33922236  0.24843021  1
  Nb  Nb16  1  0.66909670  0.16580435  0.00023864  1
  Nb  Nb17  1  0.64309619  0.15504866  0.50590255  1
  Nb  Nb18  1  0.00090399  0.33810416  0.75026308  1
  Nb  Nb19  1  0.67675498  0.00104076  0.74868236  1
  N  N20  1  0.00051266  0.67065226  0.87764709  1
  N  N21  1  0.66423007  0.00325117  0.37568513  1
  N  N22  1  0.33831792  0.67061101  0.12255063  1
  N  N23  1  0.33679605  0.66939436  0.37594808  1
  N  N24  1  0.66028332  0.83058063  0.62045292  1
  N  N25  1  0.66645264  0.83169151  0.87420288  1
  N  N26  1  -0.00056466  0.17149623  0.87677020  1
  N  N27  1  0.33383549  0.49885472  0.87581585  1
  N  N28  1  0.34214852  0.50048538  0.62215670  1
  N  N29  1  0.66423007  0.50325117  0.12431487  1
  N  N30  1  0.65948984  0.49905877  0.37789724  1
  N  N31  1  -0.00118598  0.83136729  0.37323026  1
  N  N32  1  0.33679605  0.16939436  0.12405192  1
  N  N33  1  0.33831792  0.17061101  0.37744937  1
  N  N34  1  -0.00056466  0.67149623  0.62322980  1
  N  N35  1  0.66645264  0.33169151  0.62579712  1
  N  N36  1  0.66028332  0.33058063  0.87954708  1
  N  N37  1  0.34214852  0.00048538  0.87784330  1
  N  N38  1  0.33383549  -0.00114528  0.62418415  1
  N  N39  1  0.65948984  -0.00094123  0.12210276  1
  N  N40  1  -0.00118598  0.33136729  0.12676974  1
  N  N41  1  0.00051266  0.17065226  0.62235291  1
  O  O42  1  0.00055083  0.83047448  0.12062502  1
  O  O43  1  0.00055083  0.33047448  0.37937498  1
