# generated using pymatgen
data_Sr3LaTa2(CoO6)2
_symmetry_space_group_name_H-M   'P 1'
_cell_length_a   22.70698514
_cell_length_b   20.43626615
_cell_length_c   5.71556656
_cell_angle_alpha   55.98916577
_cell_angle_beta   59.76885876
_cell_angle_gamma   13.97126478
_symmetry_Int_Tables_number   1
_chemical_formula_structural   Sr3LaTa2(CoO6)2
_chemical_formula_sum   'Sr6 La2 Ta4 Co4 O24'
_cell_volume   520.46919869
_cell_formula_units_Z   2
loop_
 _symmetry_equiv_pos_site_id
 _symmetry_equiv_pos_as_xyz
  1  'x, y, z'
loop_
 _atom_site_type_symbol
 _atom_site_label
 _atom_site_symmetry_multiplicity
 _atom_site_fract_x
 _atom_site_fract_y
 _atom_site_fract_z
 _atom_site_occupancy
  Sr  Sr0  1  0.12360738  0.25203755  0.25349906  1
  Sr  Sr1  1  0.62797447  0.24451420  0.25727780  1
  Sr  Sr2  1  0.13170026  0.73807287  0.76285495  1
  Sr  Sr3  1  0.87558001  0.24964749  0.25335712  1
  Sr  Sr4  1  0.62194478  0.75641878  0.74277474  1
  Sr  Sr5  1  0.87402643  0.75207266  0.74725536  1
  La  La6  1  0.37709592  0.25003309  0.23851806  1
  La  La7  1  0.37562107  0.74847194  0.77065394  1
  Ta  Ta8  1  0.00384114  0.99277479  0.00726515  1
  Ta  Ta9  1  0.74999745  0.49992042  0.50013721  1
  Ta  Ta10  1  0.49674980  0.00706181  0.99122177  1
  Ta  Ta11  1  0.75044988  0.99886108  0.00286431  1
  Co  Co12  1  0.24963360  0.50092884  0.49975361  1
  Co  Co13  1  0.49644193  0.50807297  0.49466088  1
  Co  Co14  1  0.24701845  0.00650130  0.99620136  1
  Co  Co15  1  0.00341075  0.49317911  0.50593928  1
  O  O16  1  0.00730415  0.23981206  0.74220116  1
  O  O17  1  0.13993149  0.22718931  0.76866375  1
  O  O18  1  0.26420973  0.23807132  0.25175806  1
  O  O19  1  0.24823562  0.25608314  0.74875311  1
  O  O20  1  0.38618246  0.23854939  0.76291521  1
  O  O21  1  0.01251750  0.72998903  0.25076864  1
  O  O22  1  0.50700512  0.24224679  0.24896788  1
  O  O23  1  -0.00087326  0.74718213  0.76449361  1
  O  O24  1  0.11536840  0.76130592  0.24257169  1
  O  O25  1  0.49425095  0.25721403  0.76310625  1
  O  O26  1  0.25336618  0.74981157  0.23000669  1
  O  O27  1  0.62888697  0.25034478  0.74749932  1
  O  O28  1  0.74920995  0.25733078  0.23369990  1
  O  O29  1  0.24077454  0.76426830  0.74488272  1
  O  O30  1  0.73530769  0.27401004  0.74789424  1
  O  O31  1  0.37127475  0.75256011  0.23869592  1
  O  O32  1  0.88464586  0.24022717  0.75487091  1
  O  O33  1  0.50316412  0.73881369  0.28256493  1
  O  O34  1  0.99725281  0.24902435  0.26235544  1
  O  O35  1  0.51201166  0.73206683  0.75813855  1
  O  O36  1  0.61802579  0.75607391  0.24964363  1
  O  O37  1  0.75236030  0.74379871  0.24789931  1
  O  O38  1  0.73235383  0.76805890  0.74164951  1
  O  O39  1  0.85654906  0.76959081  0.24190894  1
