# generated using pymatgen
data_Li2CoO3
_symmetry_space_group_name_H-M   'P 1'
_cell_length_a   2.97476700
_cell_length_b   6.00552821
_cell_length_c   6.31436879
_cell_angle_alpha   104.46341689
_cell_angle_beta   76.37563074
_cell_angle_gamma   90.00000579
_symmetry_Int_Tables_number   1
_chemical_formula_structural   Li2CoO3
_chemical_formula_sum   'Li4 Co2 O6'
_cell_volume   105.95002475
_cell_formula_units_Z   2
loop_
 _symmetry_equiv_pos_site_id
 _symmetry_equiv_pos_as_xyz
  1  'x, y, z'
loop_
 _atom_site_type_symbol
 _atom_site_label
 _atom_site_symmetry_multiplicity
 _atom_site_fract_x
 _atom_site_fract_y
 _atom_site_fract_z
 _atom_site_occupancy
  Li  Li0  1  0.67047901  0.16995179  0.65904299  1
  Li  Li1  1  0.33333300  0.83333300  0.33333300  1
  Li  Li2  1  0.99618799  0.49671521  0.00762401  1
  Li  Li3  1  0.33333300  0.33333300  0.33333300  1
  Co  Co4  1  0.99487147  0.01398288  0.01025706  1
  Co  Co5  1  0.67179553  0.65268412  0.65640994  1
  O  O6  1  0.51198956  0.76086087  0.97601988  1
  O  O7  1  0.16413729  0.43986368  0.67172543  1
  O  O8  1  0.84834837  0.07132825  0.30330426  1
  O  O9  1  0.81831863  0.59533875  0.36336274  1
  O  O10  1  0.50252971  0.22680332  0.99494157  1
  O  O11  1  0.15467644  0.90580513  0.69064612  1
