# generated using pymatgen
data_Na2La7Ti8Mn2O30
_symmetry_space_group_name_H-M   'P 1'
_cell_length_a   5.55623927
_cell_length_b   27.74318457
_cell_length_c   9.56964538
_cell_angle_alpha   30.41946623
_cell_angle_beta   54.99629241
_cell_angle_gamma   60.55813784
_symmetry_Int_Tables_number   1
_chemical_formula_structural   Na2La7Ti8Mn2O30
_chemical_formula_sum   'Na2 La7 Ti8 Mn2 O30'
_cell_volume   611.78173097
_cell_formula_units_Z   1
loop_
 _symmetry_equiv_pos_site_id
 _symmetry_equiv_pos_as_xyz
  1  'x, y, z'
loop_
 _atom_site_type_symbol
 _atom_site_label
 _atom_site_symmetry_multiplicity
 _atom_site_fract_x
 _atom_site_fract_y
 _atom_site_fract_z
 _atom_site_occupancy
  Na  Na0  1  0.74965217  0.20074034  0.74729993  1
  Na  Na1  1  0.75121192  0.99897853  0.75267084  1
  La  La2  1  0.25368666  0.99785795  0.25225210  1
  La  La3  1  0.24766919  0.19652905  0.26075577  1
  La  La4  1  0.24906949  0.40144660  0.24689211  1
  La  La5  1  0.25281190  0.80664856  0.23535794  1
  La  La6  1  0.75038150  0.40009651  0.75094334  1
  La  La7  1  0.75124286  0.60322748  0.74276353  1
  La  La8  1  0.74668554  0.79630490  0.76138470  1
  Ti  Ti9  1  0.00137742  0.00373212  0.98616967  1
  Ti  Ti10  1  0.01271674  0.19819601  0.00169082  1
  Ti  Ti11  1  0.99824212  0.40265418  0.99105691  1
  Ti  Ti12  1  0.50948004  0.00572883  0.48117060  1
  Ti  Ti13  1  0.99852404  0.60321839  0.99624481  1
  Ti  Ti14  1  0.48483674  0.19921251  0.50707462  1
  Ti  Ti15  1  0.00233709  0.79860888  0.00306500  1
  Ti  Ti16  1  0.50298917  0.40286367  0.49448233  1
  Mn  Mn17  1  0.50687345  0.59909467  0.49311845  1
  Mn  Mn18  1  0.49987654  0.80178921  0.49544445  1
  O  O19  1  0.19029550  0.09029812  0.30408364  1
  O  O20  1  0.74294840  0.02597329  0.18896790  1
  O  O21  1  0.20111666  0.28022662  0.31732964  1
  O  O22  1  0.68719184  0.11292757  0.25060725  1
  O  O23  1  0.30488412  0.08711220  0.75608291  1
  O  O24  1  0.24657621  0.17629375  0.81084099  1
  O  O25  1  0.74975344  0.22434624  0.18902632  1
  O  O26  1  0.20044924  0.47960780  0.31741181  1
  O  O27  1  0.69015179  0.30923271  0.24754890  1
  O  O28  1  0.29544444  0.28660995  0.76320177  1
  O  O29  1  0.80577137  0.11079961  0.69324983  1
  O  O30  1  0.25044996  0.37094717  0.82139200  1
  O  O31  1  0.74884049  0.41789954  0.20660700  1
  O  O32  1  0.17270474  0.70188297  0.29561184  1
  O  O33  1  0.71532813  0.50295710  0.25665569  1
  O  O34  1  0.30534239  0.46954605  0.81026856  1
  O  O35  1  0.80478620  0.31217154  0.70093575  1
  O  O36  1  0.24494408  0.56923321  0.83221257  1
  O  O37  1  0.77235633  0.62347453  0.17518196  1
  O  O38  1  0.16202116  0.89107068  0.31175249  1
  O  O39  1  0.69011734  0.72374167  0.22299791  1
  O  O40  1  0.32015819  0.69019165  0.72142731  1
  O  O41  1  0.80163197  0.49920085  0.73377340  1
  O  O42  1  0.24953432  0.79065867  0.77392322  1
  O  O43  1  0.74252651  0.82740800  0.18701076  1
  O  O44  1  0.68886570  0.91323374  0.25843054  1
  O  O45  1  0.31553465  0.89218315  0.73814621  1
  O  O46  1  0.83178235  0.70784501  0.68664568  1
  O  O47  1  0.24521493  0.98069897  0.80060437  1
  O  O48  1  0.80361299  0.91529925  0.67823389  1
