# generated using pymatgen
data_NdTa3O9
_symmetry_space_group_name_H-M   'P 1'
_cell_length_a   11.99362051
_cell_length_b   8.87227997
_cell_length_c   7.89980579
_cell_angle_alpha   90.00392088
_cell_angle_beta   90.00855616
_cell_angle_gamma   63.23651802
_symmetry_Int_Tables_number   1
_chemical_formula_structural   NdTa3O9
_chemical_formula_sum   'Nd4 Ta12 O36'
_cell_volume   750.57076606
_cell_formula_units_Z   4
loop_
 _symmetry_equiv_pos_site_id
 _symmetry_equiv_pos_as_xyz
  1  'x, y, z'
loop_
 _atom_site_type_symbol
 _atom_site_label
 _atom_site_symmetry_multiplicity
 _atom_site_fract_x
 _atom_site_fract_y
 _atom_site_fract_z
 _atom_site_occupancy
  Nd  Nd0  1  0.02927122  0.50508514  0.99967551  1
  Nd  Nd1  1  0.36146518  0.49730437  0.50001063  1
  Nd  Nd2  1  0.68394418  0.50090308  0.50003237  1
  Nd  Nd3  1  0.85636919  0.00106456  0.49972110  1
  Ta  Ta4  1  0.26224135  0.24299197  0.25202383  1
  Ta  Ta5  1  0.26231735  0.24293861  0.74780599  1
  Ta  Ta6  1  0.09738757  0.75224548  0.24905492  1
  Ta  Ta7  1  0.09743582  0.75216750  0.75084913  1
  Ta  Ta8  1  0.58862853  0.24630730  0.24285302  1
  Ta  Ta9  1  0.58876738  0.24619563  0.75690839  1
  Ta  Ta10  1  0.42568238  0.75784998  0.24366056  1
  Ta  Ta11  1  0.42573951  0.75781902  0.75630058  1
  Ta  Ta12  1  0.92904432  0.25058637  0.24340294  1
  Ta  Ta13  1  0.92899906  0.25042504  0.75661195  1
  Ta  Ta14  1  0.75397108  0.75469339  0.24675693  1
  Ta  Ta15  1  0.75405886  0.75453773  0.75353735  1
  O  O16  1  0.07787949  0.27125862  0.22273452  1
  O  O17  1  0.07785267  0.27117533  0.77712069  1
  O  O18  1  0.33628263  0.00205313  0.25020466  1
  O  O19  1  0.24289573  0.27019953  0.99991483  1
  O  O20  1  0.07756453  0.75012933  0.00000121  1
  O  O21  1  0.15598502  0.50741665  0.75967545  1
  O  O22  1  0.24278456  0.27171116  0.49992671  1
  O  O23  1  0.15575742  0.50758848  0.24015557  1
  O  O24  1  0.07350115  0.75555309  0.50003370  1
  O  O25  1  0.40874158  0.27580932  0.26044099  1
  O  O26  1  0.40885052  0.27568821  0.73947402  1
  O  O27  1  0.26107320  0.72880463  0.72984544  1
  O  O28  1  0.26098879  0.72898369  0.27025446  1
  O  O29  1  0.66643540  0.99825555  0.26133655  1
  O  O30  1  0.59159109  0.25025183  0.99992333  1
  O  O31  1  0.42140370  0.74222419  1.00000047  1
  O  O32  1  0.33632356  0.00200617  0.74967481  1
  O  O33  1  0.50484927  0.49674869  0.72724558  1
  O  O34  1  0.56605471  0.25735188  0.49997019  1
  O  O35  1  0.50464291  0.49681000  0.27265180  1
  O  O36  1  0.42082193  0.73164248  0.50002157  1
  O  O37  1  0.74918000  0.24287796  0.70187487  1
  O  O38  1  0.74907858  0.24295975  0.29803108  1
  O  O39  1  0.59070600  0.73242399  0.26999426  1
  O  O40  1  0.59072535  0.73252254  0.73025840  1
  O  O41  1  0.99294474  0.00084689  0.26518871  1
  O  O42  1  0.76334063  0.72453371  0.00018219  1
  O  O43  1  0.66686620  0.99808472  0.73875782  1
  O  O44  1  0.90333916  0.25325024  0.00000991  1
  O  O45  1  0.75347513  0.73631987  0.50015905  1
  O  O46  1  0.82472166  0.49381032  0.26262313  1
  O  O47  1  0.91623469  0.24410271  0.49997276  1
  O  O48  1  0.82459851  0.49365106  0.73756512  1
  O  O49  1  0.91607145  0.74899759  0.74855340  1
  O  O50  1  0.91566350  0.75015767  0.25225084  1
  O  O51  1  0.99278457  0.00068383  0.73476669  1
