# generated using pymatgen
data_Li4Mn3O7
_symmetry_space_group_name_H-M   'P 1'
_cell_length_a   2.99786436
_cell_length_b   9.95167052
_cell_length_c   9.77679704
_cell_angle_alpha   64.26001739
_cell_angle_beta   83.89840731
_cell_angle_gamma   94.31499905
_symmetry_Int_Tables_number   1
_chemical_formula_structural   Li4Mn3O7
_chemical_formula_sum   'Li8 Mn6 O14'
_cell_volume   258.83725077
_cell_formula_units_Z   2
loop_
 _symmetry_equiv_pos_site_id
 _symmetry_equiv_pos_as_xyz
  1  'x, y, z'
loop_
 _atom_site_type_symbol
 _atom_site_label
 _atom_site_symmetry_multiplicity
 _atom_site_fract_x
 _atom_site_fract_y
 _atom_site_fract_z
 _atom_site_occupancy
  Li  Li0  1  0.92597679  0.22570462  0.12941552  1
  Li  Li1  1  0.21691716  0.34574867  0.58482235  1
  Li  Li2  1  0.51381938  0.49140458  0.99600431  1
  Li  Li3  1  0.78081611  0.64313197  0.43104474  1
  Li  Li4  1  0.07128489  0.78575049  0.85716989  1
  Li  Li5  1  0.36193426  0.92831165  0.28323812  1
  Li  Li6  1  0.62896557  0.07999034  0.71827604  1
  Li  Li7  1  0.57141652  0.28574616  0.85713326  1
  Mn  Mn8  1  0.99722966  0.01088490  0.99301881  1
  Mn  Mn9  1  0.14567136  0.56051855  0.72130035  1
  Mn  Mn10  1  0.28680629  0.14166455  0.42901209  1
  Mn  Mn11  1  0.85601756  0.42975795  0.28525698  1
  Mn  Mn12  1  0.41951910  0.71698270  0.14514263  1
  Mn  Mn13  1  0.72338775  0.85443373  0.56918923  1
  O  O14  1  0.49342420  0.09274332  0.06007180  1
  O  O15  1  0.71953906  0.25504282  0.49022497  1
  O  O16  1  0.03499597  0.40753512  0.91545700  1
  O  O17  1  0.28905374  0.53961193  0.34826533  1
  O  O18  1  0.64359459  0.67116432  0.77120829  1
  O  O19  1  0.86310526  0.82792427  0.20124264  1
  O  O20  1  0.15427903  0.96302550  0.63360253  1
  O  O21  1  0.42321099  0.31638417  0.22403513  1
  O  O22  1  0.64958280  0.47870209  0.65419381  1
  O  O23  1  0.98873280  0.60839301  0.08070176  1
  O  O24  1  0.27983927  0.74352547  0.51304864  1
  O  O25  1  0.49922144  0.90022297  0.94308660  1
  O  O26  1  0.85376186  0.03180269  0.36604649  1
  O  O27  1  0.10789657  0.16389141  0.79879068  1
