# generated using pymatgen
data_Li7Mn4CoO12
_symmetry_space_group_name_H-M   'P 1'
_cell_length_a   5.23829739
_cell_length_b   7.77947523
_cell_length_c   5.99304623
_cell_angle_alpha   75.78302724
_cell_angle_beta   69.50241348
_cell_angle_gamma   74.71000124
_symmetry_Int_Tables_number   1
_chemical_formula_structural   Li7Mn4CoO12
_chemical_formula_sum   'Li7 Mn4 Co1 O12'
_cell_volume   217.46655731
_cell_formula_units_Z   1
loop_
 _symmetry_equiv_pos_site_id
 _symmetry_equiv_pos_as_xyz
  1  'x, y, z'
loop_
 _atom_site_type_symbol
 _atom_site_label
 _atom_site_symmetry_multiplicity
 _atom_site_fract_x
 _atom_site_fract_y
 _atom_site_fract_z
 _atom_site_occupancy
  Li  Li0  1  0.50257225  0.15905716  0.82851618  1
  Li  Li1  1  0.51110707  0.50254941  0.00730247  1
  Li  Li2  1  0.49334846  0.83906870  0.17842499  1
  Li  Li3  1  0.49958445  0.16256919  0.33858509  1
  Li  Li4  1  0.50510707  0.50448453  0.49521518  1
  Li  Li5  1  0.48449330  0.83352606  0.65251705  1
  Li  Li6  1  0.00402402  0.99853388  0.50130553  1
  Mn  Mn7  1  -0.00081046  0.00229820  0.00001321  1
  Mn  Mn8  1  0.00149819  0.66992236  0.83162910  1
  Mn  Mn9  1  0.00553741  0.67095414  0.33881884  1
  Mn  Mn10  1  0.99623228  0.33012219  0.65851319  1
  Co  Co11  1  0.99645432  0.32853228  0.16531741  1
  O  O12  1  0.23148392  0.09430710  0.68023270  1
  O  O13  1  0.20032724  0.41023312  0.83245855  1
  O  O14  1  0.24124771  0.76377789  0.01843715  1
  O  O15  1  0.20743247  0.09267643  0.15033746  1
  O  O16  1  0.23731034  0.42135207  0.35008212  1
  O  O17  1  0.24267903  0.74579504  0.52050079  1
  O  O18  1  0.75778988  0.23872349  0.97673623  1
  O  O19  1  0.77721538  0.56895637  0.15212241  1
  O  O20  1  0.76724434  0.91302448  0.31903563  1
  O  O21  1  0.78777065  0.26231049  0.49490055  1
  O  O22  1  0.76354607  0.57277922  0.65271664  1
  O  O23  1  0.78680460  0.91444621  0.85628154  1
