# generated using pymatgen
data_Li7Mn5O12
_symmetry_space_group_name_H-M   'P 1'
_cell_length_a   2.98704936
_cell_length_b   7.70286654
_cell_length_c   9.79156073
_cell_angle_alpha   91.99915876
_cell_angle_beta   83.74681551
_cell_angle_gamma   81.62689895
_symmetry_Int_Tables_number   1
_chemical_formula_structural   Li7Mn5O12
_chemical_formula_sum   'Li7 Mn5 O12'
_cell_volume   221.26974757
_cell_formula_units_Z   1
loop_
 _symmetry_equiv_pos_site_id
 _symmetry_equiv_pos_as_xyz
  1  'x, y, z'
loop_
 _atom_site_type_symbol
 _atom_site_label
 _atom_site_symmetry_multiplicity
 _atom_site_fract_x
 _atom_site_fract_y
 _atom_site_fract_z
 _atom_site_occupancy
  Li  Li0  1  0.74887488  0.25027203  0.25234717  1
  Li  Li1  1  0.90086835  0.42585753  0.75722013  1
  Li  Li2  1  0.07435814  0.59491155  0.24150628  1
  Li  Li3  1  0.25897486  0.73842145  0.75849372  1
  Li  Li4  1  0.43246565  0.90747647  0.24277987  1
  Li  Li5  1  0.58445812  0.08306097  0.74765283  1
  Li  Li6  1  0.66666700  0.66666700  -0.00000000  1
  Mn  Mn7  1  0.99479333  0.99158978  0.00386457  1
  Mn  Mn8  1  0.33853967  0.34174322  0.99613543  1
  Mn  Mn9  1  0.16666700  0.16666700  0.50000000  1
  Mn  Mn10  1  0.50065252  0.49964926  0.49939752  1
  Mn  Mn11  1  0.83268048  0.83368374  0.50060248  1
  O  O12  1  0.40346648  0.11811748  0.10564074  1
  O  O13  1  0.50345967  0.29765980  0.61648909  1
  O  O14  1  0.76105263  0.43494174  0.10752162  1
  O  O15  1  0.83633792  0.63265036  0.61854610  1
  O  O16  1  0.02868885  0.80942943  0.11775713  1
  O  O17  1  0.16844543  0.96476791  0.61983031  1
  O  O18  1  0.16488757  0.36856509  0.38016969  1
  O  O19  1  0.30464515  0.52390457  0.88224287  1
  O  O20  1  0.49699508  0.70068264  0.38145390  1
  O  O21  1  0.57228037  0.89839126  0.89247838  1
  O  O22  1  0.82987433  0.03567420  0.38351091  1
  O  O23  1  0.92986652  0.21521552  0.89435926  1
