# generated using pymatgen
data_Li7Mn5O12
_symmetry_space_group_name_H-M   'P 1'
_cell_length_a   2.98585553
_cell_length_b   10.18386127
_cell_length_c   7.69963977
_cell_angle_alpha   72.53731742
_cell_angle_beta   98.36623288
_cell_angle_gamma   91.74279223
_symmetry_Int_Tables_number   1
_chemical_formula_structural   Li7Mn5O12
_chemical_formula_sum   'Li7 Mn5 O12'
_cell_volume   220.93831450
_cell_formula_units_Z   1
loop_
 _symmetry_equiv_pos_site_id
 _symmetry_equiv_pos_as_xyz
  1  'x, y, z'
loop_
 _atom_site_type_symbol
 _atom_site_label
 _atom_site_symmetry_multiplicity
 _atom_site_fract_x
 _atom_site_fract_y
 _atom_site_fract_z
 _atom_site_occupancy
  Li  Li0  1  0.82171398  0.24142887  0.65803381  1
  Li  Li1  1  0.16738893  0.74736085  0.33440280  1
  Li  Li2  1  0.49927807  0.25263915  0.99893020  1
  Li  Li3  1  0.17954210  0.24262204  0.34462542  1
  Li  Li4  1  0.48712490  0.75737796  0.98870758  1
  Li  Li5  1  0.84495202  0.75857113  0.67530019  1
  Li  Li6  1  0.33333300  -0.00000000  0.66666700  1
  Mn  Mn7  1  0.00329195  0.99614145  0.99271963  1
  Mn  Mn8  1  0.66337505  0.00385855  0.34061337  1
  Mn  Mn9  1  0.33333300  0.50000000  0.66666700  1
  Mn  Mn10  1  0.00088860  0.50096899  0.99990498  1
  Mn  Mn11  1  0.66577840  0.49903101  0.33342802  1
  O  O12  1  0.46327131  0.10762204  0.86244120  1
  O  O13  1  0.70803144  0.61823848  0.49494692  1
  O  O14  1  0.10517947  0.10535919  0.18002662  1
  O  O15  1  0.73441369  0.11780891  0.48458606  1
  O  O16  1  0.04305465  0.61656165  0.16520459  1
  O  O17  1  0.37542475  0.61938853  0.82672734  1
  O  O18  1  0.29124125  0.38061147  0.50660666  1
  O  O19  1  0.56148753  0.89464081  0.15330638  1
  O  O20  1  0.95863556  0.38176152  0.83838608  1
  O  O21  1  0.62361235  0.38343835  0.16812841  1
  O  O22  1  0.93225331  0.88219109  0.84874694  1
  O  O23  1  0.20339469  0.89237796  0.47089280  1
