# generated using pymatgen
data_Li7Mn4CoO12
_symmetry_space_group_name_H-M   'P 1'
_cell_length_a   5.04217422
_cell_length_b   5.08286522
_cell_length_c   8.93579275
_cell_angle_alpha   88.27248851
_cell_angle_beta   87.61639837
_cell_angle_gamma   107.80350686
_symmetry_Int_Tables_number   1
_chemical_formula_structural   Li7Mn4CoO12
_chemical_formula_sum   'Li7 Mn4 Co1 O12'
_cell_volume   217.63550597
_cell_formula_units_Z   1
loop_
 _symmetry_equiv_pos_site_id
 _symmetry_equiv_pos_as_xyz
  1  'x, y, z'
loop_
 _atom_site_type_symbol
 _atom_site_label
 _atom_site_symmetry_multiplicity
 _atom_site_fract_x
 _atom_site_fract_y
 _atom_site_fract_z
 _atom_site_occupancy
  Li  Li0  1  0.99236307  0.49561509  0.16337063  1
  Li  Li1  1  0.51506407  0.50968073  0.34819286  1
  Li  Li2  1  0.00705488  0.49871527  0.51177082  1
  Li  Li3  1  0.48682959  0.48801993  0.65693263  1
  Li  Li4  1  0.00338331  0.50643693  0.82468930  1
  Li  Li5  1  0.49915955  0.49931314  0.99260950  1
  Li  Li6  1  0.99927635  0.99824003  0.66556249  1
  Mn  Mn7  1  0.99334633  0.99513632  0.99165417  1
  Mn  Mn8  1  0.50307094  0.00674015  0.50971726  1
  Mn  Mn9  1  0.50149950  0.99886643  0.16465144  1
  Mn  Mn10  1  0.00373761  0.00662606  0.34236299  1
  Co  Co11  1  0.48606224  0.99086303  0.82524614  1
  O  O12  1  0.75446477  0.23066600  0.00709632  1
  O  O13  1  0.22873985  0.20945157  0.15798031  1
  O  O14  1  0.75760466  0.23877196  0.34585123  1
  O  O15  1  0.27164075  0.23804942  0.49973856  1
  O  O16  1  0.71230039  0.21807667  0.66334763  1
  O  O17  1  0.25231206  0.22694286  0.84452722  1
  O  O18  1  0.27333434  0.78682391  0.33957850  1
  O  O19  1  0.75100774  0.77492068  0.49287186  1
  O  O20  1  0.27005606  0.76061705  0.65979957  1
  O  O21  1  0.75607096  0.78999049  0.84777755  1
  O  O22  1  0.23503625  0.76528754  0.98852248  1
  O  O23  1  0.74658474  0.76614874  0.15614855  1
