# generated using pymatgen
data_Li7Mn4CoO12
_symmetry_space_group_name_H-M   'P 1'
_cell_length_a   5.22057413
_cell_length_b   6.50599148
_cell_length_c   6.50599154
_cell_angle_alpha   82.99537085
_cell_angle_beta   95.70355576
_cell_angle_gamma   95.70355489
_symmetry_Int_Tables_number   1
_chemical_formula_structural   Li7Mn4CoO12
_chemical_formula_sum   'Li7 Mn4 Co1 O12'
_cell_volume   217.38743555
_cell_formula_units_Z   1
loop_
 _symmetry_equiv_pos_site_id
 _symmetry_equiv_pos_as_xyz
  1  'x, y, z'
loop_
 _atom_site_type_symbol
 _atom_site_label
 _atom_site_symmetry_multiplicity
 _atom_site_fract_x
 _atom_site_fract_y
 _atom_site_fract_z
 _atom_site_occupancy
  Li  Li0  1  0.24007971  0.09092905  0.42844016  1
  Li  Li1  1  0.75992029  0.57155984  0.90907095  1
  Li  Li2  1  0.75755338  0.92129447  0.58491745  1
  Li  Li3  1  0.24244662  0.41508255  0.07870553  1
  Li  Li4  1  0.23968673  0.74763347  0.74923008  1
  Li  Li5  1  0.76031327  0.25076992  0.25236653  1
  Li  Li6  1  1.00000000  0.33014578  0.66985422  1
  Mn  Mn7  1  0.00000000  0.00665806  0.99334194  1
  Mn  Mn8  1  0.50000000  0.49766950  0.50233050  1
  Mn  Mn9  1  0.50000000  0.83303155  0.16696845  1
  Mn  Mn10  1  1.00000000  0.66387873  0.33612127  1
  Co  Co11  1  0.50000000  0.17238766  0.82761234  1
  O  O12  1  0.89372249  0.95294298  0.28137656  1
  O  O13  1  0.39756590  0.45026609  0.78074254  1
  O  O14  1  0.39332579  0.78303203  0.45170091  1
  O  O15  1  0.87890972  0.27223848  0.96568026  1
  O  O16  1  0.84820910  0.61502976  0.60079218  1
  O  O17  1  0.35511796  0.10759002  0.10184748  1
  O  O18  1  0.60243410  0.21925746  0.54973391  1
  O  O19  1  0.10627751  0.71862344  0.04705702  1
  O  O20  1  0.12109028  0.03431974  0.72776152  1
  O  O21  1  0.60667421  0.54829909  0.21696797  1
  O  O22  1  0.64488204  0.89815252  0.89240998  1
  O  O23  1  0.15179090  0.39920782  0.38497024  1
