# generated using pymatgen
data_CaMn2O4
_symmetry_space_group_name_H-M   'P 1'
_cell_length_a   6.32900259
_cell_length_b   6.27327115
_cell_length_c   18.85771117
_cell_angle_alpha   59.41436519
_cell_angle_beta   60.48389463
_cell_angle_gamma   61.13816819
_symmetry_Int_Tables_number   1
_chemical_formula_structural   CaMn2O4
_chemical_formula_sum   'Ca6 Mn12 O24'
_cell_volume   533.31871027
_cell_formula_units_Z   6
loop_
 _symmetry_equiv_pos_site_id
 _symmetry_equiv_pos_as_xyz
  1  'x, y, z'
loop_
 _atom_site_type_symbol
 _atom_site_label
 _atom_site_symmetry_multiplicity
 _atom_site_fract_x
 _atom_site_fract_y
 _atom_site_fract_z
 _atom_site_occupancy
  Ca  Ca0  1  0.14010651  0.10586025  0.04277225  1
  Ca  Ca1  1  0.49191444  0.51566076  0.32954844  1
  Ca  Ca2  1  0.99676540  0.50536271  0.16527317  1
  Ca  Ca3  1  0.50772769  0.48656526  0.66959409  1
  Ca  Ca4  1  0.00059969  0.49912132  0.50008471  1
  Ca  Ca5  1  0.00125711  0.49514591  0.83582234  1
  Mn  Mn6  1  0.49302967  0.01423165  0.16288454  1
  Mn  Mn7  1  0.13955300  0.10843729  0.38025586  1
  Mn  Mn8  1  0.49759840  0.49988146  0.00121800  1
  Mn  Mn9  1  0.50045906  0.49866471  0.16426842  1
  Mn  Mn10  1  0.50110599  0.00024436  0.49946891  1
  Mn  Mn11  1  0.15275987  0.09875984  0.71126220  1
  Mn  Mn12  1  0.50017344  0.50006634  0.49966829  1
  Mn  Mn13  1  0.50613274  0.98938288  0.83651286  1
  Mn  Mn14  1  0.84770538  0.89923610  0.28939981  1
  Mn  Mn15  1  0.50273284  0.49794329  0.83538714  1
  Mn  Mn16  1  0.85989354  0.89130802  0.62000916  1
  Mn  Mn17  1  0.84985393  0.89497521  0.95922496  1
  O  O18  1  0.29844957  0.26328794  0.08095717  1
  O  O19  1  0.29500057  0.24234744  0.23674617  1
  O  O20  1  0.31884037  0.68379029  0.08071109  1
  O  O21  1  0.70538265  0.25770730  0.07729988  1
  O  O22  1  0.28179750  0.21934639  0.42735021  1
  O  O23  1  0.25542505  0.80387336  0.23300473  1
  O  O24  1  0.29699368  0.23766169  0.57310957  1
  O  O25  1  0.71330898  0.29031739  0.23582882  1
  O  O26  1  0.28819581  0.71691639  0.42607634  1
  O  O27  1  0.69117276  0.77115187  0.09474050  1
  O  O28  1  0.71785555  0.25291748  0.42851094  1
  O  O29  1  0.72461353  0.80487756  0.22961532  1
  O  O30  1  0.27694381  0.19804393  0.76870621  1
  O  O31  1  0.28304802  0.74812218  0.57056757  1
  O  O32  1  0.71262637  0.28278063  0.57341813  1
  O  O33  1  0.28946009  0.70938491  0.76325986  1
  O  O34  1  0.31905088  0.23587698  0.89821155  1
  O  O35  1  0.70513851  0.76133058  0.42652618  1
  O  O36  1  0.75078584  0.19400103  0.76343608  1
  O  O37  1  0.72021124  0.78140145  0.57173877  1
  O  O38  1  0.27506388  0.74888585  0.92699746  1
  O  O39  1  0.68570706  0.29995948  0.92239681  1
  O  O40  1  0.70151329  0.75346823  0.76602798  1
  O  O41  1  0.70404728  0.74170329  0.92211050  1
