# generated using pymatgen
data_Li4Mn3O7
_symmetry_space_group_name_H-M   'P 1'
_cell_length_a   2.99282115
_cell_length_b   10.73444166
_cell_length_c   8.18466949
_cell_angle_alpha   78.81828747
_cell_angle_beta   88.97885179
_cell_angle_gamma   85.91355358
_symmetry_Int_Tables_number   1
_chemical_formula_structural   Li4Mn3O7
_chemical_formula_sum   'Li8 Mn6 O14'
_cell_volume   257.29348480
_cell_formula_units_Z   2
loop_
 _symmetry_equiv_pos_site_id
 _symmetry_equiv_pos_as_xyz
  1  'x, y, z'
loop_
 _atom_site_type_symbol
 _atom_site_label
 _atom_site_symmetry_multiplicity
 _atom_site_fract_x
 _atom_site_fract_y
 _atom_site_fract_z
 _atom_site_occupancy
  Li  Li0  1  0.85252231  0.28878343  0.92946681  1
  Li  Li1  1  0.14919085  0.71514510  0.08542616  1
  Li  Li2  1  0.43945971  0.13365818  0.21735112  1
  Li  Li3  1  0.29033414  0.42550353  0.64195649  1
  Li  Li4  1  0.57144024  0.85714141  0.78571221  1
  Li  Li5  1  0.70340099  0.58062922  0.35407608  1
  Li  Li6  1  0.99366538  0.99913641  0.48602572  1
  Li  Li7  1  0.57143943  0.85713923  0.28570677  1
  Mn  Mn8  1  0.00700531  0.99514702  0.01087382  1
  Mn  Mn9  1  0.13584360  0.71914449  0.56055534  1
  Mn  Mn10  1  0.28508544  0.42979937  0.14312756  1
  Mn  Mn11  1  0.85775717  0.28449043  0.42831254  1
  Mn  Mn12  1  0.43767170  0.13878176  0.71576968  1
  Mn  Mn13  1  0.70515703  0.57550115  0.85565540  1
  O  O14  1  0.45998621  0.12598930  0.96048007  1
  O  O15  1  0.68352969  0.56993420  0.09760464  1
  O  O16  1  0.99108692  0.00327235  0.23139667  1
  O  O17  1  0.83006922  0.28143538  0.67190957  1
  O  O18  1  0.10995447  0.70949919  0.81027214  1
  O  O19  1  0.25462663  0.42282500  0.38575429  1
  O  O20  1  0.60353087  0.83796919  0.54032902  1
  O  O21  1  0.31279464  0.43284979  0.89951751  1
  O  O22  1  0.53933170  0.87631976  0.03109972  1
  O  O23  1  0.88823029  0.29145468  0.18567249  1
  O  O24  1  0.68286499  0.58830432  0.61095196  1
  O  O25  1  0.03292513  0.00478785  0.76114611  1
  O  O26  1  0.15177791  0.71101006  0.34002059  1
  O  O27  1  0.45931802  0.14434822  0.47382953  1
