# generated using pymatgen
data_Li7Mn4CoO12
_symmetry_space_group_name_H-M   'P 1'
_cell_length_a   5.04533954
_cell_length_b   6.48161052
_cell_length_c   6.82159068
_cell_angle_alpha   84.20615211
_cell_angle_beta   99.53468878
_cell_angle_gamma   96.70234386
_symmetry_Int_Tables_number   1
_chemical_formula_structural   Li7Mn4CoO12
_chemical_formula_sum   'Li7 Mn4 Co1 O12'
_cell_volume   217.73402143
_cell_formula_units_Z   1
loop_
 _symmetry_equiv_pos_site_id
 _symmetry_equiv_pos_as_xyz
  1  'x, y, z'
loop_
 _atom_site_type_symbol
 _atom_site_label
 _atom_site_symmetry_multiplicity
 _atom_site_fract_x
 _atom_site_fract_y
 _atom_site_fract_z
 _atom_site_occupancy
  Li  Li0  1  0.75368719  0.25025539  0.25741532  1
  Li  Li1  1  0.76306424  0.57791939  0.89789303  1
  Li  Li2  1  0.24838745  0.09282331  0.41786380  1
  Li  Li3  1  0.24536689  0.41183387  0.08522855  1
  Li  Li4  1  0.74623478  0.92153480  0.59298198  1
  Li  Li5  1  0.23983483  0.74513739  0.74765537  1
  Li  Li6  1  0.99948955  0.33361717  0.66568843  1
  Mn  Mn7  1  0.00406394  0.00597013  0.98970428  1
  Mn  Mn8  1  0.50119879  0.49425968  0.51206929  1
  Mn  Mn9  1  0.99953918  0.66049436  0.34404289  1
  Mn  Mn10  1  0.49763804  0.83409836  0.16349875  1
  Co  Co11  1  0.50947047  0.17179884  0.82280959  1
  O  O12  1  0.86259727  0.27044779  0.96058051  1
  O  O13  1  0.84607257  0.62018009  0.61848429  1
  O  O14  1  0.35901327  0.10832728  0.12093093  1
  O  O15  1  0.39564238  0.44510635  0.77166678  1
  O  O16  1  0.87340680  0.94595737  0.26393110  1
  O  O17  1  0.35802354  0.77112409  0.46317130  1
  O  O18  1  0.61212810  0.22085481  0.54026280  1
  O  O19  1  0.62237924  0.55328749  0.23404989  1
  O  O20  1  0.13840998  0.04763179  0.74144952  1
  O  O21  1  0.13911907  0.39266086  0.37627867  1
  O  O22  1  0.64751412  0.89772437  0.87356376  1
  O  O23  1  0.13771832  0.72695503  0.03877918  1
