# generated using pymatgen
data_Li5Mn2CoO8
_symmetry_space_group_name_H-M   'P 1'
_cell_length_a   5.12676804
_cell_length_b   5.85154241
_cell_length_c   4.98010579
_cell_angle_alpha   89.25598786
_cell_angle_beta   99.96188895
_cell_angle_gamma   107.79764781
_symmetry_Int_Tables_number   1
_chemical_formula_structural   Li5Mn2CoO8
_chemical_formula_sum   'Li5 Mn2 Co1 O8'
_cell_volume   139.97913689
_cell_formula_units_Z   1
loop_
 _symmetry_equiv_pos_site_id
 _symmetry_equiv_pos_as_xyz
  1  'x, y, z'
loop_
 _atom_site_type_symbol
 _atom_site_label
 _atom_site_symmetry_multiplicity
 _atom_site_fract_x
 _atom_site_fract_y
 _atom_site_fract_z
 _atom_site_occupancy
  Li  Li0  1  0.50563403  0.38730607  0.24153222  1
  Li  Li1  1  0.49557335  0.62124961  0.75737153  1
  Li  Li2  1  0.49349227  0.86367793  0.24489804  1
  Li  Li3  1  0.50059803  0.12736469  0.75866735  1
  Li  Li4  1  0.00243138  0.50230970  0.99966764  1
  Mn  Mn5  1  0.99661855  0.99989322  0.99904320  1
  Mn  Mn6  1  0.00253565  0.25772982  0.49991790  1
  Co  Co7  1  0.00285494  0.74295737  0.49255759  1
  O  O8  1  0.24340333  0.54469448  0.39129430  1
  O  O9  1  0.21285584  0.82321685  0.86282119  1
  O  O10  1  0.21554592  0.05389889  0.36749925  1
  O  O11  1  0.22823196  0.29321591  0.86280153  1
  O  O12  1  0.77916566  0.17794404  0.14049564  1
  O  O13  1  0.78142878  0.43794711  0.60023500  1
  O  O14  1  0.77129470  0.70713920  0.13736310  1
  O  O15  1  0.76833560  0.95945511  0.64383450  1
