# generated using pymatgen
data_Li6Mn3CoO10
_symmetry_space_group_name_H-M   'P 1'
_cell_length_a   5.02170181
_cell_length_b   5.08062077
_cell_length_c   7.67803467
_cell_angle_alpha   83.23289918
_cell_angle_beta   107.11040072
_cell_angle_gamma   107.88888659
_symmetry_Int_Tables_number   1
_chemical_formula_structural   Li6Mn3CoO10
_chemical_formula_sum   'Li6 Mn3 Co1 O10'
_cell_volume   178.08954388
_cell_formula_units_Z   1
loop_
 _symmetry_equiv_pos_site_id
 _symmetry_equiv_pos_as_xyz
  1  'x, y, z'
loop_
 _atom_site_type_symbol
 _atom_site_label
 _atom_site_symmetry_multiplicity
 _atom_site_fract_x
 _atom_site_fract_y
 _atom_site_fract_z
 _atom_site_occupancy
  Li  Li0  1  0.08482120  0.49275185  0.19029187  1
  Li  Li1  1  0.71708380  0.50990179  0.40857276  1
  Li  Li2  1  0.30635699  0.49872566  0.60515471  1
  Li  Li3  1  0.90085275  0.49966451  0.80337288  1
  Li  Li4  1  0.49026091  0.50254826  0.99066460  1
  Li  Li5  1  0.39858345  0.99903960  0.79983036  1
  Mn  Mn6  1  0.99090894  0.98599788  0.99457681  1
  Mn  Mn7  1  0.80973769  0.01093725  0.60523958  1
  Mn  Mn8  1  0.59398275  0.99426338  0.19419150  1
  Co  Co9  1  0.21478244  0.01124006  0.41215061  1
  O  O10  1  0.75139439  0.22050239  0.01133552  1
  O  O11  1  0.31869958  0.20874360  0.18899249  1
  O  O12  1  0.97125934  0.23470861  0.41881968  1
  O  O13  1  0.56574264  0.23987475  0.59270514  1
  O  O14  1  0.11706409  0.22066714  0.79928896  1
  O  O15  1  0.47754473  0.79308967  0.41203510  1
  O  O16  1  0.04616685  0.77903878  0.58447526  1
  O  O17  1  0.67963401  0.77830093  0.80079120  1
  O  O18  1  0.22441944  0.75559787  0.99898981  1
  O  O19  1  0.84070400  0.76440604  0.18852116  1
