# generated using pymatgen
data_Li7Mn5O12
_symmetry_space_group_name_H-M   'P 1'
_cell_length_a   2.98687556
_cell_length_b   7.69087606
_cell_length_c   9.92429452
_cell_angle_alpha   78.83080793
_cell_angle_beta   93.29294503
_cell_angle_gamma   81.65400544
_symmetry_Int_Tables_number   1
_chemical_formula_structural   Li7Mn5O12
_chemical_formula_sum   'Li7 Mn5 O12'
_cell_volume   220.42983811
_cell_formula_units_Z   1
loop_
 _symmetry_equiv_pos_site_id
 _symmetry_equiv_pos_as_xyz
  1  'x, y, z'
loop_
 _atom_site_type_symbol
 _atom_site_label
 _atom_site_symmetry_multiplicity
 _atom_site_fract_x
 _atom_site_fract_y
 _atom_site_fract_z
 _atom_site_occupancy
  Li  Li0  1  0.91753192  0.16595991  0.25263740  1
  Li  Li1  1  0.41580208  0.16737409  0.74736260  1
  Li  Li2  1  0.23431500  0.51508089  0.24129444  1
  Li  Li3  1  0.73862038  0.50675673  0.75725575  1
  Li  Li4  1  0.59471262  0.82657627  0.24274425  1
  Li  Li5  1  0.09901800  0.81825211  0.75870556  1
  Li  Li6  1  0.66666700  0.66666700  0.00000000  1
  Mn  Mn7  1  0.99788454  0.99020227  0.00369815  1
  Mn  Mn8  1  0.33544846  0.34313073  0.99630185  1
  Mn  Mn9  1  0.50149690  0.99944390  0.50134350  1
  Mn  Mn10  1  0.83183610  0.33388910  0.49865650  1
  Mn  Mn11  1  0.16666700  0.66666700  0.50000000  1
  O  O12  1  0.47274066  0.08308554  0.10526657  1
  O  O13  1  0.91491461  0.09343140  0.61909096  1
  O  O14  1  0.83316856  0.39926617  0.10769183  1
  O  O15  1  0.24904939  0.42504314  0.61536806  1
  O  O16  1  0.10666065  0.77018826  0.11781330  1
  O  O17  1  0.58373383  0.75870225  0.61947232  1
  O  O18  1  0.41841939  0.23990260  0.38090904  1
  O  O19  1  0.86059334  0.25024846  0.89473343  1
  O  O20  1  0.74959917  0.57463075  0.38052768  1
  O  O21  1  0.22667235  0.56314474  0.88218670  1
  O  O22  1  0.08428361  0.90828986  0.38463194  1
  O  O23  1  0.50016444  0.93406683  0.89230817  1
