# generated using pymatgen
data_Na3Ni2P2(CO7)2
_symmetry_space_group_name_H-M   'P 1'
_cell_length_a   8.87797333
_cell_length_b   10.36161822
_cell_length_c   6.58976162
_cell_angle_alpha   90.00000000
_cell_angle_beta   90.00000000
_cell_angle_gamma   88.69738924
_symmetry_Int_Tables_number   1
_chemical_formula_structural   Na3Ni2P2(CO7)2
_chemical_formula_sum   'Na6 Ni4 P4 C4 O28'
_cell_volume   606.03663707
_cell_formula_units_Z   2
loop_
 _symmetry_equiv_pos_site_id
 _symmetry_equiv_pos_as_xyz
  1  'x, y, z'
loop_
 _atom_site_type_symbol
 _atom_site_label
 _atom_site_symmetry_multiplicity
 _atom_site_fract_x
 _atom_site_fract_y
 _atom_site_fract_z
 _atom_site_occupancy
  Na  Na0  1  0.25585766  0.12230921  0.47117843  1
  Na  Na1  1  0.25296348  0.62391591  0.01183541  1
  Na  Na2  1  0.25093174  0.62070987  0.49066658  1
  Na  Na3  1  0.74414234  0.37769079  0.97117843  1
  Na  Na4  1  0.74703652  0.87608409  0.51183541  1
  Na  Na5  1  0.74906826  0.87929013  0.99066658  1
  Ni  Ni6  1  0.34828877  0.38765106  0.75303105  1
  Ni  Ni7  1  0.34363611  0.89324143  0.75641212  1
  Ni  Ni8  1  0.65171123  0.11234894  0.25303105  1
  Ni  Ni9  1  0.65636389  0.60675857  0.25641212  1
  P  P10  1  0.42469405  0.36200700  0.25297812  1
  P  P11  1  0.42281874  0.85545232  0.25211201  1
  P  P12  1  0.57530595  0.13799300  0.75297812  1
  P  P13  1  0.57718126  0.64454768  0.75211201  1
  C  C14  1  0.07214987  0.35669566  0.74761436  1
  C  C15  1  0.07012901  0.85692995  0.74789735  1
  C  C16  1  0.92785013  0.14330434  0.24761436  1
  C  C17  1  0.92987099  0.64307005  0.24789735  1
  O  O18  1  0.06650534  0.16124824  0.24914157  1
  O  O19  1  0.06905137  0.66108196  0.24968707  1
  O  O20  1  0.13080609  0.47081757  0.75325341  1
  O  O21  1  0.12963256  0.96960702  0.74467379  1
  O  O22  1  0.17127275  0.26263387  0.74092234  1
  O  O23  1  0.17090142  0.76247094  0.75028396  1
  O  O24  1  0.33019331  0.40231838  0.06469527  1
  O  O25  1  0.33074750  0.40259783  0.44039465  1
  O  O26  1  0.32452539  0.88387366  0.06418060  1
  O  O27  1  0.32639496  0.89482932  0.43880973  1
  O  O28  1  0.42283784  0.06789811  0.74252161  1
  O  O29  1  0.42702169  0.57165420  0.75037181  1
  O  O30  1  0.46028128  0.21488732  0.25892784  1
  O  O31  1  0.45922562  0.70592024  0.25856691  1
  O  O32  1  0.53971872  0.28511268  0.75892784  1
  O  O33  1  0.54077438  0.79407976  0.75856691  1
  O  O34  1  0.57716216  0.43210189  0.24252161  1
  O  O35  1  0.57297831  0.92834580  0.25037181  1
  O  O36  1  0.66980669  0.09768162  0.56469527  1
  O  O37  1  0.66925250  0.09740217  0.94039465  1
  O  O38  1  0.67547461  0.61612634  0.56418060  1
  O  O39  1  0.67360504  0.60517068  0.93880973  1
  O  O40  1  0.82872725  0.23736613  0.24092234  1
  O  O41  1  0.82909858  0.73752906  0.25028396  1
  O  O42  1  0.86919391  0.02918243  0.25325341  1
  O  O43  1  0.87036744  0.53039298  0.24467379  1
  O  O44  1  0.93349466  0.33875176  0.74914157  1
  O  O45  1  0.93094863  0.83891804  0.74968707  1
