# generated using pymatgen
data_LiFeF3
_symmetry_space_group_name_H-M   'P 1'
_cell_length_a   6.13858432
_cell_length_b   6.14614674
_cell_length_c   6.11296966
_cell_angle_alpha   89.90655855
_cell_angle_beta   89.57262374
_cell_angle_gamma   89.58538914
_symmetry_Int_Tables_number   1
_chemical_formula_structural   LiFeF3
_chemical_formula_sum   'Li4 Fe4 F12'
_cell_volume   230.62129071
_cell_formula_units_Z   4
loop_
 _symmetry_equiv_pos_site_id
 _symmetry_equiv_pos_as_xyz
  1  'x, y, z'
loop_
 _atom_site_type_symbol
 _atom_site_label
 _atom_site_symmetry_multiplicity
 _atom_site_fract_x
 _atom_site_fract_y
 _atom_site_fract_z
 _atom_site_occupancy
  Li  Li0  1  0.87938864  0.87878485  0.88102548  1
  Li  Li1  1  0.12040622  0.37619524  0.61695850  1
  Li  Li2  1  0.62027357  0.12217599  0.37630501  1
  Li  Li3  1  0.37822495  0.61817954  0.12228476  1
  Fe  Fe4  1  0.16257087  0.16534418  0.16113101  1
  Fe  Fe5  1  0.34100252  0.83767382  0.66636854  1
  Fe  Fe6  1  0.66318268  0.34072361  0.83716517  1
  Fe  Fe7  1  0.83653926  0.66535643  0.34098365  1
  F  F8  1  0.01442827  0.73539341  0.62287467  1
  F  F9  1  0.26973687  0.12295805  0.48494688  1
  F  F10  1  0.12350992  0.48533521  0.26567258  1
  F  F11  1  0.37240046  0.50566334  0.76698985  1
  F  F12  1  0.23645842  0.87698344  0.98993301  1
  F  F13  1  0.48931511  0.26961610  0.12669807  1
  F  F14  1  0.50603585  0.76756557  0.37315299  1
  F  F15  1  0.76856375  0.37446325  0.50611570  1
  F  F16  1  0.62183972  0.01256760  0.73605039  1
  F  F17  1  0.87683875  0.98334596  0.23470076  1
  F  F18  1  0.73412331  0.62282099  0.01216768  1
  F  F19  1  0.98516188  0.23885142  0.87847729  1
