# generated using pymatgen
data_Na3Ni2P2(CO7)2
_symmetry_space_group_name_H-M   'P 1'
_cell_length_a   17.88137729
_cell_length_b   5.17771104
_cell_length_c   6.56469252
_cell_angle_alpha   90.00000000
_cell_angle_beta   90.00000000
_cell_angle_gamma   88.59882229
_symmetry_Int_Tables_number   1
_chemical_formula_structural   Na3Ni2P2(CO7)2
_chemical_formula_sum   'Na6 Ni4 P4 C4 O28'
_cell_volume   607.60772485
_cell_formula_units_Z   2
loop_
 _symmetry_equiv_pos_site_id
 _symmetry_equiv_pos_as_xyz
  1  'x, y, z'
loop_
 _atom_site_type_symbol
 _atom_site_label
 _atom_site_symmetry_multiplicity
 _atom_site_fract_x
 _atom_site_fract_y
 _atom_site_fract_z
 _atom_site_occupancy
  Na  Na0  1  0.12654142  0.24120184  0.02782385  1
  Na  Na1  1  0.37425498  0.75898967  0.51036934  1
  Na  Na2  1  0.37575418  0.75847505  0.98578784  1
  Na  Na3  1  0.62654142  0.24120184  0.47217615  1
  Na  Na4  1  0.87575418  0.75847505  0.51421216  1
  Na  Na5  1  0.87425498  0.75898967  0.98963066  1
  Ni  Ni6  1  0.17304985  0.78355433  0.73983868  1
  Ni  Ni7  1  0.32478806  0.22007175  0.24595007  1
  Ni  Ni8  1  0.67304985  0.78355433  0.76016132  1
  Ni  Ni9  1  0.82478806  0.22007175  0.25404993  1
  P  P10  1  0.21217017  0.71633775  0.24636104  1
  P  P11  1  0.28659884  0.28132578  0.74684452  1
  P  P12  1  0.71217017  0.71633775  0.25363896  1
  P  P13  1  0.78659884  0.28132578  0.75315548  1
  C  C14  1  0.03640838  0.71179371  0.75303021  1
  C  C15  1  0.46147197  0.28372058  0.24967955  1
  C  C16  1  0.53640838  0.71179371  0.74696979  1
  C  C17  1  0.96147197  0.28372058  0.25032045  1
  O  O18  1  0.03022425  0.31769206  0.24775483  1
  O  O19  1  0.06559239  0.93824185  0.75185314  1
  O  O20  1  0.08657198  0.52566912  0.75258381  1
  O  O21  1  0.16308774  0.79459189  0.06092613  1
  O  O22  1  0.16484400  0.78563350  0.43488081  1
  O  O23  1  0.21211602  0.13841722  0.75770795  1
  O  O24  1  0.23044676  0.42098924  0.23550376  1
  O  O25  1  0.27076130  0.58124520  0.74654704  1
  O  O26  1  0.28769325  0.85816749  0.24600733  1
  O  O27  1  0.33350279  0.20459735  0.55781454  1
  O  O28  1  0.33633195  0.21039807  0.93338669  1
  O  O29  1  0.41197782  0.47463442  0.24809818  1
  O  O30  1  0.43154107  0.05696231  0.24885962  1
  O  O31  1  0.46691387  0.67627582  0.74609278  1
  O  O32  1  0.53022425  0.31769206  0.25224517  1
  O  O33  1  0.56559239  0.93824185  0.74814686  1
  O  O34  1  0.58657298  0.52566912  0.74741619  1
  O  O35  1  0.66484400  0.78563350  0.06511919  1
  O  O36  1  0.66308774  0.79459189  0.43907387  1
  O  O37  1  0.71211602  0.13841722  0.74229205  1
  O  O38  1  0.73044676  0.42098924  0.26449624  1
  O  O39  1  0.77076130  0.58124520  0.75345296  1
  O  O40  1  0.78769325  0.85816749  0.25399267  1
  O  O41  1  0.83633195  0.21039807  0.56661331  1
  O  O42  1  0.83350279  0.20459735  0.94218546  1
  O  O43  1  0.91197782  0.47463442  0.25190182  1
  O  O44  1  0.93154107  0.05696231  0.25114038  1
  O  O45  1  0.96691387  0.67627582  0.75390722  1
