# generated using pymatgen
data_Li7Mn5O12
_symmetry_space_group_name_H-M   'P 1'
_cell_length_a   2.88026680
_cell_length_b   9.88110751
_cell_length_c   8.05471309
_cell_angle_alpha   80.89432285
_cell_angle_beta   79.70047809
_cell_angle_gamma   81.61950913
_symmetry_Int_Tables_number   1
_chemical_formula_structural   Li7Mn5O12
_chemical_formula_sum   'Li7 Mn5 O12'
_cell_volume   221.06928828
_cell_formula_units_Z   1
loop_
 _symmetry_equiv_pos_site_id
 _symmetry_equiv_pos_as_xyz
  1  'x, y, z'
loop_
 _atom_site_type_symbol
 _atom_site_label
 _atom_site_symmetry_multiplicity
 _atom_site_fract_x
 _atom_site_fract_y
 _atom_site_fract_z
 _atom_site_occupancy
  Li  Li0  1  0.33442154  0.24941444  0.08174148  1
  Li  Li1  1  0.99891146  0.75058556  0.25159152  1
  Li  Li2  1  0.66748183  0.24305956  0.42197778  1
  Li  Li3  1  0.32779648  0.75606222  0.58834382  1
  Li  Li4  1  0.00553652  0.24393778  0.74498918  1
  Li  Li5  1  0.66585217  0.75694044  0.91135622  1
  Li  Li6  1  0.66666700  -0.00000000  0.66666700  1
  Mn  Mn7  1  0.00544652  0.99687195  0.99223501  1
  Mn  Mn8  1  0.32788648  0.00312805  0.34109799  1
  Mn  Mn9  1  0.66666700  0.50000000  0.16666700  1
  Mn  Mn10  1  0.00081106  0.49872574  0.49965214  1
  Mn  Mn11  1  0.33252194  0.50127426  0.83368086  1
  O  O12  1  0.49733814  0.11308942  0.89223329  1
  O  O13  1  0.16108847  0.61710884  0.06071423  1
  O  O14  1  0.84365126  0.10578338  0.20691511  1
  O  O15  1  0.49388077  0.61758513  0.39465234  1
  O  O16  1  0.18878014  0.11146786  0.51097187  1
  O  O17  1  0.82751405  0.61923468  0.72573823  1
  O  O18  1  0.17224453  0.38289116  0.27261877  1
  O  O19  1  0.83599486  0.88691058  0.44109971  1
  O  O20  1  0.50581995  0.38076532  0.60759577  1
  O  O21  1  0.14455286  0.88853214  0.82236113  1
  O  O22  1  0.83945223  0.38241487  0.93868066  1
  O  O23  1  0.48968274  0.89421662  0.12641889  1
