# generated using pymatgen
data_LiV3OF11
_symmetry_space_group_name_H-M   'P 1'
_cell_length_a   5.29962387
_cell_length_b   5.45030622
_cell_length_c   15.30508949
_cell_angle_alpha   80.07890901
_cell_angle_beta   90.26762683
_cell_angle_gamma   89.62474591
_symmetry_Int_Tables_number   1
_chemical_formula_structural   LiV3OF11
_chemical_formula_sum   'Li2 V6 O2 F22'
_cell_volume   435.45319528
_cell_formula_units_Z   2
loop_
 _symmetry_equiv_pos_site_id
 _symmetry_equiv_pos_as_xyz
  1  'x, y, z'
loop_
 _atom_site_type_symbol
 _atom_site_label
 _atom_site_symmetry_multiplicity
 _atom_site_fract_x
 _atom_site_fract_y
 _atom_site_fract_z
 _atom_site_occupancy
  Li  Li0  1  0.31365209  0.54067023  0.49518202  1
  Li  Li1  1  0.80643728  0.96894308  0.51067187  1
  V  V2  1  0.49320302  0.16250375  0.67465119  1
  V  V3  1  0.00326407  0.33960105  0.32481021  1
  V  V4  1  0.50034884  0.49999299  0.00011716  1
  V  V5  1  0.01588810  0.62924598  0.67799851  1
  V  V6  1  0.51101220  0.84202366  0.33361503  1
  V  V7  1  0.00048636  0.99971990  0.00041397  1
  O  O8  1  0.21147177  0.37036697  0.68447446  1
  O  O9  1  0.57157404  0.79090067  0.44468639  1
  F  F10  1  0.19192271  0.03409705  0.35436746  1
  F  F11  1  0.29928428  0.19327621  0.02288598  1
  F  F12  1  0.70425493  0.15593547  0.30608867  1
  F  F13  1  0.08190146  0.04196544  0.88677570  1
  F  F14  1  0.43359582  0.21380134  0.55193605  1
  F  F15  1  0.09598890  0.37574791  0.21393651  1
  F  F16  1  0.59445458  0.12180517  0.78528052  1
  F  F17  1  0.91918500  0.28694273  0.44486297  1
  F  F18  1  0.58509799  0.45847997  0.11359622  1
  F  F19  1  0.20086141  0.69185429  0.02326701  1
  F  F20  1  0.28917087  0.52059421  0.36255897  1
  F  F21  1  0.79903756  0.30782815  0.97694071  1
  F  F22  1  0.70675776  0.45888479  0.64713530  1
  F  F23  1  0.80936738  0.64160351  0.30602796  1
  F  F24  1  0.41481438  0.54098310  0.88657628  1
  F  F25  1  0.40312447  0.86833325  0.21955705  1
  F  F26  1  0.06982414  0.72419677  0.54944444  1
  F  F27  1  0.89662915  0.64210261  0.78568492  1
  F  F28  1  0.91801344  0.96069239  0.11361682  1
  F  F29  1  0.29395527  0.86366894  0.69289050  1
  F  F30  1  0.78391750  0.95975285  0.64038438  1
  F  F31  1  0.70117625  0.80701056  0.97737773  1
