# generated using pymatgen
data_Li7Mn5O12
_symmetry_space_group_name_H-M   'P 1'
_cell_length_a   2.88060395
_cell_length_b   8.03505434
_cell_length_c   9.76486949
_cell_angle_alpha   82.27059241
_cell_angle_beta   90.00000000
_cell_angle_gamma   79.67378850
_symmetry_Int_Tables_number   1
_chemical_formula_structural   Li7Mn5O12
_chemical_formula_sum   'Li7 Mn5 O12'
_cell_volume   220.26742192
_cell_formula_units_Z   1
loop_
 _symmetry_equiv_pos_site_id
 _symmetry_equiv_pos_as_xyz
  1  'x, y, z'
loop_
 _atom_site_type_symbol
 _atom_site_label
 _atom_site_symmetry_multiplicity
 _atom_site_fract_x
 _atom_site_fract_y
 _atom_site_fract_z
 _atom_site_occupancy
  Li  Li0  1  0.58473529  0.83052843  0.24288503  1
  Li  Li1  1  0.74859771  0.50280457  0.75711497  1
  Li  Li2  1  0.91548606  0.16902888  0.24991154  1
  Li  Li3  1  0.24626654  0.50746692  0.24346896  1
  Li  Li4  1  0.41784794  0.16430512  0.75008846  1
  Li  Li5  1  0.08706646  0.82586608  0.75653104  1
  Li  Li6  1  0.66666700  0.66666700  0.00000000  1
  Mn  Mn7  1  0.00437282  0.99125435  0.00296339  1
  Mn  Mn8  1  0.32896018  0.34207865  0.99703661  1
  Mn  Mn9  1  0.16666700  0.66666700  0.50000000  1
  Mn  Mn10  1  0.50012352  0.99975297  0.50175976  1
  Mn  Mn11  1  0.83320948  0.33358003  0.49824024  1
  O  O12  1  0.45413276  0.09173348  0.10567227  1
  O  O13  1  0.63358624  0.73282753  0.61964760  1
  O  O14  1  0.79830937  0.40338227  0.11311475  1
  O  O15  1  0.10730305  0.78539391  0.11172343  1
  O  O16  1  0.30005728  0.39988644  0.61562146  1
  O  O17  1  0.96626630  0.06746640  0.61980742  1
  O  O18  1  0.69974676  0.60050547  0.38035240  1
  O  O19  1  0.87920024  0.24159952  0.89432773  1
  O  O20  1  0.03327672  0.93344756  0.38437854  1
  O  O21  1  0.36706670  0.26586660  0.38019258  1
  O  O22  1  0.53502463  0.92995173  0.88688525  1
  O  O23  1  0.22602995  0.54793909  0.88827657  1
