# generated using pymatgen
data_Mn3TeO6
_symmetry_space_group_name_H-M   'P 1'
_cell_length_a   5.37118441
_cell_length_b   5.52693277
_cell_length_c   7.93938059
_cell_angle_alpha   90.00000000
_cell_angle_beta   90.25080201
_cell_angle_gamma   90.00000000
_symmetry_Int_Tables_number   1
_chemical_formula_structural   Mn3TeO6
_chemical_formula_sum   'Mn6 Te2 O12'
_cell_volume   235.68758491
_cell_formula_units_Z   2
loop_
 _symmetry_equiv_pos_site_id
 _symmetry_equiv_pos_as_xyz
  1  'x, y, z'
loop_
 _atom_site_type_symbol
 _atom_site_label
 _atom_site_symmetry_multiplicity
 _atom_site_fract_x
 _atom_site_fract_y
 _atom_site_fract_z
 _atom_site_occupancy
  Mn  Mn0  1  -0.00000000  0.00000000  0.50000000  1
  Mn  Mn1  1  0.01196710  0.54725239  0.74020919  1
  Mn  Mn2  1  0.48803290  0.04725239  0.75979081  1
  Mn  Mn3  1  0.50000000  0.50000000  0.00000000  1
  Mn  Mn4  1  0.51196710  0.95274761  0.24020919  1
  Mn  Mn5  1  0.98803290  0.45274761  0.25979081  1
  Te  Te6  1  -0.00000000  0.00000000  0.00000000  1
  Te  Te7  1  0.50000000  0.50000000  0.50000000  1
  O  O8  1  0.12726706  0.07642407  0.22790822  1
  O  O9  1  0.16918849  0.29110597  0.91766197  1
  O  O10  1  0.19854415  0.32134308  0.55434818  1
  O  O11  1  0.30145585  0.82134308  0.94565182  1
  O  O12  1  0.33081151  0.79110597  0.58233803  1
  O  O13  1  0.37273294  0.57642407  0.27209178  1
  O  O14  1  0.62726706  0.42357593  0.72790822  1
  O  O15  1  0.66918849  0.20889403  0.41766197  1
  O  O16  1  0.69854415  0.17865692  0.05434818  1
  O  O17  1  0.80145585  0.67865692  0.44565182  1
  O  O18  1  0.83081151  0.70889403  0.08233803  1
  O  O19  1  0.87273294  0.92357593  0.77209178  1
