# generated using pymatgen
data_Na5Ni2P(CO4)4
_symmetry_space_group_name_H-M   'P 1'
_cell_length_a   9.83044535
_cell_length_b   9.89939010
_cell_length_c   9.90302184
_cell_angle_alpha   59.52773743
_cell_angle_beta   60.21775644
_cell_angle_gamma   60.25450613
_symmetry_Int_Tables_number   1
_chemical_formula_structural   Na5Ni2P(CO4)4
_chemical_formula_sum   'Na10 Ni4 P2 C8 O32'
_cell_volume   681.38132824
_cell_formula_units_Z   2
loop_
 _symmetry_equiv_pos_site_id
 _symmetry_equiv_pos_as_xyz
  1  'x, y, z'
loop_
 _atom_site_type_symbol
 _atom_site_label
 _atom_site_symmetry_multiplicity
 _atom_site_fract_x
 _atom_site_fract_y
 _atom_site_fract_z
 _atom_site_occupancy
  Na  Na0  1  0.08421186  0.65371990  0.09334410  1
  Na  Na1  1  0.08495845  0.09391723  0.65227463  1
  Na  Na2  1  0.66872414  0.09334410  0.65371990  1
  Na  Na3  1  0.66885069  0.65227463  0.09391723  1
  Na  Na4  1  0.34628010  0.91578814  0.33127586  1
  Na  Na5  1  0.90665590  0.33127586  0.91578814  1
  Na  Na6  1  0.34772537  0.33114931  0.91504155  1
  Na  Na7  1  0.90608277  0.91504155  0.33114931  1
  Na  Na8  1  0.08921601  0.66078399  0.66078399  1
  Na  Na9  1  0.33921601  0.91078399  0.91078399  1
  Ni  Ni10  1  0.49949992  0.49950437  0.00112175  1
  Ni  Ni11  1  0.49987496  0.00112175  0.49950437  1
  Ni  Ni12  1  0.50049563  0.50050008  0.50012504  1
  Ni  Ni13  1  0.99887825  0.50012504  0.50050008  1
  P  P14  1  0.12866039  0.12133961  0.12133961  1
  P  P15  1  0.87866039  0.87133961  0.87133961  1
  C  C16  1  0.28284561  0.28545441  0.28588674  1
  C  C17  1  0.64581325  0.28588674  0.28545441  1
  C  C18  1  0.28333741  0.64990956  0.28336003  1
  C  C19  1  0.28339301  0.28336003  0.64990956  1
  C  C20  1  0.71411326  0.35418675  0.71715439  1
  C  C21  1  0.71454559  0.71715439  0.35418675  1
  C  C22  1  0.35009044  0.71666259  0.71660699  1
  C  C23  1  0.71663997  0.71660699  0.71666259  1
  O  O24  1  0.32041969  0.05900395  0.05931789  1
  O  O25  1  0.06125947  0.05931789  0.05900395  1
  O  O26  1  0.06507442  0.31409878  0.05771669  1
  O  O27  1  0.06311111  0.05771669  0.31409878  1
  O  O28  1  0.65079829  0.14238433  0.30948122  1
  O  O29  1  0.39733515  0.30948122  0.14238433  1
  O  O30  1  0.65278509  0.40029079  0.14065636  1
  O  O31  1  0.30626776  0.14065636  0.40029079  1
  O  O32  1  0.14551874  0.40398523  0.31064466  1
  O  O33  1  0.63985037  0.31064466  0.40398523  1
  O  O34  1  0.30665621  0.65072049  0.14179749  1
  O  O35  1  0.40082582  0.14179749  0.65072049  1
  O  O36  1  0.85761567  0.34920171  0.60266485  1
  O  O37  1  0.69051878  0.60266485  0.34920171  1
  O  O38  1  0.40062896  0.65337671  0.30610551  1
  O  O39  1  0.13988882  0.30610551  0.65337671  1
  O  O40  1  0.85934364  0.69373224  0.34721491  1
  O  O41  1  0.59970921  0.34721491  0.69373224  1
  O  O42  1  0.30687132  0.39928245  0.65374814  1
  O  O43  1  0.14009809  0.65374814  0.39928245  1
  O  O44  1  0.68935534  0.36014963  0.85448126  1
  O  O45  1  0.59601477  0.85448126  0.36014963  1
  O  O46  1  0.34927951  0.69334379  0.59917418  1
  O  O47  1  0.85820251  0.59917418  0.69334379  1
  O  O48  1  0.69389449  0.86011118  0.59937104  1
  O  O49  1  0.34662329  0.59937104  0.86011118  1
  O  O50  1  0.34625186  0.85990191  0.69312868  1
  O  O51  1  0.60071755  0.69312868  0.85990191  1
  O  O52  1  0.94068211  0.93874053  0.67958031  1
  O  O53  1  0.94099605  0.67958031  0.93874053  1
  O  O54  1  0.94228331  0.93688889  0.93492558  1
  O  O55  1  0.68590122  0.93492558  0.93688889  1
