# generated using pymatgen
data_LiNi(PO3)4
_symmetry_space_group_name_H-M   'P 1'
_cell_length_a   7.28086314
_cell_length_b   7.28086314
_cell_length_c   9.83035708
_cell_angle_alpha   70.40630689
_cell_angle_beta   81.09575142
_cell_angle_gamma   109.76981697
_symmetry_Int_Tables_number   1
_chemical_formula_structural   LiNi(PO3)4
_chemical_formula_sum   'Li2 Ni2 P8 O24'
_cell_volume   440.35511352
_cell_formula_units_Z   2
loop_
 _symmetry_equiv_pos_site_id
 _symmetry_equiv_pos_as_xyz
  1  'x, y, z'
loop_
 _atom_site_type_symbol
 _atom_site_label
 _atom_site_symmetry_multiplicity
 _atom_site_fract_x
 _atom_site_fract_y
 _atom_site_fract_z
 _atom_site_occupancy
  Li  Li0  1  -0.00000000  -0.00000000  0.00000000  1
  Li  Li1  1  0.50000000  -0.00000000  0.50000000  1
  Ni  Ni2  1  0.05498961  0.80498961  0.75000000  1
  Ni  Ni3  1  0.94501039  0.19501039  0.25000000  1
  P  P4  1  0.26942446  0.73028970  0.02142607  1
  P  P5  1  0.69110827  0.99102035  0.80476252  1
  P  P6  1  0.29578288  0.49586979  0.69523748  1
  P  P7  1  0.25171476  0.29085053  0.47857393  1
  P  P8  1  0.74828524  0.70914947  0.52142607  1
  P  P9  1  0.70421712  0.50413021  0.30476252  1
  P  P10  1  0.30889173  0.00897965  0.19523748  1
  P  P11  1  0.73057554  0.26971030  0.97857393  1
  O  O12  1  0.18788795  0.86405494  0.91553376  1
  O  O13  1  0.34761284  0.96346851  0.34533017  1
  O  O14  1  0.27555422  0.70060544  0.68058659  1
  O  O15  1  0.30808287  0.81487473  0.15103964  1
  O  O16  1  0.50077242  0.78230133  0.93558253  1
  O  O17  1  0.15728855  0.49205791  0.09525678  1
  O  O18  1  0.21788287  0.43635496  0.56441747  1
  O  O19  1  0.19120132  0.30705699  0.84533017  1
  O  O20  1  0.72041031  0.89657829  0.41553376  1
  O  O21  1  0.08731469  0.25254533  0.40474322  1
  O  O22  1  0.88119103  0.95613981  0.81941341  1
  O  O23  1  0.53408463  0.54087750  0.65103964  1
  O  O24  1  0.46591537  0.45912250  0.34896036  1
  O  O25  1  0.11880897  0.04386019  0.18058659  1
  O  O26  1  0.91268531  0.74745467  0.59525678  1
  O  O27  1  0.27958969  0.10342171  0.58446624  1
  O  O28  1  0.80879868  0.69294301  0.15466983  1
  O  O29  1  0.78211713  0.56364504  0.43558253  1
  O  O30  1  0.84271145  0.50794209  0.90474322  1
  O  O31  1  0.49922758  0.21769867  0.06441747  1
  O  O32  1  0.69191713  0.18512527  0.84896036  1
  O  O33  1  0.72444578  0.29939456  0.31941341  1
  O  O34  1  0.65238716  0.03653149  0.65466983  1
  O  O35  1  0.81211205  0.13594506  0.08446624  1
