# generated using pymatgen
data_Li3FePCO7
_symmetry_space_group_name_H-M   'P 1'
_cell_length_a   8.52061556
_cell_length_b   4.96986947
_cell_length_c   13.03201136
_cell_angle_alpha   89.61645462
_cell_angle_beta   90.68823033
_cell_angle_gamma   84.96252300
_symmetry_Int_Tables_number   1
_chemical_formula_structural   Li3FePCO7
_chemical_formula_sum   'Li12 Fe4 P4 C4 O28'
_cell_volume   549.67022068
_cell_formula_units_Z   4
loop_
 _symmetry_equiv_pos_site_id
 _symmetry_equiv_pos_as_xyz
  1  'x, y, z'
loop_
 _atom_site_type_symbol
 _atom_site_label
 _atom_site_symmetry_multiplicity
 _atom_site_fract_x
 _atom_site_fract_y
 _atom_site_fract_z
 _atom_site_occupancy
  Li  Li0  1  0.09489176  0.76453436  0.12782058  1
  Li  Li1  1  0.10147393  0.76621720  0.62903612  1
  Li  Li2  1  0.27454324  0.25363918  0.51317805  1
  Li  Li3  1  0.27275668  0.25080252  0.24566043  1
  Li  Li4  1  0.28057365  0.23524121  0.73854363  1
  Li  Li5  1  0.35133638  0.77917585  0.86780228  1
  Li  Li6  1  0.71990201  0.75080397  0.98261714  1
  Li  Li7  1  0.72222086  0.75147389  0.26394549  1
  Li  Li8  1  0.72539247  0.75200098  0.49030270  1
  Li  Li9  1  0.72003413  0.75486228  0.76440674  1
  Li  Li10  1  0.90307501  0.23351030  0.37822531  1
  Li  Li11  1  0.89877213  0.23262773  0.87056401  1
  Fe  Fe12  1  0.26050491  0.24674769  0.99398111  1
  Fe  Fe13  1  0.33413853  0.78762971  0.37633135  1
  Fe  Fe14  1  0.66480772  0.21201862  0.12424078  1
  Fe  Fe15  1  0.66242128  0.21780296  0.62504402  1
  P  P16  1  0.40973565  0.72359716  0.12412832  1
  P  P17  1  0.41035463  0.72275235  0.62638565  1
  P  P18  1  0.58912968  0.28077937  0.37367926  1
  P  P19  1  0.58837405  0.28353674  0.87525457  1
  C  C20  1  0.03483717  0.69779435  0.37425276  1
  C  C21  1  0.03976190  0.70624587  0.88151352  1
  C  C22  1  0.96442327  0.29662150  0.62499429  1
  C  C23  1  0.96452313  0.30027639  0.12478041  1
  O  O24  1  0.07035330  0.95405041  0.88061850  1
  O  O25  1  0.07080464  0.94494324  0.37290501  1
  O  O26  1  0.11243789  0.35894883  0.12244551  1
  O  O27  1  0.10897588  0.36098635  0.62584774  1
  O  O28  1  0.14854775  0.50345003  0.37458320  1
  O  O29  1  0.15549507  0.51334200  0.88636456  1
  O  O30  1  0.30912817  0.83159216  0.53126065  1
  O  O31  1  0.30911236  0.83905019  0.03088265  1
  O  O32  1  0.30905858  0.82058051  0.21824213  1
  O  O33  1  0.31002202  0.82273957  0.71837113  1
  O  O34  1  0.42258072  0.18156209  0.37305145  1
  O  O35  1  0.42252032  0.17799543  0.87186286  1
  O  O36  1  0.42901112  0.40597706  0.62363552  1
  O  O37  1  0.42323878  0.40646633  0.11925293  1
  O  O38  1  0.57159297  0.59618277  0.37310874  1
  O  O39  1  0.57345273  0.59543785  0.87608233  1
  O  O40  1  0.57768829  0.81570776  0.12707091  1
  O  O41  1  0.57807465  0.82142910  0.62533534  1
  O  O42  1  0.69284931  0.17013063  0.46594735  1
  O  O43  1  0.68922133  0.17600410  0.28005327  1
  O  O44  1  0.69126732  0.17204040  0.78444437  1
  O  O45  1  0.68892544  0.16922109  0.96997053  1
  O  O46  1  0.85395888  0.49612765  0.12645449  1
  O  O47  1  0.84807106  0.48644543  0.62385159  1
  O  O48  1  0.88919431  0.63888969  0.37510531  1
  O  O49  1  0.89554690  0.63761469  0.87540007  1
  O  O50  1  0.93022915  0.05417736  0.12566282  1
  O  O51  1  0.93065589  0.04821310  0.62550550  1
