# generated using pymatgen
data_Li3V3P8O29
_symmetry_space_group_name_H-M   'P 1'
_cell_length_a   9.77414925
_cell_length_b   9.76137494
_cell_length_c   14.53743075
_cell_angle_alpha   90.51158273
_cell_angle_beta   90.30249162
_cell_angle_gamma   60.24242688
_symmetry_Int_Tables_number   1
_chemical_formula_structural   Li3V3P8O29
_chemical_formula_sum   'Li6 V6 P16 O58'
_cell_volume   1204.05541596
_cell_formula_units_Z   2
loop_
 _symmetry_equiv_pos_site_id
 _symmetry_equiv_pos_as_xyz
  1  'x, y, z'
loop_
 _atom_site_type_symbol
 _atom_site_label
 _atom_site_symmetry_multiplicity
 _atom_site_fract_x
 _atom_site_fract_y
 _atom_site_fract_z
 _atom_site_occupancy
  Li  Li0  1  0.91155696  0.31818011  0.55501220  1
  Li  Li1  1  0.32277790  0.91246297  0.06334198  1
  Li  Li2  1  0.31877392  0.77257084  0.54871736  1
  Li  Li3  1  0.22231431  0.68244859  0.95275313  1
  Li  Li4  1  0.91867760  0.07990161  0.01653666  1
  Li  Li5  1  0.97370280  0.97197456  0.49389643  1
  V  V6  1  0.56839180  0.43215121  0.24981923  1
  V  V7  1  0.44070049  0.56017333  0.74924999  1
  V  V8  1  0.56768901  0.99692399  0.74916544  1
  V  V9  1  0.44050366  0.00273482  0.25324426  1
  V  V10  1  0.99721163  0.56316423  0.24585454  1
  V  V11  1  0.00340488  0.43884314  0.75068130  1
  P  P12  1  0.91747329  0.78103971  0.83629058  1
  P  P13  1  0.78427450  0.91232066  0.33798092  1
  P  P14  1  0.91469051  0.30987971  0.34158472  1
  P  P15  1  0.66135809  0.66811636  0.13345974  1
  P  P16  1  0.66629106  0.66516702  0.63444464  1
  P  P17  1  0.77907293  0.31068094  0.84020036  1
  P  P18  1  0.69552954  0.21829640  0.66186414  1
  P  P19  1  0.31867715  0.90961255  0.84510142  1
  P  P20  1  0.69568666  0.08325159  0.15948031  1
  P  P21  1  0.31408980  0.77718778  0.33914111  1
  P  P22  1  0.22580562  0.68447649  0.16292500  1
  P  P23  1  0.33058375  0.33973897  0.36346655  1
  P  P24  1  0.33568215  0.33350954  0.86323586  1
  P  P25  1  0.08790268  0.69292707  0.65633665  1
  P  P26  1  0.22207670  0.08250633  0.66733324  1
  P  P27  1  0.08671616  0.21409067  0.16314490  1
  O  O28  1  0.01794797  0.78527640  0.57225797  1
  O  O29  1  0.91429462  0.73682043  0.32635362  1
  O  O30  1  0.78776263  0.01133627  0.07514153  1
  O  O31  1  0.74428046  0.91523631  0.82994328  1
  O  O32  1  0.91827313  0.62044476  0.82246601  1
  O  O33  1  0.81195791  0.66326504  0.17645889  1
  O  O34  1  0.91629192  0.46581733  0.32460639  1
  O  O35  1  0.00795275  0.18707840  0.08370007  1
  O  O36  1  0.91193890  0.35262876  0.82482017  1
  O  O37  1  0.66782776  0.81194923  0.67857233  1
  O  O38  1  0.62111498  0.91983330  0.32639128  1
  O  O39  1  0.81707560  0.51458844  0.66952150  1
  O  O40  1  0.65431083  0.66735366  0.03170138  1
  O  O41  1  0.64494355  0.66939430  0.53321001  1
  O  O42  1  0.65879773  0.52344771  0.17971744  1
  O  O43  1  0.47545235  0.90801009  0.82440853  1
  O  O44  1  0.51391528  0.81796454  0.17492365  1
  O  O45  1  0.74301154  0.34295414  0.32749676  1
  O  O46  1  0.79618751  0.19949581  0.75370310  1
  O  O47  1  0.79153013  0.20863429  0.58067319  1
  O  O48  1  0.79377807  0.22683953  0.92608212  1
  O  O49  1  0.61832821  0.46534713  0.82546681  1
  O  O50  1  0.51833473  0.66671578  0.68173492  1
  O  O51  1  0.65164794  0.25962234  0.17065123  1
  O  O52  1  0.46734641  0.61834992  0.32734165  1
  O  O53  1  0.35020378  0.91464505  0.32766489  1
  O  O54  1  0.80192967  0.99836118  0.24873903  1
  O  O55  1  0.80246388  0.98696877  0.42210297  1
  O  O56  1  0.21322609  0.98788745  0.58934701  1
  O  O57  1  0.65489940  0.08422745  0.66810756  1
  O  O58  1  0.53866389  0.37904913  0.67431737  1
  O  O59  1  0.34247235  0.73951951  0.83273375  1
  O  O60  1  0.47794293  0.34033044  0.32216473  1
  O  O61  1  0.38152985  0.52883716  0.17618888  1
  O  O62  1  0.22616245  0.76886721  0.07673378  1
  O  O63  1  0.22762501  0.79668797  0.42684471  1
  O  O64  1  0.20336435  0.79503834  0.25150365  1
  O  O65  1  0.26465981  0.65103682  0.66581335  1
  O  O66  1  0.47965887  0.18473772  0.82077084  1
  O  O67  1  0.54203275  0.07531727  0.17243445  1
  O  O68  1  0.33363756  0.48329297  0.82072611  1
  O  O69  1  0.32585963  0.34551126  0.96466140  1
  O  O70  1  0.32446908  0.34072673  0.46485249  1
  O  O71  1  0.18358184  0.47801215  0.31484483  1
  O  O72  1  0.38209613  0.08007155  0.67694096  1
  O  O73  1  0.33874445  0.18612587  0.31852103  1
  O  O74  1  0.08523633  0.65366549  0.16563452  1
  O  O75  1  0.00103370  0.79948566  0.74579211  1
  O  O76  1  0.00445646  0.78587985  0.91882971  1
  O  O77  1  0.07921797  0.53900331  0.67057234  1
  O  O78  1  0.18644322  0.33634152  0.81639880  1
  O  O79  1  0.07386905  0.37900531  0.17045390  1
  O  O80  1  0.26429280  0.08338415  0.16572301  1
  O  O81  1  0.24996930  0.97360188  0.93683240  1
  O  O82  1  0.19971071  0.01381848  0.76423313  1
  O  O83  1  0.08456778  0.25647505  0.66440569  1
  O  O84  1  0.97797946  0.23506831  0.43217153  1
  O  O85  1  0.01501502  0.19248092  0.25912157  1
