# generated using pymatgen
data_Li5Fe4(Si3O10)2
_symmetry_space_group_name_H-M   'P 1'
_cell_length_a   5.48418605
_cell_length_b   5.43148341
_cell_length_c   16.92860732
_cell_angle_alpha   85.17048259
_cell_angle_beta   94.98558150
_cell_angle_gamma   120.14722479
_symmetry_Int_Tables_number   1
_chemical_formula_structural   Li5Fe4(Si3O10)2
_chemical_formula_sum   'Li5 Fe4 Si6 O20'
_cell_volume   433.91885045
_cell_formula_units_Z   1
loop_
 _symmetry_equiv_pos_site_id
 _symmetry_equiv_pos_as_xyz
  1  'x, y, z'
loop_
 _atom_site_type_symbol
 _atom_site_label
 _atom_site_symmetry_multiplicity
 _atom_site_fract_x
 _atom_site_fract_y
 _atom_site_fract_z
 _atom_site_occupancy
  Li  Li0  1  0.43401354  0.81737536  0.76955351  1
  Li  Li1  1  0.33285240  0.83302438  0.44255882  1
  Li  Li2  1  0.66671760  0.17548530  0.55292287  1
  Li  Li3  1  0.57935145  0.18821456  0.24710384  1
  Li  Li4  1  0.84662422  0.34492335  0.04752136  1
  Fe  Fe5  1  0.00326720  0.82287797  0.57956783  1
  Fe  Fe6  1  0.17831454  0.98593315  0.08149341  1
  Fe  Fe7  1  0.81182011  0.99716011  0.91242203  1
  Fe  Fe8  1  0.00095954  0.20352892  0.41036085  1
  Si  Si9  1  0.13663305  0.13204531  0.74920515  1
  Si  Si10  1  0.33143347  0.48343326  0.60227803  1
  Si  Si11  1  0.46315585  0.30621713  0.90180745  1
  Si  Si12  1  0.51826354  0.66156472  0.09731638  1
  Si  Si13  1  0.68041208  0.53358158  0.40476362  1
  Si  Si14  1  0.86316791  0.86558091  0.24901430  1
  O  O15  1  0.10215257  0.89291369  0.69132786  1
  O  O16  1  0.13470462  0.94699292  0.19696552  1
  O  O17  1  0.27181245  0.44894951  0.69905898  1
  O  O18  1  0.50767309  0.62646530  0.89092937  1
  O  O19  1  0.05654816  0.20927827  0.55963568  1
  O  O20  1  0.18784557  0.10128203  0.95575946  1
  O  O21  1  0.33827252  0.77889849  0.56742661  1
  O  O22  1  0.22723087  0.66200127  0.06617412  1
  O  O23  1  0.38996669  0.54022899  0.40918700  1
  O  O24  1  0.38621160  0.15351505  0.81548692  1
  O  O25  1  0.57669912  0.75850111  0.18895547  1
  O  O26  1  0.62892441  0.49266937  0.58999977  1
  O  O27  1  0.73857179  0.28996949  0.93827536  1
  O  O28  1  0.64730694  0.22449776  0.43585929  1
  O  O29  1  0.79275356  0.91346571  0.04930314  1
  O  O30  1  0.94714249  0.79861661  0.45461720  1
  O  O31  1  0.51659474  0.35870017  0.09251055  1
  O  O32  1  0.78192667  0.58147780  0.31093297  1
  O  O33  1  0.86504159  0.06908758  0.79664907  1
  O  O34  1  0.88371005  0.12273185  0.29481321  1
