# generated using pymatgen
data_LiFe5(OF2)4
_symmetry_space_group_name_H-M   'P 1'
_cell_length_a   4.70806356
_cell_length_b   4.70806356
_cell_length_c   9.18205819
_cell_angle_alpha   90.00000000
_cell_angle_beta   90.00000000
_cell_angle_gamma   93.13697088
_symmetry_Int_Tables_number   1
_chemical_formula_structural   LiFe5(OF2)4
_chemical_formula_sum   'Li1 Fe5 O4 F8'
_cell_volume   203.22326577
_cell_formula_units_Z   1
loop_
 _symmetry_equiv_pos_site_id
 _symmetry_equiv_pos_as_xyz
  1  'x, y, z'
loop_
 _atom_site_type_symbol
 _atom_site_label
 _atom_site_symmetry_multiplicity
 _atom_site_fract_x
 _atom_site_fract_y
 _atom_site_fract_z
 _atom_site_occupancy
  Li  Li0  1  0.00000000  0.00000000  0.66666700  1
  Fe  Fe1  1  0.00000000  0.00000000  0.98956307  1
  Fe  Fe2  1  0.00000000  0.00000000  0.34376993  1
  Fe  Fe3  1  0.50000000  0.50000000  0.16666700  1
  Fe  Fe4  1  0.50000000  0.50000000  0.48908744  1
  Fe  Fe5  1  0.50000000  0.50000000  0.84424656  1
  O  O6  1  0.29852404  0.29852404  -0.00029951  1
  O  O7  1  0.29852404  0.29852404  0.33363351  1
  O  O8  1  0.70147596  0.70147596  -0.00029951  1
  O  O9  1  0.70147596  0.70147596  0.33363351  1
  F  F10  1  0.19136505  0.80863495  0.16666700  1
  F  F11  1  0.19979494  0.80020506  0.50354189  1
  F  F12  1  0.19979494  0.80020506  0.82979211  1
  F  F13  1  0.30829005  0.30829005  0.66666700  1
  F  F14  1  0.69170995  0.69170995  0.66666700  1
  F  F15  1  0.80020506  0.19979494  0.82979211  1
  F  F16  1  0.80020506  0.19979494  0.50354189  1
  F  F17  1  0.80863495  0.19136505  0.16666700  1
