# generated using pymatgen
data_Li5Ni6(P2O7)4
_symmetry_space_group_name_H-M   'P 1'
_cell_length_a   6.33505778
_cell_length_b   8.40312900
_cell_length_c   10.05845887
_cell_angle_alpha   107.80677120
_cell_angle_beta   90.45635092
_cell_angle_gamma   92.73354956
_symmetry_Int_Tables_number   1
_chemical_formula_structural   Li5Ni6(P2O7)4
_chemical_formula_sum   'Li5 Ni6 P8 O28'
_cell_volume   509.07992935
_cell_formula_units_Z   1
loop_
 _symmetry_equiv_pos_site_id
 _symmetry_equiv_pos_as_xyz
  1  'x, y, z'
loop_
 _atom_site_type_symbol
 _atom_site_label
 _atom_site_symmetry_multiplicity
 _atom_site_fract_x
 _atom_site_fract_y
 _atom_site_fract_z
 _atom_site_occupancy
  Li  Li0  1  0.01874876  0.16509696  0.60879205  1
  Li  Li1  1  0.09476398  0.60813281  0.12342163  1
  Li  Li2  1  0.50000000  0.50000000  0.50000000  1
  Li  Li3  1  0.90523602  0.39186719  0.87657837  1
  Li  Li4  1  0.98125124  0.83490304  0.39120795  1
  Ni  Ni5  1  -0.00000000  0.50000000  0.50000000  1
  Ni  Ni6  1  0.30740540  0.88777988  0.64099936  1
  Ni  Ni7  1  0.35626997  0.88299102  0.06106021  1
  Ni  Ni8  1  0.50000000  0.50000000  0.00000000  1
  Ni  Ni9  1  0.64373003  0.11700898  0.93893979  1
  Ni  Ni10  1  0.69259460  0.11222012  0.35900064  1
  P  P11  1  0.15184070  0.20589583  0.01617080  1
  P  P12  1  0.18819055  0.17849690  0.30951844  1
  P  P13  1  0.26541337  0.54102718  0.74131296  1
  P  P14  1  0.47585690  0.75588681  0.32042589  1
  P  P15  1  0.52414310  0.24411319  0.67957411  1
  P  P16  1  0.73458663  0.45897282  0.25868704  1
  P  P17  1  0.81180945  0.82150310  0.69048156  1
  P  P18  1  0.84815930  0.79410417  0.98382920  1
  O  O19  1  0.04501282  0.83882681  0.07806165  1
  O  O20  1  0.01701383  0.08394782  0.36898144  1
  O  O21  1  0.07280024  0.42346674  0.73106562  1
  O  O22  1  0.07930404  0.19988057  0.16802510  1
  O  O23  1  0.22342195  0.38635857  0.02620614  1
  O  O24  1  0.24507785  0.35142233  0.40782366  1
  O  O25  1  0.25833017  0.65080341  0.64424470  1
  O  O26  1  0.30121100  0.80977447  0.42478894  1
  O  O27  1  0.34254143  0.63661529  0.89093784  1
  O  O28  1  0.32488061  0.12897962  0.65129530  1
  O  O29  1  0.32653208  0.07796606  0.96954650  1
  O  O30  1  0.39385620  0.70965465  0.16632810  1
  O  O31  1  0.38622671  0.07619466  0.26020552  1
  O  O32  1  0.45898394  0.42285195  0.66868982  1
  O  O33  1  0.54101606  0.57714805  0.33131018  1
  O  O34  1  0.61377329  0.92380534  0.73979448  1
  O  O35  1  0.60614380  0.29034535  0.83367190  1
  O  O36  1  0.67346792  0.92203394  0.03045350  1
  O  O37  1  0.67511939  0.87102038  0.34870470  1
  O  O38  1  0.65745857  0.36338471  0.10906216  1
  O  O39  1  0.69878900  0.19022553  0.57521106  1
  O  O40  1  0.74166983  0.34919659  0.35575530  1
  O  O41  1  0.75492215  0.64857767  0.59217634  1
  O  O42  1  0.77657805  0.61364143  0.97379386  1
  O  O43  1  0.92069596  0.80011943  0.83197490  1
  O  O44  1  0.92720076  0.57653326  0.26893438  1
  O  O45  1  0.98298617  0.91605218  0.63101856  1
  O  O46  1  0.95498718  0.16117319  0.92193835  1
