# generated using pymatgen
data_Li5Co6(P2O7)4
_symmetry_space_group_name_H-M   'P 1'
_cell_length_a   6.39846385
_cell_length_b   8.50334043
_cell_length_c   10.07112906
_cell_angle_alpha   107.39868579
_cell_angle_beta   90.32865847
_cell_angle_gamma   92.88010024
_symmetry_Int_Tables_number   1
_chemical_formula_structural   Li5Co6(P2O7)4
_chemical_formula_sum   'Li5 Co6 P8 O28'
_cell_volume   522.09838895
_cell_formula_units_Z   1
loop_
 _symmetry_equiv_pos_site_id
 _symmetry_equiv_pos_as_xyz
  1  'x, y, z'
loop_
 _atom_site_type_symbol
 _atom_site_label
 _atom_site_symmetry_multiplicity
 _atom_site_fract_x
 _atom_site_fract_y
 _atom_site_fract_z
 _atom_site_occupancy
  Li  Li0  1  0.01910353  0.16116862  0.60969179  1
  Li  Li1  1  0.09320117  0.60708872  0.12392399  1
  Li  Li2  1  0.50000000  0.50000000  0.50000000  1
  Li  Li3  1  0.90679883  0.39291128  0.87607601  1
  Li  Li4  1  0.98089647  0.83883138  0.39030821  1
  Co  Co5  1  0.00000000  0.50000000  0.50000000  1
  Co  Co6  1  0.31330536  0.88986192  0.64420905  1
  Co  Co7  1  0.35672473  0.88194249  0.05962598  1
  Co  Co8  1  0.50000000  0.50000000  -0.00000000  1
  Co  Co9  1  0.64327527  0.11805751  0.94037402  1
  Co  Co10  1  0.68669464  0.11013808  0.35579095  1
  P  P11  1  0.15220834  0.20643765  0.01678570  1
  P  P12  1  0.18738640  0.17922623  0.30968415  1
  P  P13  1  0.26568653  0.53938480  0.73850498  1
  P  P14  1  0.47547667  0.75362669  0.31976977  1
  P  P15  1  0.52452333  0.24637331  0.68023023  1
  P  P16  1  0.73431347  0.46061520  0.26149502  1
  P  P17  1  0.81261360  0.82077377  0.69031585  1
  P  P18  1  0.84779166  0.79356235  0.98321430  1
  O  O19  1  0.04275573  0.83836858  0.07727839  1
  O  O20  1  0.01915185  0.08536114  0.36976215  1
  O  O21  1  0.06952014  0.42538528  0.72276979  1
  O  O22  1  0.08026725  0.20078813  0.16844187  1
  O  O23  1  0.22287582  0.38565375  0.02725770  1
  O  O24  1  0.24033757  0.35138231  0.40747859  1
  O  O25  1  0.25791698  0.64852612  0.64071216  1
  O  O26  1  0.30082666  0.80546394  0.42313537  1
  O  O27  1  0.33627458  0.63295243  0.88814393  1
  O  O28  1  0.32693218  0.13225844  0.65163969  1
  O  O29  1  0.32581787  0.08135567  0.97013348  1
  O  O30  1  0.39323094  0.70886580  0.16685969  1
  O  O31  1  0.38489991  0.08125333  0.26123633  1
  O  O32  1  0.45772673  0.42337382  0.66867590  1
  O  O33  1  0.54227327  0.57662618  0.33132410  1
  O  O34  1  0.61510009  0.91874667  0.73876367  1
  O  O35  1  0.60676906  0.29113420  0.83314031  1
  O  O36  1  0.67418213  0.91864433  0.02986652  1
  O  O37  1  0.67306782  0.86774156  0.34836031  1
  O  O38  1  0.66372542  0.36704757  0.11185607  1
  O  O39  1  0.69917334  0.19453606  0.57686463  1
  O  O40  1  0.74208302  0.35147388  0.35928784  1
  O  O41  1  0.75966243  0.64861769  0.59252141  1
  O  O42  1  0.77712418  0.61434625  0.97274230  1
  O  O43  1  0.91973275  0.79921187  0.83155813  1
  O  O44  1  0.93047986  0.57461472  0.27723021  1
  O  O45  1  0.98084815  0.91463886  0.63023785  1
  O  O46  1  0.95724427  0.16163142  0.92272161  1
