# generated using pymatgen
data_LiFeF3
_symmetry_space_group_name_H-M   'P 1'
_cell_length_a   10.26738320
_cell_length_b   8.98006808
_cell_length_c   5.67286883
_cell_angle_alpha   90.00000000
_cell_angle_beta   75.33244938
_cell_angle_gamma   90.00000000
_symmetry_Int_Tables_number   1
_chemical_formula_structural   LiFeF3
_chemical_formula_sum   'Li8 Fe8 F24'
_cell_volume   506.00324695
_cell_formula_units_Z   8
loop_
 _symmetry_equiv_pos_site_id
 _symmetry_equiv_pos_as_xyz
  1  'x, y, z'
loop_
 _atom_site_type_symbol
 _atom_site_label
 _atom_site_symmetry_multiplicity
 _atom_site_fract_x
 _atom_site_fract_y
 _atom_site_fract_z
 _atom_site_occupancy
  Li  Li0  1  0.04313452  0.16709072  0.76205494  1
  Li  Li1  1  0.04313452  0.33290928  0.26205494  1
  Li  Li2  1  0.43781928  0.33053716  0.85417022  1
  Li  Li3  1  0.43781928  0.16946284  0.35417022  1
  Li  Li4  1  0.56218072  0.83053716  0.64582978  1
  Li  Li5  1  0.56218072  0.66946284  0.14582978  1
  Li  Li6  1  0.95686548  0.66709072  0.73794506  1
  Li  Li7  1  0.95686548  0.83290928  0.23794506  1
  Fe  Fe8  1  0.25815979  0.03312435  0.93787789  1
  Fe  Fe9  1  0.25755958  0.65487356  0.94030168  1
  Fe  Fe10  1  0.25815979  0.46687565  0.43787789  1
  Fe  Fe11  1  0.25755958  0.84512644  0.44030168  1
  Fe  Fe12  1  0.74244042  0.15487356  0.55969832  1
  Fe  Fe13  1  0.74184021  0.53312435  0.56212211  1
  Fe  Fe14  1  0.74244042  0.34512644  0.05969832  1
  Fe  Fe15  1  0.74184021  0.96687565  0.06212211  1
  F  F16  1  0.10897315  0.18045591  0.04541939  1
  F  F17  1  0.14519768  0.99010163  0.66601348  1
  F  F18  1  0.15177634  0.65719839  0.65516828  1
  F  F19  1  0.10897315  0.31954409  0.54541939  1
  F  F20  1  0.14519768  0.50989837  0.16601348  1
  F  F21  1  0.15177634  0.84280161  0.15516828  1
  F  F22  1  0.35653728  0.48544685  0.71564603  1
  F  F23  1  0.36294225  0.83082048  0.74069115  1
  F  F24  1  0.39685754  0.15672886  0.69776238  1
  F  F25  1  0.35653728  0.01455315  0.21564603  1
  F  F26  1  0.36294225  0.66917952  0.24069115  1
  F  F27  1  0.39685754  0.34327114  0.19776238  1
  F  F28  1  0.60314246  0.65672886  0.80223762  1
  F  F29  1  0.63705775  0.33082048  0.75930885  1
  F  F30  1  0.64346272  0.98544685  0.78435397  1
  F  F31  1  0.60314246  0.84327114  0.30223762  1
  F  F32  1  0.63705775  0.16917952  0.25930885  1
  F  F33  1  0.64346272  0.51455315  0.28435397  1
  F  F34  1  0.84822366  0.15719839  0.84483172  1
  F  F35  1  0.85480232  0.49010163  0.83398652  1
  F  F36  1  0.89102685  0.68045591  0.45458061  1
  F  F37  1  0.84822366  0.34280161  0.34483172  1
  F  F38  1  0.85480232  0.00989837  0.33398652  1
  F  F39  1  0.89102685  0.81954409  0.95458061  1
