# generated using pymatgen
data_Ca2YMnO5
_symmetry_space_group_name_H-M   'P 1'
_cell_length_a   5.42883870
_cell_length_b   5.60916194
_cell_length_c   9.11368769
_cell_angle_alpha   107.92418336
_cell_angle_beta   107.40330256
_cell_angle_gamma   89.99849103
_symmetry_Int_Tables_number   1
_chemical_formula_structural   Ca2YMnO5
_chemical_formula_sum   'Ca4 Y2 Mn2 O10'
_cell_volume   250.66821695
_cell_formula_units_Z   2
loop_
 _symmetry_equiv_pos_site_id
 _symmetry_equiv_pos_as_xyz
  1  'x, y, z'
loop_
 _atom_site_type_symbol
 _atom_site_label
 _atom_site_symmetry_multiplicity
 _atom_site_fract_x
 _atom_site_fract_y
 _atom_site_fract_z
 _atom_site_occupancy
  Ca  Ca0  1  0.10752751  0.62525343  0.19893184  1
  Ca  Ca1  1  0.40843601  0.92722937  0.80153923  1
  Ca  Ca2  1  0.90844885  0.37306082  0.80152190  1
  Ca  Ca3  1  0.60752722  0.07248849  0.19892681  1
  Y  Y4  1  0.28833981  0.28931041  0.50026777  1
  Y  Y5  1  0.78832622  0.70970310  0.50028013  1
  Mn  Mn6  1  0.48720746  0.50035925  0.00012180  1
  Mn  Mn7  1  0.98684623  0.99851962  0.00012720  1
  O  O8  1  0.69722301  0.32722758  0.50028593  1
  O  O9  1  0.19722742  0.67181356  0.50032407  1
  O  O10  1  0.57660059  0.70411691  0.26059783  1
  O  O11  1  0.31774588  0.29447495  0.74001477  1
  O  O12  1  0.07667034  0.05530914  0.26058254  1
  O  O13  1  0.81779799  0.94428654  0.74002194  1
  O  O14  1  0.22615663  0.73164091  0.96968617  1
  O  O15  1  0.24999064  0.25329435  0.03062194  1
  O  O16  1  0.74990726  0.27622725  0.03067817  1
  O  O17  1  0.72617992  0.73685932  0.96965294  1
