# generated using pymatgen
data_Li4Cr(TeO4)3
_symmetry_space_group_name_H-M   'P 1'
_cell_length_a   5.22282617
_cell_length_b   5.03323300
_cell_length_c   8.60829812
_cell_angle_alpha   90.00000000
_cell_angle_beta   90.00000000
_cell_angle_gamma   90.61553164
_symmetry_Int_Tables_number   1
_chemical_formula_structural   Li4Cr(TeO4)3
_chemical_formula_sum   'Li4 Cr1 Te3 O12'
_cell_volume   226.27930867
_cell_formula_units_Z   1
loop_
 _symmetry_equiv_pos_site_id
 _symmetry_equiv_pos_as_xyz
  1  'x, y, z'
loop_
 _atom_site_type_symbol
 _atom_site_label
 _atom_site_symmetry_multiplicity
 _atom_site_fract_x
 _atom_site_fract_y
 _atom_site_fract_z
 _atom_site_occupancy
  Li  Li0  1  -0.00000000  0.00000000  0.71043718  1
  Li  Li1  1  -0.00000000  0.50000000  0.84714946  1
  Li  Li2  1  0.50000000  0.00000000  0.29777919  1
  Li  Li3  1  0.50000000  0.50000000  0.17969157  1
  Cr  Cr4  1  -0.00000000  0.00000000  0.10027242  1
  Te  Te5  1  0.50000000  0.50000000  0.60579151  1
  Te  Te6  1  -0.00000000  0.50000000  0.39828789  1
  Te  Te7  1  0.50000000  0.00000000  0.92613502  1
  O  O8  1  0.15999368  0.26191837  0.25622533  1
  O  O9  1  0.16249752  0.29475601  0.57695535  1
  O  O10  1  0.18508381  0.19993355  0.92482671  1
  O  O11  1  0.32115513  0.70709604  0.42633307  1
  O  O12  1  0.32816863  0.79795378  0.08912494  1
  O  O13  1  0.33729731  0.76580350  0.76430297  1
  O  O14  1  0.66270269  0.23419650  0.76430297  1
  O  O15  1  0.67183137  0.20204622  0.08912494  1
  O  O16  1  0.67884487  0.29290396  0.42633307  1
  O  O17  1  0.81491619  0.80006645  0.92482671  1
  O  O18  1  0.83750248  0.70524399  0.57695535  1
  O  O19  1  0.84000632  0.73808163  0.25622533  1
