# generated using pymatgen
data_Li5V6O5F19
_symmetry_space_group_name_H-M   'P 1'
_cell_length_a   5.24786283
_cell_length_b   5.40886170
_cell_length_c   16.11993257
_cell_angle_alpha   80.30621609
_cell_angle_beta   89.70228490
_cell_angle_gamma   89.26669917
_symmetry_Int_Tables_number   1
_chemical_formula_structural   Li5V6O5F19
_chemical_formula_sum   'Li5 V6 O5 F19'
_cell_volume   450.99141162
_cell_formula_units_Z   1
loop_
 _symmetry_equiv_pos_site_id
 _symmetry_equiv_pos_as_xyz
  1  'x, y, z'
loop_
 _atom_site_type_symbol
 _atom_site_label
 _atom_site_symmetry_multiplicity
 _atom_site_fract_x
 _atom_site_fract_y
 _atom_site_fract_z
 _atom_site_occupancy
  Li  Li0  1  0.97447072  0.52416312  0.89289073  1
  Li  Li1  1  0.20487897  0.53373539  0.50526181  1
  Li  Li2  1  0.71559929  0.63565761  0.15365317  1
  Li  Li3  1  0.80410997  0.03107681  0.49037648  1
  Li  Li4  1  0.31413617  0.13098389  0.16949536  1
  V  V5  1  0.48126586  0.53282839  0.99547953  1
  V  V6  1  0.53428079  0.85081692  0.33742238  1
  V  V7  1  0.02605077  0.64972829  0.66980163  1
  V  V8  1  0.97240921  0.97480883  0.99969495  1
  V  V9  1  0.49457473  0.16885957  0.67286390  1
  V  V10  1  0.03207746  0.31404618  0.32957512  1
  O  O11  1  0.26936518  0.77957852  0.97673587  1
  O  O12  1  0.27353512  0.46110059  0.64445273  1
  O  O13  1  0.77774851  0.71623430  0.02556615  1
  O  O14  1  0.28046813  0.12319234  0.31007640  1
  O  O15  1  0.77939763  0.03818303  0.35855490  1
  F  F16  1  0.20570441  0.97103647  0.64682600  1
  F  F17  1  0.71579879  0.86861717  0.68442810  1
  F  F18  1  0.08310694  0.96613169  0.11382038  1
  F  F19  1  0.08450040  0.63293657  0.78291590  1
  F  F20  1  0.42350800  0.77820601  0.45279851  1
  F  F21  1  0.57323644  0.87551068  0.21752100  1
  F  F22  1  0.61853006  0.54219858  0.88684233  1
  F  F23  1  0.92747821  0.72013648  0.55112341  1
  F  F24  1  0.19481230  0.30368764  0.97499270  1
  F  F25  1  0.22618583  0.62590767  0.31923518  1
  F  F26  1  0.72644333  0.53323840  0.35417615  1
  F  F27  1  0.78224648  0.37113965  0.69223282  1
  F  F28  1  0.06905805  0.27891478  0.45273103  1
  F  F29  1  0.92191642  0.06874801  0.88558346  1
  F  F30  1  0.43043434  0.44654889  0.11806360  1
  F  F31  1  0.92074630  0.39184847  0.21729989  1
  F  F32  1  0.41838909  0.11227232  0.77982505  1
  F  F33  1  0.57976646  0.20655409  0.55919458  1
  F  F34  1  0.69920866  0.21418964  0.02112579  1
