# generated using pymatgen
data_Ca2YCoO5
_symmetry_space_group_name_H-M   'P 1'
_cell_length_a   5.16760463
_cell_length_b   5.39660564
_cell_length_c   9.36596224
_cell_angle_alpha   106.84418636
_cell_angle_beta   106.40472076
_cell_angle_gamma   89.19364235
_symmetry_Int_Tables_number   1
_chemical_formula_structural   Ca2YCoO5
_chemical_formula_sum   'Ca4 Y2 Co2 O10'
_cell_volume   239.15647099
_cell_formula_units_Z   2
loop_
 _symmetry_equiv_pos_site_id
 _symmetry_equiv_pos_as_xyz
  1  'x, y, z'
loop_
 _atom_site_type_symbol
 _atom_site_label
 _atom_site_symmetry_multiplicity
 _atom_site_fract_x
 _atom_site_fract_y
 _atom_site_fract_z
 _atom_site_occupancy
  Ca  Ca0  1  0.08445691  0.61847591  0.19424640  1
  Ca  Ca1  1  0.39245671  0.91990832  0.80338759  1
  Ca  Ca2  1  0.88974429  0.38002859  0.80364287  1
  Ca  Ca3  1  0.58534857  0.07825898  0.19452460  1
  Y  Y4  1  0.26852459  0.28248197  0.50163261  1
  Y  Y5  1  0.76509071  0.71577645  0.49640412  1
  Co  Co6  1  0.48198070  0.49925059  0.99905945  1
  Co  Co7  1  0.98254749  0.99924745  0.99902043  1
  O  O8  1  0.71247841  0.30937762  0.49906700  1
  O  O9  1  0.21170943  0.68902390  0.49889259  1
  O  O10  1  0.60036456  0.67280791  0.24963698  1
  O  O11  1  0.35002731  0.32572869  0.74823150  1
  O  O12  1  0.10313963  0.07328436  0.26036942  1
  O  O13  1  0.84078707  0.92528812  0.73748822  1
  O  O14  1  0.22732464  0.73850814  0.97685644  1
  O  O15  1  0.23578804  0.25332820  0.02193821  1
  O  O16  1  0.73913321  0.26239365  0.02088610  1
  O  O17  1  0.73086974  0.74246614  0.97597348  1
