# generated using pymatgen
data_Cu3Sn(PO4)4
_symmetry_space_group_name_H-M   'P 1'
_cell_length_a   5.13529897
_cell_length_b   9.98617470
_cell_length_c   6.06513644
_cell_angle_alpha   90.00000000
_cell_angle_beta   90.00000000
_cell_angle_gamma   87.62713202
_symmetry_Int_Tables_number   1
_chemical_formula_structural   Cu3Sn(PO4)4
_chemical_formula_sum   'Cu3 Sn1 P4 O16'
_cell_volume   310.76558684
_cell_formula_units_Z   1
loop_
 _symmetry_equiv_pos_site_id
 _symmetry_equiv_pos_as_xyz
  1  'x, y, z'
loop_
 _atom_site_type_symbol
 _atom_site_label
 _atom_site_symmetry_multiplicity
 _atom_site_fract_x
 _atom_site_fract_y
 _atom_site_fract_z
 _atom_site_occupancy
  Cu  Cu0  1  0.12856997  0.69125889  0.75000000  1
  Cu  Cu1  1  0.35316999  0.19005895  0.75000000  1
  Cu  Cu2  1  0.62829444  0.80434388  0.25000000  1
  Sn  Sn3  1  0.95428897  0.28932882  0.25000000  1
  P  P4  1  0.08993416  0.61126255  0.25000000  1
  P  P5  1  0.42116642  0.10013834  0.25000000  1
  P  P6  1  0.56104930  0.88760557  0.75000000  1
  P  P7  1  0.91990855  0.40232304  0.75000000  1
  O  O8  1  0.16030484  0.45695714  0.25000000  1
  O  O9  1  0.22483005  0.67654651  0.05047200  1
  O  O10  1  0.22483005  0.67654651  0.44952800  1
  O  O11  1  0.21448571  0.36586413  0.75000000  1
  O  O12  1  0.26526782  0.86294045  0.75000000  1
  O  O13  1  0.25667811  0.17338766  0.05886992  1
  O  O14  1  0.25667811  0.17338766  0.44113008  1
  O  O15  1  0.38406784  0.95005778  0.25000000  1
  O  O16  1  0.58640427  0.04220031  0.75000000  1
  O  O17  1  0.71242026  0.82401870  0.55135700  1
  O  O18  1  0.71242026  0.82401870  0.94864300  1
  O  O19  1  0.71154678  0.13030380  0.25000000  1
  O  O20  1  0.78972017  0.63072600  0.25000000  1
  O  O21  1  0.77871701  0.34036498  0.54582953  1
  O  O22  1  0.77871701  0.34036498  0.95417047  1
  O  O23  1  0.88653091  0.55599262  0.75000000  1
