# generated using pymatgen
data_VO2
_symmetry_space_group_name_H-M   'P 1'
_cell_length_a   7.76555576
_cell_length_b   8.60702237
_cell_length_c   8.60702237
_cell_angle_alpha   90.00000000
_cell_angle_beta   90.00000000
_cell_angle_gamma   90.00000000
_symmetry_Int_Tables_number   1
_chemical_formula_structural   VO2
_chemical_formula_sum   'V16 O32'
_cell_volume   575.27884778
_cell_formula_units_Z   16
loop_
 _symmetry_equiv_pos_site_id
 _symmetry_equiv_pos_as_xyz
  1  'x, y, z'
loop_
 _atom_site_type_symbol
 _atom_site_label
 _atom_site_symmetry_multiplicity
 _atom_site_fract_x
 _atom_site_fract_y
 _atom_site_fract_z
 _atom_site_occupancy
  V  V0  1  0.87536463  0.95167450  0.23170586  1
  V  V1  1  0.62463537  0.73170586  0.45167450  1
  V  V2  1  0.12463537  0.73170586  0.04832550  1
  V  V3  1  0.12463537  0.04832550  0.76829414  1
  V  V4  1  0.62463537  0.76829414  0.04832550  1
  V  V5  1  0.37536463  0.95167450  0.26829414  1
  V  V6  1  0.62463537  0.04832550  0.73170586  1
  V  V7  1  0.12463537  0.76829414  0.45167450  1
  V  V8  1  0.87536463  0.26829414  0.95167450  1
  V  V9  1  0.37536463  0.23170586  0.95167450  1
  V  V10  1  0.87536463  0.54832550  0.26829414  1
  V  V11  1  0.62463537  0.45167450  0.76829414  1
  V  V12  1  0.37536463  0.26829414  0.54832550  1
  V  V13  1  0.12463537  0.45167450  0.73170586  1
  V  V14  1  0.87536463  0.23170586  0.54832550  1
  V  V15  1  0.37536463  0.54832550  0.23170586  1
  O  O16  1  0.12525002  0.59980819  0.24518245  1
  O  O17  1  0.12525002  0.25481755  0.59980819  1
  O  O18  1  0.87474998  0.40019181  0.75481755  1
  O  O19  1  0.87475348  0.41046174  0.08910128  1
  O  O20  1  0.62525002  0.24518245  0.59980819  1
  O  O21  1  0.37475348  0.08910128  0.41046174  1
  O  O22  1  0.87475348  0.08953826  0.41089872  1
  O  O23  1  0.37474998  0.40019181  0.74518245  1
  O  O24  1  0.62524652  0.58953826  0.58910128  1
  O  O25  1  0.37475348  0.41046174  0.41089872  1
  O  O26  1  0.12524652  0.91046174  0.58910128  1
  O  O27  1  0.12525002  0.90019181  0.25481755  1
  O  O28  1  0.37474998  0.09980819  0.75481755  1
  O  O29  1  0.87474998  0.75481755  0.09980819  1
  O  O30  1  0.62524652  0.91046174  0.91089872  1
  O  O31  1  0.12524652  0.91089872  0.91046174  1
  O  O32  1  0.37475348  0.08953826  0.08910128  1
  O  O33  1  0.62525002  0.25481755  0.90019181  1
  O  O34  1  0.37474998  0.75481755  0.40019181  1
  O  O35  1  0.87474998  0.74518245  0.40019181  1
  O  O36  1  0.62524652  0.58910128  0.91046174  1
  O  O37  1  0.62525002  0.59980819  0.25481755  1
  O  O38  1  0.62525002  0.90019181  0.24518245  1
  O  O39  1  0.12525002  0.24518245  0.90019181  1
  O  O40  1  0.87475348  0.41089872  0.41046174  1
  O  O41  1  0.12524652  0.58953826  0.91089872  1
  O  O42  1  0.37474998  0.74518245  0.09980819  1
  O  O43  1  0.12524652  0.58910128  0.58953826  1
  O  O44  1  0.62524652  0.91089872  0.58953826  1
  O  O45  1  0.87475348  0.08910128  0.08953826  1
  O  O46  1  0.37475348  0.41089872  0.08953826  1
  O  O47  1  0.87474998  0.09980819  0.74518245  1
