# generated using pymatgen
data_Fe3OF5
_symmetry_space_group_name_H-M   'P 1'
_cell_length_a   10.79074219
_cell_length_b   6.82474999
_cell_length_c   3.18181991
_cell_angle_alpha   90.00000000
_cell_angle_beta   90.00000000
_cell_angle_gamma   71.61897193
_symmetry_Int_Tables_number   1
_chemical_formula_structural   Fe3OF5
_chemical_formula_sum   'Fe6 O2 F10'
_cell_volume   222.36730727
_cell_formula_units_Z   2
loop_
 _symmetry_equiv_pos_site_id
 _symmetry_equiv_pos_as_xyz
  1  'x, y, z'
loop_
 _atom_site_type_symbol
 _atom_site_label
 _atom_site_symmetry_multiplicity
 _atom_site_fract_x
 _atom_site_fract_y
 _atom_site_fract_z
 _atom_site_occupancy
  Fe  Fe0  1  0.99552221  0.01496873  -0.00000000  1
  Fe  Fe1  1  0.00292215  0.47307631  0.50000000  1
  Fe  Fe2  1  0.35277374  0.32474304  -0.00000000  1
  Fe  Fe3  1  0.65833615  0.17043006  0.50000000  1
  Fe  Fe4  1  0.33161371  0.83444996  0.50000000  1
  Fe  Fe5  1  0.66915613  0.66608814  -0.00000000  1
  O  O6  1  0.00291516  0.31341941  -0.00000000  1
  O  O7  1  0.45726204  0.27113232  0.50000000  1
  F  F8  1  0.32626589  0.04519189  0.00000000  1
  F  F9  1  0.00254915  0.69066225  0.00000000  1
  F  F10  1  0.20415732  0.40539396  0.50000000  1
  F  F11  1  0.13423948  0.92411560  0.50000000  1
  F  F12  1  0.32958376  0.62883679  0.00000000  1
  F  F13  1  0.66909311  0.37170679  -0.00000000  1
  F  F14  1  0.86020311  0.06355015  0.50000000  1
  F  F15  1  0.52945318  0.73534721  0.50000000  1
  F  F16  1  0.80784151  0.60511456  0.50000000  1
  F  F17  1  0.66611119  0.96177283  -0.00000000  1
