# generated using pymatgen
data_Li2SiNiO4
_symmetry_space_group_name_H-M   'P 1'
_cell_length_a   5.21026409
_cell_length_b   5.20620852
_cell_length_c   6.43651510
_cell_angle_alpha   90.25539249
_cell_angle_beta   90.38504057
_cell_angle_gamma   91.80475340
_symmetry_Int_Tables_number   1
_chemical_formula_structural   Li2SiNiO4
_chemical_formula_sum   'Li4 Si2 Ni2 O8'
_cell_volume   174.50266221
_cell_formula_units_Z   2
loop_
 _symmetry_equiv_pos_site_id
 _symmetry_equiv_pos_as_xyz
  1  'x, y, z'
loop_
 _atom_site_type_symbol
 _atom_site_label
 _atom_site_symmetry_multiplicity
 _atom_site_fract_x
 _atom_site_fract_y
 _atom_site_fract_z
 _atom_site_occupancy
  Li  Li0  1  0.18880524  0.18649085  0.75253729  1
  Li  Li1  1  0.31374391  0.68627105  0.50033520  1
  Li  Li2  1  0.68517644  0.31449576  0.99965936  1
  Li  Li3  1  0.81408182  0.81092577  0.24742312  1
  Si  Si4  1  0.17589431  0.17752820  0.25193095  1
  Si  Si5  1  0.82311713  0.82342523  0.74796399  1
  Ni  Ni6  1  0.31656021  0.68443471  0.00061887  1
  Ni  Ni7  1  0.68366330  0.31629984  0.49988284  1
  O  O8  1  0.13857499  0.78991038  0.74714405  1
  O  O9  1  0.20831971  0.86179936  0.25339794  1
  O  O10  1  0.30500762  0.30291331  0.03985648  1
  O  O11  1  0.30122908  0.30352560  0.46654671  1
  O  O12  1  0.69711718  0.69435623  0.95969998  1
  O  O13  1  0.69665312  0.69900624  0.53313731  1
  O  O14  1  0.78794756  0.13832522  0.75350065  1
  O  O15  1  0.86131138  0.21309126  0.24637026  1
