# generated using pymatgen
data_BaYF5
_symmetry_space_group_name_H-M   'P 1'
_cell_length_a   3.91548442
_cell_length_b   7.83202087
_cell_length_c   13.51542058
_cell_angle_alpha   90.00000000
_cell_angle_beta   90.00000000
_cell_angle_gamma   90.00000000
_symmetry_Int_Tables_number   1
_chemical_formula_structural   BaYF5
_chemical_formula_sum   'Ba4 Y4 F20'
_cell_volume   414.46599177
_cell_formula_units_Z   4
loop_
 _symmetry_equiv_pos_site_id
 _symmetry_equiv_pos_as_xyz
  1  'x, y, z'
loop_
 _atom_site_type_symbol
 _atom_site_label
 _atom_site_symmetry_multiplicity
 _atom_site_fract_x
 _atom_site_fract_y
 _atom_site_fract_z
 _atom_site_occupancy
  Ba  Ba0  1  0.00030873  0.99674889  0.25000000  1
  Ba  Ba1  1  0.00030873  0.50325111  0.75000000  1
  Ba  Ba2  1  0.99969127  0.49674889  0.25000000  1
  Ba  Ba3  1  0.99969127  0.00325111  0.75000000  1
  Y  Y4  1  0.50153614  0.25000000  -0.00000000  1
  Y  Y5  1  0.50153614  0.25000000  0.50000000  1
  Y  Y6  1  0.49846386  0.75000000  -0.00000000  1
  Y  Y7  1  0.49846386  0.75000000  0.50000000  1
  F  F8  1  0.99862993  0.74697723  0.09272455  1
  F  F9  1  0.99862993  0.74697723  0.40727545  1
  F  F10  1  0.99862993  0.75302277  0.59272455  1
  F  F11  1  0.99862993  0.75302277  0.90727545  1
  F  F12  1  0.50121489  0.50184004  0.59267847  1
  F  F13  1  0.50121489  0.99815996  0.09267847  1
  F  F14  1  0.50121489  0.99815996  0.40732153  1
  F  F15  1  0.50121489  0.50184004  0.90732153  1
  F  F16  1  0.50171857  0.24630099  0.25000000  1
  F  F17  1  0.50171857  0.25369901  0.75000000  1
  F  F18  1  0.49828143  0.74630099  0.25000000  1
  F  F19  1  0.49828143  0.75369901  0.75000000  1
  F  F20  1  0.49878511  0.00184004  0.59267847  1
  F  F21  1  0.49878511  0.49815996  0.09267847  1
  F  F22  1  0.49878511  0.00184004  0.90732153  1
  F  F23  1  0.49878511  0.49815996  0.40732153  1
  F  F24  1  0.00137007  0.24697723  0.09272455  1
  F  F25  1  0.00137007  0.24697723  0.40727545  1
  F  F26  1  0.00137007  0.25302277  0.59272455  1
  F  F27  1  0.00137007  0.25302277  0.90727545  1
