# generated using pymatgen
data_Ba2SrI6
_symmetry_space_group_name_H-M   'P 1'
_cell_length_a   8.05834999
_cell_length_b   13.82553746
_cell_length_c   9.10261279
_cell_angle_alpha   100.70881362
_cell_angle_beta   90.00000000
_cell_angle_gamma   73.05641855
_symmetry_Int_Tables_number   1
_chemical_formula_structural   Ba2SrI6
_chemical_formula_sum   'Ba4 Sr2 I12'
_cell_volume   951.63159853
_cell_formula_units_Z   2
loop_
 _symmetry_equiv_pos_site_id
 _symmetry_equiv_pos_as_xyz
  1  'x, y, z'
loop_
 _atom_site_type_symbol
 _atom_site_label
 _atom_site_symmetry_multiplicity
 _atom_site_fract_x
 _atom_site_fract_y
 _atom_site_fract_z
 _atom_site_occupancy
  Ba  Ba0  1  0.38893813  0.66890161  0.85866110  1
  Ba  Ba1  1  0.94216026  0.66890161  0.35866110  1
  Ba  Ba2  1  0.05783974  0.33109839  0.64133890  1
  Ba  Ba3  1  0.61106187  0.33109839  0.14133890  1
  Sr  Sr4  1  0.66576601  0.00000000  0.75000000  1
  Sr  Sr5  1  0.33423399  0.00000000  0.25000000  1
  I  I6  1  0.61471212  0.84497061  0.97876743  1
  I  I7  1  0.54031827  0.84497061  0.47876743  1
  I  I8  1  0.05497633  0.82095237  0.67377577  1
  I  I9  1  0.12407130  0.82095237  0.17377577  1
  I  I10  1  0.73765762  0.54835526  0.59312561  1
  I  I11  1  0.71398712  0.54835526  0.09312561  1
  I  I12  1  0.28601288  0.45164474  0.90687439  1
  I  I13  1  0.26234238  0.45164474  0.40687439  1
  I  I14  1  0.87592870  0.17904763  0.82622423  1
  I  I15  1  0.94502367  0.17904763  0.32622423  1
  I  I16  1  0.45968173  0.15502939  0.52123257  1
  I  I17  1  0.38528788  0.15502939  0.02123257  1
