# generated using pymatgen
data_Mg(BrO3)2
_symmetry_space_group_name_H-M   'P 1'
_cell_length_a   6.53117793
_cell_length_b   6.53117793
_cell_length_c   6.26969302
_cell_angle_alpha   52.85771722
_cell_angle_beta   127.14228278
_cell_angle_gamma   128.11284735
_symmetry_Int_Tables_number   1
_chemical_formula_structural   Mg(BrO3)2
_chemical_formula_sum   'Mg1 Br2 O6'
_cell_volume   155.93097576
_cell_formula_units_Z   1
loop_
 _symmetry_equiv_pos_site_id
 _symmetry_equiv_pos_as_xyz
  1  'x, y, z'
loop_
 _atom_site_type_symbol
 _atom_site_label
 _atom_site_symmetry_multiplicity
 _atom_site_fract_x
 _atom_site_fract_y
 _atom_site_fract_z
 _atom_site_occupancy
  Mg  Mg0  1  -0.00000000  0.00000000  -0.00000000  1
  Br  Br1  1  0.64309630  0.35690370  0.38351876  1
  Br  Br2  1  0.35690370  0.64309630  0.61648124  1
  O  O3  1  0.75697526  0.24302474  0.74453989  1
  O  O4  1  0.24302474  0.75697526  0.25546011  1
  O  O5  1  0.23830250  0.29365292  0.72698531  1
  O  O6  1  0.70634708  0.76169750  0.72698531  1
  O  O7  1  0.76169750  0.70634708  0.27301469  1
  O  O8  1  0.29365292  0.23830250  0.27301469  1
