# generated using pymatgen
data_Cs3Sn4Au
_symmetry_space_group_name_H-M   'P 1'
_cell_length_a   6.74943392
_cell_length_b   7.55143374
_cell_length_c   15.55288456
_cell_angle_alpha   90.00000000
_cell_angle_beta   90.00000000
_cell_angle_gamma   90.00000000
_symmetry_Int_Tables_number   1
_chemical_formula_structural   Cs3Sn4Au
_chemical_formula_sum   'Cs6 Sn8 Au2'
_cell_volume   792.69791208
_cell_formula_units_Z   2
loop_
 _symmetry_equiv_pos_site_id
 _symmetry_equiv_pos_as_xyz
  1  'x, y, z'
loop_
 _atom_site_type_symbol
 _atom_site_label
 _atom_site_symmetry_multiplicity
 _atom_site_fract_x
 _atom_site_fract_y
 _atom_site_fract_z
 _atom_site_occupancy
  Cs  Cs0  1  0.07474881  0.75000000  0.94448609  1
  Cs  Cs1  1  0.92525119  0.25000000  0.44448609  1
  Cs  Cs2  1  0.92525119  0.25000000  0.05551391  1
  Cs  Cs3  1  0.48519095  0.75000000  0.75000000  1
  Cs  Cs4  1  0.51480905  0.25000000  0.25000000  1
  Cs  Cs5  1  0.07474881  0.75000000  0.55551391  1
  Sn  Sn6  1  0.93484685  0.45349734  0.75000000  1
  Sn  Sn7  1  0.36868371  0.75000000  0.35046922  1
  Sn  Sn8  1  0.93484685  0.04650266  0.75000000  1
  Sn  Sn9  1  0.63131629  0.25000000  0.85046922  1
  Sn  Sn10  1  0.63131629  0.25000000  0.64953078  1
  Sn  Sn11  1  0.06515315  0.54650266  0.25000000  1
  Sn  Sn12  1  0.06515315  0.95349734  0.25000000  1
  Sn  Sn13  1  0.36868371  0.75000000  0.14953078  1
  Au  Au14  1  0.71522802  0.75000000  0.25000000  1
  Au  Au15  1  0.28477198  0.25000000  0.75000000  1
