# generated using pymatgen
data_NaMn3CuH24(SO6)4
_symmetry_space_group_name_H-M   'P 1'
_cell_length_a   11.04821646
_cell_length_b   11.04848955
_cell_length_c   11.04848994
_cell_angle_alpha   67.77484882
_cell_angle_beta   67.77434213
_cell_angle_gamma   67.77434072
_symmetry_Int_Tables_number   1
_chemical_formula_structural   NaMn3CuH24(SO6)4
_chemical_formula_sum   'Na2 Mn6 Cu2 H48 S8 O48'
_cell_volume   1111.31374331
_cell_formula_units_Z   2
loop_
 _symmetry_equiv_pos_site_id
 _symmetry_equiv_pos_as_xyz
  1  'x, y, z'
loop_
 _atom_site_type_symbol
 _atom_site_label
 _atom_site_symmetry_multiplicity
 _atom_site_fract_x
 _atom_site_fract_y
 _atom_site_fract_z
 _atom_site_occupancy
  Na  Na0  1  0.49645454  0.49645214  0.49644834  1
  Na  Na1  1  0.99645454  0.99644834  0.99645214  1
  Mn  Mn2  1  0.50746343  0.93184056  0.02824656  1
  Mn  Mn3  1  0.93172422  0.02823629  0.50759385  1
  Mn  Mn4  1  0.02822787  0.50756976  0.93187487  1
  Mn  Mn5  1  0.00746343  0.52824656  0.43184056  1
  Mn  Mn6  1  0.52822787  0.43187487  0.00756976  1
  Mn  Mn7  1  0.43172422  0.00759385  0.52823629  1
  Cu  Cu8  1  0.72798712  0.72792715  0.72792881  1
  Cu  Cu9  1  0.22798712  0.22792881  0.22792715  1
  H  H10  1  0.70469266  0.66218934  0.38724075  1
  H  H11  1  0.66219827  0.38724186  0.70468182  1
  H  H12  1  0.38725552  0.70468489  0.66218390  1
  H  H13  1  0.20469266  0.88724075  0.16218934  1
  H  H14  1  0.88725552  0.16218390  0.20468489  1
  H  H15  1  0.16219827  0.20468182  0.88724186  1
  H  H16  1  0.76069476  0.53843849  0.33035595  1
  H  H17  1  0.53844700  0.33036092  0.76068536  1
  H  H18  1  0.33037078  0.76068500  0.53843735  1
  H  H19  1  0.26069476  0.83035595  0.03843849  1
  H  H20  1  0.83037078  0.03843735  0.26068500  1
  H  H21  1  0.03844700  0.26068536  0.83036092  1
  H  H22  1  0.36552959  0.55441652  0.28859303  1
  H  H23  1  0.55442504  0.28859344  0.36551610  1
  H  H24  1  0.28860356  0.36552014  0.55441145  1
  H  H25  1  0.86552959  0.78859303  0.05441652  1
  H  H26  1  0.78860356  0.05441145  0.86552014  1
  H  H27  1  0.05442504  0.86551610  0.78859344  1
  H  H28  1  0.39106099  0.69062364  0.27491524  1
  H  H29  1  0.69063466  0.27491920  0.39104445  1
  H  H30  1  0.27491735  0.39106067  0.69061710  1
  H  H31  1  0.89106099  0.77491524  0.19062364  1
  H  H32  1  0.77491735  0.19061710  0.89106067  1
  H  H33  1  0.19063466  0.89104445  0.77491920  1
  H  H34  1  0.60738905  0.63781836  0.10174762  1
  H  H35  1  0.63780703  0.10174900  0.60738800  1
  H  H36  1  0.10175227  0.60736882  0.63783370  1
  H  H37  1  0.10738905  0.60174762  0.13781836  1
  H  H38  1  0.60175227  0.13783370  0.10736882  1
  H  H39  1  0.13780703  0.10738800  0.60174900  1
  H  H40  1  0.61732081  0.69071200  0.21038853  1
  H  H41  1  0.69069820  0.21040582  0.61732523  1
  H  H42  1  0.21039645  0.61730845  0.69071520  1
  H  H43  1  0.11732081  0.71038853  0.19071200  1
  H  H44  1  0.71039645  0.19071520  0.11730845  1
  H  H45  1  0.19069820  0.11732523  0.71040582  1
  H  H46  1  0.53356172  0.94900912  0.25518651  1
  H  H47  1  0.94901839  0.25519129  0.53355271  1
  H  H48  1  0.25520637  0.53354966  0.94900714  1
  H  H49  1  0.03356172  0.75518651  0.44900912  1
  H  H50  1  0.75520637  0.44900714  0.03354966  1
  H  H51  1  0.44901839  0.03355271  0.75519129  1
  H  H52  1  0.68860316  0.91674278  0.15663924  1
  H  H53  1  0.91674610  0.15665487  0.68860636  1
  H  H54  1  0.15665159  0.68859758  0.91674090  1
  H  H55  1  0.18860316  0.65663924  0.41674278  1
  H  H56  1  0.65665159  0.41674090  0.18859758  1
  H  H57  1  0.41674610  0.18860636  0.65665487  1
  S  S58  1  0.81772844  0.81770439  0.81772357  1
  S  S59  1  0.31772844  0.31772357  0.31770439  1
  S  S60  1  0.26542542  0.99779154  0.32373326  1
  S  S61  1  0.99781116  0.32371142  0.26543621  1
  S  S62  1  0.32374943  0.26543128  0.99778274  1
  S  S63  1  0.76542542  0.82373326  0.49779154  1
  S  S64  1  0.82374943  0.49778274  0.76543128  1
  S  S65  1  0.49781116  0.76543621  0.82371142  1
  O  O66  1  0.67638322  0.61017887  0.35133969  1
  O  O67  1  0.61019329  0.35133412  0.67637422  1
  O  O68  1  0.35134744  0.67637601  0.61017984  1
  O  O69  1  0.17638322  0.85133969  0.11017887  1
  O  O70  1  0.85134744  0.11017984  0.17637601  1
  O  O71  1  0.11019329  0.17637422  0.85133412  1
  O  O72  1  0.35000287  0.61760216  0.34090950  1
  O  O73  1  0.61761275  0.34091023  0.34998904  1
  O  O74  1  0.34091501  0.34998905  0.61760374  1
  O  O75  1  0.85000287  0.84090950  0.11760216  1
  O  O76  1  0.84091501  0.11760374  0.84998905  1
  O  O77  1  0.11761275  0.84998904  0.84091023  1
  O  O78  1  0.56974352  0.71798559  0.13912496  1
  O  O79  1  0.71796618  0.13914035  0.56974843  1
  O  O80  1  0.13913423  0.56972540  0.71799614  1
  O  O81  1  0.06974352  0.63912496  0.21798559  1
  O  O82  1  0.63913423  0.21799614  0.06972540  1
  O  O83  1  0.21796618  0.06974843  0.63914035  1
  O  O84  1  0.31936150  0.92838455  0.20989870  1
  O  O85  1  0.92841332  0.20987527  0.31936692  1
  O  O86  1  0.20989611  0.31935192  0.92840289  1
  O  O87  1  0.81936150  0.70989870  0.42838455  1
  O  O88  1  0.70989611  0.42840289  0.81935192  1
  O  O89  1  0.42841332  0.81936692  0.70987527  1
  O  O90  1  0.43596472  0.87846941  0.89818181  1
  O  O91  1  0.87846524  0.89820263  0.43594669  1
  O  O92  1  0.89821879  0.43593652  0.87846341  1
  O  O93  1  0.93596472  0.39818181  0.37846941  1
  O  O94  1  0.39821879  0.37846341  0.93593652  1
  O  O95  1  0.37846524  0.93594669  0.39820263  1
  O  O96  1  0.59068091  0.97320253  0.16092738  1
  O  O97  1  0.97320716  0.16093868  0.59068519  1
  O  O98  1  0.16095156  0.59067756  0.97320747  1
  O  O99  1  0.09068091  0.66092738  0.47320253  1
  O  O100  1  0.66095156  0.47320747  0.09067756  1
  O  O101  1  0.47320716  0.09068519  0.66093868  1
  O  O102  1  0.94486276  0.42384115  0.14644816  1
  O  O103  1  0.42386940  0.14643435  0.94484009  1
  O  O104  1  0.14641104  0.94488064  0.42385424  1
  O  O105  1  0.44486276  0.64644816  0.92384115  1
  O  O106  1  0.64641104  0.92385424  0.44488064  1
  O  O107  1  0.92386940  0.44484009  0.64643435  1
  O  O108  1  0.71208095  0.93031180  0.88147225  1
  O  O109  1  0.93034670  0.88145952  0.71208418  1
  O  O110  1  0.88148839  0.71206702  0.93033149  1
  O  O111  1  0.21208095  0.38147225  0.43031180  1
  O  O112  1  0.38148839  0.43033149  0.21206702  1
  O  O113  1  0.43034670  0.21208418  0.38145952  1
