# generated using pymatgen
data_KCoO2
_symmetry_space_group_name_H-M   'P 1'
_cell_length_a   5.59579979
_cell_length_b   5.59576438
_cell_length_c   5.59577940
_cell_angle_alpha   93.21065101
_cell_angle_beta   118.16414914
_cell_angle_gamma   118.16425003
_symmetry_Int_Tables_number   1
_chemical_formula_structural   KCoO2
_chemical_formula_sum   'K2 Co2 O4'
_cell_volume   127.12045885
_cell_formula_units_Z   2
loop_
 _symmetry_equiv_pos_site_id
 _symmetry_equiv_pos_as_xyz
  1  'x, y, z'
loop_
 _atom_site_type_symbol
 _atom_site_label
 _atom_site_symmetry_multiplicity
 _atom_site_fract_x
 _atom_site_fract_y
 _atom_site_fract_z
 _atom_site_occupancy
  K  K0  1  0.49999870  0.24999883  0.75000081  1
  K  K1  1  0.99999949  0.49999680  0.49999606  1
  Co  Co2  1  0.49999527  0.74999564  0.24999681  1
  Co  Co3  1  0.00000215  0.99999871  0.00000302  1
  O  O4  1  0.86476220  0.85118683  0.23913835  1
  O  O5  1  0.13524309  0.37438518  0.98642695  1
  O  O6  1  0.38794880  0.01357116  0.14881491  1
  O  O7  1  0.61205129  0.76086884  0.62562509  1
