# generated using pymatgen
data_Na3NpO6
_symmetry_space_group_name_H-M   'P 1'
_cell_length_a   10.86600447
_cell_length_b   11.73099294
_cell_length_c   5.99846997
_cell_angle_alpha   66.76513336
_cell_angle_beta   82.55728126
_cell_angle_gamma   30.46636406
_symmetry_Int_Tables_number   1
_chemical_formula_structural   Na3NpO6
_chemical_formula_sum   'Na6 Np2 O12'
_cell_volume   317.81241039
_cell_formula_units_Z   2
loop_
 _symmetry_equiv_pos_site_id
 _symmetry_equiv_pos_as_xyz
  1  'x, y, z'
loop_
 _atom_site_type_symbol
 _atom_site_label
 _atom_site_symmetry_multiplicity
 _atom_site_fract_x
 _atom_site_fract_y
 _atom_site_fract_z
 _atom_site_occupancy
  Na  Na0  1  0.58633234  0.91133527  0.90760030  1
  Na  Na1  1  0.34076839  0.65776732  0.66416674  1
  Na  Na2  1  0.83533006  0.48078396  0.63111340  1
  Na  Na3  1  0.04916091  0.63633919  0.47493417  1
  Na  Na4  1  0.61698885  0.19716879  0.41779186  1
  Na  Na5  1  0.77296304  0.40974810  0.20233986  1
  Np  Np6  1  0.26169242  0.23911061  0.23276385  1
  Np  Np7  1  0.01442085  0.98568768  0.98845663  1
  O  O8  1  0.47645189  0.91451466  0.56005366  1
  O  O9  1  0.04330651  0.56726093  0.90932997  1
  O  O10  1  0.68670923  0.20389487  0.77398295  1
  O  O11  1  0.33881312  0.77127696  0.20660027  1
  O  O12  1  0.19180456  0.20405517  0.00646734  1
  O  O13  1  0.59202631  0.01678253  0.19692091  1
  O  O14  1  0.23834609  0.65450131  0.06250652  1
  O  O15  1  0.05215723  0.05380602  0.65796315  1
  O  O16  1  0.92261228  0.46830625  0.26196623  1
  O  O17  1  0.34045213  0.26676362  0.46679657  1
  O  O18  1  0.98415960  0.90862746  0.32795694  1
  O  O19  1  0.78292720  0.32620627  0.90574169  1
