# generated using pymatgen
data_Ca2YCrO5
_symmetry_space_group_name_H-M   'P 1'
_cell_length_a   5.45927659
_cell_length_b   5.68351355
_cell_length_c   8.91849738
_cell_angle_alpha   108.58499506
_cell_angle_beta   107.89722330
_cell_angle_gamma   89.99753195
_symmetry_Int_Tables_number   1
_chemical_formula_structural   Ca2YCrO5
_chemical_formula_sum   'Ca4 Y2 Cr2 O10'
_cell_volume   248.12443369
_cell_formula_units_Z   2
loop_
 _symmetry_equiv_pos_site_id
 _symmetry_equiv_pos_as_xyz
  1  'x, y, z'
loop_
 _atom_site_type_symbol
 _atom_site_label
 _atom_site_symmetry_multiplicity
 _atom_site_fract_x
 _atom_site_fract_y
 _atom_site_fract_z
 _atom_site_occupancy
  Ca  Ca0  1  0.09725428  0.62356474  0.19452365  1
  Ca  Ca1  1  0.40570868  0.92835923  0.80426896  1
  Ca  Ca2  1  0.90578651  0.37536875  0.80424512  1
  Ca  Ca3  1  0.59698817  0.07049089  0.19450056  1
  Y  Y4  1  0.28984396  0.29452814  0.49963747  1
  Y  Y5  1  0.78980191  0.70465380  0.49961443  1
  Cr  Cr6  1  0.48339139  0.49965125  0.99940925  1
  Cr  Cr7  1  0.98329043  0.99933565  0.99940370  1
  O  O8  1  0.69665979  0.32910613  0.49944783  1
  O  O9  1  0.19662692  0.66986193  0.49944420  1
  O  O10  1  0.58801439  0.70264371  0.25283998  1
  O  O11  1  0.33172805  0.29596868  0.74589687  1
  O  O12  1  0.08844884  0.04977128  0.25282719  1
  O  O13  1  0.83170723  0.94941628  0.74587864  1
  O  O14  1  0.22081585  0.73795050  0.96223655  1
  O  O15  1  0.25211887  0.26644408  0.03651117  1
  O  O16  1  0.75226698  0.26957873  0.03667167  1
  O  O17  1  0.72074376  0.72375922  0.96231576  1
