# generated using pymatgen
data_Ba(H8O5)2
_symmetry_space_group_name_H-M   'P 1'
_cell_length_a   6.72126268
_cell_length_b   6.57358873
_cell_length_c   11.43343790
_cell_angle_alpha   90.51857340
_cell_angle_beta   90.96377947
_cell_angle_gamma   94.32669112
_symmetry_Int_Tables_number   1
_chemical_formula_structural   Ba(H8O5)2
_chemical_formula_sum   'Ba2 H32 O20'
_cell_volume   503.62358565
_cell_formula_units_Z   2
loop_
 _symmetry_equiv_pos_site_id
 _symmetry_equiv_pos_as_xyz
  1  'x, y, z'
loop_
 _atom_site_type_symbol
 _atom_site_label
 _atom_site_symmetry_multiplicity
 _atom_site_fract_x
 _atom_site_fract_y
 _atom_site_fract_z
 _atom_site_occupancy
  Ba  Ba0  1  0.98763867  0.99457955  0.49109398  1
  Ba  Ba1  1  0.01230875  0.00971773  0.99489874  1
  H  H2  1  0.61280796  0.55102240  0.56554778  1
  H  H3  1  0.36086697  0.58683981  0.04662895  1
  H  H4  1  0.22245394  0.39080068  0.36720353  1
  H  H5  1  0.05347963  0.32642112  0.26633880  1
  H  H6  1  0.91294257  0.56420112  0.34971676  1
  H  H7  1  0.68581591  0.60603256  0.37476514  1
  H  H8  1  0.54996011  0.26160448  0.38195825  1
  H  H9  1  0.59394757  0.09995795  0.47667115  1
  H  H10  1  0.40068136  0.94252807  0.34553433  1
  H  H11  1  0.35681321  0.70735886  0.37086950  1
  H  H12  1  0.74486081  0.43003900  0.90553813  1
  H  H13  1  0.92019730  0.41108887  0.99787392  1
  H  H14  1  0.19888486  0.75501678  0.76501574  1
  H  H15  1  0.06641218  0.60270328  0.85020419  1
  H  H16  1  0.34892865  0.10030000  0.80525243  1
  H  H17  1  0.37358946  0.32632659  0.86860660  1
  H  H18  1  0.63786649  0.90644617  0.76390544  1
  H  H19  1  0.59815798  0.71157933  0.85343603  1
  H  H20  1  0.80994813  0.68926151  0.70541385  1
  H  H21  1  0.93749333  0.52858760  0.63688026  1
  H  H22  1  0.16087752  0.29725402  0.71530693  1
  H  H23  1  0.24314484  0.40324738  0.60178798  1
  H  H24  1  0.44335428  0.96246141  0.62499872  1
  H  H25  1  0.35303408  0.74043703  0.59466809  1
  H  H26  1  0.64470630  0.20757267  0.64033272  1
  H  H27  1  0.22339259  0.74903656  0.19902646  1
  H  H28  1  0.08624097  0.56464362  0.13462014  1
  H  H29  1  0.82793381  0.36843776  0.16237709  1
  H  H30  1  0.74501276  0.79611481  0.21348788  1
  H  H31  1  0.63059733  0.72700898  0.09705952  1
  H  H32  1  0.43518425  0.25723909  0.08887750  1
  H  H33  1  0.49476892  0.03636873  0.12628096  1
  O  O34  1  0.47158739  0.50559944  0.41103971  1
  O  O35  1  0.51257522  0.49100380  0.90912791  1
  O  O36  1  0.46909466  0.51582701  0.54069302  1
  O  O37  1  0.48831430  0.51604445  0.03674303  1
  O  O38  1  0.08211930  0.33464201  0.35507794  1
  O  O39  1  0.81979551  0.67406528  0.34958610  1
  O  O40  1  0.59305329  0.11963327  0.38872378  1
  O  O41  1  0.28997147  0.83119699  0.34226104  1
  O  O42  1  0.89144182  0.40288735  0.91117359  1
  O  O43  1  0.14662415  0.73552235  0.84419663  1
  O  O44  1  0.27030049  0.20875210  0.83277719  1
  O  O45  1  0.69755801  0.82370434  0.82484101  1
  O  O46  1  0.83889547  0.63371833  0.62629779  1
  O  O47  1  0.11675761  0.34455954  0.63557164  1
  O  O48  1  0.30860605  0.86893844  0.62790492  1
  O  O49  1  0.64781208  0.06526183  0.61613456  1
  O  O50  1  0.17533228  0.69545425  0.12057240  1
  O  O51  1  0.96343778  0.34788401  0.13800314  1
  O  O52  1  0.70106922  0.84836563  0.13665103  1
  O  O53  1  0.38135340  0.11655106  0.10610907  1
