# generated using pymatgen
data_BaO2
_symmetry_space_group_name_H-M   'P 1'
_cell_length_a   7.88823756
_cell_length_b   7.89362167
_cell_length_c   8.08840746
_cell_angle_alpha   90.00000000
_cell_angle_beta   118.02573251
_cell_angle_gamma   90.00000000
_symmetry_Int_Tables_number   1
_chemical_formula_structural   BaO2
_chemical_formula_sum   'Ba8 O16'
_cell_volume   444.58056260
_cell_formula_units_Z   8
loop_
 _symmetry_equiv_pos_site_id
 _symmetry_equiv_pos_as_xyz
  1  'x, y, z'
loop_
 _atom_site_type_symbol
 _atom_site_label
 _atom_site_symmetry_multiplicity
 _atom_site_fract_x
 _atom_site_fract_y
 _atom_site_fract_z
 _atom_site_occupancy
  Ba  Ba0  1  0.82134285  0.14692310  0.31072893  1
  Ba  Ba1  1  0.32134285  0.35307690  0.81072893  1
  Ba  Ba2  1  0.17865715  0.85307690  0.68927107  1
  Ba  Ba3  1  0.67865715  0.64692310  0.18927107  1
  Ba  Ba4  1  0.27283399  0.01217462  0.23023006  1
  Ba  Ba5  1  0.77283399  0.48782538  0.73023006  1
  Ba  Ba6  1  0.72716601  0.98782538  0.76976994  1
  Ba  Ba7  1  0.22716601  0.51217462  0.26976994  1
  O  O8  1  0.63262430  0.89158160  0.40626353  1
  O  O9  1  0.13262430  0.60841840  0.90626353  1
  O  O10  1  0.36737570  0.10841840  0.59373647  1
  O  O11  1  0.86737570  0.39158160  0.09373647  1
  O  O12  1  0.03183523  0.81321108  0.31073875  1
  O  O13  1  0.53183523  0.68678892  0.81073875  1
  O  O14  1  0.96816477  0.18678892  0.68926125  1
  O  O15  1  0.46816477  0.31321108  0.18926125  1
  O  O16  1  0.89870840  0.89188271  0.12446252  1
  O  O17  1  0.39870840  0.60811729  0.62446252  1
  O  O18  1  0.10129160  0.10811729  0.87553748  1
  O  O19  1  0.60129160  0.39188271  0.37553748  1
  O  O20  1  0.29230546  0.72018657  0.04328388  1
  O  O21  1  0.79230546  0.77981343  0.54328388  1
  O  O22  1  0.70769454  0.27981343  0.95671612  1
  O  O23  1  0.20769454  0.22018657  0.45671612  1
