# generated using pymatgen
data_AcMg3
_symmetry_space_group_name_H-M   'P 1'
_cell_length_a   7.17460794
_cell_length_b   7.17460762
_cell_length_c   5.32932783
_cell_angle_alpha   90.00000000
_cell_angle_beta   90.00000000
_cell_angle_gamma   120.00000147
_symmetry_Int_Tables_number   1
_chemical_formula_structural   AcMg3
_chemical_formula_sum   'Ac2 Mg6'
_cell_volume   237.57426262
_cell_formula_units_Z   2
loop_
 _symmetry_equiv_pos_site_id
 _symmetry_equiv_pos_as_xyz
  1  'x, y, z'
loop_
 _atom_site_type_symbol
 _atom_site_label
 _atom_site_symmetry_multiplicity
 _atom_site_fract_x
 _atom_site_fract_y
 _atom_site_fract_z
 _atom_site_occupancy
  Ac  Ac0  1  0.66666800  0.33333300  0.24999900  1
  Ac  Ac1  1  0.33333400  0.66666700  0.74999900  1
  Mg  Mg2  1  0.15360539  0.30720978  0.24999900  1
  Mg  Mg3  1  0.15360439  0.84639561  0.24999900  1
  Mg  Mg4  1  0.69279122  0.84639561  0.24999900  1
  Mg  Mg5  1  0.30720878  0.15360439  0.74999900  1
  Mg  Mg6  1  0.84639461  0.15360439  0.74999900  1
  Mg  Mg7  1  0.84639461  0.69279022  0.74999900  1
