# generated using pymatgen
data_Eu3Mg
_symmetry_space_group_name_H-M   'P 1'
_cell_length_a   4.15861828
_cell_length_b   7.02090809
_cell_length_c   5.92230884
_cell_angle_alpha   65.05410990
_cell_angle_beta   90.00000000
_cell_angle_gamma   72.77291654
_symmetry_Int_Tables_number   1
_chemical_formula_structural   Eu3Mg
_chemical_formula_sum   'Eu3 Mg1'
_cell_volume   148.18408438
_cell_formula_units_Z   1
loop_
 _symmetry_equiv_pos_site_id
 _symmetry_equiv_pos_as_xyz
  1  'x, y, z'
loop_
 _atom_site_type_symbol
 _atom_site_label
 _atom_site_symmetry_multiplicity
 _atom_site_fract_x
 _atom_site_fract_y
 _atom_site_fract_z
 _atom_site_occupancy
  Eu  Eu0  1  0.47775724  0.04448652  0.40194162  1
  Eu  Eu1  1  0.25000000  0.50000000  0.66100249  1
  Eu  Eu2  1  0.02224276  0.95551448  0.94642814  1
  Mg  Mg3  1  0.74999800  0.50000000  0.15729276  1
