# generated using pymatgen
data_Zn(NiO2)2
_symmetry_space_group_name_H-M   'P 1'
_cell_length_a   2.90275729
_cell_length_b   4.99979845
_cell_length_c   9.50618067
_cell_angle_alpha   90.00000000
_cell_angle_beta   90.00000000
_cell_angle_gamma   106.87515892
_symmetry_Int_Tables_number   1
_chemical_formula_structural   Zn(NiO2)2
_chemical_formula_sum   'Zn2 Ni4 O8'
_cell_volume   132.02427196
_cell_formula_units_Z   2
loop_
 _symmetry_equiv_pos_site_id
 _symmetry_equiv_pos_as_xyz
  1  'x, y, z'
loop_
 _atom_site_type_symbol
 _atom_site_label
 _atom_site_symmetry_multiplicity
 _atom_site_fract_x
 _atom_site_fract_y
 _atom_site_fract_z
 _atom_site_occupancy
  Zn  Zn0  1  0.39135565  0.78271029  0.75000000  1
  Zn  Zn1  1  0.60864435  0.21728971  0.25000000  1
  Ni  Ni2  1  0.86701444  0.73402989  0.06889813  1
  Ni  Ni3  1  0.13298556  0.26597011  0.93110187  1
  Ni  Ni4  1  0.86701444  0.73402989  0.43110187  1
  Ni  Ni5  1  0.13298556  0.26597011  0.56889813  1
  O  O6  1  0.22653112  0.45306323  0.38709805  1
  O  O7  1  0.77346888  0.54693677  0.61290195  1
  O  O8  1  0.77346888  0.54693677  0.88709805  1
  O  O9  1  0.22653112  0.45306323  0.11290195  1
  O  O10  1  0.95904416  0.91808932  0.25000000  1
  O  O11  1  0.04095584  0.08191068  0.75000000  1
  O  O12  1  0.50000000  -0.00000000  -0.00000000  1
  O  O13  1  0.50000000  -0.00000000  0.50000000  1
