# generated using pymatgen
data_Mg(BiO2)2
_symmetry_space_group_name_H-M   'P 1'
_cell_length_a   6.74929905
_cell_length_b   6.74928020
_cell_length_c   6.98458001
_cell_angle_alpha   58.83986798
_cell_angle_beta   58.83998477
_cell_angle_gamma   59.39501214
_symmetry_Int_Tables_number   1
_chemical_formula_structural   Mg(BiO2)2
_chemical_formula_sum   'Mg2 Bi4 O8'
_cell_volume   219.96140386
_cell_formula_units_Z   2
loop_
 _symmetry_equiv_pos_site_id
 _symmetry_equiv_pos_as_xyz
  1  'x, y, z'
loop_
 _atom_site_type_symbol
 _atom_site_label
 _atom_site_symmetry_multiplicity
 _atom_site_fract_x
 _atom_site_fract_y
 _atom_site_fract_z
 _atom_site_occupancy
  Mg  Mg0  1  0.12500000  0.62500000  0.62500000  1
  Mg  Mg1  1  0.62500000  0.12500000  0.62500000  1
  Bi  Bi2  1  0.99711466  0.99711447  0.00288544  1
  Bi  Bi3  1  0.25288534  0.25288553  0.24711456  1
  Bi  Bi4  1  0.62500000  0.62500000  0.12500000  1
  Bi  Bi5  1  0.62500000  0.62500000  0.62500000  1
  O  O6  1  0.37564820  0.37564861  0.41454278  1
  O  O7  1  0.36317183  0.84628472  0.39527173  1
  O  O8  1  0.37564820  0.37564861  0.83416141  1
  O  O9  1  0.84628507  0.36317180  0.39527157  1
  O  O10  1  0.40371493  0.88682820  0.85472843  1
  O  O11  1  0.88682817  0.40371528  0.85472827  1
  O  O12  1  0.87435180  0.87435139  0.41583859  1
  O  O13  1  0.87435180  0.87435139  0.83545722  1
