# generated using pymatgen
data_MgSc3
_symmetry_space_group_name_H-M   'P 1'
_cell_length_a   3.27695673
_cell_length_b   6.18982700
_cell_length_c   5.59548104
_cell_angle_alpha   63.13006547
_cell_angle_beta   90.00498886
_cell_angle_gamma   74.65291174
_symmetry_Int_Tables_number   1
_chemical_formula_structural   MgSc3
_chemical_formula_sum   'Mg1 Sc3'
_cell_volume   96.68351870
_cell_formula_units_Z   1
loop_
 _symmetry_equiv_pos_site_id
 _symmetry_equiv_pos_as_xyz
  1  'x, y, z'
loop_
 _atom_site_type_symbol
 _atom_site_label
 _atom_site_symmetry_multiplicity
 _atom_site_fract_x
 _atom_site_fract_y
 _atom_site_fract_z
 _atom_site_occupancy
  Mg  Mg0  1  0.75001155  0.50000000  0.07864813  1
  Sc  Sc1  1  0.00191751  0.99608690  0.00087365  1
  Sc  Sc2  1  0.49800541  0.00391310  0.49696254  1
  Sc  Sc3  1  0.25006353  0.50000000  0.59018267  1
