# generated using pymatgen
data_Mg17Al11In
_symmetry_space_group_name_H-M   'P 1'
_cell_length_a   9.20219037
_cell_length_b   9.23046322
_cell_length_c   9.16088068
_cell_angle_alpha   109.54036340
_cell_angle_beta   109.41496893
_cell_angle_gamma   109.70233317
_symmetry_Int_Tables_number   1
_chemical_formula_structural   Mg17Al11In
_chemical_formula_sum   'Mg17 Al11 In1'
_cell_volume   597.19100422
_cell_formula_units_Z   1
loop_
 _symmetry_equiv_pos_site_id
 _symmetry_equiv_pos_as_xyz
  1  'x, y, z'
loop_
 _atom_site_type_symbol
 _atom_site_label
 _atom_site_symmetry_multiplicity
 _atom_site_fract_x
 _atom_site_fract_y
 _atom_site_fract_z
 _atom_site_occupancy
  Mg  Mg0  1  0.00177635  0.34230730  1.00000000  1
  Mg  Mg1  1  0.00242347  0.00378716  0.00000000  1
  Mg  Mg2  1  0.34148915  0.99721686  0.99999900  1
  Mg  Mg3  1  0.59565757  0.30752753  0.00000100  1
  Mg  Mg4  1  0.31590225  0.60108701  0.00000000  1
  Mg  Mg5  1  0.68380124  0.68512785  0.29198260  1
  Mg  Mg6  1  0.60407892  0.00013537  0.31632566  1
  Mg  Mg7  1  0.00340026  0.60021530  0.32026112  1
  Mg  Mg8  1  0.00223797  0.00546493  0.34878408  1
  Mg  Mg9  1  0.39652820  0.71319015  0.39691057  1
  Mg  Mg10  1  0.71363080  0.39721854  0.39860250  1
  Mg  Mg11  1  0.31502830  0.99861604  0.60139850  1
  Mg  Mg12  1  0.99961763  0.31627959  0.60309043  1
  Mg  Mg13  1  0.65345389  0.65667985  0.65121592  1
  Mg  Mg14  1  0.68313814  0.27995319  0.67973888  1
  Mg  Mg15  1  0.28775226  0.68380972  0.68367334  1
  Mg  Mg16  1  0.39181964  0.39314525  0.70801840  1
  Al  Al17  1  0.62620737  0.82300154  0.00000000  1
  Al  Al18  1  0.36707691  0.36665456  0.18158904  1
  Al  Al19  1  0.82096616  0.18767777  0.18654082  1
  Al  Al20  1  0.19421522  0.82326067  0.18791254  1
  Al  Al21  1  0.18207118  0.36684872  0.36511671  1
  Al  Al22  1  0.36628554  0.18238256  0.36574599  1
  Al  Al23  1  0.00053955  0.81663757  0.63425401  1
  Al  Al24  1  0.81695547  0.00173201  0.63488429  1
  Al  Al25  1  0.00630268  0.63534913  0.81208646  1
  Al  Al26  1  0.63442734  0.00113895  0.81346018  1
  Al  Al27  1  0.18548687  0.18506451  0.81840996  1
  In  In28  1  0.80772868  0.62849338  0.00000100  1
