# generated using pymatgen
data_Mg(AlH4)2
_symmetry_space_group_name_H-M   'P 1'
_cell_length_a   4.79623979
_cell_length_b   4.90747860
_cell_length_c   6.46489545
_cell_angle_alpha   94.77794018
_cell_angle_beta   98.92101978
_cell_angle_gamma   123.16872287
_symmetry_Int_Tables_number   1
_chemical_formula_structural   Mg(AlH4)2
_chemical_formula_sum   'Mg1 Al2 H8'
_cell_volume   123.20421291
_cell_formula_units_Z   1
loop_
 _symmetry_equiv_pos_site_id
 _symmetry_equiv_pos_as_xyz
  1  'x, y, z'
loop_
 _atom_site_type_symbol
 _atom_site_label
 _atom_site_symmetry_multiplicity
 _atom_site_fract_x
 _atom_site_fract_y
 _atom_site_fract_z
 _atom_site_occupancy
  Mg  Mg0  1  0.99263004  0.99320075  0.00459712  1
  Al  Al1  1  0.78681280  0.41781284  0.29600450  1
  Al  Al2  1  0.19861990  0.56774154  0.71280339  1
  H  H3  1  0.42091342  0.35833197  0.16400431  1
  H  H4  1  0.74786827  0.07936217  0.19192538  1
  H  H5  1  0.05775791  0.74608828  0.20720137  1
  H  H6  1  0.24591725  0.53437585  0.46971691  1
  H  H7  1  0.74165915  0.45368281  0.53962664  1
  H  H8  1  0.92662157  0.23725071  0.79983525  1
  H  H9  1  0.23788550  0.90598295  0.81798669  1
  H  H10  1  0.56331719  0.62617412  0.84629546  1
