# generated using pymatgen
data_Mg16Al12Pt
_symmetry_space_group_name_H-M   'P 1'
_cell_length_a   9.24002704
_cell_length_b   9.04272082
_cell_length_c   9.01593656
_cell_angle_alpha   109.11279442
_cell_angle_beta   110.20302745
_cell_angle_gamma   110.27093237
_symmetry_Int_Tables_number   1
_chemical_formula_structural   Mg16Al12Pt
_chemical_formula_sum   'Mg16 Al12 Pt1'
_cell_volume   571.30643983
_cell_formula_units_Z   1
loop_
 _symmetry_equiv_pos_site_id
 _symmetry_equiv_pos_as_xyz
  1  'x, y, z'
loop_
 _atom_site_type_symbol
 _atom_site_label
 _atom_site_symmetry_multiplicity
 _atom_site_fract_x
 _atom_site_fract_y
 _atom_site_fract_z
 _atom_site_occupancy
  Mg  Mg0  1  0.00499700  0.99830366  0.99977401  1
  Mg  Mg1  1  0.30554349  0.60285631  -0.00015693  1
  Mg  Mg2  1  0.98995372  0.34146655  0.00029013  1
  Mg  Mg3  1  0.38475266  0.05386219  -0.00006877  1
  Mg  Mg4  1  0.66598392  0.65119615  0.24897529  1
  Mg  Mg5  1  0.59207364  0.99505966  0.30606987  1
  Mg  Mg6  1  0.00108691  0.60154652  0.31854716  1
  Mg  Mg7  1  0.99640788  0.99277885  0.35068181  1
  Mg  Mg8  1  0.70248015  0.39257787  0.37991069  1
  Mg  Mg9  1  0.39681843  0.72015085  0.40371587  1
  Mg  Mg10  1  0.99374085  0.31548939  0.59606953  1
  Mg  Mg11  1  0.32268361  0.01222458  0.62015847  1
  Mg  Mg12  1  0.64681823  0.64213962  0.64972518  1
  Mg  Mg13  1  0.68205034  0.28227379  0.68146546  1
  Mg  Mg14  1  0.28583785  0.68935048  0.69414059  1
  Mg  Mg15  1  0.41612138  0.40167910  0.75107744  1
  Al  Al16  1  0.81626949  0.62516854  0.00001660  1
  Al  Al17  1  0.63699300  0.81030823  0.00099776  1
  Al  Al18  1  0.34843268  0.36860604  0.18364272  1
  Al  Al19  1  0.81584377  0.18330715  0.18561106  1
  Al  Al20  1  0.18470985  0.82326339  0.18616446  1
  Al  Al21  1  0.36473343  0.18588646  0.37061094  1
  Al  Al22  1  0.17987302  0.36586656  0.37804214  1
  Al  Al23  1  0.80162268  0.98753951  0.62211042  1
  Al  Al24  1  0.99328841  0.81515088  0.62898866  1
  Al  Al25  1  0.99800956  0.63798109  0.81360279  1
  Al  Al26  1  0.62998545  0.99817696  0.81405016  1
  Al  Al27  1  0.16451892  0.18474206  0.81568351  1
  Pt  Pt28  1  0.67837367  0.32105856  0.00010996  1
