# generated using pymatgen
data_Mg5Hg
_symmetry_space_group_name_H-M   'P 1'
_cell_length_a   3.26777936
_cell_length_b   6.03467704
_cell_length_c   7.32443274
_cell_angle_alpha   76.84876917
_cell_angle_beta   89.99999991
_cell_angle_gamma   105.70891516
_symmetry_Int_Tables_number   1
_chemical_formula_structural   Mg5Hg
_chemical_formula_sum   'Mg5 Hg1'
_cell_volume   135.10359716
_cell_formula_units_Z   1
loop_
 _symmetry_equiv_pos_site_id
 _symmetry_equiv_pos_as_xyz
  1  'x, y, z'
loop_
 _atom_site_type_symbol
 _atom_site_label
 _atom_site_symmetry_multiplicity
 _atom_site_fract_x
 _atom_site_fract_y
 _atom_site_fract_z
 _atom_site_occupancy
  Mg  Mg0  1  0.72094747  0.44189095  0.05413737  1
  Mg  Mg1  1  0.33320180  0.66640260  0.33074328  1
  Mg  Mg2  1  0.05046895  0.10093790  0.40027896  1
  Mg  Mg3  1  0.67341213  0.34682125  0.66620003  1
  Mg  Mg4  1  0.99791164  0.99582628  0.99326916  1
  Hg  Hg5  1  0.39072601  0.78145102  0.72203821  1
