# generated using pymatgen
data_SmGd3
_symmetry_space_group_name_H-M   'P 1'
_cell_length_a   6.24506172
_cell_length_b   6.24635501
_cell_length_c   6.24085114
_cell_angle_alpha   131.92625268
_cell_angle_beta   131.92379405
_cell_angle_gamma   70.38189917
_symmetry_Int_Tables_number   1
_chemical_formula_structural   SmGd3
_chemical_formula_sum   'Sm1 Gd3'
_cell_volume   132.04329840
_cell_formula_units_Z   1
loop_
 _symmetry_equiv_pos_site_id
 _symmetry_equiv_pos_as_xyz
  1  'x, y, z'
loop_
 _atom_site_type_symbol
 _atom_site_label
 _atom_site_symmetry_multiplicity
 _atom_site_fract_x
 _atom_site_fract_y
 _atom_site_fract_z
 _atom_site_occupancy
  Sm  Sm0  1  0.99999832  0.99999809  0.99999721  1
  Gd  Gd1  1  0.75001058  0.24998629  0.49999672  1
  Gd  Gd2  1  0.24998803  0.75001684  0.50000325  1
  Gd  Gd3  1  0.50000208  0.49999779  0.00000282  1
