# generated using pymatgen
data_PmPr
_symmetry_space_group_name_H-M   'P 1'
_cell_length_a   3.69724197
_cell_length_b   3.69721243
_cell_length_c   6.05174926
_cell_angle_alpha   89.92780532
_cell_angle_beta   90.07366444
_cell_angle_gamma   120.00761942
_symmetry_Int_Tables_number   1
_chemical_formula_structural   PmPr
_chemical_formula_sum   'Pm1 Pr1'
_cell_volume   71.63578395
_cell_formula_units_Z   1
loop_
 _symmetry_equiv_pos_site_id
 _symmetry_equiv_pos_as_xyz
  1  'x, y, z'
loop_
 _atom_site_type_symbol
 _atom_site_label
 _atom_site_symmetry_multiplicity
 _atom_site_fract_x
 _atom_site_fract_y
 _atom_site_fract_z
 _atom_site_occupancy
  Pm  Pm0  1  0.66675677  0.33327073  0.74948006  1
  Pr  Pr1  1  0.33324523  0.66672927  0.25052094  1
