# generated using pymatgen
data_MgNi3P3O13
_symmetry_space_group_name_H-M   'P 1'
_cell_length_a   6.21703835
_cell_length_b   7.45856409
_cell_length_c   10.20131062
_cell_angle_alpha   100.28182892
_cell_angle_beta   90.00000000
_cell_angle_gamma   90.00000000
_symmetry_Int_Tables_number   1
_chemical_formula_structural   MgNi3P3O13
_chemical_formula_sum   'Mg2 Ni6 P6 O26'
_cell_volume   465.44043335
_cell_formula_units_Z   2
loop_
 _symmetry_equiv_pos_site_id
 _symmetry_equiv_pos_as_xyz
  1  'x, y, z'
loop_
 _atom_site_type_symbol
 _atom_site_label
 _atom_site_symmetry_multiplicity
 _atom_site_fract_x
 _atom_site_fract_y
 _atom_site_fract_z
 _atom_site_occupancy
  Mg  Mg0  1  0.75000000  0.63579476  0.16989331  1
  Mg  Mg1  1  0.25000000  0.36420524  0.83010669  1
  Ni  Ni2  1  0.25000000  0.36027214  0.20074736  1
  Ni  Ni3  1  0.75000000  0.63972786  0.79925264  1
  Ni  Ni4  1  0.25000000  0.76255551  0.43559698  1
  Ni  Ni5  1  0.50000000  -0.00000000  -0.00000000  1
  Ni  Ni6  1  0.75000000  0.23744449  0.56440302  1
  Ni  Ni7  1  -0.00000000  -0.00000000  -0.00000000  1
  P  P8  1  0.25000000  0.20922398  0.48842826  1
  P  P9  1  0.75000000  0.79077602  0.51157174  1
  P  P10  1  0.25000000  0.73634681  0.76302847  1
  P  P11  1  0.75000000  0.26365319  0.23697153  1
  P  P12  1  0.75000000  0.31779764  0.88640567  1
  P  P13  1  0.25000000  0.68220236  0.11359433  1
  O  O14  1  0.75000000  0.37420627  0.74608103  1
  O  O15  1  0.56202082  0.75397484  0.40919073  1
  O  O16  1  0.25000000  0.79644890  0.62962166  1
  O  O17  1  0.53728385  0.21336750  0.89694035  1
  O  O18  1  0.75000000  0.64882655  0.60354908  1
  O  O19  1  0.75000000  0.87618137  0.90425084  1
  O  O20  1  0.25000000  0.35117345  0.39645092  1
  O  O21  1  0.03728385  0.78663250  0.10305965  1
  O  O22  1  0.25000000  0.01895185  0.40301176  1
  O  O23  1  0.75000000  0.98104815  0.59698824  1
  O  O24  1  0.06305465  0.60745628  0.78910979  1
  O  O25  1  0.25000000  0.12381863  0.09574916  1
  O  O26  1  0.56305465  0.39254372  0.21089021  1
  O  O27  1  0.75000000  0.50818134  0.97571861  1
  O  O28  1  0.75000000  0.20355110  0.37037834  1
  O  O29  1  0.46271615  0.78663250  0.10305965  1
  O  O30  1  0.93797918  0.75397484  0.40919073  1
  O  O31  1  0.43797918  0.24602516  0.59080927  1
  O  O32  1  0.43694535  0.60745628  0.78910979  1
  O  O33  1  0.25000000  0.62579373  0.25391897  1
  O  O34  1  0.75000000  0.08982015  0.12690759  1
  O  O35  1  0.25000000  0.91017985  0.87309241  1
  O  O36  1  0.93694535  0.39254372  0.21089021  1
  O  O37  1  0.96271615  0.21336750  0.89694035  1
  O  O38  1  0.06202082  0.24602516  0.59080927  1
  O  O39  1  0.25000000  0.49181866  0.02428139  1
