# generated using pymatgen
data_PrSm
_symmetry_space_group_name_H-M   'P 1'
_cell_length_a   3.68196170
_cell_length_b   3.68193806
_cell_length_c   6.05344021
_cell_angle_alpha   90.00361116
_cell_angle_beta   89.99636943
_cell_angle_gamma   119.98472052
_symmetry_Int_Tables_number   1
_chemical_formula_structural   PrSm
_chemical_formula_sum   'Pr1 Sm1'
_cell_volume   71.08131911
_cell_formula_units_Z   1
loop_
 _symmetry_equiv_pos_site_id
 _symmetry_equiv_pos_as_xyz
  1  'x, y, z'
loop_
 _atom_site_type_symbol
 _atom_site_label
 _atom_site_symmetry_multiplicity
 _atom_site_fract_x
 _atom_site_fract_y
 _atom_site_fract_z
 _atom_site_occupancy
  Pr  Pr0  1  0.66667901  0.33332230  0.74998862  1
  Sm  Sm1  1  0.33332099  0.66667670  0.25001238  1
