# generated using pymatgen
data_Ba3UFeS6
_symmetry_space_group_name_H-M   'P 1'
_cell_length_a   8.33579010
_cell_length_b   8.33579010
_cell_length_c   8.33578989
_cell_angle_alpha   94.10865154
_cell_angle_beta   94.10865154
_cell_angle_gamma   94.10865443
_symmetry_Int_Tables_number   1
_chemical_formula_structural   Ba3UFeS6
_chemical_formula_sum   'Ba6 U2 Fe2 S12'
_cell_volume   574.52356567
_cell_formula_units_Z   2
loop_
 _symmetry_equiv_pos_site_id
 _symmetry_equiv_pos_as_xyz
  1  'x, y, z'
loop_
 _atom_site_type_symbol
 _atom_site_label
 _atom_site_symmetry_multiplicity
 _atom_site_fract_x
 _atom_site_fract_y
 _atom_site_fract_z
 _atom_site_occupancy
  Ba  Ba0  1  0.13251764  0.36730204  0.75020988  1
  Ba  Ba1  1  0.36730204  0.75020988  0.13251764  1
  Ba  Ba2  1  0.75020988  0.13251764  0.36730204  1
  Ba  Ba3  1  0.63251764  0.25020988  0.86730204  1
  Ba  Ba4  1  0.25020988  0.86730204  0.63251764  1
  Ba  Ba5  1  0.86730204  0.63251764  0.25020988  1
  U  U6  1  0.25007209  0.25007209  0.25007209  1
  U  U7  1  0.75007209  0.75007209  0.75007209  1
  Fe  Fe8  1  0.50023196  0.50023196  0.50023196  1
  Fe  Fe9  1  0.00023196  0.00023196  0.00023196  1
  S  S10  1  0.41274981  0.20311852  0.53254632  1
  S  S11  1  0.20311852  0.53254632  0.41274981  1
  S  S12  1  0.53254632  0.41274981  0.20311852  1
  S  S13  1  0.91274981  0.03254632  0.70311852  1
  S  S14  1  0.03254632  0.70311852  0.91274981  1
  S  S15  1  0.70311852  0.91274981  0.03254632  1
  S  S16  1  0.58785885  0.79650141  0.46692548  1
  S  S17  1  0.79650141  0.46692548  0.58785885  1
  S  S18  1  0.46692548  0.58785885  0.79650141  1
  S  S19  1  0.08785885  0.96692548  0.29650141  1
  S  S20  1  0.96692548  0.29650141  0.08785885  1
  S  S21  1  0.29650141  0.08785885  0.96692548  1
