# generated using pymatgen
data_LiH2N
_symmetry_space_group_name_H-M   'P 1'
_cell_length_a   3.76045398
_cell_length_b   3.76045398
_cell_length_c   8.23894482
_cell_angle_alpha   90.00000000
_cell_angle_beta   90.00000000
_cell_angle_gamma   90.00000000
_symmetry_Int_Tables_number   1
_chemical_formula_structural   LiH2N
_chemical_formula_sum   'Li4 H8 N4'
_cell_volume   116.50703516
_cell_formula_units_Z   4
loop_
 _symmetry_equiv_pos_site_id
 _symmetry_equiv_pos_as_xyz
  1  'x, y, z'
loop_
 _atom_site_type_symbol
 _atom_site_label
 _atom_site_symmetry_multiplicity
 _atom_site_fract_x
 _atom_site_fract_y
 _atom_site_fract_z
 _atom_site_occupancy
  Li  Li0  1  0.75000000  0.25000000  0.00000000  1
  Li  Li1  1  0.75000000  0.25000000  0.50000000  1
  Li  Li2  1  0.25000000  0.75000000  -0.00000000  1
  Li  Li3  1  0.25000000  0.75000000  0.50000000  1
  H  H4  1  0.10285678  0.10285678  0.70749341  1
  H  H5  1  0.10285678  0.39714322  0.20749341  1
  H  H6  1  0.39714322  0.10285678  0.20749341  1
  H  H7  1  0.39714322  0.39714322  0.70749341  1
  H  H8  1  0.89714322  0.89714322  0.29250659  1
  H  H9  1  0.89714322  0.60285678  0.79250659  1
  H  H10  1  0.60285678  0.89714322  0.79250659  1
  H  H11  1  0.60285678  0.60285678  0.29250659  1
  N  N12  1  0.75000000  0.75000000  0.37549195  1
  N  N13  1  0.75000000  0.75000000  0.87549195  1
  N  N14  1  0.25000000  0.25000000  0.62450805  1
  N  N15  1  0.25000000  0.25000000  0.12450805  1
