# generated using pymatgen
data_LiCSN
_symmetry_space_group_name_H-M   'P 1'
_cell_length_a   3.85878252
_cell_length_b   5.34539618
_cell_length_c   12.34309127
_cell_angle_alpha   90.00000000
_cell_angle_beta   90.00000000
_cell_angle_gamma   90.00000000
_symmetry_Int_Tables_number   1
_chemical_formula_structural   LiCSN
_chemical_formula_sum   'Li4 C4 S4 N4'
_cell_volume   254.59750412
_cell_formula_units_Z   4
loop_
 _symmetry_equiv_pos_site_id
 _symmetry_equiv_pos_as_xyz
  1  'x, y, z'
loop_
 _atom_site_type_symbol
 _atom_site_label
 _atom_site_symmetry_multiplicity
 _atom_site_fract_x
 _atom_site_fract_y
 _atom_site_fract_z
 _atom_site_occupancy
  Li  Li0  1  0.25000000  0.43864090  0.90123430  1
  Li  Li1  1  0.25000000  0.06135910  0.40123430  1
  Li  Li2  1  0.75000000  0.56135910  0.09876570  1
  Li  Li3  1  0.75000000  0.93864090  0.59876570  1
  C  C4  1  0.25000000  0.38955744  0.60946820  1
  C  C5  1  0.25000000  0.11044256  0.10946820  1
  C  C6  1  0.75000000  0.61044256  0.39053180  1
  C  C7  1  0.75000000  0.88955744  0.89053180  1
  S  S8  1  0.25000000  0.63770997  0.68582682  1
  S  S9  1  0.25000000  0.86229003  0.18582682  1
  S  S10  1  0.75000000  0.36229003  0.31417318  1
  S  S11  1  0.75000000  0.13770997  0.81417318  1
  N  N12  1  0.25000000  0.20581487  0.55471476  1
  N  N13  1  0.25000000  0.29418513  0.05471476  1
  N  N14  1  0.75000000  0.79418513  0.44528524  1
  N  N15  1  0.75000000  0.70581487  0.94528524  1
