# generated using pymatgen
data_Cs2IrCl5O
_symmetry_space_group_name_H-M   'P 1'
_cell_length_a   7.19152951
_cell_length_b   8.72378799
_cell_length_c   9.66825652
_cell_angle_alpha   90.00000000
_cell_angle_beta   111.83373781
_cell_angle_gamma   90.00000000
_symmetry_Int_Tables_number   1
_chemical_formula_structural   Cs2IrCl5O
_chemical_formula_sum   'Cs4 Ir2 Cl10 O2'
_cell_volume   563.05062067
_cell_formula_units_Z   2
loop_
 _symmetry_equiv_pos_site_id
 _symmetry_equiv_pos_as_xyz
  1  'x, y, z'
loop_
 _atom_site_type_symbol
 _atom_site_label
 _atom_site_symmetry_multiplicity
 _atom_site_fract_x
 _atom_site_fract_y
 _atom_site_fract_z
 _atom_site_occupancy
  Cs  Cs0  1  0.52825106  0.75000000  0.05650312  1
  Cs  Cs1  1  0.47174894  0.25000000  0.94349688  1
  Cs  Cs2  1  0.24104342  0.75000000  0.48208784  1
  Cs  Cs3  1  0.75895658  0.25000000  0.51791216  1
  Ir  Ir4  1  0.89027767  0.75000000  0.78055635  1
  Ir  Ir5  1  0.10972233  0.25000000  0.21944365  1
  Cl  Cl6  1  0.75591716  0.75000000  0.51183331  1
  Cl  Cl7  1  0.24408284  0.25000000  0.48816669  1
  Cl  Cl8  1  0.11861020  0.94222099  0.77043625  1
  Cl  Cl9  1  0.34817395  0.05777901  0.22956375  1
  Cl  Cl10  1  0.11861020  0.55777901  0.77043625  1
  Cl  Cl11  1  0.34817395  0.44222099  0.22956375  1
  Cl  Cl12  1  0.88138980  0.05777901  0.22956375  1
  Cl  Cl13  1  0.65182605  0.94222099  0.77043625  1
  Cl  Cl14  1  0.88138980  0.44222099  0.22956375  1
  Cl  Cl15  1  0.65182605  0.55777901  0.77043625  1
  O  O16  1  0.99103654  0.75000000  0.98207208  1
  O  O17  1  0.00896346  0.25000000  0.01792792  1
