# generated using pymatgen
data_La2Ir7
_symmetry_space_group_name_H-M   'P 1'
_cell_length_a   5.42942547
_cell_length_b   5.42942547
_cell_length_c   13.54396923
_cell_angle_alpha   78.43748413
_cell_angle_beta   78.43748413
_cell_angle_gamma   60.00000496
_symmetry_Int_Tables_number   1
_chemical_formula_structural   La2Ir7
_chemical_formula_sum   'La4 Ir14'
_cell_volume   336.37938943
_cell_formula_units_Z   2
loop_
 _symmetry_equiv_pos_site_id
 _symmetry_equiv_pos_as_xyz
  1  'x, y, z'
loop_
 _atom_site_type_symbol
 _atom_site_label
 _atom_site_symmetry_multiplicity
 _atom_site_fract_x
 _atom_site_fract_y
 _atom_site_fract_z
 _atom_site_occupancy
  La  La0  1  0.05066721  0.05066721  0.84799838  1
  La  La1  1  0.94933279  0.94933279  0.15200162  1
  La  La2  1  0.14747814  0.14747814  0.55756559  1
  La  La3  1  0.85252186  0.85252186  0.44243441  1
  Ir  Ir4  1  0.50000000  0.50000000  0.50000000  1
  Ir  Ir5  1  0.27796150  0.27796150  0.16611549  1
  Ir  Ir6  1  0.72203850  0.72203850  0.83388451  1
  Ir  Ir7  1  0.38795384  0.38795384  0.83613847  1
  Ir  Ir8  1  0.61204616  0.61204616  0.16386153  1
  Ir  Ir9  1  0.50000000  0.50000000  0.00000000  1
  Ir  Ir10  1  0.50000000  -0.00000000  0.00000000  1
  Ir  Ir11  1  -0.00000000  0.50000000  0.00000000  1
  Ir  Ir12  1  0.11132785  0.60727422  0.67412371  1
  Ir  Ir13  1  0.60727422  0.60727422  0.67412371  1
  Ir  Ir14  1  0.60727422  0.11132785  0.67412371  1
  Ir  Ir15  1  0.88867215  0.39272578  0.32587629  1
  Ir  Ir16  1  0.39272578  0.39272578  0.32587629  1
  Ir  Ir17  1  0.39272578  0.88867215  0.32587629  1
