# generated using pymatgen
data_Ca(BiO2)4
_symmetry_space_group_name_H-M   'P 1'
_cell_length_a   3.42325516
_cell_length_b   8.80244134
_cell_length_c   7.93119851
_cell_angle_alpha   73.68788876
_cell_angle_beta   77.54178051
_cell_angle_gamma   78.78015389
_symmetry_Int_Tables_number   1
_chemical_formula_structural   Ca(BiO2)4
_chemical_formula_sum   'Ca1 Bi4 O8'
_cell_volume   221.66882763
_cell_formula_units_Z   1
loop_
 _symmetry_equiv_pos_site_id
 _symmetry_equiv_pos_as_xyz
  1  'x, y, z'
loop_
 _atom_site_type_symbol
 _atom_site_label
 _atom_site_symmetry_multiplicity
 _atom_site_fract_x
 _atom_site_fract_y
 _atom_site_fract_z
 _atom_site_occupancy
  Ca  Ca0  1  0.40501004  0.11902050  0.07102479  1
  Bi  Bi1  1  0.60904045  0.13665592  0.64547420  1
  Bi  Bi2  1  0.12924295  0.49630140  0.24537079  1
  Bi  Bi3  1  0.84362093  0.48804578  0.82463233  1
  Bi  Bi4  1  0.37095767  0.81689694  0.44134316  1
  O  O5  1  0.90713171  0.62505945  0.56087352  1
  O  O6  1  0.44064306  0.33961596  0.77924790  1
  O  O7  1  0.53737007  0.66777363  0.25759841  1
  O  O8  1  0.12457003  0.27580888  0.47511509  1
  O  O9  1  0.02784674  0.08531816  0.85930853  1
  O  O10  1  0.78092420  0.34560079  0.09296117  1
  O  O11  1  0.87850629  0.96435510  0.27857006  1
  O  O12  1  0.24261883  0.61565248  0.89912706  1
