# generated using pymatgen
data_Sm2Mn2Fe15
_symmetry_space_group_name_H-M   'P 1'
_cell_length_a   6.39122811
_cell_length_b   6.39122811
_cell_length_c   6.39122837
_cell_angle_alpha   82.96872044
_cell_angle_beta   82.96872044
_cell_angle_gamma   82.96872174
_symmetry_Int_Tables_number   1
_chemical_formula_structural   Sm2Mn2Fe15
_chemical_formula_sum   'Sm2 Mn2 Fe15'
_cell_volume   255.62171576
_cell_formula_units_Z   1
loop_
 _symmetry_equiv_pos_site_id
 _symmetry_equiv_pos_as_xyz
  1  'x, y, z'
loop_
 _atom_site_type_symbol
 _atom_site_label
 _atom_site_symmetry_multiplicity
 _atom_site_fract_x
 _atom_site_fract_y
 _atom_site_fract_z
 _atom_site_occupancy
  Sm  Sm0  1  0.65347052  0.65347052  0.65347052  1
  Sm  Sm1  1  0.34652948  0.34652948  0.34652948  1
  Mn  Mn2  1  0.90440707  0.90440707  0.90440707  1
  Mn  Mn3  1  0.09559293  0.09559293  0.09559293  1
  Fe  Fe4  1  0.00000000  0.00000000  0.50000000  1
  Fe  Fe5  1  0.00000000  0.50000000  0.00000000  1
  Fe  Fe6  1  0.50000000  0.00000000  0.00000000  1
  Fe  Fe7  1  0.28824314  0.71175686  0.00000000  1
  Fe  Fe8  1  0.71175686  0.00000000  0.28824314  1
  Fe  Fe9  1  -0.00000000  0.28824314  0.71175686  1
  Fe  Fe10  1  0.28824314  -0.00000000  0.71175686  1
  Fe  Fe11  1  0.00000000  0.71175686  0.28824314  1
  Fe  Fe12  1  0.71175686  0.28824314  0.00000000  1
  Fe  Fe13  1  0.33924638  0.33924638  0.84751126  1
  Fe  Fe14  1  0.33924638  0.84751126  0.33924638  1
  Fe  Fe15  1  0.84751126  0.33924638  0.33924638  1
  Fe  Fe16  1  0.66075362  0.66075362  0.15248874  1
  Fe  Fe17  1  0.66075362  0.15248874  0.66075362  1
  Fe  Fe18  1  0.15248874  0.66075362  0.66075362  1
