# generated using pymatgen
data_NaFePO4
_symmetry_space_group_name_H-M   'P 1'
_cell_length_a   5.18882695
_cell_length_b   6.34790303
_cell_length_c   10.33975332
_cell_angle_alpha   90.00000000
_cell_angle_beta   90.00000000
_cell_angle_gamma   90.00000000
_symmetry_Int_Tables_number   1
_chemical_formula_structural   NaFePO4
_chemical_formula_sum   'Na4 Fe4 P4 O16'
_cell_volume   340.57255590
_cell_formula_units_Z   4
loop_
 _symmetry_equiv_pos_site_id
 _symmetry_equiv_pos_as_xyz
  1  'x, y, z'
loop_
 _atom_site_type_symbol
 _atom_site_label
 _atom_site_symmetry_multiplicity
 _atom_site_fract_x
 _atom_site_fract_y
 _atom_site_fract_z
 _atom_site_occupancy
  Na  Na0  1  0.50000000  -0.00000000  0.50000000  1
  Na  Na1  1  0.00000000  0.50000000  0.00000000  1
  Na  Na2  1  0.50000000  0.50000000  0.50000000  1
  Na  Na3  1  0.00000000  0.00000000  0.00000000  1
  Fe  Fe4  1  0.48968810  0.75000000  0.16289663  1
  Fe  Fe5  1  0.01031190  0.75000000  0.66289663  1
  Fe  Fe6  1  0.51031190  0.25000000  0.83710337  1
  Fe  Fe7  1  0.98968810  0.25000000  0.33710337  1
  P  P8  1  0.98241194  0.75000000  0.31674328  1
  P  P9  1  0.51758806  0.75000000  0.81674328  1
  P  P10  1  0.01758806  0.25000000  0.68325672  1
  P  P11  1  0.48241194  0.25000000  0.18325672  1
  O  O12  1  0.87254840  0.94993572  0.38381954  1
  O  O13  1  0.62745160  0.55006428  0.88381954  1
  O  O14  1  0.12745160  0.44993572  0.61618046  1
  O  O15  1  0.37254840  0.05006428  0.11618046  1
  O  O16  1  0.12745160  0.05006428  0.61618046  1
  O  O17  1  0.37254840  0.44993572  0.11618046  1
  O  O18  1  0.87254840  0.55006428  0.38381954  1
  O  O19  1  0.62745160  0.94993572  0.88381954  1
  O  O20  1  0.89523541  0.75000000  0.17056317  1
  O  O21  1  0.60476459  0.75000000  0.67056317  1
  O  O22  1  0.10476459  0.25000000  0.82943683  1
  O  O23  1  0.39523541  0.25000000  0.32943683  1
  O  O24  1  0.28148528  0.75000000  0.33156411  1
  O  O25  1  0.21851472  0.75000000  0.83156411  1
  O  O26  1  0.71851472  0.25000000  0.66843589  1
  O  O27  1  0.78148528  0.25000000  0.16843589  1
