# generated using pymatgen
data_Tb8Rh5C12
_symmetry_space_group_name_H-M   'P 1'
_cell_length_a   3.58713973
_cell_length_b   7.45170483
_cell_length_c   14.11697026
_cell_angle_alpha   93.65584693
_cell_angle_beta   97.29919383
_cell_angle_gamma   90.00000000
_symmetry_Int_Tables_number   1
_chemical_formula_structural   Tb8Rh5C12
_chemical_formula_sum   'Tb8 Rh5 C12'
_cell_volume   373.51879977
_cell_formula_units_Z   1
loop_
 _symmetry_equiv_pos_site_id
 _symmetry_equiv_pos_as_xyz
  1  'x, y, z'
loop_
 _atom_site_type_symbol
 _atom_site_label
 _atom_site_symmetry_multiplicity
 _atom_site_fract_x
 _atom_site_fract_y
 _atom_site_fract_z
 _atom_site_occupancy
  Tb  Tb0  1  0.70612196  0.11639053  0.41224391  1
  Tb  Tb1  1  0.29387804  0.88360947  0.58775609  1
  Tb  Tb2  1  0.69933118  0.60930127  0.39866236  1
  Tb  Tb3  1  0.30066882  0.39069873  0.60133764  1
  Tb  Tb4  1  0.58812641  0.82824059  0.17625281  1
  Tb  Tb5  1  0.41187359  0.17175941  0.82374719  1
  Tb  Tb6  1  0.54693647  0.29666022  0.09387295  1
  Tb  Tb7  1  0.45306353  0.70333978  0.90612705  1
  Rh  Rh8  1  -0.00000000  -0.00000000  -0.00000000  1
  Rh  Rh9  1  0.89035175  0.50895771  0.78070350  1
  Rh  Rh10  1  0.10964825  0.49104229  0.21929650  1
  Rh  Rh11  1  0.88318803  0.87228665  0.76637607  1
  Rh  Rh12  1  0.11681197  0.12771335  0.23362393  1
  C  C13  1  0.97730431  0.24431884  0.95460861  1
  C  C14  1  0.02269569  0.75568116  0.04539139  1
  C  C15  1  0.95204190  0.38530033  0.90408380  1
  C  C16  1  0.04795810  0.61469967  0.09591620  1
  C  C17  1  0.83182635  0.65258920  0.66365270  1
  C  C18  1  0.16817365  0.34741080  0.33634730  1
  C  C19  1  0.78382228  0.63504903  0.56764456  1
  C  C20  1  0.21617772  0.36495097  0.43235544  1
  C  C21  1  0.84116508  0.12476173  0.68233015  1
  C  C22  1  0.15883492  0.87523827  0.31766985  1
  C  C23  1  0.79301417  0.13073026  0.58602834  1
  C  C24  1  0.20698583  0.86926974  0.41397166  1
