# generated using pymatgen
data_La3AlNiS7
_symmetry_space_group_name_H-M   'P 1'
_cell_length_a   5.89491146
_cell_length_b   10.26129756
_cell_length_c   10.26119140
_cell_angle_alpha   119.99826272
_cell_angle_beta   90.00000000
_cell_angle_gamma   90.00000000
_symmetry_Int_Tables_number   1
_chemical_formula_structural   La3AlNiS7
_chemical_formula_sum   'La6 Al2 Ni2 S14'
_cell_volume   537.54594592
_cell_formula_units_Z   2
loop_
 _symmetry_equiv_pos_site_id
 _symmetry_equiv_pos_as_xyz
  1  'x, y, z'
loop_
 _atom_site_type_symbol
 _atom_site_label
 _atom_site_symmetry_multiplicity
 _atom_site_fract_x
 _atom_site_fract_y
 _atom_site_fract_z
 _atom_site_occupancy
  La  La0  1  0.26127743  0.23914553  0.36827555  1
  La  La1  1  0.26129391  0.63172172  0.87083328  1
  La  La2  1  0.26127716  0.12913077  0.76087472  1
  La  La3  1  0.76127743  0.76085447  0.63172445  1
  La  La4  1  0.76129391  0.36827828  0.12916672  1
  La  La5  1  0.76127716  0.87086923  0.23912528  1
  Al  Al6  1  0.84342512  0.33334376  0.66666654  1
  Al  Al7  1  0.34342512  0.66665624  0.33333346  1
  Ni  Ni8  1  0.50053954  0.99998742  0.99999400  1
  Ni  Ni9  1  0.00053954  0.00001258  0.00000600  1
  S  S10  1  0.75118747  0.14370351  0.22036191  1
  S  S11  1  0.75119412  0.77966372  0.92333957  1
  S  S12  1  0.75118489  0.07663525  0.85635767  1
  S  S13  1  0.25118747  0.85629649  0.77963809  1
  S  S14  1  0.25119412  0.22033628  0.07666043  1
  S  S15  1  0.25118489  0.92336475  0.14364233  1
  S  S16  1  0.98972916  0.10305297  0.51405318  1
  S  S17  1  0.98967076  0.48596258  0.58898296  1
  S  S18  1  0.98967828  0.41101138  0.89696955  1
  S  S19  1  0.48972916  0.89694703  0.48594682  1
  S  S20  1  0.48967076  0.51403742  0.41101704  1
  S  S21  1  0.48967828  0.58898862  0.10303045  1
  S  S22  1  0.46754215  0.33336221  0.66668173  1
  S  S23  1  0.96754215  0.66663779  0.33331827  1
