# generated using pymatgen
data_TbPO4
_symmetry_space_group_name_H-M   'P 1'
_cell_length_a   6.33737627
_cell_length_b   6.68005443
_cell_length_c   6.85090390
_cell_angle_alpha   90.00000000
_cell_angle_beta   90.00000000
_cell_angle_gamma   104.08117183
_symmetry_Int_Tables_number   1
_chemical_formula_structural   TbPO4
_chemical_formula_sum   'Tb4 P4 O16'
_cell_volume   281.31158741
_cell_formula_units_Z   4
loop_
 _symmetry_equiv_pos_site_id
 _symmetry_equiv_pos_as_xyz
  1  'x, y, z'
loop_
 _atom_site_type_symbol
 _atom_site_label
 _atom_site_symmetry_multiplicity
 _atom_site_fract_x
 _atom_site_fract_y
 _atom_site_fract_z
 _atom_site_occupancy
  Tb  Tb0  1  0.40495162  0.21626085  0.65320011  1
  Tb  Tb1  1  0.90495162  0.71626085  0.84679989  1
  Tb  Tb2  1  0.59504838  0.78373915  0.34679989  1
  Tb  Tb3  1  0.09504838  0.28373915  0.15320011  1
  P  P4  1  0.88701320  0.19783805  0.66128141  1
  P  P5  1  0.38701320  0.69783805  0.83871859  1
  P  P6  1  0.11298680  0.80216195  0.33871859  1
  P  P7  1  0.61298680  0.30216195  0.16128141  1
  O  O8  1  0.06542134  0.24854944  0.50131198  1
  O  O9  1  0.56542134  0.74854944  0.99868802  1
  O  O10  1  0.93457866  0.75145056  0.49868802  1
  O  O11  1  0.43457866  0.25145056  0.00131198  1
  O  O12  1  0.99786059  0.11568493  0.83727747  1
  O  O13  1  0.49786059  0.61568493  0.66272253  1
  O  O14  1  0.00213941  0.88431507  0.16272253  1
  O  O15  1  0.50213941  0.38431507  0.33727747  1
  O  O16  1  0.68367915  0.02774772  0.60147393  1
  O  O17  1  0.18367915  0.52774772  0.89852607  1
  O  O18  1  0.31632085  0.97225228  0.39852607  1
  O  O19  1  0.81632085  0.47225228  0.10147393  1
  O  O20  1  0.78594568  0.37975829  0.71025364  1
  O  O21  1  0.28594568  0.87975829  0.78974636  1
  O  O22  1  0.21405432  0.62024171  0.28974636  1
  O  O23  1  0.71405432  0.12024171  0.21025364  1
