# generated using pymatgen
data_Dy3ReO7
_symmetry_space_group_name_H-M   'P 1'
_cell_length_a   6.44905653
_cell_length_b   6.44905653
_cell_length_c   7.45736908
_cell_angle_alpha   90.00000000
_cell_angle_beta   90.00000000
_cell_angle_gamma   109.40468887
_symmetry_Int_Tables_number   1
_chemical_formula_structural   Dy3ReO7
_chemical_formula_sum   'Dy6 Re2 O14'
_cell_volume   292.53626556
_cell_formula_units_Z   2
loop_
 _symmetry_equiv_pos_site_id
 _symmetry_equiv_pos_as_xyz
  1  'x, y, z'
loop_
 _atom_site_type_symbol
 _atom_site_label
 _atom_site_symmetry_multiplicity
 _atom_site_fract_x
 _atom_site_fract_y
 _atom_site_fract_z
 _atom_site_occupancy
  Dy  Dy0  1  0.51917470  0.51917470  0.25000000  1
  Dy  Dy1  1  0.48082530  0.48082530  0.75000000  1
  Dy  Dy2  1  0.99960390  0.46552694  0.49965892  1
  Dy  Dy3  1  0.53447306  0.00039610  0.50034108  1
  Dy  Dy4  1  0.00039610  0.53447306  -0.00034108  1
  Dy  Dy5  1  0.46552694  0.99960390  0.00034108  1
  Re  Re6  1  0.00158828  0.00158828  0.25000000  1
  Re  Re7  1  0.99841172  0.99841172  0.75000000  1
  O  O8  1  0.06450834  0.31680152  0.21972859  1
  O  O9  1  0.68319848  0.93549166  0.78027141  1
  O  O10  1  0.93549166  0.68319848  0.71972859  1
  O  O11  1  0.31680152  0.06450834  0.28027141  1
  O  O12  1  0.67656203  0.92069612  0.22132834  1
  O  O13  1  0.07930388  0.32343797  0.77867166  1
  O  O14  1  0.32343797  0.07930388  0.72132834  1
  O  O15  1  0.92069612  0.67656203  0.27867166  1
  O  O16  1  0.36986646  0.63013354  0.50000000  1
  O  O17  1  0.63013354  0.36986646  -0.00000000  1
  O  O18  1  0.36404673  0.63595327  -0.00000000  1
  O  O19  1  0.63595327  0.36404673  0.50000000  1
  O  O20  1  0.92920005  0.07079995  0.50000000  1
  O  O21  1  0.07079995  0.92920005  -0.00000000  1
