# generated using pymatgen
data_HoWBrO4
_symmetry_space_group_name_H-M   'P 1'
_cell_length_a   6.98698846
_cell_length_b   7.29923149
_cell_length_c   11.01997415
_cell_angle_alpha   103.81966463
_cell_angle_beta   108.00225887
_cell_angle_gamma   94.28854101
_symmetry_Int_Tables_number   1
_chemical_formula_structural   HoWBrO4
_chemical_formula_sum   'Ho4 W4 Br4 O16'
_cell_volume   512.26505749
_cell_formula_units_Z   4
loop_
 _symmetry_equiv_pos_site_id
 _symmetry_equiv_pos_as_xyz
  1  'x, y, z'
loop_
 _atom_site_type_symbol
 _atom_site_label
 _atom_site_symmetry_multiplicity
 _atom_site_fract_x
 _atom_site_fract_y
 _atom_site_fract_z
 _atom_site_occupancy
  Ho  Ho0  1  0.65823398  0.11211464  0.73085135  1
  Ho  Ho1  1  0.34176602  0.88788536  0.26914865  1
  Ho  Ho2  1  0.38108620  0.65959319  0.76745340  1
  Ho  Ho3  1  0.61891380  0.34040681  0.23254660  1
  W  W4  1  0.72913663  0.81416946  0.13284406  1
  W  W5  1  0.27086337  0.18583054  0.86715594  1
  W  W6  1  0.76915703  0.59007110  0.62625873  1
  W  W7  1  0.23084297  0.40992890  0.37374127  1
  Br  Br8  1  0.26335105  0.00359297  0.51941691  1
  Br  Br9  1  0.73664895  0.99640703  0.48058309  1
  Br  Br10  1  0.19123020  0.71963193  0.98181221  1
  Br  Br11  1  0.80876980  0.28036807  0.01818779  1
  O  O12  1  0.65767036  0.72951304  0.95544993  1
  O  O13  1  0.34232964  0.27048696  0.04455007  1
  O  O14  1  0.00266668  0.87740072  0.20530893  1
  O  O15  1  0.99733332  0.12259928  0.79469107  1
  O  O16  1  0.63615106  0.63648797  0.20082046  1
  O  O17  1  0.36384894  0.36351203  0.79917954  1
  O  O18  1  0.40077507  0.98438253  0.81661596  1
  O  O19  1  0.59922493  0.01561747  0.18338404  1
  O  O20  1  0.03982704  0.65347879  0.66935557  1
  O  O21  1  0.96017296  0.34652121  0.33064443  1
  O  O22  1  0.72397061  0.40301641  0.70014178  1
  O  O23  1  0.27602939  0.59698359  0.29985822  1
  O  O24  1  0.66426216  0.50221310  0.44625070  1
  O  O25  1  0.33573784  0.49778690  0.55374930  1
  O  O26  1  0.65497645  0.78974883  0.70349083  1
  O  O27  1  0.34502355  0.21025117  0.29650917  1
