# generated using pymatgen
data_Sr2ZnS3
_symmetry_space_group_name_H-M   'P 1'
_cell_length_a   4.09636598
_cell_length_b   8.53238545
_cell_length_c   16.52202683
_cell_angle_alpha   90.00000000
_cell_angle_beta   90.00000000
_cell_angle_gamma   90.00000000
_symmetry_Int_Tables_number   1
_chemical_formula_structural   Sr2ZnS3
_chemical_formula_sum   'Sr8 Zn4 S12'
_cell_volume   577.47413929
_cell_formula_units_Z   4
loop_
 _symmetry_equiv_pos_site_id
 _symmetry_equiv_pos_as_xyz
  1  'x, y, z'
loop_
 _atom_site_type_symbol
 _atom_site_label
 _atom_site_symmetry_multiplicity
 _atom_site_fract_x
 _atom_site_fract_y
 _atom_site_fract_z
 _atom_site_occupancy
  Sr  Sr0  1  0.24975424  0.25923991  0.95813711  1
  Sr  Sr1  1  0.74975424  0.74076009  0.04186289  1
  Sr  Sr2  1  0.74975424  0.24076009  0.45813711  1
  Sr  Sr3  1  0.24975424  0.75923991  0.54186289  1
  Sr  Sr4  1  0.74963288  0.08021967  0.71511800  1
  Sr  Sr5  1  0.24963288  0.91978033  0.28488200  1
  Sr  Sr6  1  0.24963288  0.41978033  0.21511800  1
  Sr  Sr7  1  0.74963288  0.58021967  0.78488200  1
  Zn  Zn8  1  0.25069446  0.37304296  0.63336857  1
  Zn  Zn9  1  0.75069446  0.62695704  0.36663143  1
  Zn  Zn10  1  0.75069446  0.12695704  0.13336857  1
  Zn  Zn11  1  0.25069446  0.87304296  0.86663143  1
  S  S12  1  0.25049671  0.31881573  0.77356481  1
  S  S13  1  0.75049671  0.68118427  0.22643519  1
  S  S14  1  0.75049671  0.18118427  0.27356481  1
  S  S15  1  0.25049671  0.81881573  0.72643519  1
  S  S16  1  0.75052446  0.00878205  0.90124332  1
  S  S17  1  0.25052446  0.99121795  0.09875668  1
  S  S18  1  0.25052446  0.49121795  0.40124332  1
  S  S19  1  0.75052446  0.50878205  0.59875668  1
  S  S20  1  0.24859726  0.12607157  0.57185364  1
  S  S21  1  0.74859726  0.87392843  0.42814636  1
  S  S22  1  0.74859726  0.37392843  0.07185364  1
  S  S23  1  0.24859726  0.62607157  0.92814636  1
