# generated using pymatgen
data_Sr2GaSb2O7
_symmetry_space_group_name_H-M   'P 1'
_cell_length_a   5.85734825
_cell_length_b   6.04555875
_cell_length_c   11.53926117
_cell_angle_alpha   105.60933677
_cell_angle_beta   104.64421266
_cell_angle_gamma   89.99067577
_symmetry_Int_Tables_number   1
_chemical_formula_structural   Sr2GaSb2O7
_chemical_formula_sum   'Sr4 Ga2 Sb4 O14'
_cell_volume   379.75012569
_cell_formula_units_Z   2
loop_
 _symmetry_equiv_pos_site_id
 _symmetry_equiv_pos_as_xyz
  1  'x, y, z'
loop_
 _atom_site_type_symbol
 _atom_site_label
 _atom_site_symmetry_multiplicity
 _atom_site_fract_x
 _atom_site_fract_y
 _atom_site_fract_z
 _atom_site_occupancy
  Sr  Sr0  1  0.14945237  0.17653008  0.30193105  1
  Sr  Sr1  1  0.84740368  0.82420070  0.69856930  1
  Sr  Sr2  1  0.64734992  0.62546829  0.30193110  1
  Sr  Sr3  1  0.34592094  0.37445032  0.69864509  1
  Ga  Ga4  1  0.20997376  0.83718121  0.49946021  1
  Ga  Ga5  1  0.71045674  0.16317800  0.50065586  1
  Sb  Sb6  1  0.42750753  0.93391268  0.85467780  1
  Sb  Sb7  1  0.07438181  0.57328080  0.14495286  1
  Sb  Sb8  1  0.92861453  0.42721664  0.85573618  1
  Sb  Sb9  1  0.57451698  0.06624440  0.14600863  1
  O  O10  1  0.83258652  0.33882252  0.15705887  1
  O  O11  1  0.89005596  0.90131146  0.50003872  1
  O  O12  1  0.32200942  0.32768440  0.15499193  1
  O  O13  1  0.84407582  0.38391472  0.64997055  1
  O  O14  1  0.66667846  0.16733378  0.81415961  1
  O  O15  1  0.15324719  0.16556078  0.81558529  1
  O  O16  1  0.39006763  0.09888152  0.50000579  1
  O  O17  1  0.16580397  0.67195784  0.84500789  1
  O  O18  1  0.67456157  0.66191817  0.84331300  1
  O  O19  1  0.34023577  0.76935195  0.65056563  1
  O  O20  1  0.19711537  0.61580916  0.35066340  1
  O  O21  1  0.69153933  0.23181683  0.35004986  1
  O  O22  1  0.85480794  0.83332332  0.18780640  1
  O  O23  1  0.33933680  0.83511543  0.18502096  1
