# generated using pymatgen
data_NpPH3CO5
_symmetry_space_group_name_H-M   'P 1'
_cell_length_a   6.70161165
_cell_length_b   6.72391107
_cell_length_c   7.13615045
_cell_angle_alpha   90.44201786
_cell_angle_beta   98.79725776
_cell_angle_gamma   96.16540560
_symmetry_Int_Tables_number   1
_chemical_formula_structural   NpPH3CO5
_chemical_formula_sum   'Np2 P2 H6 C2 O10'
_cell_volume   315.84599661
_cell_formula_units_Z   2
loop_
 _symmetry_equiv_pos_site_id
 _symmetry_equiv_pos_as_xyz
  1  'x, y, z'
loop_
 _atom_site_type_symbol
 _atom_site_label
 _atom_site_symmetry_multiplicity
 _atom_site_fract_x
 _atom_site_fract_y
 _atom_site_fract_z
 _atom_site_occupancy
  Np  Np0  1  0.98089378  0.14596511  0.24834894  1
  Np  Np1  1  0.01910622  0.85403489  0.75165106  1
  P  P2  1  0.08526509  0.69235179  0.25892931  1
  P  P3  1  0.91473491  0.30764821  0.74107069  1
  H  H4  1  0.43465756  0.82864577  0.30112368  1
  H  H5  1  0.56534244  0.17135423  0.69887632  1
  H  H6  1  0.39735667  0.59670326  0.42205430  1
  H  H7  1  0.60264333  0.40329674  0.57794570  1
  H  H8  1  0.39166124  0.59306971  0.17212259  1
  H  H9  1  0.60833876  0.40693029  0.82787741  1
  C  C10  1  0.35342629  0.67725852  0.29176237  1
  C  C11  1  0.64657371  0.32274148  0.70823763  1
  O  O12  1  0.25103531  0.19309821  0.29068679  1
  O  O13  1  0.74896469  0.80690179  0.70931321  1
  O  O14  1  0.71174740  0.09329166  0.20688782  1
  O  O15  1  0.28825260  0.90670834  0.79311218  1
  O  O16  1  0.02238025  0.81973946  0.08211219  1
  O  O17  1  0.97761975  0.18026054  0.91788781  1
  O  O18  1  0.97160809  0.17932506  0.57786572  1
  O  O19  1  0.02839191  0.82067494  0.42213428  1
  O  O20  1  0.96668529  0.48321980  0.24359780  1
  O  O21  1  0.03331471  0.51678020  0.75640220  1
