# generated using pymatgen
data_TlAgTeO3
_symmetry_space_group_name_H-M   'P 1'
_cell_length_a   5.27446772
_cell_length_b   9.87870851
_cell_length_c   9.87870851
_cell_angle_alpha   69.85449758
_cell_angle_beta   74.51647078
_cell_angle_gamma   74.51647078
_symmetry_Int_Tables_number   1
_chemical_formula_structural   TlAgTeO3
_chemical_formula_sum   'Tl4 Ag4 Te4 O12'
_cell_volume   456.90422627
_cell_formula_units_Z   4
loop_
 _symmetry_equiv_pos_site_id
 _symmetry_equiv_pos_as_xyz
  1  'x, y, z'
loop_
 _atom_site_type_symbol
 _atom_site_label
 _atom_site_symmetry_multiplicity
 _atom_site_fract_x
 _atom_site_fract_y
 _atom_site_fract_z
 _atom_site_occupancy
  Tl  Tl0  1  0.41609499  0.47029535  0.71793170  1
  Tl  Tl1  1  0.60432204  0.52970465  0.28206830  1
  Tl  Tl2  1  0.10432204  0.28206830  0.52970465  1
  Tl  Tl3  1  0.91609499  0.71793170  0.47029535  1
  Ag  Ag4  1  0.75229065  0.62819552  0.86152986  1
  Ag  Ag5  1  0.24201603  0.37180448  0.13847014  1
  Ag  Ag6  1  0.74201603  0.13847014  0.37180448  1
  Ag  Ag7  1  0.25229065  0.86152986  0.62819552  1
  Te  Te8  1  0.87472392  0.24137708  0.97204484  1
  Te  Te9  1  0.08814584  0.75862292  0.02795516  1
  Te  Te10  1  0.58814584  0.02795516  0.75862292  1
  Te  Te11  1  0.37472392  0.97204484  0.24137708  1
  O  O12  1  0.79624705  0.33925850  0.11779028  1
  O  O13  1  0.25329584  0.66074150  0.88220972  1
  O  O14  1  0.75329584  0.88220972  0.66074150  1
  O  O15  1  0.29624705  0.11779028  0.33925850  1
  O  O16  1  0.93689381  0.40590531  0.80321513  1
  O  O17  1  0.14601425  0.59409469  0.19678487  1
  O  O18  1  0.64601425  0.19678487  0.59409469  1
  O  O19  1  0.43689381  0.80321513  0.40590531  1
  O  O20  1  0.51513786  0.24431154  0.96456831  1
  O  O21  1  0.72401772  0.75568846  0.03543169  1
  O  O22  1  0.22401772  0.03543169  0.75568846  1
  O  O23  1  0.01513786  0.96456831  0.24431154  1
