# generated using pymatgen
data_Nb9Ni4Ge
_symmetry_space_group_name_H-M   'P 1'
_cell_length_a   5.08009619
_cell_length_b   9.69214389
_cell_length_c   9.69214389
_cell_angle_alpha   86.06169955
_cell_angle_beta   74.80690464
_cell_angle_gamma   74.80690464
_symmetry_Int_Tables_number   1
_chemical_formula_structural   Nb9Ni4Ge
_chemical_formula_sum   'Nb18 Ni8 Ge2'
_cell_volume   444.43632410
_cell_formula_units_Z   2
loop_
 _symmetry_equiv_pos_site_id
 _symmetry_equiv_pos_as_xyz
  1  'x, y, z'
loop_
 _atom_site_type_symbol
 _atom_site_label
 _atom_site_symmetry_multiplicity
 _atom_site_fract_x
 _atom_site_fract_y
 _atom_site_fract_z
 _atom_site_occupancy
  Nb  Nb0  1  0.75000000  0.50000000  0.50000000  1
  Nb  Nb1  1  0.25000000  0.50000000  0.50000000  1
  Nb  Nb2  1  0.79343732  0.77554329  0.63758207  1
  Nb  Nb3  1  0.20656268  0.22445671  0.36241793  1
  Nb  Nb4  1  0.70656268  0.36241793  0.22445671  1
  Nb  Nb5  1  0.29343732  0.63758207  0.77554329  1
  Nb  Nb6  1  0.56898061  0.63758207  0.22445671  1
  Nb  Nb7  1  0.43101939  0.36241793  0.77554329  1
  Nb  Nb8  1  0.06898061  0.22445671  0.63758207  1
  Nb  Nb9  1  0.93101939  0.77554329  0.36241793  1
  Nb  Nb10  1  0.58512466  0.07960598  0.75014470  1
  Nb  Nb11  1  0.41487534  0.92039402  0.24985530  1
  Nb  Nb12  1  0.91487534  0.24985530  0.92039402  1
  Nb  Nb13  1  0.08512466  0.75014470  0.07960598  1
  Nb  Nb14  1  0.66473064  0.75014470  0.92039402  1
  Nb  Nb15  1  0.33526936  0.24985530  0.07960598  1
  Nb  Nb16  1  0.16473064  0.92039402  0.75014470  1
  Nb  Nb17  1  0.83526936  0.07960598  0.24985530  1
  Ni  Ni18  1  0.50000000  0.00000000  0.50000000  1
  Ni  Ni19  1  -0.00000000  0.00000000  0.50000000  1
  Ni  Ni20  1  0.50000000  0.50000000  -0.00000000  1
  Ni  Ni21  1  -0.00000000  0.50000000  -0.00000000  1
  Ni  Ni22  1  0.13122890  0.50000000  0.23754220  1
  Ni  Ni23  1  0.86877110  0.50000000  0.76245780  1
  Ni  Ni24  1  0.36877110  0.76245780  0.50000000  1
  Ni  Ni25  1  0.63122890  0.23754220  0.50000000  1
  Ge  Ge26  1  0.25000000  0.00000000  -0.00000000  1
  Ge  Ge27  1  0.75000000  0.00000000  -0.00000000  1
