# generated using pymatgen
data_Tl3S2O9
_symmetry_space_group_name_H-M   'P 1'
_cell_length_a   7.63167136
_cell_length_b   7.17206701
_cell_length_c   9.74580238
_cell_angle_alpha   102.66589796
_cell_angle_beta   104.58403946
_cell_angle_gamma   112.31902810
_symmetry_Int_Tables_number   1
_chemical_formula_structural   Tl3S2O9
_chemical_formula_sum   'Tl6 S4 O18'
_cell_volume   447.05713808
_cell_formula_units_Z   2
loop_
 _symmetry_equiv_pos_site_id
 _symmetry_equiv_pos_as_xyz
  1  'x, y, z'
loop_
 _atom_site_type_symbol
 _atom_site_label
 _atom_site_symmetry_multiplicity
 _atom_site_fract_x
 _atom_site_fract_y
 _atom_site_fract_z
 _atom_site_occupancy
  Tl  Tl0  1  0.35755839  0.09577195  0.24507954  1
  Tl  Tl1  1  0.61247884  0.85069240  0.75492046  1
  Tl  Tl2  1  0.80095957  0.52705860  0.08338149  1
  Tl  Tl3  1  0.21757808  0.44367710  0.91661851  1
  Tl  Tl4  1  0.98787108  0.48850937  0.49804405  1
  Tl  Tl5  1  0.98982703  0.99046532  0.50195595  1
  S  S6  1  0.55957741  0.30387208  0.65064528  1
  S  S7  1  0.40893213  0.65322680  0.34935472  1
  S  S8  1  0.16581756  0.90718635  0.85316444  1
  S  S9  1  0.81265312  0.05402191  0.14683556  1
  O  O10  1  0.68096036  0.22338561  0.74546280  1
  O  O11  1  0.43549756  0.47792281  0.25453720  1
  O  O12  1  0.23233208  0.78654390  0.74584942  1
  O  O13  1  0.98648267  0.04069449  0.25415058  1
  O  O14  1  0.34558976  0.11226668  0.95936932  1
  O  O15  1  0.88622044  0.15289736  0.04063068  1
  O  O16  1  0.35877222  0.11936249  0.54390346  1
  O  O17  1  0.31486876  0.57545903  0.45609654  1
  O  O18  1  0.66754381  0.41097345  0.56172273  1
  O  O19  1  0.60582108  0.84925072  0.43827727  1
  O  O20  1  0.07325481  0.77430222  0.93602091  1
  O  O21  1  0.63723390  0.83828132  0.06397909  1
  O  O22  1  0.53089706  0.46388904  0.75968145  1
  O  O23  1  0.27121561  0.70420759  0.24031855  1
  O  O24  1  0.00892940  0.95410928  0.75676823  1
  O  O25  1  0.75216116  0.19734105  0.24323177  1
  O  O26  1  0.92676760  0.68220007  0.38776906  1
  O  O27  1  0.03899854  0.29443100  0.61223094  1
