# generated using pymatgen
data_YB3(H6N)4
_symmetry_space_group_name_H-M   'P 1'
_cell_length_a   7.98471004
_cell_length_b   12.98633900
_cell_length_c   12.65475847
_cell_angle_alpha   90.00000000
_cell_angle_beta   90.00000000
_cell_angle_gamma   90.00000000
_symmetry_Int_Tables_number   1
_chemical_formula_structural   YB3(H6N)4
_chemical_formula_sum   'Y4 B12 H96 N16'
_cell_volume   1312.19913115
_cell_formula_units_Z   4
loop_
 _symmetry_equiv_pos_site_id
 _symmetry_equiv_pos_as_xyz
  1  'x, y, z'
loop_
 _atom_site_type_symbol
 _atom_site_label
 _atom_site_symmetry_multiplicity
 _atom_site_fract_x
 _atom_site_fract_y
 _atom_site_fract_z
 _atom_site_occupancy
  Y  Y0  1  0.05653952  0.70564838  0.37425118  1
  Y  Y1  1  0.94346048  0.20564838  0.62574882  1
  Y  Y2  1  0.55653952  0.20564838  0.12574882  1
  Y  Y3  1  0.44346048  0.70564838  0.87425118  1
  B  B4  1  0.84031933  0.55159594  0.37489813  1
  B  B5  1  0.15968067  0.05159594  0.62510187  1
  B  B6  1  0.34031933  0.05159594  0.12510187  1
  B  B7  1  0.65968067  0.55159594  0.87489813  1
  B  B8  1  0.35577649  0.65096208  0.38696256  1
  B  B9  1  0.64422351  0.15096208  0.61303744  1
  B  B10  1  0.85577649  0.15096208  0.11303744  1
  B  B11  1  0.14422351  0.65096208  0.88696256  1
  B  B12  1  0.28939273  0.36936672  0.43629908  1
  B  B13  1  0.71060727  0.86936672  0.56370092  1
  B  B14  1  0.78939273  0.86936672  0.06370092  1
  B  B15  1  0.21060727  0.36936672  0.93629908  1
  H  H16  1  0.73126599  0.41209559  0.20532298  1
  H  H17  1  0.26873401  0.91209559  0.79467702  1
  H  H18  1  0.23126599  0.91209559  0.29467702  1
  H  H19  1  0.76873401  0.41209559  0.70532298  1
  H  H20  1  0.65499768  0.44456322  0.08933324  1
  H  H21  1  0.34500232  0.94456322  0.91066676  1
  H  H22  1  0.15499768  0.94456322  0.41066676  1
  H  H23  1  0.84500232  0.44456322  0.58933324  1
  H  H24  1  0.82027008  0.37195112  0.09604706  1
  H  H25  1  0.17972992  0.87195112  0.90395294  1
  H  H26  1  0.32027008  0.87195112  0.40395294  1
  H  H27  1  0.67972992  0.37195112  0.59604706  1
  H  H28  1  0.95396795  0.09809127  0.42297242  1
  H  H29  1  0.04603205  0.59809127  0.57702758  1
  H  H30  1  0.45396795  0.59809127  0.07702758  1
  H  H31  1  0.54603205  0.09809127  0.92297242  1
  H  H32  1  0.08359150  0.19817270  0.41212168  1
  H  H33  1  0.91640850  0.69817270  0.58787832  1
  H  H34  1  0.58359150  0.69817270  0.08787832  1
  H  H35  1  0.41640850  0.19817270  0.91212168  1
  H  H36  1  0.88697825  0.20800524  0.37420194  1
  H  H37  1  0.11302175  0.70800524  0.62579806  1
  H  H38  1  0.38697825  0.70800524  0.12579806  1
  H  H39  1  0.61302175  0.20800524  0.87420194  1
  H  H40  1  0.62938544  0.11359041  0.34573817  1
  H  H41  1  0.37061456  0.61359041  0.65426183  1
  H  H42  1  0.12938544  0.61359041  0.15426183  1
  H  H43  1  0.87061456  0.11359041  0.84573817  1
  H  H44  1  0.43057462  0.13614211  0.33347152  1
  H  H45  1  0.56942538  0.63614211  0.66652848  1
  H  H46  1  0.93057462  0.63614211  0.16652848  1
  H  H47  1  0.06942538  0.13614211  0.83347152  1
  H  H48  1  0.55078237  0.22706725  0.37707274  1
  H  H49  1  0.44921763  0.72706725  0.62292726  1
  H  H50  1  0.05078237  0.72706725  0.12292726  1
  H  H51  1  0.94921763  0.22706725  0.87707274  1
  H  H52  1  0.26506676  0.27238206  0.72505124  1
  H  H53  1  0.73493324  0.77238206  0.27494876  1
  H  H54  1  0.76506676  0.77238206  0.77494876  1
  H  H55  1  0.23493324  0.27238206  0.22505124  1
  H  H56  1  0.16170399  0.37815261  0.71720910  1
  H  H57  1  0.83829601  0.87815261  0.28279090  1
  H  H58  1  0.66170399  0.87815261  0.78279090  1
  H  H59  1  0.33829601  0.37815261  0.21720910  1
  H  H60  1  0.24998616  0.33156116  0.60862621  1
  H  H61  1  0.75001384  0.83156116  0.39137379  1
  H  H62  1  0.74998616  0.83156116  0.89137379  1
  H  H63  1  0.25001384  0.33156116  0.10862621  1
  H  H64  1  0.76595294  0.47063124  0.38517682  1
  H  H65  1  0.23404706  0.97063124  0.61482318  1
  H  H66  1  0.26595294  0.97063124  0.11482318  1
  H  H67  1  0.73404706  0.47063124  0.88517682  1
  H  H68  1  0.79870021  0.59607388  0.29353234  1
  H  H69  1  0.20129979  0.09607388  0.70646766  1
  H  H70  1  0.29870021  0.09607388  0.20646766  1
  H  H71  1  0.70129979  0.59607388  0.79353234  1
  H  H72  1  0.99315954  0.53375386  0.37332976  1
  H  H73  1  0.00684046  0.03375386  0.62667024  1
  H  H74  1  0.49315954  0.03375386  0.12667024  1
  H  H75  1  0.50684046  0.53375386  0.87332976  1
  H  H76  1  0.80806063  0.61106223  0.44832617  1
  H  H77  1  0.19193937  0.11106223  0.55167383  1
  H  H78  1  0.30806063  0.11106223  0.05167383  1
  H  H79  1  0.69193937  0.61106223  0.94832617  1
  H  H80  1  0.25609722  0.57967439  0.40119473  1
  H  H81  1  0.74390278  0.07967439  0.59880527  1
  H  H82  1  0.75609722  0.07967439  0.09880527  1
  H  H83  1  0.24390278  0.57967439  0.90119473  1
  H  H84  1  0.31868562  0.69192654  0.30075378  1
  H  H85  1  0.68131438  0.19192654  0.69924622  1
  H  H86  1  0.81868562  0.19192654  0.19924622  1
  H  H87  1  0.18131438  0.69192654  0.80075378  1
  H  H88  1  0.49843895  0.62211146  0.38866990  1
  H  H89  1  0.50156105  0.12211146  0.61133010  1
  H  H90  1  0.99843895  0.12211146  0.11133010  1
  H  H91  1  0.00156105  0.62211146  0.88866990  1
  H  H92  1  0.32485449  0.71720387  0.45454412  1
  H  H93  1  0.67514551  0.21720387  0.54545588  1
  H  H94  1  0.82485449  0.21720387  0.04545588  1
  H  H95  1  0.17514551  0.71720387  0.95454412  1
  H  H96  1  0.26791474  0.27491602  0.42701163  1
  H  H97  1  0.73208526  0.77491602  0.57298837  1
  H  H98  1  0.76791474  0.77491602  0.07298837  1
  H  H99  1  0.23208526  0.27491602  0.92701163  1
  H  H100  1  0.43145445  0.38479855  0.47167222  1
  H  H101  1  0.56854555  0.88479855  0.52832778  1
  H  H102  1  0.93145445  0.88479855  0.02832778  1
  H  H103  1  0.06854555  0.38479855  0.97167222  1
  H  H104  1  0.18206467  0.40589247  0.49567449  1
  H  H105  1  0.81793533  0.90589247  0.50432551  1
  H  H106  1  0.68206467  0.90589247  0.00432551  1
  H  H107  1  0.31793533  0.40589247  0.99567449  1
  H  H108  1  0.27135503  0.41316252  0.35177931  1
  H  H109  1  0.72864497  0.91316252  0.64822069  1
  H  H110  1  0.77135503  0.91316252  0.14822069  1
  H  H111  1  0.22864497  0.41316252  0.85177931  1
  N  N112  1  0.70604389  0.38444053  0.13071675  1
  N  N113  1  0.29395611  0.88444053  0.86928325  1
  N  N114  1  0.20604389  0.88444053  0.36928325  1
  N  N115  1  0.79395611  0.38444053  0.63071675  1
  N  N116  1  0.96295393  0.17638819  0.43063168  1
  N  N117  1  0.03704607  0.67638819  0.56936832  1
  N  N118  1  0.46295393  0.67638819  0.06936832  1
  N  N119  1  0.53704607  0.17638819  0.93063168  1
  N  N120  1  0.54606239  0.16866550  0.32221288  1
  N  N121  1  0.45393761  0.66866550  0.67778712  1
  N  N122  1  0.04606239  0.66866550  0.17778712  1
  N  N123  1  0.95393761  0.16866550  0.82221288  1
  N  N124  1  0.18516865  0.31153088  0.67631012  1
  N  N125  1  0.81483135  0.81153088  0.32368988  1
  N  N126  1  0.68516865  0.81153088  0.82368988  1
  N  N127  1  0.31483135  0.31153088  0.17631012  1
