# generated using pymatgen
data_MgCr2O4
_symmetry_space_group_name_H-M   'P 1'
_cell_length_a   2.93722897
_cell_length_b   8.94315708
_cell_length_c   10.52144762
_cell_angle_alpha   90.00000000
_cell_angle_beta   90.00000000
_cell_angle_gamma   90.00000000
_symmetry_Int_Tables_number   1
_chemical_formula_structural   MgCr2O4
_chemical_formula_sum   'Mg4 Cr8 O16'
_cell_volume   276.37843884
_cell_formula_units_Z   4
loop_
 _symmetry_equiv_pos_site_id
 _symmetry_equiv_pos_as_xyz
  1  'x, y, z'
loop_
 _atom_site_type_symbol
 _atom_site_label
 _atom_site_symmetry_multiplicity
 _atom_site_fract_x
 _atom_site_fract_y
 _atom_site_fract_z
 _atom_site_occupancy
  Mg  Mg0  1  0.74999900  0.23788648  0.34443000  1
  Mg  Mg1  1  0.25000000  0.76211452  0.65557000  1
  Mg  Mg2  1  0.74999900  0.73788648  0.15557000  1
  Mg  Mg3  1  0.25000000  0.26211452  0.84443000  1
  Cr  Cr4  1  0.25000000  0.41313196  0.10120840  1
  Cr  Cr5  1  0.74999900  0.08686804  0.60120840  1
  Cr  Cr6  1  0.25000000  0.91313296  0.39879160  1
  Cr  Cr7  1  0.74999900  0.58686804  0.89879160  1
  Cr  Cr8  1  0.74999900  0.55908533  0.38270248  1
  Cr  Cr9  1  0.25000000  0.44091467  0.61729752  1
  Cr  Cr10  1  0.74999900  0.05908433  0.11729652  1
  Cr  Cr11  1  0.25000000  0.94091467  0.88270248  1
  O  O12  1  0.25000000  0.90946359  0.07496701  1
  O  O13  1  0.74999900  0.09053541  0.92503299  1
  O  O14  1  0.25000000  0.40946359  0.42503299  1
  O  O15  1  0.74999900  0.59053641  0.57496701  1
  O  O16  1  0.25000000  0.02906189  0.71289307  1
  O  O17  1  0.74999900  0.97093711  0.28710693  1
  O  O18  1  0.25000000  0.52906289  0.78710693  1
  O  O19  1  0.74999900  0.47093711  0.21289307  1
  O  O20  1  0.25000000  0.62462547  0.03277431  1
  O  O21  1  0.74999900  0.37537553  0.96722569  1
  O  O22  1  0.25000000  0.12462447  0.46722569  1
  O  O23  1  0.74999900  0.87537453  0.53277431  1
  O  O24  1  0.74999900  0.79607374  0.82118201  1
  O  O25  1  0.25000000  0.20392626  0.17881799  1
  O  O26  1  0.25000000  0.70392626  0.32118201  1
  O  O27  1  0.74999900  0.29607274  0.67881799  1
