# generated using pymatgen
data_V3Fe3C
_symmetry_space_group_name_H-M   'P 1'
_cell_length_a   7.58019130
_cell_length_b   7.58019130
_cell_length_c   7.58019130
_cell_angle_alpha   60.00000000
_cell_angle_beta   60.00000000
_cell_angle_gamma   60.00000000
_symmetry_Int_Tables_number   1
_chemical_formula_structural   V3Fe3C
_chemical_formula_sum   'V12 Fe12 C4'
_cell_volume   307.98211700
_cell_formula_units_Z   4
loop_
 _symmetry_equiv_pos_site_id
 _symmetry_equiv_pos_as_xyz
  1  'x, y, z'
loop_
 _atom_site_type_symbol
 _atom_site_label
 _atom_site_symmetry_multiplicity
 _atom_site_fract_x
 _atom_site_fract_y
 _atom_site_fract_z
 _atom_site_occupancy
  V  V0  1  0.43083570  0.81916430  0.81916430  1
  V  V1  1  0.81916430  0.43083570  0.43083570  1
  V  V2  1  0.81916430  0.43083570  0.81916430  1
  V  V3  1  0.43083570  0.81916430  0.43083570  1
  V  V4  1  0.81916430  0.81916430  0.43083570  1
  V  V5  1  0.43083570  0.43083570  0.81916430  1
  V  V6  1  0.56916430  0.18083570  0.18083570  1
  V  V7  1  0.18083570  0.56916430  0.56916430  1
  V  V8  1  0.18083570  0.56916430  0.18083570  1
  V  V9  1  0.56916430  0.18083570  0.56916430  1
  V  V10  1  0.18083570  0.18083570  0.56916430  1
  V  V11  1  0.56916430  0.56916430  0.18083570  1
  Fe  Fe12  1  -0.00000000  0.00000000  0.50000000  1
  Fe  Fe13  1  -0.00000000  0.50000000  -0.00000000  1
  Fe  Fe14  1  0.50000000  0.00000000  -0.00000000  1
  Fe  Fe15  1  -0.00000000  0.00000000  -0.00000000  1
  Fe  Fe16  1  0.20482431  0.20482431  0.88552707  1
  Fe  Fe17  1  0.20482431  0.88552707  0.20482431  1
  Fe  Fe18  1  0.88552707  0.20482431  0.20482431  1
  Fe  Fe19  1  0.20482431  0.20482431  0.20482431  1
  Fe  Fe20  1  0.79517569  0.79517569  0.11447293  1
  Fe  Fe21  1  0.79517569  0.11447293  0.79517569  1
  Fe  Fe22  1  0.11447293  0.79517569  0.79517569  1
  Fe  Fe23  1  0.79517569  0.79517569  0.79517569  1
  C  C24  1  0.50000000  0.50000000  -0.00000000  1
  C  C25  1  0.50000000  0.00000000  0.50000000  1
  C  C26  1  -0.00000000  0.50000000  0.50000000  1
  C  C27  1  0.50000000  0.50000000  0.50000000  1
