# generated using pymatgen
data_NaB7H14C2(NO7)2
_symmetry_space_group_name_H-M   'P 1'
_cell_length_a   7.58123137
_cell_length_b   8.49150539
_cell_length_c   11.64229666
_cell_angle_alpha   96.69631944
_cell_angle_beta   94.56175053
_cell_angle_gamma   102.91245765
_symmetry_Int_Tables_number   1
_chemical_formula_structural   NaB7H14C2(NO7)2
_chemical_formula_sum   'Na2 B14 H28 C4 N4 O28'
_cell_volume   721.22026168
_cell_formula_units_Z   2
loop_
 _symmetry_equiv_pos_site_id
 _symmetry_equiv_pos_as_xyz
  1  'x, y, z'
loop_
 _atom_site_type_symbol
 _atom_site_label
 _atom_site_symmetry_multiplicity
 _atom_site_fract_x
 _atom_site_fract_y
 _atom_site_fract_z
 _atom_site_occupancy
  Na  Na0  1  0.61649753  0.80399800  0.00563357  1
  Na  Na1  1  0.38350247  0.19600200  0.99436643  1
  B  B2  1  0.29358721  0.87174837  0.82027321  1
  B  B3  1  0.70641279  0.12825163  0.17972679  1
  B  B4  1  0.21632120  0.64167520  0.93898294  1
  B  B5  1  0.78367880  0.35832480  0.06101706  1
  B  B6  1  0.98570770  0.79120989  0.89113536  1
  B  B7  1  0.01429230  0.20879011  0.10886464  1
  B  B8  1  0.34634252  0.86748286  0.60847899  1
  B  B9  1  0.65365748  0.13251714  0.39152101  1
  B  B10  1  0.55247732  0.08395962  0.75651777  1
  B  B11  1  0.44752268  0.91604038  0.24348223  1
  B  B12  1  0.88696767  0.20857240  0.77686966  1
  B  B13  1  0.11303233  0.79142760  0.22313034  1
  B  B14  1  0.68142504  0.38257103  0.74998814  1
  B  B15  1  0.31857496  0.61742897  0.25001186  1
  H  H16  1  0.15403539  0.44557145  0.01249366  1
  H  H17  1  0.84596461  0.55442855  0.98750634  1
  H  H18  1  0.37283124  0.86972099  0.44395080  1
  H  H19  1  0.62716876  0.13027901  0.55604920  1
  H  H20  1  0.08127618  0.08595164  0.80552809  1
  H  H21  1  0.91872382  0.91404836  0.19447191  1
  H  H22  1  0.71845743  0.63710174  0.80201157  1
  H  H23  1  0.28154257  0.36289826  0.19798843  1
  H  H24  1  0.98654732  0.81531324  0.64061963  1
  H  H25  1  0.01345268  0.18468676  0.35938037  1
  H  H26  1  0.81067769  0.90449281  0.66316326  1
  H  H27  1  0.18932231  0.09550719  0.33683674  1
  H  H28  1  0.78369887  0.70548050  0.66445726  1
  H  H29  1  0.21630113  0.29451950  0.33554274  1
  H  H30  1  0.79864576  0.62539437  0.26945128  1
  H  H31  1  0.20135424  0.37460563  0.73054872  1
  H  H32  1  0.76270394  0.42861408  0.29950801  1
  H  H33  1  0.23729606  0.57138592  0.70049199  1
  H  H34  1  0.59652738  0.52739629  0.30888850  1
  H  H35  1  0.40347262  0.47260371  0.69111150  1
  H  H36  1  0.63766631  0.76236643  0.48345508  1
  H  H37  1  0.36233369  0.23763357  0.51654492  1
  H  H38  1  0.85442258  0.86134045  0.44908196  1
  H  H39  1  0.14557742  0.13865955  0.55091804  1
  H  H40  1  0.96646809  0.61052348  0.44971427  1
  H  H41  1  0.03353191  0.38947652  0.55028573  1
  H  H42  1  0.76147982  0.50560057  0.49942732  1
  H  H43  1  0.23852018  0.49439943  0.50057268  1
  C  C44  1  0.78311159  0.76396425  0.49430828  1
  C  C45  1  0.21688841  0.23603575  0.50569172  1
  C  C46  1  0.81887156  0.60004861  0.44692641  1
  C  C47  1  0.18112844  0.39995139  0.55307359  1
  N  N48  1  0.84643812  0.80163329  0.62168277  1
  N  N49  1  0.15356188  0.19836671  0.37831723  1
  N  N50  1  0.73939620  0.54343606  0.32383976  1
  N  N51  1  0.26060380  0.45656394  0.67616024  1
  O  O52  1  0.33855965  0.73870100  0.88149312  1
  O  O53  1  0.66144035  0.26129900  0.11850688  1
  O  O54  1  0.04588738  0.67275821  0.95104381  1
  O  O55  1  0.95411262  0.32724179  0.04895619  1
  O  O56  1  0.12116406  0.91221862  0.85697018  1
  O  O57  1  0.87883594  0.08778138  0.14302982  1
  O  O58  1  0.26218242  0.51178263  0.98275510  1
  O  O59  1  0.73781758  0.48821737  0.01724490  1
  O  O60  1  0.80672565  0.77350823  0.86739252  1
  O  O61  1  0.19327435  0.22649177  0.13260748  1
  O  O62  1  0.24428732  0.80041452  0.69142192  1
  O  O63  1  0.75571268  0.19958548  0.30857808  1
  O  O64  1  0.49421695  0.99562209  0.63544005  1
  O  O65  1  0.50578305  0.00437791  0.36455995  1
  O  O66  1  0.44129104  0.01274504  0.84052145  1
  O  O67  1  0.55870896  0.98725496  0.15947855  1
  O  O68  1  0.29387805  0.80124331  0.49312117  1
  O  O69  1  0.70612195  0.19875669  0.50687883  1
  O  O70  1  0.74745353  0.07760430  0.77831038  1
  O  O71  1  0.25254647  0.92239570  0.22168962  1
  O  O72  1  0.86093579  0.36282465  0.76231922  1
  O  O73  1  0.13906421  0.63717535  0.23768078  1
  O  O74  1  0.53755988  0.25486622  0.75295355  1
  O  O75  1  0.46244012  0.74513378  0.24704645  1
  O  O76  1  0.06561675  0.19248190  0.78217684  1
  O  O77  1  0.93438325  0.80751810  0.21782316  1
  O  O78  1  0.64834848  0.53225602  0.73186122  1
  O  O79  1  0.35165152  0.46774398  0.26813878  1
