# generated using pymatgen
data_Ti6Ga16Co7
_symmetry_space_group_name_H-M   'P 1'
_cell_length_a   8.35454266
_cell_length_b   8.35454266
_cell_length_c   8.35454266
_cell_angle_alpha   60.00000000
_cell_angle_beta   60.00000000
_cell_angle_gamma   60.00000000
_symmetry_Int_Tables_number   1
_chemical_formula_structural   Ti6Ga16Co7
_chemical_formula_sum   'Ti6 Ga16 Co7'
_cell_volume   412.33770117
_cell_formula_units_Z   1
loop_
 _symmetry_equiv_pos_site_id
 _symmetry_equiv_pos_as_xyz
  1  'x, y, z'
loop_
 _atom_site_type_symbol
 _atom_site_label
 _atom_site_symmetry_multiplicity
 _atom_site_fract_x
 _atom_site_fract_y
 _atom_site_fract_z
 _atom_site_occupancy
  Ti  Ti0  1  0.69345494  0.30654506  0.30654506  1
  Ti  Ti1  1  0.69345494  0.30654506  0.69345494  1
  Ti  Ti2  1  0.69345494  0.69345494  0.30654506  1
  Ti  Ti3  1  0.30654506  0.69345494  0.69345494  1
  Ti  Ti4  1  0.30654506  0.69345494  0.30654506  1
  Ti  Ti5  1  0.30654506  0.30654506  0.69345494  1
  Ga  Ga6  1  0.63632656  0.12122448  0.12122448  1
  Ga  Ga7  1  0.12122448  0.63632656  0.12122448  1
  Ga  Ga8  1  0.12122448  0.12122448  0.63632656  1
  Ga  Ga9  1  0.12122448  0.12122448  0.12122448  1
  Ga  Ga10  1  0.36367344  0.87877552  0.87877552  1
  Ga  Ga11  1  0.87877552  0.36367344  0.87877552  1
  Ga  Ga12  1  0.87877552  0.87877552  0.36367344  1
  Ga  Ga13  1  0.87877552  0.87877552  0.87877552  1
  Ga  Ga14  1  0.96269727  0.34576758  0.34576758  1
  Ga  Ga15  1  0.34576758  0.96269727  0.34576758  1
  Ga  Ga16  1  0.34576758  0.34576758  0.96269727  1
  Ga  Ga17  1  0.34576758  0.34576758  0.34576758  1
  Ga  Ga18  1  0.03730273  0.65423242  0.65423242  1
  Ga  Ga19  1  0.65423242  0.03730273  0.65423242  1
  Ga  Ga20  1  0.65423242  0.65423242  0.03730273  1
  Ga  Ga21  1  0.65423242  0.65423242  0.65423242  1
  Co  Co22  1  -0.00000000  0.00000000  0.00000000  1
  Co  Co23  1  0.50000000  0.00000000  0.00000000  1
  Co  Co24  1  0.50000000  0.00000000  0.50000000  1
  Co  Co25  1  0.50000000  0.50000000  0.00000000  1
  Co  Co26  1  0.00000000  0.50000000  0.50000000  1
  Co  Co27  1  0.00000000  0.50000000  0.00000000  1
  Co  Co28  1  -0.00000000  0.00000000  0.50000000  1
