# generated using pymatgen
data_V4Cu13(O13F2)2
_symmetry_space_group_name_H-M   'P 1'
_cell_length_a   5.64151286
_cell_length_b   10.43459256
_cell_length_c   10.98513655
_cell_angle_alpha   107.78047101
_cell_angle_beta   103.27580258
_cell_angle_gamma   96.66791348
_symmetry_Int_Tables_number   1
_chemical_formula_structural   V4Cu13(O13F2)2
_chemical_formula_sum   'V4 Cu13 O26 F4'
_cell_volume   587.09077810
_cell_formula_units_Z   1
loop_
 _symmetry_equiv_pos_site_id
 _symmetry_equiv_pos_as_xyz
  1  'x, y, z'
loop_
 _atom_site_type_symbol
 _atom_site_label
 _atom_site_symmetry_multiplicity
 _atom_site_fract_x
 _atom_site_fract_y
 _atom_site_fract_z
 _atom_site_occupancy
  V  V0  1  0.76025210  0.80327766  0.15293429  1
  V  V1  1  0.23974790  0.19672234  0.84706571  1
  V  V2  1  0.00766350  0.80100862  0.65613899  1
  V  V3  1  0.99233650  0.19899138  0.34386101  1
  Cu  Cu4  1  -0.00000000  -0.00000000  -0.00000000  1
  Cu  Cu5  1  0.50000000  -0.00000000  -0.00000000  1
  Cu  Cu6  1  0.37033238  0.99587699  0.25010573  1
  Cu  Cu7  1  0.62966762  0.00412301  0.74989427  1
  Cu  Cu8  1  0.75189347  0.00034496  0.49828901  1
  Cu  Cu9  1  0.24810653  0.99965504  0.50171099  1
  Cu  Cu10  1  0.54771575  0.52318649  0.17017833  1
  Cu  Cu11  1  0.45228425  0.47681351  0.82982167  1
  Cu  Cu12  1  0.70675397  0.49130900  0.41654237  1
  Cu  Cu13  1  0.29324603  0.50869100  0.58345763  1
  Cu  Cu14  1  0.86219046  0.51779819  0.71625607  1
  Cu  Cu15  1  0.13780954  0.48220181  0.28374393  1
  Cu  Cu16  1  -0.00000000  0.50000000  -0.00000000  1
  O  O17  1  0.74153716  0.89039395  0.02918317  1
  O  O18  1  0.25846284  0.10960605  0.97081683  1
  O  O19  1  0.57993196  0.86580343  0.25752076  1
  O  O20  1  0.42006804  0.13419657  0.74247924  1
  O  O21  1  0.67004305  0.62144812  0.07457605  1
  O  O22  1  0.32995695  0.37855188  0.92542395  1
  O  O23  1  0.05166265  0.84383051  0.24972020  1
  O  O24  1  0.94833735  0.15616949  0.75027980  1
  O  O25  1  0.99306876  0.89281358  0.53806912  1
  O  O26  1  0.00693124  0.10718642  0.46193088  1
  O  O27  1  0.92612166  0.61029631  0.59199168  1
  O  O28  1  0.07387834  0.38970369  0.40800832  1
  O  O29  1  0.82704898  0.86840952  0.75661684  1
  O  O30  1  0.17295102  0.13159048  0.24338316  1
  O  O31  1  0.29507139  0.84483613  0.75542706  1
  O  O32  1  0.70492861  0.15516387  0.24457294  1
  O  O33  1  0.26462714  0.92380550  0.06430225  1
  O  O34  1  0.73537286  0.07619450  0.93569775  1
  O  O35  1  0.48281890  0.07469795  0.43661201  1
  O  O36  1  0.51718110  0.92530205  0.56338799  1
  O  O37  1  0.85358215  0.55526701  0.30172464  1
  O  O38  1  0.14641785  0.44473299  0.69827536  1
  O  O39  1  0.43493351  0.41968726  0.26241153  1
  O  O40  1  0.56506649  0.58031274  0.73758847  1
  O  O41  1  0.77345516  0.43443719  0.83625605  1
  O  O42  1  0.22654484  0.56556281  0.16374395  1
  F  F43  1  0.58905128  0.37946128  0.50282561  1
  F  F44  1  0.41094872  0.62053872  0.49717439  1
  F  F45  1  0.14222859  0.63396322  0.94932767  1
  F  F46  1  0.85777141  0.36603678  0.05067233  1
