# generated using pymatgen
data_MoP4H36(C6Cl)2
_symmetry_space_group_name_H-M   'P 1'
_cell_length_a   9.48071060
_cell_length_b   9.48071060
_cell_length_c   9.48071060
_cell_angle_alpha   94.94451304
_cell_angle_beta   117.18754160
_cell_angle_gamma   117.18754160
_symmetry_Int_Tables_number   1
_chemical_formula_structural   MoP4H36(C6Cl)2
_chemical_formula_sum   'Mo1 P4 H36 C12 Cl2'
_cell_volume   625.66459491
_cell_formula_units_Z   1
loop_
 _symmetry_equiv_pos_site_id
 _symmetry_equiv_pos_as_xyz
  1  'x, y, z'
loop_
 _atom_site_type_symbol
 _atom_site_label
 _atom_site_symmetry_multiplicity
 _atom_site_fract_x
 _atom_site_fract_y
 _atom_site_fract_z
 _atom_site_occupancy
  Mo  Mo0  1  -0.00000000  0.00000000  -0.00000000  1
  P  P1  1  0.64502221  0.85517388  0.85517388  1
  P  P2  1  0.35497779  0.21015167  0.21015167  1
  P  P3  1  -0.00000000  0.14482612  0.78984833  1
  P  P4  1  -0.00000000  0.78984833  0.14482612  1
  H  H5  1  0.39549371  0.91270001  0.74626480  1
  H  H6  1  0.60450629  0.35077109  0.51720630  1
  H  H7  1  0.83356479  0.08729999  0.48279370  1
  H  H8  1  0.16643521  0.64922891  0.25373520  1
  H  H9  1  0.16643521  0.25373520  0.64922891  1
  H  H10  1  0.83356479  0.48279370  0.08729999  1
  H  H11  1  0.39549371  0.74626480  0.91270001  1
  H  H12  1  0.60450629  0.51720630  0.35077109  1
  H  H13  1  0.62990719  0.10279249  0.89525724  1
  H  H14  1  0.37009281  0.26535004  0.47288529  1
  H  H15  1  0.79246475  0.89720751  0.52711471  1
  H  H16  1  0.20753525  0.73464996  0.10474276  1
  H  H17  1  0.20753525  0.10474276  0.73464996  1
  H  H18  1  0.79246475  0.52711471  0.89720751  1
  H  H19  1  0.62990719  0.89525724  0.10279249  1
  H  H20  1  0.37009281  0.47288529  0.26535004  1
  H  H21  1  0.55447128  0.01303406  0.68070108  1
  H  H22  1  0.44552872  0.12622980  0.45856278  1
  H  H23  1  0.66766701  0.98696594  0.54143722  1
  H  H24  1  0.33233299  0.87377020  0.31929892  1
  H  H25  1  0.33233299  0.31929892  0.87377020  1
  H  H26  1  0.66766701  0.54143722  0.98696594  1
  H  H27  1  0.55447128  0.68070108  0.01303406  1
  H  H28  1  0.44552872  0.45856278  0.12622980  1
  H  H29  1  0.49760084  0.68697280  0.55978532  1
  H  H30  1  0.50239916  0.06218448  0.18937197  1
  H  H31  1  0.87281252  0.31302720  0.81062803  1
  H  H32  1  0.12718748  0.93781552  0.44021468  1
  H  H33  1  0.12718748  0.44021468  0.93781552  1
  H  H34  1  0.87281252  0.81062803  0.31302720  1
  H  H35  1  0.49760084  0.55978532  0.68697280  1
  H  H36  1  0.50239916  0.18937197  0.06218448  1
  H  H37  1  0.32680722  0.61550363  0.61550363  1
  H  H38  1  0.67319278  0.28869641  0.28869641  1
  H  H39  1  0.00000000  0.38449637  0.71130359  1
  H  H40  1  -0.00000000  0.71130359  0.38449637  1
  C  C41  1  0.54595974  0.98326135  0.78675239  1
  C  C42  1  0.45404026  0.24079265  0.43730161  1
  C  C43  1  0.80349104  0.01673865  0.56269839  1
  C  C44  1  0.19650896  0.75920735  0.21324761  1
  C  C45  1  0.19650896  0.21324761  0.75920735  1
  C  C46  1  0.80349104  0.56269839  0.01673865  1
  C  C47  1  0.54595974  0.78675239  0.98326135  1
  C  C48  1  0.45404026  0.43730161  0.24079265  1
  C  C49  1  0.47471451  0.66066842  0.66066842  1
  C  C50  1  0.52528549  0.18595392  0.18595392  1
  C  C51  1  -0.00000000  0.33933158  0.81404608  1
  C  C52  1  -0.00000000  0.81404608  0.33933158  1
  Cl  Cl53  1  -0.00000000  0.19339689  0.19339689  1
  Cl  Cl54  1  -0.00000000  0.80660311  0.80660311  1
