# generated using pymatgen
data_BiH16C4N2Cl5
_symmetry_space_group_name_H-M   'P 1'
_cell_length_a   10.66902428
_cell_length_b   11.22475471
_cell_length_c   13.90042802
_cell_angle_alpha   108.03821226
_cell_angle_beta   90.00000000
_cell_angle_gamma   90.00000000
_symmetry_Int_Tables_number   1
_chemical_formula_structural   BiH16C4N2Cl5
_chemical_formula_sum   'Bi4 H64 C16 N8 Cl20'
_cell_volume   1582.85759292
_cell_formula_units_Z   4
loop_
 _symmetry_equiv_pos_site_id
 _symmetry_equiv_pos_as_xyz
  1  'x, y, z'
loop_
 _atom_site_type_symbol
 _atom_site_label
 _atom_site_symmetry_multiplicity
 _atom_site_fract_x
 _atom_site_fract_y
 _atom_site_fract_z
 _atom_site_occupancy
  Bi  Bi0  1  0.08974879  0.63296819  0.93646724  1
  Bi  Bi1  1  0.58974879  0.86703181  0.56353276  1
  Bi  Bi2  1  0.91025121  0.36703181  0.06353276  1
  Bi  Bi3  1  0.41025121  0.13296819  0.43646724  1
  H  H4  1  0.18597547  0.55144859  0.66048119  1
  H  H5  1  0.68597547  0.94855141  0.83951881  1
  H  H6  1  0.81402453  0.44855141  0.33951881  1
  H  H7  1  0.31402453  0.05144859  0.16048119  1
  H  H8  1  0.32367225  0.58842223  0.61659273  1
  H  H9  1  0.82367225  0.91157777  0.88340727  1
  H  H10  1  0.67632775  0.41157777  0.38340727  1
  H  H11  1  0.17632775  0.08842223  0.11659273  1
  H  H12  1  0.98841127  0.76417925  0.22116990  1
  H  H13  1  0.48841127  0.73582075  0.27883010  1
  H  H14  1  0.01158873  0.23582075  0.77883010  1
  H  H15  1  0.51158873  0.26417925  0.72116990  1
  H  H16  1  0.86009265  0.74151726  0.28420134  1
  H  H17  1  0.36009265  0.75848274  0.21579866  1
  H  H18  1  0.13990735  0.25848274  0.71579866  1
  H  H19  1  0.63990735  0.24151726  0.78420134  1
  H  H20  1  0.22513997  0.77074499  0.72411425  1
  H  H21  1  0.72513997  0.72925501  0.77588575  1
  H  H22  1  0.77486003  0.22925501  0.27588575  1
  H  H23  1  0.27486003  0.27074499  0.22411425  1
  H  H24  1  0.23770691  0.77609388  0.59651098  1
  H  H25  1  0.73770691  0.72390612  0.90348902  1
  H  H26  1  0.76229309  0.22390612  0.40348902  1
  H  H27  1  0.26229309  0.27609388  0.09651098  1
  H  H28  1  0.09019380  0.73780131  0.64360213  1
  H  H29  1  0.59019380  0.76219869  0.85639787  1
  H  H30  1  0.90980620  0.26219869  0.35639787  1
  H  H31  1  0.40980620  0.23780131  0.14360213  1
  H  H32  1  0.21388643  0.43023649  0.48468330  1
  H  H33  1  0.71388643  0.06976351  0.01531670  1
  H  H34  1  0.78611357  0.56976351  0.51531670  1
  H  H35  1  0.28611357  0.93023649  0.98468330  1
  H  H36  1  0.08530776  0.53843994  0.50153567  1
  H  H37  1  0.58530776  0.96156006  0.99846433  1
  H  H38  1  0.91469224  0.46156006  0.49846433  1
  H  H39  1  0.41469224  0.03843994  0.00153567  1
  H  H40  1  0.23224624  0.57434215  0.45586170  1
  H  H41  1  0.73224624  0.92565785  0.04413830  1
  H  H42  1  0.76775376  0.42565785  0.54413830  1
  H  H43  1  0.26775376  0.07434215  0.95586170  1
  H  H44  1  0.04208612  0.76146382  0.38774911  1
  H  H45  1  0.54208612  0.73853618  0.11225089  1
  H  H46  1  0.95791388  0.23853618  0.61225089  1
  H  H47  1  0.45791388  0.26146382  0.88774911  1
  H  H48  1  0.07066948  0.91256394  0.37232031  1
  H  H49  1  0.57066948  0.58743606  0.12767969  1
  H  H50  1  0.92933052  0.08743606  0.62767969  1
  H  H51  1  0.42933052  0.41256394  0.87232031  1
  H  H52  1  0.93277733  0.88615735  0.43846161  1
  H  H53  1  0.43277733  0.61384265  0.06153839  1
  H  H54  1  0.06722267  0.11384265  0.56153839  1
  H  H55  1  0.56722267  0.38615735  0.93846161  1
  H  H56  1  0.81424693  0.88141834  0.18786412  1
  H  H57  1  0.31424693  0.61858166  0.31213588  1
  H  H58  1  0.18575307  0.11858166  0.81213588  1
  H  H59  1  0.68575307  0.38141834  0.68786412  1
  H  H60  1  0.79882752  0.95718447  0.32095371  1
  H  H61  1  0.29882752  0.54281553  0.17904629  1
  H  H62  1  0.20117248  0.04281553  0.67904629  1
  H  H63  1  0.70117248  0.45718447  0.82095371  1
  H  H64  1  0.93734556  0.98207800  0.25474819  1
  H  H65  1  0.43734556  0.51792200  0.24525181  1
  H  H66  1  0.06265444  0.01792200  0.74525181  1
  H  H67  1  0.56265444  0.48207800  0.75474819  1
  C  C68  1  0.19221712  0.72994803  0.64631476  1
  C  C69  1  0.69221712  0.77005197  0.85368524  1
  C  C70  1  0.80778288  0.27005197  0.35368524  1
  C  C71  1  0.30778288  0.22994803  0.14631476  1
  C  C72  1  0.18672116  0.52907591  0.50599248  1
  C  C73  1  0.68672116  0.97092409  0.99400752  1
  C  C74  1  0.81327884  0.47092409  0.49400752  1
  C  C75  1  0.31327884  0.02907591  0.00599248  1
  C  C76  1  0.99879684  0.84488085  0.37698213  1
  C  C77  1  0.49879684  0.65511915  0.12301787  1
  C  C78  1  0.00120316  0.15511915  0.62301787  1
  C  C79  1  0.50120316  0.34488085  0.87698213  1
  C  C80  1  0.86500033  0.91502851  0.25955483  1
  C  C81  1  0.36500033  0.58497149  0.24044517  1
  C  C82  1  0.13499967  0.08497149  0.74044517  1
  C  C83  1  0.63499967  0.41502851  0.75955483  1
  N  N84  1  0.22702303  0.59462447  0.61165641  1
  N  N85  1  0.72702303  0.90537553  0.88834359  1
  N  N86  1  0.77297697  0.40537553  0.38834359  1
  N  N87  1  0.27297697  0.09462447  0.11165641  1
  N  N88  1  0.92722051  0.80662173  0.28022113  1
  N  N89  1  0.42722051  0.69337827  0.21977887  1
  N  N90  1  0.07277949  0.19337827  0.71977887  1
  N  N91  1  0.57277949  0.30662173  0.78022113  1
  Cl  Cl92  1  0.14516697  0.39674307  0.97145375  1
  Cl  Cl93  1  0.64516697  0.10325693  0.52854625  1
  Cl  Cl94  1  0.85483303  0.60325693  0.02854625  1
  Cl  Cl95  1  0.35483303  0.89674307  0.47145375  1
  Cl  Cl96  1  0.02093890  0.50112933  0.74309654  1
  Cl  Cl97  1  0.52093890  0.99887067  0.75690346  1
  Cl  Cl98  1  0.97906110  0.49887067  0.25690346  1
  Cl  Cl99  1  0.47906110  0.00112933  0.24309654  1
  Cl  Cl100  1  0.01973286  0.84065676  0.90050077  1
  Cl  Cl101  1  0.51973286  0.65934324  0.59949923  1
  Cl  Cl102  1  0.98026714  0.15934324  0.09949923  1
  Cl  Cl103  1  0.48026714  0.34065676  0.40050077  1
  Cl  Cl104  1  0.31708690  0.64414141  0.86833201  1
  Cl  Cl105  1  0.81708690  0.85585859  0.63166799  1
  Cl  Cl106  1  0.68291310  0.35585859  0.13166799  1
  Cl  Cl107  1  0.18291310  0.14414141  0.36833201  1
  Cl  Cl108  1  0.16724906  0.77789255  0.12817607  1
  Cl  Cl109  1  0.66724906  0.72210745  0.37182393  1
  Cl  Cl110  1  0.83275094  0.22210745  0.87182393  1
  Cl  Cl111  1  0.33275094  0.27789255  0.62817607  1
