# generated using pymatgen
data_Zn5P6(H3O5)6
_symmetry_space_group_name_H-M   'P 1'
_cell_length_a   8.53998725
_cell_length_b   9.92667618
_cell_length_c   10.00932663
_cell_angle_alpha   112.11563271
_cell_angle_beta   111.82726968
_cell_angle_gamma   96.90751488
_symmetry_Int_Tables_number   1
_chemical_formula_structural   Zn5P6(H3O5)6
_chemical_formula_sum   'Zn5 P6 H18 O30'
_cell_volume   695.52812767
_cell_formula_units_Z   1
loop_
 _symmetry_equiv_pos_site_id
 _symmetry_equiv_pos_as_xyz
  1  'x, y, z'
loop_
 _atom_site_type_symbol
 _atom_site_label
 _atom_site_symmetry_multiplicity
 _atom_site_fract_x
 _atom_site_fract_y
 _atom_site_fract_z
 _atom_site_occupancy
  Zn  Zn0  1  0.44657768  0.83303325  0.26924516  1
  Zn  Zn1  1  0.55342232  0.16696675  0.73075484  1
  Zn  Zn2  1  0.06315556  0.16449055  0.92898921  1
  Zn  Zn3  1  0.93684444  0.83550945  0.07101079  1
  Zn  Zn4  1  0.50000000  0.50000000  0.50000000  1
  P  P5  1  0.36719807  0.47724705  0.12722416  1
  P  P6  1  0.63280193  0.52275295  0.87277584  1
  P  P7  1  0.19084804  0.94356832  0.42930770  1
  P  P8  1  0.80915196  0.05643168  0.57069230  1
  P  P9  1  0.26496796  0.94077013  0.02067433  1
  P  P10  1  0.73503204  0.05922987  0.97932567  1
  H  H11  1  0.55040375  0.38780458  0.03211105  1
  H  H12  1  0.44959625  0.61219542  0.96788895  1
  H  H13  1  0.08331181  0.93665949  0.59880168  1
  H  H14  1  0.91668819  0.06334051  0.40119832  1
  H  H15  1  0.37646064  0.94999228  0.85320302  1
  H  H16  1  0.62353936  0.05000772  0.14679698  1
  H  H17  1  0.69815686  0.76270159  0.54154435  1
  H  H18  1  0.30184314  0.23729841  0.45845565  1
  H  H19  1  0.72989450  0.76391661  0.70673263  1
  H  H20  1  0.27010550  0.23608339  0.29326737  1
  H  H21  1  0.37894356  0.65299850  0.70763572  1
  H  H22  1  0.62105644  0.34700150  0.29236428  1
  H  H23  1  0.28493534  0.68741844  0.55823822  1
  H  H24  1  0.71506466  0.31258156  0.44176178  1
  H  H25  1  0.95962891  0.39708006  0.16027811  1
  H  H26  1  0.04037109  0.60291994  0.83972189  1
  H  H27  1  0.93567636  0.55048121  0.15652946  1
  H  H28  1  0.06432364  0.44951879  0.84347054  1
  O  O29  1  0.41454209  0.62531366  0.11225359  1
  O  O30  1  0.58545791  0.37468634  0.88774641  1
  O  O31  1  0.67428736  0.89464584  0.45920397  1
  O  O32  1  0.32571264  0.10535416  0.54079603  1
  O  O33  1  0.26610179  0.82765323  0.34267701  1
  O  O34  1  0.73389821  0.17234677  0.65732299  1
  O  O35  1  0.44514164  0.95815577  0.15428138  1
  O  O36  1  0.55485836  0.04184423  0.84571862  1
  O  O37  1  0.18655368  0.37225115  0.98167523  1
  O  O38  1  0.81344632  0.62774885  0.01832477  1
  O  O39  1  0.36403354  0.50910913  0.28773429  1
  O  O40  1  0.63596646  0.49089087  0.71226571  1
  O  O41  1  0.02474234  0.95788636  0.30701404  1
  O  O42  1  0.97525766  0.04211364  0.69298596  1
  O  O43  1  0.22376723  0.09430402  0.06904505  1
  O  O44  1  0.77623277  0.90569598  0.93095495  1
  O  O45  1  0.11671127  0.81117220  0.99061335  1
  O  O46  1  0.88328873  0.18882780  0.00938665  1
  O  O47  1  0.51594324  0.39686824  0.12212490  1
  O  O48  1  0.48405676  0.60313176  0.87787510  1
  O  O49  1  0.13851533  0.87745654  0.53307339  1
  O  O50  1  0.86148467  0.12254346  0.46692661  1
  O  O51  1  0.27598100  0.88838394  0.85535631  1
  O  O52  1  0.72401900  0.11161606  0.14464369  1
  O  O53  1  0.71404964  0.69750019  0.59773485  1
  O  O54  1  0.28595036  0.30249981  0.40226515  1
  O  O55  1  0.38343338  0.65536883  0.61170068  1
  O  O56  1  0.61656662  0.34463117  0.38829932  1
  O  O57  1  0.98219120  0.50572674  0.23090133  1
  O  O58  1  0.01780880  0.49427326  0.76909867  1
