# generated using pymatgen
data_TcP4H36(C6Br)2
_symmetry_space_group_name_H-M   'P 1'
_cell_length_a   9.59993041
_cell_length_b   9.59993041
_cell_length_c   9.59993041
_cell_angle_alpha   94.01360506
_cell_angle_beta   117.71043735
_cell_angle_gamma   117.71043735
_symmetry_Int_Tables_number   1
_chemical_formula_structural   TcP4H36(C6Br)2
_chemical_formula_sum   'Tc1 P4 H36 C12 Br2'
_cell_volume   645.52543959
_cell_formula_units_Z   1
loop_
 _symmetry_equiv_pos_site_id
 _symmetry_equiv_pos_as_xyz
  1  'x, y, z'
loop_
 _atom_site_type_symbol
 _atom_site_label
 _atom_site_symmetry_multiplicity
 _atom_site_fract_x
 _atom_site_fract_y
 _atom_site_fract_z
 _atom_site_occupancy
  Tc  Tc0  1  0.00000000  0.00000000  0.00000000  1
  P  P1  1  0.65644254  0.85625201  0.85625201  1
  P  P2  1  0.34355746  0.19980946  0.19980946  1
  P  P3  1  0.00000000  0.14374799  0.80019054  1
  P  P4  1  -0.00000000  0.80019054  0.14374799  1
  H  H5  1  0.63759057  0.10047259  0.88955416  1
  H  H6  1  0.36240943  0.25196359  0.46288202  1
  H  H7  1  0.78908157  0.89952741  0.53711798  1
  H  H8  1  0.21091843  0.74803641  0.11044584  1
  H  H9  1  0.21091843  0.11044584  0.74803641  1
  H  H10  1  0.78908157  0.53711798  0.89952741  1
  H  H11  1  0.63759057  0.88955416  0.10047259  1
  H  H12  1  0.36240943  0.46288202  0.25196359  1
  H  H13  1  0.55483909  0.00824963  0.67657044  1
  H  H14  1  0.44516091  0.12173135  0.45341054  1
  H  H15  1  0.66832081  0.99175037  0.54658946  1
  H  H16  1  0.33167919  0.87826865  0.32342956  1
  H  H17  1  0.33167919  0.32342956  0.87826865  1
  H  H18  1  0.66832081  0.54658946  0.99175037  1
  H  H19  1  0.55483909  0.67657044  0.00824963  1
  H  H20  1  0.44516091  0.45341054  0.12173135  1
  H  H21  1  0.40709601  0.90786691  0.74884010  1
  H  H22  1  0.59290399  0.34174409  0.50077090  1
  H  H23  1  0.84097319  0.09213309  0.49922910  1
  H  H24  1  0.15902681  0.65825591  0.25115990  1
  H  H25  1  0.15902681  0.25115990  0.65825591  1
  H  H26  1  0.84097319  0.49922910  0.09213309  1
  H  H27  1  0.40709601  0.74884010  0.90786691  1
  H  H28  1  0.59290399  0.50077090  0.34174409  1
  H  H29  1  0.50295378  0.68885622  0.56242258  1
  H  H30  1  0.49704622  0.05946880  0.18590244  1
  H  H31  1  0.87356636  0.31114378  0.81409756  1
  H  H32  1  0.12643364  0.94053120  0.43757742  1
  H  H33  1  0.12643364  0.43757742  0.94053120  1
  H  H34  1  0.87356636  0.81409756  0.31114378  1
  H  H35  1  0.50295378  0.56242258  0.68885622  1
  H  H36  1  0.49704622  0.18590244  0.05946880  1
  H  H37  1  0.33827994  0.62282019  0.62282019  1
  H  H38  1  0.66172006  0.28454025  0.28454025  1
  H  H39  1  -0.00000000  0.37717981  0.71545975  1
  H  H40  1  0.00000000  0.71545975  0.37717981  1
  C  C41  1  0.55468707  0.98046000  0.78533169  1
  C  C42  1  0.44531293  0.23064462  0.42577293  1
  C  C43  1  0.80487170  0.01954000  0.57422707  1
  C  C44  1  0.19512830  0.76935538  0.21466831  1
  C  C45  1  0.19512830  0.21466831  0.76935538  1
  C  C46  1  0.80487170  0.57422707  0.01954000  1
  C  C47  1  0.55468707  0.78533169  0.98046000  1
  C  C48  1  0.44531293  0.42577293  0.23064462  1
  C  C49  1  0.48337469  0.66405391  0.66405391  1
  C  C50  1  0.51662531  0.18067922  0.18067922  1
  C  C51  1  0.00000000  0.33594609  0.81932078  1
  C  C52  1  0.00000000  0.81932078  0.33594609  1
  Br  Br53  1  0.00000000  0.19898560  0.19898560  1
  Br  Br54  1  0.00000000  0.80101440  0.80101440  1
