# generated using pymatgen
data_Ba2YV3O7
_symmetry_space_group_name_H-M   'P 1'
_cell_length_a   3.90041334
_cell_length_b   4.14935505
_cell_length_c   11.63264840
_cell_angle_alpha   90.02071406
_cell_angle_beta   90.00063450
_cell_angle_gamma   89.99981498
_symmetry_Int_Tables_number   1
_chemical_formula_structural   Ba2YV3O7
_chemical_formula_sum   'Ba2 Y1 V3 O7'
_cell_volume   188.26509337
_cell_formula_units_Z   1
loop_
 _symmetry_equiv_pos_site_id
 _symmetry_equiv_pos_as_xyz
  1  'x, y, z'
loop_
 _atom_site_type_symbol
 _atom_site_label
 _atom_site_symmetry_multiplicity
 _atom_site_fract_x
 _atom_site_fract_y
 _atom_site_fract_z
 _atom_site_occupancy
  Ba  Ba0  1  0.49999832  0.49879554  0.82226400  1
  Ba  Ba1  1  0.49997700  0.49949664  0.17770011  1
  Y  Y2  1  0.50003138  0.50219171  0.49998872  1
  V  V3  1  0.00001676  0.00056523  0.65282800  1
  V  V4  1  0.00001136  0.00045888  0.34716455  1
  V  V5  1  0.99993528  0.99943281  0.99999642  1
  O  O6  1  0.99997367  0.49942531  0.00003080  1
  O  O7  1  0.50001602  0.00015100  0.61860749  1
  O  O8  1  0.50001880  0.99995096  0.38136306  1
  O  O9  1  0.00002536  0.50061528  0.62609771  1
  O  O10  1  0.00002636  0.50046885  0.37395990  1
  O  O11  1  -0.00000427  0.99880875  0.82520794  1
  O  O12  1  0.99997397  0.99963904  0.17479028  1
