# generated using pymatgen
data_Nb12WO33
_symmetry_space_group_name_H-M   'P 1'
_cell_length_a   3.87034166
_cell_length_b   11.55976964
_cell_length_c   15.35072071
_cell_angle_alpha   83.70229116
_cell_angle_beta   82.75780455
_cell_angle_gamma   80.36298741
_symmetry_Int_Tables_number   1
_chemical_formula_structural   Nb12WO33
_chemical_formula_sum   'Nb12 W1 O33'
_cell_volume   668.94004610
_cell_formula_units_Z   1
loop_
 _symmetry_equiv_pos_site_id
 _symmetry_equiv_pos_as_xyz
  1  'x, y, z'
loop_
 _atom_site_type_symbol
 _atom_site_label
 _atom_site_symmetry_multiplicity
 _atom_site_fract_x
 _atom_site_fract_y
 _atom_site_fract_z
 _atom_site_occupancy
  Nb  Nb0  1  0.36278642  0.31180424  0.95373741  1
  Nb  Nb1  1  0.62832807  0.68819576  0.04626259  1
  Nb  Nb2  1  0.24855422  0.64097360  0.86172903  1
  Nb  Nb3  1  0.75125686  0.35902640  0.13827097  1
  Nb  Nb4  1  0.13614870  0.96931652  0.76715828  1
  Nb  Nb5  1  0.87262350  0.03068348  0.23284172  1
  Nb  Nb6  1  0.41768568  0.54588097  0.61871033  1
  Nb  Nb7  1  0.58227697  0.45411903  0.38128967  1
  Nb  Nb8  1  0.29907963  0.87507797  0.52698388  1
  Nb  Nb9  1  0.70114148  0.12492203  0.47301612  1
  Nb  Nb10  1  0.46510274  0.78306110  0.28708389  1
  Nb  Nb11  1  0.53524773  0.21693890  0.71291611  1
  W  W12  1  0.75375719  0.00000000  -0.00000000  1
  O  O13  1  0.50001586  0.50000000  0.50000000  1
  O  O14  1  0.14729967  0.69417445  0.00834263  1
  O  O15  1  0.84981675  0.30582555  0.99165737  1
  O  O16  1  0.30472192  0.47383375  0.91687935  1
  O  O17  1  0.69543502  0.52616625  0.08312065  1
  O  O18  1  0.04070611  0.02798590  0.89978025  1
  O  O19  1  0.96847226  0.97201410  0.10021975  1
  O  O20  1  0.45117071  0.25391997  0.84460603  1
  O  O21  1  0.54969671  0.74608003  0.15539397  1
  O  O22  1  0.18105639  0.81608448  0.82089963  1
  O  O23  1  0.81804050  0.18391552  0.17910037  1
  O  O24  1  0.04939610  0.17228842  0.73002091  1
  O  O25  1  0.95170544  0.82771158  0.26997909  1
  O  O26  1  0.32597503  0.59828999  0.74995099  1
  O  O27  1  0.67421601  0.40171001  0.25004901  1
  O  O28  1  0.47446407  0.37557098  0.67539294  1
  O  O29  1  0.52542799  0.62442902  0.32460706  1
  O  O30  1  0.20734847  0.93360194  0.65074232  1
  O  O31  1  0.79169273  0.06639806  0.34925768  1
  O  O32  1  0.35251924  0.72033824  0.57479204  1
  O  O33  1  0.64764953  0.27966176  0.42520796  1
  O  O34  1  0.22302029  0.07526917  0.47845248  1
  O  O35  1  0.77674194  0.92473083  0.52154752  1
  O  O36  1  0.37911108  0.83678157  0.40489847  1
  O  O37  1  0.62079112  0.16321843  0.59510153  1
  O  O38  1  0.08800462  0.45102942  0.37301510  1
  O  O39  1  0.91204913  0.54897058  0.62698490  1
  O  O40  1  0.39445172  0.97983722  0.23398991  1
  O  O41  1  0.60827885  0.02016278  0.76601009  1
  O  O42  1  0.27460308  0.34631078  0.10348909  1
  O  O43  1  0.72440294  0.65368922  0.89651091  1
  O  O44  1  0.42276550  0.12979613  0.01240241  1
  O  O45  1  0.56496405  0.87020387  0.98759759  1
