# generated using pymatgen
data_Tl2Mo15Se19
_symmetry_space_group_name_H-M   'P 1'
_cell_length_a   9.88064660
_cell_length_b   9.88064660
_cell_length_c   20.30407761
_cell_angle_alpha   75.91761633
_cell_angle_beta   75.91761633
_cell_angle_gamma   59.99999601
_symmetry_Int_Tables_number   1
_chemical_formula_structural   Tl2Mo15Se19
_chemical_formula_sum   'Tl4 Mo30 Se38'
_cell_volume   1647.51425538
_cell_formula_units_Z   2
loop_
 _symmetry_equiv_pos_site_id
 _symmetry_equiv_pos_as_xyz
  1  'x, y, z'
loop_
 _atom_site_type_symbol
 _atom_site_label
 _atom_site_symmetry_multiplicity
 _atom_site_fract_x
 _atom_site_fract_y
 _atom_site_fract_z
 _atom_site_occupancy
  Tl  Tl0  1  0.61488687  0.61488687  0.15533940  1
  Tl  Tl1  1  0.11488687  0.11488687  0.65533940  1
  Tl  Tl2  1  0.38511313  0.38511313  0.84466060  1
  Tl  Tl3  1  0.88511313  0.88511313  0.34466060  1
  Mo  Mo4  1  0.49773757  0.68610634  0.44134949  1
  Mo  Mo5  1  0.68610634  0.37480660  0.44134949  1
  Mo  Mo6  1  0.37480660  0.49773757  0.44134949  1
  Mo  Mo7  1  0.99773757  0.87480660  0.94134949  1
  Mo  Mo8  1  0.87480660  0.18610634  0.94134949  1
  Mo  Mo9  1  0.18610634  0.99773757  0.94134949  1
  Mo  Mo10  1  0.50226243  0.31389366  0.55865051  1
  Mo  Mo11  1  0.31389366  0.62519340  0.55865051  1
  Mo  Mo12  1  0.62519340  0.50226243  0.55865051  1
  Mo  Mo13  1  0.00226243  0.12519340  0.05865051  1
  Mo  Mo14  1  0.12519340  0.81389366  0.05865051  1
  Mo  Mo15  1  0.81389366  0.00226243  0.05865051  1
  Mo  Mo16  1  0.72240216  0.86001322  0.86758045  1
  Mo  Mo17  1  0.86001322  0.55000417  0.86758045  1
  Mo  Mo18  1  0.55000417  0.72240216  0.86758045  1
  Mo  Mo19  1  0.22240216  0.05000417  0.36758045  1
  Mo  Mo20  1  0.05000417  0.36001322  0.36758045  1
  Mo  Mo21  1  0.36001322  0.22240216  0.36758045  1
  Mo  Mo22  1  0.27759784  0.13998678  0.13241955  1
  Mo  Mo23  1  0.13998678  0.44999583  0.13241955  1
  Mo  Mo24  1  0.44999583  0.27759784  0.13241955  1
  Mo  Mo25  1  0.77759784  0.94999583  0.63241955  1
  Mo  Mo26  1  0.94999583  0.63998678  0.63241955  1
  Mo  Mo27  1  0.63998678  0.77759784  0.63241955  1
  Mo  Mo28  1  0.59229177  0.90770823  0.75000000  1
  Mo  Mo29  1  0.90770823  0.75000000  0.75000000  1
  Mo  Mo30  1  0.75000000  0.59229177  0.75000000  1
  Mo  Mo31  1  0.09229177  0.25000000  0.25000000  1
  Mo  Mo32  1  0.25000000  0.40770823  0.25000000  1
  Mo  Mo33  1  0.40770823  0.09229177  0.25000000  1
  Se  Se34  1  0.80131280  0.55457734  0.45013054  1
  Se  Se35  1  0.55457734  0.19397933  0.45013054  1
  Se  Se36  1  0.19397933  0.80131280  0.45013054  1
  Se  Se37  1  0.30131280  0.69397933  0.95013054  1
  Se  Se38  1  0.69397933  0.05457734  0.95013054  1
  Se  Se39  1  0.05457734  0.30131280  0.95013054  1
  Se  Se40  1  0.19868720  0.44542266  0.54986946  1
  Se  Se41  1  0.44542266  0.80602067  0.54986946  1
  Se  Se42  1  0.80602067  0.19868720  0.54986946  1
  Se  Se43  1  0.69868720  0.30602067  0.04986946  1
  Se  Se44  1  0.30602067  0.94542266  0.04986946  1
  Se  Se45  1  0.94542266  0.69868720  0.04986946  1
  Se  Se46  1  0.42121198  0.03233330  0.85719084  1
  Se  Se47  1  0.03233330  0.68926388  0.85719084  1
  Se  Se48  1  0.68926388  0.42121198  0.85719084  1
  Se  Se49  1  0.92121198  0.18926388  0.35719084  1
  Se  Se50  1  0.18926388  0.53233330  0.35719084  1
  Se  Se51  1  0.53233330  0.92121198  0.35719084  1
  Se  Se52  1  0.57878802  0.96766670  0.14280916  1
  Se  Se53  1  0.96766670  0.31073612  0.14280916  1
  Se  Se54  1  0.31073612  0.57878802  0.14280916  1
  Se  Se55  1  0.07878802  0.81073612  0.64280916  1
  Se  Se56  1  0.81073612  0.46766670  0.64280916  1
  Se  Se57  1  0.46766670  0.07878802  0.64280916  1
  Se  Se58  1  0.05437257  0.44562743  0.75000000  1
  Se  Se59  1  0.44562743  0.75000000  0.75000000  1
  Se  Se60  1  0.75000000  0.05437257  0.75000000  1
  Se  Se61  1  0.55437257  0.25000000  0.25000000  1
  Se  Se62  1  0.25000000  0.94562743  0.25000000  1
  Se  Se63  1  0.94562743  0.55437257  0.25000000  1
  Se  Se64  1  0.55440243  0.55440243  0.33679272  1
  Se  Se65  1  0.05440243  0.05440243  0.83679272  1
  Se  Se66  1  0.44559757  0.44559757  0.66320728  1
  Se  Se67  1  0.94559757  0.94559757  0.16320728  1
  Se  Se68  1  0.67595076  0.67595076  0.97214771  1
  Se  Se69  1  0.17595076  0.17595076  0.47214771  1
  Se  Se70  1  0.32404924  0.32404924  0.02785229  1
  Se  Se71  1  0.82404924  0.82404924  0.52785229  1
