# generated using pymatgen
data_Na2FePO5
_symmetry_space_group_name_H-M   'P 1'
_cell_length_a   5.31887625
_cell_length_b   11.82666688
_cell_length_c   14.08115622
_cell_angle_alpha   90.00000000
_cell_angle_beta   90.00000000
_cell_angle_gamma   90.00000000
_symmetry_Int_Tables_number   1
_chemical_formula_structural   Na2FePO5
_chemical_formula_sum   'Na16 Fe8 P8 O40'
_cell_volume   885.76918392
_cell_formula_units_Z   8
loop_
 _symmetry_equiv_pos_site_id
 _symmetry_equiv_pos_as_xyz
  1  'x, y, z'
loop_
 _atom_site_type_symbol
 _atom_site_label
 _atom_site_symmetry_multiplicity
 _atom_site_fract_x
 _atom_site_fract_y
 _atom_site_fract_z
 _atom_site_occupancy
  Na  Na0  1  0.73801535  0.32507227  0.24361125  1
  Na  Na1  1  0.76198465  0.82507227  0.25638875  1
  Na  Na2  1  0.23801535  0.67492773  0.25638875  1
  Na  Na3  1  0.26198465  0.17492773  0.24361125  1
  Na  Na4  1  0.26198465  0.67492773  0.75638875  1
  Na  Na5  1  0.23801535  0.17492773  0.74361125  1
  Na  Na6  1  0.76198465  0.32507227  0.74361125  1
  Na  Na7  1  0.73801535  0.82507227  0.75638875  1
  Na  Na8  1  0.75643049  0.08383879  0.12480702  1
  Na  Na9  1  0.74356951  0.58383879  0.37519298  1
  Na  Na10  1  0.25643049  0.91616121  0.37519298  1
  Na  Na11  1  0.24356951  0.41616121  0.12480702  1
  Na  Na12  1  0.24356951  0.91616121  0.87519298  1
  Na  Na13  1  0.25643049  0.41616121  0.62480702  1
  Na  Na14  1  0.74356951  0.08383879  0.62480702  1
  Na  Na15  1  0.75643049  0.58383879  0.87519298  1
  Fe  Fe16  1  0.77348186  0.31687416  0.02354607  1
  Fe  Fe17  1  0.72651814  0.81687416  0.47645393  1
  Fe  Fe18  1  0.27348186  0.68312584  0.47645393  1
  Fe  Fe19  1  0.22651814  0.18312584  0.02354607  1
  Fe  Fe20  1  0.22651814  0.68312584  0.97645393  1
  Fe  Fe21  1  0.27348186  0.18312584  0.52354607  1
  Fe  Fe22  1  0.72651814  0.31687416  0.52354607  1
  Fe  Fe23  1  0.77348186  0.81687416  0.97645393  1
  P  P24  1  0.79701366  0.08926325  0.38302078  1
  P  P25  1  0.70298634  0.58926325  0.11697922  1
  P  P26  1  0.29701366  0.91073675  0.11697922  1
  P  P27  1  0.20298634  0.41073675  0.38302078  1
  P  P28  1  0.20298634  0.91073675  0.61697922  1
  P  P29  1  0.29701366  0.41073675  0.88302078  1
  P  P30  1  0.70298634  0.08926325  0.88302078  1
  P  P31  1  0.79701366  0.58926325  0.61697922  1
  O  O32  1  0.64176516  0.15370060  0.46017140  1
  O  O33  1  0.85823484  0.65370060  0.03982860  1
  O  O34  1  0.14176516  0.84629940  0.03982860  1
  O  O35  1  0.35823484  0.34629940  0.46017140  1
  O  O36  1  0.35823484  0.84629940  0.53982860  1
  O  O37  1  0.14176516  0.34629940  0.96017140  1
  O  O38  1  0.85823484  0.15370060  0.96017140  1
  O  O39  1  0.64176516  0.65370060  0.53982860  1
  O  O40  1  0.72235078  0.12987235  0.28349106  1
  O  O41  1  0.77764922  0.62987235  0.21650894  1
  O  O42  1  0.22235078  0.87012765  0.21650894  1
  O  O43  1  0.27764922  0.37012765  0.28349106  1
  O  O44  1  0.27764922  0.87012765  0.71650894  1
  O  O45  1  0.22235078  0.37012765  0.78349106  1
  O  O46  1  0.77764922  0.12987235  0.78349106  1
  O  O47  1  0.72235078  0.62987235  0.71650894  1
  O  O48  1  0.91450548  0.39077188  0.40269474  1
  O  O49  1  0.58549452  0.89077188  0.09730526  1
  O  O50  1  0.41450548  0.60922812  0.09730526  1
  O  O51  1  0.08549452  0.10922812  0.40269474  1
  O  O52  1  0.08549452  0.60922812  0.59730526  1
  O  O53  1  0.41450548  0.10922812  0.90269474  1
  O  O54  1  0.58549452  0.39077188  0.90269474  1
  O  O55  1  0.91450548  0.89077188  0.59730526  1
  O  O56  1  0.76345913  0.46036091  0.10776759  1
  O  O57  1  0.73654087  0.96036091  0.39223241  1
  O  O58  1  0.26345913  0.53963909  0.39223241  1
  O  O59  1  0.23654087  0.03963909  0.10776759  1
  O  O60  1  0.23654087  0.53963909  0.89223241  1
  O  O61  1  0.26345913  0.03963909  0.60776759  1
  O  O62  1  0.73654087  0.46036091  0.60776759  1
  O  O63  1  0.76345913  0.96036091  0.89223241  1
  O  O64  1  -0.00000000  0.25000000  0.11673195  1
  O  O65  1  0.50000000  0.75000000  0.38326805  1
  O  O66  1  -0.00000000  0.75000000  0.88326805  1
  O  O67  1  0.50000000  0.25000000  0.61673195  1
  O  O68  1  0.50000000  0.25000000  0.08784824  1
  O  O69  1  -0.00000000  0.75000000  0.41215176  1
  O  O70  1  0.50000000  0.75000000  0.91215176  1
  O  O71  1  -0.00000000  0.25000000  0.58784824  1
