# generated using pymatgen
data_Bi2H24C6(NCl3)3
_symmetry_space_group_name_H-M   'P 1'
_cell_length_a   8.06075411
_cell_length_b   14.23992665
_cell_length_c   22.94887479
_cell_angle_alpha   90.00000000
_cell_angle_beta   90.00000000
_cell_angle_gamma   92.39837404
_symmetry_Int_Tables_number   1
_chemical_formula_structural   Bi2H24C6(NCl3)3
_chemical_formula_sum   'Bi8 H96 C24 N12 Cl36'
_cell_volume   2631.86871171
_cell_formula_units_Z   4
loop_
 _symmetry_equiv_pos_site_id
 _symmetry_equiv_pos_as_xyz
  1  'x, y, z'
loop_
 _atom_site_type_symbol
 _atom_site_label
 _atom_site_symmetry_multiplicity
 _atom_site_fract_x
 _atom_site_fract_y
 _atom_site_fract_z
 _atom_site_occupancy
  Bi  Bi0  1  0.75788464  0.59141348  0.34961736  1
  Bi  Bi1  1  0.25788464  0.09141348  0.15038264  1
  Bi  Bi2  1  0.24211536  0.40858652  0.65038264  1
  Bi  Bi3  1  0.74211536  0.90858652  0.84961736  1
  Bi  Bi4  1  0.72536973  0.25678443  0.49594646  1
  Bi  Bi5  1  0.22536973  0.75678443  0.00405354  1
  Bi  Bi6  1  0.27463027  0.74321557  0.50405354  1
  Bi  Bi7  1  0.77463027  0.24321557  0.99594646  1
  H  H8  1  0.42383577  0.09986636  0.57245498  1
  H  H9  1  0.92383577  0.59986636  0.92754502  1
  H  H10  1  0.57616423  0.90013364  0.42754502  1
  H  H11  1  0.07616423  0.40013364  0.07245498  1
  H  H12  1  0.34901632  0.99622419  0.55193965  1
  H  H13  1  0.84901632  0.49622419  0.94806035  1
  H  H14  1  0.65098368  0.00377581  0.44806035  1
  H  H15  1  0.15098368  0.50377581  0.05193965  1
  H  H16  1  0.10835981  0.33079242  0.43479326  1
  H  H17  1  0.60835981  0.83079242  0.06520674  1
  H  H18  1  0.89164019  0.66920758  0.56520674  1
  H  H19  1  0.39164019  0.16920758  0.93479326  1
  H  H20  1  0.30685576  0.31137502  0.44326339  1
  H  H21  1  0.80685576  0.81137502  0.05673661  1
  H  H22  1  0.69314424  0.68862498  0.55673661  1
  H  H23  1  0.19314424  0.18862498  0.94326339  1
  H  H24  1  0.28201510  0.67581972  0.28884090  1
  H  H25  1  0.78201510  0.17581972  0.21115910  1
  H  H26  1  0.71798490  0.32418028  0.71115910  1
  H  H27  1  0.21798490  0.82418028  0.78884090  1
  H  H28  1  0.09566545  0.71745254  0.27745094  1
  H  H29  1  0.59566545  0.21745254  0.22254906  1
  H  H30  1  0.90433455  0.28254746  0.72254906  1
  H  H31  1  0.40433455  0.78254746  0.77745094  1
  H  H32  1  0.18303058  0.11630834  0.51218534  1
  H  H33  1  0.68303058  0.61630834  0.98781466  1
  H  H34  1  0.81696942  0.88369166  0.48781466  1
  H  H35  1  0.31696942  0.38369166  0.01218534  1
  H  H36  1  0.06621797  0.04075346  0.56111185  1
  H  H37  1  0.56621797  0.54075346  0.93888815  1
  H  H38  1  0.93378203  0.95924654  0.43888815  1
  H  H39  1  0.43378203  0.45924654  0.06111185  1
  H  H40  1  0.14134804  0.15506578  0.58489606  1
  H  H41  1  0.64134804  0.65506578  0.91510394  1
  H  H42  1  0.85865196  0.84493422  0.41510394  1
  H  H43  1  0.35865196  0.34493422  0.08489606  1
  H  H44  1  0.43406930  0.99336754  0.65257912  1
  H  H45  1  0.93406930  0.49336754  0.84742088  1
  H  H46  1  0.56593070  0.00663246  0.34742088  1
  H  H47  1  0.06593070  0.50663246  0.15257912  1
  H  H48  1  0.28873376  0.08311119  0.66742889  1
  H  H49  1  0.78873376  0.58311119  0.83257111  1
  H  H50  1  0.71126624  0.91688881  0.33257111  1
  H  H51  1  0.21126624  0.41688881  0.16742889  1
  H  H52  1  0.21464567  0.96856081  0.64430427  1
  H  H53  1  0.71464567  0.46856081  0.85569573  1
  H  H54  1  0.78535433  0.03143919  0.35569573  1
  H  H55  1  0.28535433  0.53143919  0.14430427  1
  H  H56  1  0.23335553  0.45777123  0.49059869  1
  H  H57  1  0.73335553  0.95777123  0.00940131  1
  H  H58  1  0.76664447  0.54222877  0.50940131  1
  H  H59  1  0.26664447  0.04222877  0.99059869  1
  H  H60  1  0.38602808  0.47569210  0.43432550  1
  H  H61  1  0.88602808  0.97569210  0.06567450  1
  H  H62  1  0.61397192  0.52430790  0.56567450  1
  H  H63  1  0.11397192  0.02430790  0.93432550  1
  H  H64  1  0.17303519  0.50010751  0.42052971  1
  H  H65  1  0.67303519  0.00010751  0.07947029  1
  H  H66  1  0.82696481  0.49989249  0.57947029  1
  H  H67  1  0.32696481  0.99989249  0.92052971  1
  H  H68  1  0.22080508  0.27110764  0.34761317  1
  H  H69  1  0.72080508  0.77110764  0.15238683  1
  H  H70  1  0.77919492  0.72889236  0.65238683  1
  H  H71  1  0.27919492  0.22889236  0.84761317  1
  H  H72  1  0.15729454  0.38993498  0.33703106  1
  H  H73  1  0.65729454  0.88993498  0.16296894  1
  H  H74  1  0.84270546  0.61006502  0.66296894  1
  H  H75  1  0.34270546  0.11006502  0.83703106  1
  H  H76  1  0.37227557  0.36732806  0.34706985  1
  H  H77  1  0.87227557  0.86732806  0.15293015  1
  H  H78  1  0.62772443  0.63267194  0.65293015  1
  H  H79  1  0.12772443  0.13267194  0.84706985  1
  H  H80  1  0.21291866  0.66546410  0.18743648  1
  H  H81  1  0.71291866  0.16546410  0.31256352  1
  H  H82  1  0.78708134  0.33453590  0.81256352  1
  H  H83  1  0.28708134  0.83453590  0.68743648  1
  H  H84  1  0.18958954  0.78987754  0.18621588  1
  H  H85  1  0.68958954  0.28987754  0.31378412  1
  H  H86  1  0.81041046  0.21012246  0.81378412  1
  H  H87  1  0.31041046  0.71012246  0.68621588  1
  H  H88  1  0.38923190  0.74368177  0.19963564  1
  H  H89  1  0.88923190  0.24368177  0.30036436  1
  H  H90  1  0.61076810  0.25631823  0.80036436  1
  H  H91  1  0.11076810  0.75631823  0.69963564  1
  H  H92  1  0.25622109  0.81422615  0.34651062  1
  H  H93  1  0.75622109  0.31422615  0.15348938  1
  H  H94  1  0.74377891  0.18577385  0.65348938  1
  H  H95  1  0.24377891  0.68577385  0.84651062  1
  H  H96  1  0.40521041  0.83671147  0.28917359  1
  H  H97  1  0.90521041  0.33671147  0.21082641  1
  H  H98  1  0.59478959  0.16328853  0.71082641  1
  H  H99  1  0.09478959  0.66328853  0.78917359  1
  H  H100  1  0.19882279  0.87697456  0.28210706  1
  H  H101  1  0.69882279  0.37697456  0.21789294  1
  H  H102  1  0.80117721  0.12302544  0.71789294  1
  H  H103  1  0.30117721  0.62302544  0.78210706  1
  C  C104  1  0.16692961  0.09443477  0.55756754  1
  C  C105  1  0.66692961  0.59443477  0.94243246  1
  C  C106  1  0.83307039  0.90556523  0.44243246  1
  C  C107  1  0.33307039  0.40556523  0.05756754  1
  C  C108  1  0.31534966  0.02225203  0.64030235  1
  C  C109  1  0.81534966  0.52225203  0.85969765  1
  C  C110  1  0.68465034  0.97774797  0.35969765  1
  C  C111  1  0.18465034  0.47774797  0.14030235  1
  C  C112  1  0.25674722  0.45444668  0.44371596  1
  C  C113  1  0.75674722  0.95444668  0.05628404  1
  C  C114  1  0.74325278  0.54555332  0.55628404  1
  C  C115  1  0.24325278  0.04555332  0.94371596  1
  C  C116  1  0.24515150  0.34499527  0.35886672  1
  C  C117  1  0.74515150  0.84499527  0.14113328  1
  C  C118  1  0.75484850  0.65500473  0.64113328  1
  C  C119  1  0.25484850  0.15500473  0.85886672  1
  C  C120  1  0.25546752  0.73257299  0.20632105  1
  C  C121  1  0.75546752  0.23257299  0.29367895  1
  C  C122  1  0.74453248  0.26742701  0.79367895  1
  C  C123  1  0.24453248  0.76742701  0.70632105  1
  C  C124  1  0.27421308  0.82121706  0.29942997  1
  C  C125  1  0.77421308  0.32121706  0.20057003  1
  C  C126  1  0.72578692  0.17878294  0.70057003  1
  C  C127  1  0.22578692  0.67878294  0.79942997  1
  N  N128  1  0.32319557  0.05277205  0.57816755  1
  N  N129  1  0.82319557  0.55277205  0.92183245  1
  N  N130  1  0.67680443  0.94722795  0.42183245  1
  N  N131  1  0.17680443  0.44722795  0.07816755  1
  N  N132  1  0.22598526  0.35602630  0.42312013  1
  N  N133  1  0.72598526  0.85602630  0.07687987  1
  N  N134  1  0.77401474  0.64397370  0.57687987  1
  N  N135  1  0.27401474  0.14397370  0.92312013  1
  N  N136  1  0.22196841  0.73104321  0.27031579  1
  N  N137  1  0.72196841  0.23104321  0.22968421  1
  N  N138  1  0.77803159  0.26895679  0.72968421  1
  N  N139  1  0.27803159  0.76895679  0.77031579  1
  Cl  Cl140  1  0.79860270  0.74769578  0.29009231  1
  Cl  Cl141  1  0.29860270  0.24769578  0.20990769  1
  Cl  Cl142  1  0.20139730  0.25230422  0.70990769  1
  Cl  Cl143  1  0.70139730  0.75230422  0.79009231  1
  Cl  Cl144  1  0.98832294  0.52421858  0.28400601  1
  Cl  Cl145  1  0.48832294  0.02421858  0.21599399  1
  Cl  Cl146  1  0.01167706  0.47578142  0.71599399  1
  Cl  Cl147  1  0.51167706  0.97578142  0.78400601  1
  Cl  Cl148  1  0.51395768  0.53290472  0.28303305  1
  Cl  Cl149  1  0.01395768  0.03290472  0.21696695  1
  Cl  Cl150  1  0.48604232  0.46709528  0.71696695  1
  Cl  Cl151  1  0.98604232  0.96709528  0.78303305  1
  Cl  Cl152  1  0.73861578  0.41545121  0.41794556  1
  Cl  Cl153  1  0.23861578  0.91545121  0.08205444  1
  Cl  Cl154  1  0.26138422  0.58454879  0.58205444  1
  Cl  Cl155  1  0.76138422  0.08454879  0.91794556  1
  Cl  Cl156  1  0.52495158  0.68215060  0.42626505  1
  Cl  Cl157  1  0.02495158  0.18215060  0.07373495  1
  Cl  Cl158  1  0.47504842  0.31784940  0.57373495  1
  Cl  Cl159  1  0.97504842  0.81784940  0.92626505  1
  Cl  Cl160  1  0.01714637  0.66890193  0.42929553  1
  Cl  Cl161  1  0.51714637  0.16890193  0.07070447  1
  Cl  Cl162  1  0.98285363  0.33109807  0.57070447  1
  Cl  Cl163  1  0.48285363  0.83109807  0.92929553  1
  Cl  Cl164  1  0.71156018  0.09330896  0.55129951  1
  Cl  Cl165  1  0.21156018  0.59330896  0.94870049  1
  Cl  Cl166  1  0.28843982  0.90669104  0.44870049  1
  Cl  Cl167  1  0.78843982  0.40669104  0.05129951  1
  Cl  Cl168  1  0.48211268  0.18209907  0.43199305  1
  Cl  Cl169  1  0.98211268  0.68209907  0.06800695  1
  Cl  Cl170  1  0.51788732  0.81790093  0.56800695  1
  Cl  Cl171  1  0.01788732  0.31790093  0.93199305  1
  Cl  Cl172  1  0.94858179  0.18405044  0.42796024  1
  Cl  Cl173  1  0.44858179  0.68405044  0.07203976  1
  Cl  Cl174  1  0.05141821  0.81594956  0.57203976  1
  Cl  Cl175  1  0.55141821  0.31594956  0.92796024  1
