# generated using pymatgen
data_Ta3(Bi2O7)2
_symmetry_space_group_name_H-M   'P 1'
_cell_length_a   7.65332960
_cell_length_b   7.65332960
_cell_length_c   12.08565595
_cell_angle_alpha   79.96211760
_cell_angle_beta   79.96211760
_cell_angle_gamma   60.02152949
_symmetry_Int_Tables_number   1
_chemical_formula_structural   Ta3(Bi2O7)2
_chemical_formula_sum   'Ta6 Bi8 O28'
_cell_volume   600.64074658
_cell_formula_units_Z   2
loop_
 _symmetry_equiv_pos_site_id
 _symmetry_equiv_pos_as_xyz
  1  'x, y, z'
loop_
 _atom_site_type_symbol
 _atom_site_label
 _atom_site_symmetry_multiplicity
 _atom_site_fract_x
 _atom_site_fract_y
 _atom_site_fract_z
 _atom_site_occupancy
  Ta  Ta0  1  0.86057071  0.64194441  0.24132862  1
  Ta  Ta1  1  0.35805559  0.13942929  0.25867138  1
  Ta  Ta2  1  0.13942929  0.35805559  0.75867138  1
  Ta  Ta3  1  0.64194441  0.86057071  0.74132862  1
  Ta  Ta4  1  0.84939689  0.15060311  0.25000000  1
  Ta  Ta5  1  0.15060311  0.84939689  0.75000000  1
  Bi  Bi6  1  0.97323454  0.25590668  0.53135137  1
  Bi  Bi7  1  0.74409332  0.02676546  0.96864863  1
  Bi  Bi8  1  0.02676546  0.74409332  0.46864863  1
  Bi  Bi9  1  0.25590668  0.97323454  0.03135137  1
  Bi  Bi10  1  0.50821303  0.72788205  0.49299953  1
  Bi  Bi11  1  0.27211795  0.49178697  0.00700047  1
  Bi  Bi12  1  0.49178697  0.27211795  0.50700047  1
  Bi  Bi13  1  0.72788205  0.50821303  0.99299953  1
  O  O14  1  0.15264530  0.43468338  0.21724937  1
  O  O15  1  0.56531662  0.84735470  0.28275063  1
  O  O16  1  0.84735470  0.56531662  0.78275063  1
  O  O17  1  0.43468338  0.15264530  0.71724937  1
  O  O18  1  0.78837916  0.43375800  0.21857019  1
  O  O19  1  0.56624200  0.21162084  0.28142981  1
  O  O20  1  0.21162084  0.56624200  0.78142981  1
  O  O21  1  0.43375800  0.78837916  0.71857019  1
  O  O22  1  0.86974699  0.13846474  0.08422914  1
  O  O23  1  0.86153526  0.13025301  0.41577086  1
  O  O24  1  0.13025301  0.86153526  0.91577086  1
  O  O25  1  0.13846474  0.86974699  0.58422914  1
  O  O26  1  0.85733966  0.55537947  0.41351801  1
  O  O27  1  0.44462053  0.14266034  0.08648199  1
  O  O28  1  0.14266034  0.44462053  0.58648199  1
  O  O29  1  0.55537947  0.85733966  0.91351801  1
  O  O30  1  0.85334463  0.72783335  0.08170974  1
  O  O31  1  0.27216665  0.14665537  0.41829026  1
  O  O32  1  0.14665537  0.27216665  0.91829026  1
  O  O33  1  0.72783335  0.85334463  0.58170974  1
  O  O34  1  0.36927757  0.58486454  0.41972770  1
  O  O35  1  0.41513546  0.63072243  0.08027230  1
  O  O36  1  0.63072243  0.41513546  0.58027230  1
  O  O37  1  0.58486454  0.36927757  0.91972770  1
  O  O38  1  0.93227375  0.84747033  0.27237236  1
  O  O39  1  0.15252967  0.06772625  0.22762764  1
  O  O40  1  0.06772625  0.15252967  0.72762764  1
  O  O41  1  0.84747033  0.93227375  0.77237236  1
