# generated using pymatgen
data_Cu2Si2Pb7(S2O13)2
_symmetry_space_group_name_H-M   'P 1'
_cell_length_a   5.74347452
_cell_length_b   9.61396059
_cell_length_c   10.82025046
_cell_angle_alpha   90.60880365
_cell_angle_beta   105.39095959
_cell_angle_gamma   90.00000000
_symmetry_Int_Tables_number   1
_chemical_formula_structural   Cu2Si2Pb7(S2O13)2
_chemical_formula_sum   'Cu2 Si2 Pb7 S4 O26'
_cell_volume   576.00579966
_cell_formula_units_Z   1
loop_
 _symmetry_equiv_pos_site_id
 _symmetry_equiv_pos_as_xyz
  1  'x, y, z'
loop_
 _atom_site_type_symbol
 _atom_site_label
 _atom_site_symmetry_multiplicity
 _atom_site_fract_x
 _atom_site_fract_y
 _atom_site_fract_z
 _atom_site_occupancy
  Cu  Cu0  1  -0.00000000  0.00000000  0.50000000  1
  Cu  Cu1  1  0.50000000  0.00000000  0.50000000  1
  Si  Si2  1  0.60536556  0.00827362  0.21073111  1
  Si  Si3  1  0.39463444  0.99172638  0.78926889  1
  Pb  Pb4  1  0.85292919  0.74516401  0.70585837  1
  Pb  Pb5  1  0.14707081  0.25483599  0.29414163  1
  Pb  Pb6  1  0.52532070  0.28813261  0.05064141  1
  Pb  Pb7  1  0.47467930  0.71186739  0.94935859  1
  Pb  Pb8  1  0.65661961  0.66968653  0.31323922  1
  Pb  Pb9  1  0.34338039  0.33031347  0.68676078  1
  Pb  Pb10  1  -0.00000000  0.00000000  -0.00000000  1
  S  S11  1  0.73244896  0.34462172  0.46489792  1
  S  S12  1  0.26755104  0.65537828  0.53510208  1
  S  S13  1  0.06763330  0.65460208  0.13526660  1
  S  S14  1  0.93236670  0.34539792  0.86473340  1
  O  O15  1  0.68576600  0.97503711  0.37153200  1
  O  O16  1  0.31423400  0.02496289  0.62846800  1
  O  O17  1  0.66331268  0.38706659  0.32662537  1
  O  O18  1  0.33668732  0.61293341  0.67337463  1
  O  O19  1  0.80910691  0.10551783  0.16972443  1
  O  O20  1  0.36061753  0.10551783  0.16972443  1
  O  O21  1  0.19089309  0.89448217  0.83027557  1
  O  O22  1  0.63938247  0.89448217  0.83027557  1
  O  O23  1  0.77575184  0.46524972  0.55150368  1
  O  O24  1  0.22424816  0.53475028  0.44849632  1
  O  O25  1  0.11633330  0.76629838  0.23266660  1
  O  O26  1  0.88366670  0.23370162  0.76733340  1
  O  O27  1  0.56914404  0.85635131  0.13828808  1
  O  O28  1  0.43085596  0.14364869  0.86171192  1
  O  O29  1  0.95625784  0.25527494  0.48680527  1
  O  O30  1  0.53054743  0.25527494  0.48680527  1
  O  O31  1  0.04374216  0.74472506  0.51319473  1
  O  O32  1  0.46945257  0.74472506  0.51319473  1
  O  O33  1  0.85864135  0.56584575  0.14681098  1
  O  O34  1  0.28816963  0.56584575  0.14681098  1
  O  O35  1  0.14135865  0.43415425  0.85318902  1
  O  O36  1  0.71183037  0.43415425  0.85318902  1
  O  O37  1  0.99893840  0.28262011  0.99787680  1
  O  O38  1  0.00106160  0.71737989  0.00212320  1
  O  O39  1  0.19653773  0.02814625  0.39307545  1
  O  O40  1  0.80346227  0.97185375  0.60692455  1
