# generated using pymatgen
data_ZnFeSiO5
_symmetry_space_group_name_H-M   'P 1'
_cell_length_a   5.46669010
_cell_length_b   7.14093839
_cell_length_c   8.11808146
_cell_angle_alpha   90.14708396
_cell_angle_beta   42.28023924
_cell_angle_gamma   71.45893013
_symmetry_Int_Tables_number   1
_chemical_formula_structural   ZnFeSiO5
_chemical_formula_sum   'Zn2 Fe2 Si2 O10'
_cell_volume   187.55864181
_cell_formula_units_Z   2
loop_
 _symmetry_equiv_pos_site_id
 _symmetry_equiv_pos_as_xyz
  1  'x, y, z'
loop_
 _atom_site_type_symbol
 _atom_site_label
 _atom_site_symmetry_multiplicity
 _atom_site_fract_x
 _atom_site_fract_y
 _atom_site_fract_z
 _atom_site_occupancy
  Zn  Zn0  1  0.46119854  0.23056575  0.70003507  1
  Zn  Zn1  1  0.55266663  0.72104194  0.28300668  1
  Fe  Fe2  1  0.49929800  0.48660089  0.99483604  1
  Fe  Fe3  1  0.49990884  0.98664042  0.99623689  1
  Si  Si4  1  0.52332303  0.23241438  0.33468753  1
  Si  Si5  1  0.47069900  0.74165926  0.65891505  1
  O  O6  1  0.51215220  0.04265209  0.23051319  1
  O  O7  1  0.57930265  0.40832844  0.19509867  1
  O  O8  1  0.48501164  0.93216291  0.76007104  1
  O  O9  1  0.40636775  0.57079729  0.80511641  1
  O  O10  1  0.87444340  0.62694445  0.33126319  1
  O  O11  1  0.12130557  0.83429619  0.68259325  1
  O  O12  1  0.12322559  0.34257268  0.66275111  1
  O  O13  1  0.87843031  0.13765113  0.30621213  1
  O  O14  1  0.49467623  0.73748523  0.07570850  1
  O  O15  1  0.50471862  0.23531497  0.91496825  1
