# generated using pymatgen
data_La14Sb8CO7
_symmetry_space_group_name_H-M   'P 1'
_cell_length_a   9.38414117
_cell_length_b   13.27479266
_cell_length_c   13.27479266
_cell_angle_alpha   90.00000000
_cell_angle_beta   90.00000000
_cell_angle_gamma   90.00000000
_symmetry_Int_Tables_number   1
_chemical_formula_structural   La14Sb8CO7
_chemical_formula_sum   'La28 Sb16 C2 O14'
_cell_volume   1653.67448463
_cell_formula_units_Z   2
loop_
 _symmetry_equiv_pos_site_id
 _symmetry_equiv_pos_as_xyz
  1  'x, y, z'
loop_
 _atom_site_type_symbol
 _atom_site_label
 _atom_site_symmetry_multiplicity
 _atom_site_fract_x
 _atom_site_fract_y
 _atom_site_fract_z
 _atom_site_occupancy
  La  La0  1  0.03151282  0.50000000  0.50000000  1
  La  La1  1  0.03151282  0.00000000  -0.00000000  1
  La  La2  1  0.00529523  0.00000000  0.50000000  1
  La  La3  1  0.00529523  0.50000000  -0.00000000  1
  La  La4  1  0.01157665  0.24895086  0.25104914  1
  La  La5  1  0.01157665  0.75104914  0.74895086  1
  La  La6  1  0.01157665  0.25104914  0.75104914  1
  La  La7  1  0.01157665  0.74895086  0.24895086  1
  La  La8  1  0.34549164  0.89051140  0.39051140  1
  La  La9  1  0.34549164  0.10948860  0.60948860  1
  La  La10  1  0.34549164  0.60948860  0.89051140  1
  La  La11  1  0.34549164  0.39051140  0.10948860  1
  La  La12  1  0.68896656  0.24921914  0.50987363  1
  La  La13  1  0.68896656  0.75078086  0.49012637  1
  La  La14  1  0.68896656  0.25078086  0.00987363  1
  La  La15  1  0.68896656  0.74921914  0.99012637  1
  La  La16  1  0.68896656  0.50987363  0.75078086  1
  La  La17  1  0.68896656  0.49012637  0.24921914  1
  La  La18  1  0.68896656  0.00987363  0.74921914  1
  La  La19  1  0.68896656  0.99012637  0.25078086  1
  La  La20  1  0.35296636  0.61698106  0.34468892  1
  La  La21  1  0.35296636  0.38301894  0.65531108  1
  La  La22  1  0.35296636  0.88301894  0.84468892  1
  La  La23  1  0.35296636  0.11698106  0.15531108  1
  La  La24  1  0.35296636  0.34468892  0.38301894  1
  La  La25  1  0.35296636  0.65531108  0.61698106  1
  La  La26  1  0.35296636  0.84468892  0.11698106  1
  La  La27  1  0.35296636  0.15531108  0.88301894  1
  Sb  Sb28  1  0.64343138  0.50000000  0.50000000  1
  Sb  Sb29  1  0.64343138  0.00000000  -0.00000000  1
  Sb  Sb30  1  0.64184890  0.00000000  0.50000000  1
  Sb  Sb31  1  0.64184890  0.50000000  -0.00000000  1
  Sb  Sb32  1  0.65692729  0.24057549  0.25942451  1
  Sb  Sb33  1  0.65692729  0.75942451  0.74057549  1
  Sb  Sb34  1  0.65692729  0.25942451  0.75942451  1
  Sb  Sb35  1  0.65692729  0.74057549  0.24057549  1
  Sb  Sb36  1  0.04634493  0.74942703  0.49838575  1
  Sb  Sb37  1  0.04634493  0.25057297  0.50161425  1
  Sb  Sb38  1  0.04634493  0.75057297  0.99838575  1
  Sb  Sb39  1  0.04634493  0.24942703  0.00161425  1
  Sb  Sb40  1  0.04634493  0.49838575  0.25057297  1
  Sb  Sb41  1  0.04634493  0.50161425  0.74942703  1
  Sb  Sb42  1  0.04634493  0.99838575  0.24942703  1
  Sb  Sb43  1  0.04634493  0.00161425  0.75057297  1
  C  C44  1  0.28371468  0.50000000  0.50000000  1
  C  C45  1  0.28371468  0.00000000  -0.00000000  1
  O  O46  1  0.24205311  0.00000000  0.50000000  1
  O  O47  1  0.24205311  0.50000000  -0.00000000  1
  O  O48  1  0.25722065  0.76333354  0.26333354  1
  O  O49  1  0.25722065  0.23666646  0.73666646  1
  O  O50  1  0.25722065  0.73666646  0.76333354  1
  O  O51  1  0.25722065  0.26333354  0.23666646  1
  O  O52  1  0.44240000  0.47155902  0.26021900  1
  O  O53  1  0.44240000  0.52844098  0.73978100  1
  O  O54  1  0.44240000  0.02844098  0.76021900  1
  O  O55  1  0.44240000  0.97155902  0.23978100  1
  O  O56  1  0.44240000  0.26021900  0.52844098  1
  O  O57  1  0.44240000  0.73978100  0.47155902  1
  O  O58  1  0.44240000  0.76021900  0.97155902  1
  O  O59  1  0.44240000  0.23978100  0.02844098  1
