# generated using pymatgen
data_Re4Ge7
_symmetry_space_group_name_H-M   'P 1'
_cell_length_a   6.02333268
_cell_length_b   6.02333268
_cell_length_c   19.18122562
_cell_angle_alpha   90.00000000
_cell_angle_beta   90.00000000
_cell_angle_gamma   90.00000000
_symmetry_Int_Tables_number   1
_chemical_formula_structural   Re4Ge7
_chemical_formula_sum   'Re16 Ge28'
_cell_volume   695.90515764
_cell_formula_units_Z   4
loop_
 _symmetry_equiv_pos_site_id
 _symmetry_equiv_pos_as_xyz
  1  'x, y, z'
loop_
 _atom_site_type_symbol
 _atom_site_label
 _atom_site_symmetry_multiplicity
 _atom_site_fract_x
 _atom_site_fract_y
 _atom_site_fract_z
 _atom_site_occupancy
  Re  Re0  1  -0.00000000  0.00000000  0.25000000  1
  Re  Re1  1  -0.00000000  -0.00000000  0.75000000  1
  Re  Re2  1  -0.00000000  -0.00000000  0.50000000  1
  Re  Re3  1  -0.00000000  0.00000000  0.00000000  1
  Re  Re4  1  0.50000000  0.50000000  0.37003245  1
  Re  Re5  1  0.50000000  0.50000000  0.87003245  1
  Re  Re6  1  0.50000000  0.50000000  0.62996755  1
  Re  Re7  1  0.50000000  0.50000000  0.12996755  1
  Re  Re8  1  0.50000000  -0.00000000  0.43556171  1
  Re  Re9  1  0.50000000  0.00000000  0.93556171  1
  Re  Re10  1  -0.00000000  0.50000000  0.56443829  1
  Re  Re11  1  -0.00000000  0.50000000  0.06443829  1
  Re  Re12  1  0.50000000  0.00000000  0.19257723  1
  Re  Re13  1  0.50000000  -0.00000000  0.69257723  1
  Re  Re14  1  -0.00000000  0.50000000  0.80742277  1
  Re  Re15  1  -0.00000000  0.50000000  0.30742277  1
  Ge  Ge16  1  0.76826890  0.34904034  0.46158251  1
  Ge  Ge17  1  0.23173110  0.65095966  0.46158251  1
  Ge  Ge18  1  0.76826890  0.65095966  0.96158251  1
  Ge  Ge19  1  0.23173110  0.34904034  0.96158251  1
  Ge  Ge20  1  0.34904034  0.23173110  0.53841749  1
  Ge  Ge21  1  0.65095966  0.76826890  0.53841749  1
  Ge  Ge22  1  0.65095966  0.23173110  0.03841749  1
  Ge  Ge23  1  0.34904034  0.76826890  0.03841749  1
  Ge  Ge24  1  0.15151690  0.19997685  0.38769286  1
  Ge  Ge25  1  0.84848310  0.80002315  0.38769286  1
  Ge  Ge26  1  0.15151690  0.80002315  0.88769286  1
  Ge  Ge27  1  0.84848310  0.19997685  0.88769286  1
  Ge  Ge28  1  0.19997685  0.84848310  0.61230714  1
  Ge  Ge29  1  0.80002315  0.15151690  0.61230714  1
  Ge  Ge30  1  0.80002315  0.84848310  0.11230714  1
  Ge  Ge31  1  0.19997685  0.15151690  0.11230714  1
  Ge  Ge32  1  0.67800157  0.15540067  0.31770831  1
  Ge  Ge33  1  0.32199843  0.84459933  0.31770831  1
  Ge  Ge34  1  0.67800157  0.84459933  0.81770831  1
  Ge  Ge35  1  0.32199843  0.15540067  0.81770831  1
  Ge  Ge36  1  0.15540067  0.32199843  0.68229169  1
  Ge  Ge37  1  0.84459933  0.67800157  0.68229169  1
  Ge  Ge38  1  0.84459933  0.32199843  0.18229169  1
  Ge  Ge39  1  0.15540067  0.67800157  0.18229169  1
  Ge  Ge40  1  0.33593295  0.33593295  0.25000000  1
  Ge  Ge41  1  0.66406705  0.66406705  0.25000000  1
  Ge  Ge42  1  0.33593295  0.66406705  0.75000000  1
  Ge  Ge43  1  0.66406705  0.33593295  0.75000000  1
