# generated using pymatgen
data_Nd4Co3O10
_symmetry_space_group_name_H-M   'P 1'
_cell_length_a   5.43006344
_cell_length_b   5.58412782
_cell_length_c   27.73467870
_cell_angle_alpha   90.00000000
_cell_angle_beta   90.78981947
_cell_angle_gamma   90.00000000
_symmetry_Int_Tables_number   1
_chemical_formula_structural   Nd4Co3O10
_chemical_formula_sum   'Nd16 Co12 O40'
_cell_volume   840.89569340
_cell_formula_units_Z   4
loop_
 _symmetry_equiv_pos_site_id
 _symmetry_equiv_pos_as_xyz
  1  'x, y, z'
loop_
 _atom_site_type_symbol
 _atom_site_label
 _atom_site_symmetry_multiplicity
 _atom_site_fract_x
 _atom_site_fract_y
 _atom_site_fract_z
 _atom_site_occupancy
  Nd  Nd0  1  0.50123685  0.48182408  0.29979285  1
  Nd  Nd1  1  0.99876315  0.98182408  0.70020715  1
  Nd  Nd2  1  0.49876315  0.51817592  0.70020715  1
  Nd  Nd3  1  0.00123685  0.01817592  0.29979285  1
  Nd  Nd4  1  0.99407323  0.48221566  0.80043904  1
  Nd  Nd5  1  0.50592677  0.98221566  0.19956096  1
  Nd  Nd6  1  0.00592677  0.51778434  0.19956096  1
  Nd  Nd7  1  0.49407323  0.01778434  0.80043904  1
  Nd  Nd8  1  0.54522560  0.49447987  0.43149277  1
  Nd  Nd9  1  0.95477440  0.99447987  0.56850723  1
  Nd  Nd10  1  0.45477440  0.50552013  0.56850723  1
  Nd  Nd11  1  0.04522560  0.00552013  0.43149277  1
  Nd  Nd12  1  0.03528204  0.50063732  0.93214605  1
  Nd  Nd13  1  0.46471796  0.00063732  0.06785395  1
  Nd  Nd14  1  0.96471796  0.49936268  0.06785395  1
  Nd  Nd15  1  0.53528204  0.99936268  0.93214605  1
  Co  Co16  1  0.50000000  0.00000000  0.50000000  1
  Co  Co17  1  0.00000000  0.50000000  0.50000000  1
  Co  Co18  1  0.50000000  0.50000000  -0.00000000  1
  Co  Co19  1  0.00000000  0.00000000  -0.00000000  1
  Co  Co20  1  0.50046842  0.49701935  0.14028096  1
  Co  Co21  1  0.99953158  0.99701935  0.85971904  1
  Co  Co22  1  0.49953158  0.50298065  0.85971904  1
  Co  Co23  1  0.00046842  0.00298065  0.14028096  1
  Co  Co24  1  0.98696401  0.49567045  0.64035235  1
  Co  Co25  1  0.51303599  0.99567045  0.35964765  1
  Co  Co26  1  0.01303599  0.50432955  0.35964765  1
  Co  Co27  1  0.48696401  0.00432955  0.64035235  1
  O  O28  1  0.80063794  0.21064881  0.48706131  1
  O  O29  1  0.69936206  0.71064881  0.51293869  1
  O  O30  1  0.19936206  0.78935119  0.51293869  1
  O  O31  1  0.30063794  0.28935119  0.48706131  1
  O  O32  1  0.78953346  0.30627768  0.98844957  1
  O  O33  1  0.71046654  0.80627768  0.01155043  1
  O  O34  1  0.21046654  0.69372232  0.01155043  1
  O  O35  1  0.28953346  0.19372232  0.98844957  1
  O  O36  1  0.52102622  0.41854885  0.06826495  1
  O  O37  1  0.97897378  0.91854885  0.93173505  1
  O  O38  1  0.47897378  0.58145115  0.93173505  1
  O  O39  1  0.02102622  0.08145115  0.06826495  1
  O  O40  1  0.01108343  0.41488476  0.56777183  1
  O  O41  1  0.48891657  0.91488476  0.43222817  1
  O  O42  1  0.98891657  0.58511524  0.43222817  1
  O  O43  1  0.51108343  0.08511524  0.56777183  1
  O  O44  1  0.75322512  0.25116021  0.15172199  1
  O  O45  1  0.74677488  0.75116021  0.84827801  1
  O  O46  1  0.24677488  0.74883979  0.84827801  1
  O  O47  1  0.25322512  0.24883979  0.15172199  1
  O  O48  1  0.24555905  0.25730225  0.65252738  1
  O  O49  1  0.25444095  0.75730225  0.34747262  1
  O  O50  1  0.75444095  0.74269775  0.34747262  1
  O  O51  1  0.74555905  0.24269775  0.65252738  1
  O  O52  1  0.50943610  0.56706401  0.21815385  1
  O  O53  1  0.99056390  0.06706401  0.78184615  1
  O  O54  1  0.49056390  0.43293599  0.78184615  1
  O  O55  1  0.00943610  0.93293599  0.21815385  1
  O  O56  1  0.97728639  0.56867715  0.71884060  1
  O  O57  1  0.52271361  0.06867715  0.28115940  1
  O  O58  1  0.02271361  0.43132285  0.28115940  1
  O  O59  1  0.47728639  0.93132285  0.71884060  1
  O  O60  1  0.25176123  0.24747422  0.86839466  1
  O  O61  1  0.24823877  0.74747422  0.13160534  1
  O  O62  1  0.74823877  0.75252578  0.13160534  1
  O  O63  1  0.75176123  0.25252578  0.86839466  1
  O  O64  1  0.77260364  0.24197687  0.36890051  1
  O  O65  1  0.72739636  0.74197687  0.63109949  1
  O  O66  1  0.22739636  0.75802313  0.63109949  1
  O  O67  1  0.27260364  0.25802313  0.36890051  1
