# generated using pymatgen
data_Cu2H3ClO3
_symmetry_space_group_name_H-M   'P 1'
_cell_length_a   9.20038747
_cell_length_b   9.21422671
_cell_length_c   9.29966906
_cell_angle_alpha   96.34921827
_cell_angle_beta   97.11484079
_cell_angle_gamma   96.76497465
_symmetry_Int_Tables_number   1
_chemical_formula_structural   Cu2H3ClO3
_chemical_formula_sum   'Cu16 H24 Cl8 O24'
_cell_volume   770.56336299
_cell_formula_units_Z   8
loop_
 _symmetry_equiv_pos_site_id
 _symmetry_equiv_pos_as_xyz
  1  'x, y, z'
loop_
 _atom_site_type_symbol
 _atom_site_label
 _atom_site_symmetry_multiplicity
 _atom_site_fract_x
 _atom_site_fract_y
 _atom_site_fract_z
 _atom_site_occupancy
  Cu  Cu0  1  0.50000000  0.50000000  0.50000000  1
  Cu  Cu1  1  0.50000000  -0.00000000  -0.00000000  1
  Cu  Cu2  1  -0.00000000  -0.00000000  0.50000000  1
  Cu  Cu3  1  -0.00000000  0.50000000  -0.00000000  1
  Cu  Cu4  1  0.25014833  0.76084055  0.00142133  1
  Cu  Cu5  1  0.74985167  0.23915945  0.99857867  1
  Cu  Cu6  1  0.75262306  0.99939910  0.26225435  1
  Cu  Cu7  1  0.24737694  0.00060090  0.73774565  1
  Cu  Cu8  1  0.00182358  0.25246177  0.74937492  1
  Cu  Cu9  1  0.99817642  0.74753823  0.25062508  1
  Cu  Cu10  1  0.49299807  0.74833025  0.74597624  1
  Cu  Cu11  1  0.50700193  0.25166975  0.25402376  1
  Cu  Cu12  1  0.75382024  0.73770434  0.50573300  1
  Cu  Cu13  1  0.24617976  0.26229566  0.49426700  1
  Cu  Cu14  1  0.74810942  0.49736553  0.75777667  1
  Cu  Cu15  1  0.25189058  0.50263447  0.24222333  1
  H  H16  1  0.47427572  0.76597375  0.47328379  1
  H  H17  1  0.52572428  0.23402625  0.52671621  1
  H  H18  1  0.47693911  0.47831107  0.78917293  1
  H  H19  1  0.52306089  0.52168893  0.21082707  1
  H  H20  1  0.76887191  0.46064627  0.48192854  1
  H  H21  1  0.23112809  0.53935373  0.51807146  1
  H  H22  1  0.52609777  0.73035226  0.01934422  1
  H  H23  1  0.47390223  0.26964774  0.98065578  1
  H  H24  1  0.51595026  0.01781612  0.70024242  1
  H  H25  1  0.48404974  0.98218388  0.29975758  1
  H  H26  1  0.77119778  0.96334665  0.98764488  1
  H  H27  1  0.22880222  0.03665335  0.01235512  1
  H  H28  1  0.98189932  0.79864696  0.98714132  1
  H  H29  1  0.01810068  0.20135304  0.01285868  1
  H  H30  1  0.02994646  0.52704362  0.73802004  1
  H  H31  1  0.97005354  0.47295638  0.26197996  1
  H  H32  1  0.73039550  0.52129568  0.02928729  1
  H  H33  1  0.26960450  0.47870432  0.97071271  1
  H  H34  1  0.73415250  0.01812306  0.53468418  1
  H  H35  1  0.26584750  0.98187694  0.46531582  1
  H  H36  1  0.96695980  0.97497259  0.76068011  1
  H  H37  1  0.03304020  0.02502741  0.23931989  1
  H  H38  1  0.02149811  0.69707930  0.51346468  1
  H  H39  1  0.97850189  0.30292070  0.48653532  1
  Cl  Cl40  1  0.81700739  0.81855248  0.81562718  1
  Cl  Cl41  1  0.18299261  0.18144752  0.18437282  1
  Cl  Cl42  1  0.18423004  0.68314919  0.68474208  1
  Cl  Cl43  1  0.81576996  0.31685081  0.31525792  1
  Cl  Cl44  1  0.68272918  0.68781764  0.17606976  1
  Cl  Cl45  1  0.31727082  0.31218236  0.82393024  1
  Cl  Cl46  1  0.68171770  0.18562598  0.67624912  1
  Cl  Cl47  1  0.31828230  0.81437402  0.32375088  1
  O  O48  1  0.44922339  0.95218142  0.74817310  1
  O  O49  1  0.55077661  0.04781858  0.25182690  1
  O  O50  1  0.94605050  0.73154125  0.44408934  1
  O  O51  1  0.05394950  0.26845875  0.55591066  1
  O  O52  1  0.77706912  0.45258369  0.96435618  1
  O  O53  1  0.22293088  0.54741631  0.03564382  1
  O  O54  1  0.05409438  0.76177278  0.05734355  1
  O  O55  1  0.94590562  0.23822722  0.94265645  1
  O  O56  1  0.72508181  0.03389026  0.05149500  1
  O  O57  1  0.27491819  0.96610974  0.94850500  1
  O  O58  1  0.03786147  0.04277655  0.71737306  1
  O  O59  1  0.96213853  0.95722345  0.28262694  1
  O  O60  1  0.45687493  0.77843451  0.95452354  1
  O  O61  1  0.54312507  0.22156549  0.04547646  1
  O  O62  1  0.77852112  0.94895281  0.46789152  1
  O  O63  1  0.22147888  0.05104719  0.53210848  1
  O  O64  1  0.95972944  0.45952516  0.78171367  1
  O  O65  1  0.04027056  0.54047484  0.21828633  1
  O  O66  1  0.54741514  0.54903308  0.75086148  1
  O  O67  1  0.45258486  0.45096692  0.24913852  1
  O  O68  1  0.54296882  0.72109336  0.54262335  1
  O  O69  1  0.45703118  0.27890664  0.45737665  1
  O  O70  1  0.72332446  0.52888681  0.54802693  1
  O  O71  1  0.27667554  0.47111319  0.45197307  1
