# generated using pymatgen
data_Ca2H2S2O9
_symmetry_space_group_name_H-M   'P 1'
_cell_length_a   7.04789555
_cell_length_b   7.04789555
_cell_length_c   12.83271833
_cell_angle_alpha   90.00000000
_cell_angle_beta   90.00000000
_cell_angle_gamma   120.00000023
_symmetry_Int_Tables_number   1
_chemical_formula_structural   Ca2H2S2O9
_chemical_formula_sum   'Ca6 H6 S6 O27'
_cell_volume   552.03703103
_cell_formula_units_Z   3
loop_
 _symmetry_equiv_pos_site_id
 _symmetry_equiv_pos_as_xyz
  1  'x, y, z'
loop_
 _atom_site_type_symbol
 _atom_site_label
 _atom_site_symmetry_multiplicity
 _atom_site_fract_x
 _atom_site_fract_y
 _atom_site_fract_z
 _atom_site_occupancy
  Ca  Ca0  1  0.81242201  0.14850682  0.32968117  1
  Ca  Ca1  1  0.85149318  0.66391519  0.66301517  1
  Ca  Ca2  1  0.33608481  0.18757799  0.99634817  1
  Ca  Ca3  1  0.34113097  0.22000978  0.49265310  1
  Ca  Ca4  1  0.77999022  0.12112119  0.82598710  1
  Ca  Ca5  1  0.87887881  0.65886903  0.15932010  1
  H  H6  1  0.18962359  0.55415772  0.06455572  1
  H  H7  1  0.44584228  0.63546587  0.39788972  1
  H  H8  1  0.36453413  0.81037641  0.73122272  1
  H  H9  1  0.35648455  0.76185543  0.12369357  1
  H  H10  1  0.23814457  0.59462912  0.45702757  1
  H  H11  1  0.40537088  0.64351545  0.79036057  1
  S  S12  1  0.78526744  0.11100826  0.07820198  1
  S  S13  1  0.88899174  0.67425918  0.41153598  1
  S  S14  1  0.32574082  0.21473256  0.74486898  1
  S  S15  1  0.33584111  0.20507370  0.24220450  1
  S  S16  1  0.79492630  0.13076741  0.57553850  1
  S  S17  1  0.86923259  0.66415889  0.90887150  1
  O  O18  1  0.59791377  0.05499672  0.00618644  1
  O  O19  1  0.94500328  0.54291705  0.33952044  1
  O  O20  1  0.45708295  0.40208623  0.67285344  1
  O  O21  1  0.80926325  0.28086826  0.15452863  1
  O  O22  1  0.71913174  0.52839500  0.48786263  1
  O  O23  1  0.47160500  0.19073675  0.82119563  1
  O  O24  1  0.74272261  0.91599660  0.14089423  1
  O  O25  1  0.08400340  0.82672601  0.47422823  1
  O  O26  1  0.17327399  0.25727739  0.80756123  1
  O  O27  1  0.98550132  0.19511432  0.01152068  1
  O  O28  1  0.80488568  0.79038700  0.34485468  1
  O  O29  1  0.20961300  0.01449868  0.67818768  1
  O  O30  1  0.19005264  0.25225390  0.30734983  1
  O  O31  1  0.74774610  0.93779874  0.64068383  1
  O  O32  1  0.06220126  0.80994736  0.97401683  1
  O  O33  1  0.48143696  0.39531783  0.17550964  1
  O  O34  1  0.60468217  0.08611913  0.50884364  1
  O  O35  1  0.91388087  0.51856304  0.84217664  1
  O  O36  1  0.46411133  0.14808168  0.31604914  1
  O  O37  1  0.85191832  0.31602965  0.64938314  1
  O  O38  1  0.68397035  0.53588867  0.98271614  1
  O  O39  1  0.20473062  0.01908188  0.16953921  1
  O  O40  1  0.98091812  0.18564875  0.50287321  1
  O  O41  1  0.81435125  0.79526938  0.83620621  1
  O  O42  1  0.21247241  0.63112509  0.13042714  1
  O  O43  1  0.36887491  0.58134732  0.46376114  1
  O  O44  1  0.41865268  0.78752759  0.79709414  1
