# generated using pymatgen
data_CdH8C2S2(N2Cl)2
_symmetry_space_group_name_H-M   'P 1'
_cell_length_a   6.13702851
_cell_length_b   7.23919100
_cell_length_c   13.21779289
_cell_angle_alpha   90.00000000
_cell_angle_beta   90.00000000
_cell_angle_gamma   90.00000000
_symmetry_Int_Tables_number   1
_chemical_formula_structural   CdH8C2S2(N2Cl)2
_chemical_formula_sum   'Cd2 H16 C4 S4 N8 Cl4'
_cell_volume   587.22849143
_cell_formula_units_Z   2
loop_
 _symmetry_equiv_pos_site_id
 _symmetry_equiv_pos_as_xyz
  1  'x, y, z'
loop_
 _atom_site_type_symbol
 _atom_site_label
 _atom_site_symmetry_multiplicity
 _atom_site_fract_x
 _atom_site_fract_y
 _atom_site_fract_z
 _atom_site_occupancy
  Cd  Cd0  1  0.27915648  0.49063293  0.50000000  1
  Cd  Cd1  1  0.72084352  0.99063293  -0.00000000  1
  H  H2  1  0.38611609  0.56690341  0.08987759  1
  H  H3  1  0.38611609  0.56690341  0.91012241  1
  H  H4  1  0.61388391  0.06690341  0.41012241  1
  H  H5  1  0.61388391  0.06690341  0.58987759  1
  H  H6  1  0.11124664  0.57505872  0.12628891  1
  H  H7  1  0.11124664  0.57505872  0.87371109  1
  H  H8  1  0.88875336  0.07505872  0.37371109  1
  H  H9  1  0.88875336  0.07505872  0.62628891  1
  H  H10  1  0.65206961  0.55321130  0.20665769  1
  H  H11  1  0.65206961  0.55321130  0.79334231  1
  H  H12  1  0.34793039  0.05321130  0.29334231  1
  H  H13  1  0.34793039  0.05321130  0.70665769  1
  H  H14  1  0.60009966  0.57594693  0.33672802  1
  H  H15  1  0.60009966  0.57594693  0.66327198  1
  H  H16  1  0.39990034  0.07594693  0.16327198  1
  H  H17  1  0.39990034  0.07594693  0.83672802  1
  C  C18  1  0.33065796  0.57550135  0.24286621  1
  C  C19  1  0.33065796  0.57550135  0.75713379  1
  C  C20  1  0.66934204  0.07550135  0.25713379  1
  C  C21  1  0.66934204  0.07550135  0.74286621  1
  S  S22  1  0.12821493  0.60369499  0.33194687  1
  S  S23  1  0.12821493  0.60369499  0.66805313  1
  S  S24  1  0.87178507  0.10369499  0.16805313  1
  S  S25  1  0.87178507  0.10369499  0.83194687  1
  N  N26  1  0.27076877  0.56664857  0.14544394  1
  N  N27  1  0.27076877  0.56664857  0.85455606  1
  N  N28  1  0.72923123  0.06664857  0.35455606  1
  N  N29  1  0.72923123  0.06664857  0.64544394  1
  N  N30  1  0.54238100  0.56482732  0.26409089  1
  N  N31  1  0.54238100  0.56482732  0.73590911  1
  N  N32  1  0.45761900  0.06482732  0.23590911  1
  N  N33  1  0.45761900  0.06482732  0.76409089  1
  Cl  Cl34  1  0.25798536  0.13288625  0.50000000  1
  Cl  Cl35  1  0.74201464  0.63288625  -0.00000000  1
  Cl  Cl36  1  0.68275596  0.57231565  0.50000000  1
  Cl  Cl37  1  0.31724404  0.07231565  -0.00000000  1
