# generated using pymatgen
data_K5Ag(S2O3)3
_symmetry_space_group_name_H-M   'P 1'
_cell_length_a   10.87193132
_cell_length_b   10.94618741
_cell_length_c   14.18695381
_cell_angle_alpha   90.00000000
_cell_angle_beta   93.09259560
_cell_angle_gamma   90.00000000
_symmetry_Int_Tables_number   1
_chemical_formula_structural   K5Ag(S2O3)3
_chemical_formula_sum   'K20 Ag4 S24 O36'
_cell_volume   1685.87662493
_cell_formula_units_Z   4
loop_
 _symmetry_equiv_pos_site_id
 _symmetry_equiv_pos_as_xyz
  1  'x, y, z'
loop_
 _atom_site_type_symbol
 _atom_site_label
 _atom_site_symmetry_multiplicity
 _atom_site_fract_x
 _atom_site_fract_y
 _atom_site_fract_z
 _atom_site_occupancy
  K  K0  1  0.10550335  0.95867879  0.82826922  1
  K  K1  1  0.89449665  0.45867879  0.67173078  1
  K  K2  1  0.89449665  0.04132121  0.17173078  1
  K  K3  1  0.10550335  0.54132121  0.32826922  1
  K  K4  1  0.54405487  0.08598690  0.83763354  1
  K  K5  1  0.45594513  0.58598690  0.66236646  1
  K  K6  1  0.45594513  0.91401310  0.16236646  1
  K  K7  1  0.54405487  0.41401310  0.33763354  1
  K  K8  1  0.60112162  0.25016412  0.59970421  1
  K  K9  1  0.39887838  0.75016412  0.90029579  1
  K  K10  1  0.39887838  0.74983588  0.40029579  1
  K  K11  1  0.60112162  0.24983588  0.09970421  1
  K  K12  1  0.25213118  0.18919215  0.26469993  1
  K  K13  1  0.74786882  0.68919215  0.23530007  1
  K  K14  1  0.74786882  0.81080785  0.73530007  1
  K  K15  1  0.25213118  0.31080785  0.76469993  1
  K  K16  1  0.86497145  0.27039419  0.41905344  1
  K  K17  1  0.13502855  0.77039419  0.08094656  1
  K  K18  1  0.13502855  0.72960581  0.58094656  1
  K  K19  1  0.86497145  0.22960581  0.91905344  1
  Ag  Ag20  1  0.15552570  0.09482800  0.54147716  1
  Ag  Ag21  1  0.84447430  0.59482800  0.95852284  1
  Ag  Ag22  1  0.84447430  0.90517200  0.45852284  1
  Ag  Ag23  1  0.15552570  0.40517200  0.04147716  1
  S  S24  1  0.04264984  0.02641451  0.38169323  1
  S  S25  1  0.95735016  0.52641451  0.11830677  1
  S  S26  1  0.95735016  0.97358549  0.61830677  1
  S  S27  1  0.04264984  0.47358549  0.88169323  1
  S  S28  1  0.12302847  0.33576585  0.54317848  1
  S  S29  1  0.87697153  0.83576585  0.95682152  1
  S  S30  1  0.87697153  0.66423415  0.45682152  1
  S  S31  1  0.12302847  0.16423415  0.04317848  1
  S  S32  1  0.36435676  0.07043684  0.62687593  1
  S  S33  1  0.63564324  0.57043684  0.87312407  1
  S  S34  1  0.63564324  0.92956316  0.37312407  1
  S  S35  1  0.36435676  0.42956316  0.12687593  1
  S  S36  1  0.11952248  0.87875583  0.31677824  1
  S  S37  1  0.88047752  0.37875583  0.18322176  1
  S  S38  1  0.88047752  0.12124417  0.68322176  1
  S  S39  1  0.11952248  0.62124417  0.81677824  1
  S  S40  1  0.28315909  0.40992974  0.49893624  1
  S  S41  1  0.71684091  0.90992974  0.00106376  1
  S  S42  1  0.71684091  0.59007026  0.50106376  1
  S  S43  1  0.28315909  0.09007026  0.99893624  1
  S  S44  1  0.38217620  0.89214642  0.66737265  1
  S  S45  1  0.61782380  0.39214642  0.83262735  1
  S  S46  1  0.61782380  0.10785358  0.33262735  1
  S  S47  1  0.38217620  0.60785358  0.16737265  1
  O  O48  1  0.02596688  0.83518281  0.24418125  1
  O  O49  1  0.97403312  0.33518281  0.25581875  1
  O  O50  1  0.97403312  0.16481719  0.75581875  1
  O  O51  1  0.02596688  0.66481719  0.74418125  1
  O  O52  1  0.23308818  0.92168665  0.27313631  1
  O  O53  1  0.76691182  0.42168665  0.22686369  1
  O  O54  1  0.76691182  0.07831335  0.72686369  1
  O  O55  1  0.23308818  0.57831335  0.77313631  1
  O  O56  1  0.14728041  0.78443729  0.38970871  1
  O  O57  1  0.85271959  0.28443729  0.11029129  1
  O  O58  1  0.85271959  0.21556271  0.61029129  1
  O  O59  1  0.14728041  0.71556271  0.88970871  1
  O  O60  1  0.26861776  0.54562016  0.49958355  1
  O  O61  1  0.73138224  0.04562016  0.00041645  1
  O  O62  1  0.73138224  0.45437984  0.50041645  1
  O  O63  1  0.26861776  0.95437984  0.99958355  1
  O  O64  1  0.30225565  0.36691648  0.40164882  1
  O  O65  1  0.69774435  0.86691648  0.09835118  1
  O  O66  1  0.69774435  0.63308352  0.59835118  1
  O  O67  1  0.30225565  0.13308352  0.90164882  1
  O  O68  1  0.38539674  0.37315387  0.56658532  1
  O  O69  1  0.61460326  0.87315387  0.93341468  1
  O  O70  1  0.61460326  0.62684613  0.43341468  1
  O  O71  1  0.38539674  0.12684613  0.06658532  1
  O  O72  1  0.50135817  0.87887416  0.72348088  1
  O  O73  1  0.49864183  0.37887416  0.77651912  1
  O  O74  1  0.49864183  0.12112584  0.27651912  1
  O  O75  1  0.50135817  0.62112584  0.22348088  1
  O  O76  1  0.37928553  0.81243514  0.58267508  1
  O  O77  1  0.62071447  0.31243514  0.91732492  1
  O  O78  1  0.62071447  0.18756486  0.41732492  1
  O  O79  1  0.37928553  0.68756486  0.08267508  1
  O  O80  1  0.27829584  0.86074593  0.72671815  1
  O  O81  1  0.72170416  0.36074593  0.77328185  1
  O  O82  1  0.72170416  0.13925407  0.27328185  1
  O  O83  1  0.27829584  0.63925407  0.22671815  1
