# generated using pymatgen
data_HoTi2ZnO6
_symmetry_space_group_name_H-M   'P 1'
_cell_length_a   5.27312504
_cell_length_b   5.49526827
_cell_length_c   7.63853305
_cell_angle_alpha   90.02047252
_cell_angle_beta   90.00697543
_cell_angle_gamma   89.97605626
_symmetry_Int_Tables_number   1
_chemical_formula_structural   HoTi2ZnO6
_chemical_formula_sum   'Ho2 Ti4 Zn2 O12'
_cell_volume   221.34354513
_cell_formula_units_Z   2
loop_
 _symmetry_equiv_pos_site_id
 _symmetry_equiv_pos_as_xyz
  1  'x, y, z'
loop_
 _atom_site_type_symbol
 _atom_site_label
 _atom_site_symmetry_multiplicity
 _atom_site_fract_x
 _atom_site_fract_y
 _atom_site_fract_z
 _atom_site_occupancy
  Ho  Ho0  1  0.01702638  0.92681082  0.74981876  1
  Ho  Ho1  1  0.51689334  0.57305070  0.25017328  1
  Ti  Ti2  1  0.00301431  0.48164436  0.00209888  1
  Ti  Ti3  1  0.00300775  0.48164683  0.49785044  1
  Ti  Ti4  1  0.50311272  0.01832422  0.50206186  1
  Ti  Ti5  1  0.50317845  0.01834011  0.99799377  1
  Zn  Zn6  1  0.49593996  0.48325576  0.75006415  1
  Zn  Zn7  1  0.99590828  0.01685564  0.24994054  1
  O  O8  1  0.10760527  0.45093829  0.25002924  1
  O  O9  1  0.18855687  0.19326605  0.93964725  1
  O  O10  1  0.18873603  0.19352443  0.56020107  1
  O  O11  1  0.31179398  0.69169297  0.93925344  1
  O  O12  1  0.31200557  0.69169144  0.56064863  1
  O  O13  1  0.37226556  0.96543309  0.25006097  1
  O  O14  1  0.60767083  0.04886500  0.74999218  1
  O  O15  1  0.68867490  0.30652818  0.43970009  1
  O  O16  1  0.68852580  0.30665221  0.06037103  1
  O  O17  1  0.81184458  0.80836084  0.06066474  1
  O  O18  1  0.81193335  0.80844173  0.43946907  1
  O  O19  1  0.87230209  0.53467633  0.74995861  1
