# generated using pymatgen
data_NdH3CSO7
_symmetry_space_group_name_H-M   'P 1'
_cell_length_a   7.02636635
_cell_length_b   7.02636635
_cell_length_c   11.92934067
_cell_angle_alpha   90.00000000
_cell_angle_beta   90.00000000
_cell_angle_gamma   90.00000000
_symmetry_Int_Tables_number   1
_chemical_formula_structural   NdH3CSO7
_chemical_formula_sum   'Nd4 H12 C4 S4 O28'
_cell_volume   588.94945032
_cell_formula_units_Z   4
loop_
 _symmetry_equiv_pos_site_id
 _symmetry_equiv_pos_as_xyz
  1  'x, y, z'
loop_
 _atom_site_type_symbol
 _atom_site_label
 _atom_site_symmetry_multiplicity
 _atom_site_fract_x
 _atom_site_fract_y
 _atom_site_fract_z
 _atom_site_occupancy
  Nd  Nd0  1  0.11517719  0.37174024  0.24656801  1
  Nd  Nd1  1  0.88482281  0.62825976  0.74656801  1
  Nd  Nd2  1  0.37174024  0.88482281  0.49656801  1
  Nd  Nd3  1  0.62825976  0.11517719  0.99656801  1
  H  H4  1  0.03129440  0.86764428  0.20742878  1
  H  H5  1  0.96870560  0.13235572  0.70742878  1
  H  H6  1  0.86764428  0.96870560  0.45742878  1
  H  H7  1  0.13235572  0.03129440  0.95742878  1
  H  H8  1  0.36803815  0.53982608  0.05616164  1
  H  H9  1  0.63196185  0.46017392  0.55616164  1
  H  H10  1  0.53982608  0.63196185  0.30616164  1
  H  H11  1  0.46017392  0.36803815  0.80616164  1
  H  H12  1  0.15474259  0.59635293  0.02434392  1
  H  H13  1  0.84525741  0.40364707  0.52434392  1
  H  H14  1  0.59635293  0.84525741  0.27434392  1
  H  H15  1  0.40364707  0.15474259  0.77434392  1
  C  C16  1  0.11614702  0.87000168  0.28506137  1
  C  C17  1  0.88385298  0.12999832  0.78506137  1
  C  C18  1  0.87000168  0.88385298  0.53506137  1
  C  C19  1  0.12999832  0.11614702  0.03506137  1
  S  S20  1  0.61233857  0.23122193  0.30367490  1
  S  S21  1  0.38766143  0.76877807  0.80367490  1
  S  S22  1  0.23122193  0.38766143  0.55367490  1
  S  S23  1  0.76877807  0.61233857  0.05367490  1
  O  O24  1  0.16740985  0.03036473  0.32604313  1
  O  O25  1  0.83259015  0.96963527  0.82604313  1
  O  O26  1  0.03036473  0.83259015  0.57604313  1
  O  O27  1  0.96963527  0.16740985  0.07604313  1
  O  O28  1  0.10379942  0.37758794  0.45428098  1
  O  O29  1  0.89620058  0.62241206  0.95428098  1
  O  O30  1  0.37758794  0.89620058  0.70428098  1
  O  O31  1  0.62241206  0.10379942  0.20428098  1
  O  O32  1  0.56770646  0.11675290  0.40386797  1
  O  O33  1  0.43229354  0.88324710  0.90386797  1
  O  O34  1  0.11675290  0.43229354  0.65386797  1
  O  O35  1  0.88324710  0.56770646  0.15386797  1
  O  O36  1  0.79776979  0.32475469  0.32271143  1
  O  O37  1  0.20223021  0.67524531  0.82271143  1
  O  O38  1  0.32475469  0.20223021  0.57271143  1
  O  O39  1  0.67524531  0.79776979  0.07271143  1
  O  O40  1  0.46090599  0.37916165  0.28633548  1
  O  O41  1  0.53909401  0.62083835  0.78633548  1
  O  O42  1  0.37916165  0.53909401  0.53633548  1
  O  O43  1  0.62083835  0.46090599  0.03633548  1
  O  O44  1  0.15747394  0.71396017  0.33221590  1
  O  O45  1  0.84252606  0.28603983  0.83221590  1
  O  O46  1  0.71396017  0.84252606  0.58221590  1
  O  O47  1  0.28603983  0.15747394  0.08221590  1
  O  O48  1  0.24077591  0.56627025  0.08682649  1
  O  O49  1  0.75922409  0.43372975  0.58682649  1
  O  O50  1  0.56627025  0.75922409  0.33682649  1
  O  O51  1  0.43372975  0.24077591  0.83682649  1
