# generated using pymatgen
data_Rb5Nd2N11O34
_symmetry_space_group_name_H-M   'P 1'
_cell_length_a   10.94382679
_cell_length_b   10.94382679
_cell_length_c   14.56616497
_cell_angle_alpha   76.79052006
_cell_angle_beta   76.79052006
_cell_angle_gamma   85.86153053
_symmetry_Int_Tables_number   1
_chemical_formula_structural   Rb5Nd2N11O34
_chemical_formula_sum   'Rb10 Nd4 N22 O68'
_cell_volume   1653.08813007
_cell_formula_units_Z   2
loop_
 _symmetry_equiv_pos_site_id
 _symmetry_equiv_pos_as_xyz
  1  'x, y, z'
loop_
 _atom_site_type_symbol
 _atom_site_label
 _atom_site_symmetry_multiplicity
 _atom_site_fract_x
 _atom_site_fract_y
 _atom_site_fract_z
 _atom_site_occupancy
  Rb  Rb0  1  0.63374359  0.36625641  0.25000000  1
  Rb  Rb1  1  0.36625641  0.63374359  0.75000000  1
  Rb  Rb2  1  0.10442833  0.26571573  0.23402596  1
  Rb  Rb3  1  0.73428427  0.89557167  0.26597404  1
  Rb  Rb4  1  0.89557167  0.73428427  0.76597404  1
  Rb  Rb5  1  0.26571573  0.10442833  0.73402596  1
  Rb  Rb6  1  0.21245225  0.44241746  0.47157029  1
  Rb  Rb7  1  0.55758254  0.78754775  0.02842971  1
  Rb  Rb8  1  0.78754775  0.55758254  0.52842971  1
  Rb  Rb9  1  0.44241746  0.21245225  0.97157029  1
  Nd  Nd10  1  0.29294363  0.88905536  0.38159036  1
  Nd  Nd11  1  0.11094464  0.70705637  0.11840964  1
  Nd  Nd12  1  0.70705637  0.11094464  0.61840964  1
  Nd  Nd13  1  0.88905536  0.29294363  0.88159036  1
  N  N14  1  0.88704632  0.57200408  0.26697802  1
  N  N15  1  0.42799592  0.11295368  0.23302198  1
  N  N16  1  0.11295368  0.42799592  0.73302198  1
  N  N17  1  0.57200408  0.88704632  0.76697802  1
  N  N18  1  0.92410453  0.26416608  0.47512152  1
  N  N19  1  0.73583392  0.07589547  0.02487848  1
  N  N20  1  0.07589547  0.73583392  0.52487848  1
  N  N21  1  0.26416608  0.92410453  0.97512152  1
  N  N22  1  0.09831547  0.90168453  0.25000000  1
  N  N23  1  0.90168453  0.09831547  0.75000000  1
  N  N24  1  0.74907065  0.46690197  0.00864695  1
  N  N25  1  0.53309803  0.25092935  0.49135305  1
  N  N26  1  0.25092935  0.53309803  0.99135305  1
  N  N27  1  0.46690197  0.74907065  0.50864695  1
  N  N28  1  0.77244053  0.90813675  0.50342278  1
  N  N29  1  0.09186325  0.22755947  0.99657722  1
  N  N30  1  0.22755947  0.09186325  0.49657722  1
  N  N31  1  0.90813675  0.77244053  0.00342278  1
  N  N32  1  0.29243923  0.52704074  0.22040637  1
  N  N33  1  0.47295926  0.70756077  0.27959363  1
  N  N34  1  0.70756077  0.47295926  0.77959363  1
  N  N35  1  0.52704074  0.29243923  0.72040637  1
  O  O36  1  0.93383968  0.66976579  0.27932111  1
  O  O37  1  0.33023421  0.06616032  0.22067889  1
  O  O38  1  0.06616032  0.33023421  0.72067889  1
  O  O39  1  0.66976579  0.93383968  0.77932111  1
  O  O40  1  0.93934179  0.53068126  0.19179439  1
  O  O41  1  0.46931874  0.06065821  0.30820561  1
  O  O42  1  0.06065821  0.46931874  0.80820561  1
  O  O43  1  0.53068126  0.93934179  0.69179439  1
  O  O44  1  0.79422439  0.52024061  0.32587941  1
  O  O45  1  0.47975939  0.20577561  0.17412059  1
  O  O46  1  0.20577561  0.47975939  0.67412059  1
  O  O47  1  0.52024061  0.79422439  0.82587941  1
  O  O48  1  0.13430238  0.71010864  0.44416184  1
  O  O49  1  0.28989136  0.86569762  0.05583816  1
  O  O50  1  0.86569762  0.28989136  0.55583816  1
  O  O51  1  0.71010864  0.13430238  0.94416184  1
  O  O52  1  0.90384044  0.15903240  0.45967782  1
  O  O53  1  0.84096760  0.09615956  0.04032218  1
  O  O54  1  0.09615956  0.84096760  0.54032218  1
  O  O55  1  0.15903240  0.90384044  0.95967782  1
  O  O56  1  0.99638136  0.34245230  0.41507097  1
  O  O57  1  0.65754770  0.00361864  0.08492903  1
  O  O58  1  0.00361864  0.65754770  0.58492903  1
  O  O59  1  0.34245230  0.99638136  0.91507097  1
  O  O60  1  0.08737284  0.97211876  0.30902564  1
  O  O61  1  0.02788124  0.91262716  0.19097436  1
  O  O62  1  0.91262716  0.02788124  0.69097436  1
  O  O63  1  0.97211876  0.08737284  0.80902564  1
  O  O64  1  0.18424462  0.81575538  0.25000000  1
  O  O65  1  0.81575538  0.18424462  0.75000000  1
  O  O66  1  0.50638551  0.82543425  0.42805789  1
  O  O67  1  0.17456575  0.49361449  0.07194211  1
  O  O68  1  0.49361449  0.17456575  0.57194211  1
  O  O69  1  0.82543425  0.50638551  0.92805789  1
  O  O70  1  0.65176232  0.26387146  0.46308195  1
  O  O71  1  0.73612854  0.34823768  0.03691805  1
  O  O72  1  0.34823768  0.73612854  0.53691805  1
  O  O73  1  0.26387146  0.65176232  0.96308195  1
  O  O74  1  0.69002694  0.54061232  0.05758521  1
  O  O75  1  0.45938768  0.30997306  0.44241479  1
  O  O76  1  0.30997306  0.45938768  0.94241479  1
  O  O77  1  0.54061232  0.69002694  0.55758521  1
  O  O78  1  0.99829623  0.29620366  0.02531070  1
  O  O79  1  0.70379634  0.00170377  0.47468930  1
  O  O80  1  0.00170377  0.70379634  0.97468930  1
  O  O81  1  0.29620366  0.99829623  0.52531070  1
  O  O82  1  0.20436833  0.10342553  0.41237576  1
  O  O83  1  0.89657447  0.79563167  0.08762424  1
  O  O84  1  0.79563167  0.89657447  0.58762424  1
  O  O85  1  0.10342553  0.20436833  0.91237576  1
  O  O86  1  0.81629041  0.83181607  0.45214488  1
  O  O87  1  0.16818393  0.18370959  0.04785512  1
  O  O88  1  0.18370959  0.16818393  0.54785512  1
  O  O89  1  0.83181607  0.81629041  0.95214488  1
  O  O90  1  0.38614167  0.66288496  0.35181045  1
  O  O91  1  0.33711504  0.61385833  0.14818955  1
  O  O92  1  0.61385833  0.33711504  0.64818955  1
  O  O93  1  0.66288496  0.38614167  0.85181045  1
  O  O94  1  0.46579317  0.82607049  0.24313708  1
  O  O95  1  0.17392951  0.53420683  0.25686292  1
  O  O96  1  0.53420683  0.17392951  0.75686292  1
  O  O97  1  0.82607049  0.46579317  0.74313708  1
  O  O98  1  0.35761345  0.43789757  0.25449454  1
  O  O99  1  0.56210243  0.64238655  0.24550546  1
  O  O100  1  0.64238655  0.56210243  0.74550546  1
  O  O101  1  0.43789757  0.35761345  0.75449454  1
  O  O102  1  0.84393814  0.15606186  0.25000000  1
  O  O103  1  0.15606186  0.84393814  0.75000000  1
