# generated using pymatgen
data_Ho2Mn3Co14
_symmetry_space_group_name_H-M   'P 1'
_cell_length_a   8.30622050
_cell_length_b   8.30622050
_cell_length_c   8.17347043
_cell_angle_alpha   90.00000000
_cell_angle_beta   90.00000000
_cell_angle_gamma   120.02888317
_symmetry_Int_Tables_number   1
_chemical_formula_structural   Ho2Mn3Co14
_chemical_formula_sum   'Ho4 Mn6 Co28'
_cell_volume   488.22224806
_cell_formula_units_Z   2
loop_
 _symmetry_equiv_pos_site_id
 _symmetry_equiv_pos_as_xyz
  1  'x, y, z'
loop_
 _atom_site_type_symbol
 _atom_site_label
 _atom_site_symmetry_multiplicity
 _atom_site_fract_x
 _atom_site_fract_y
 _atom_site_fract_z
 _atom_site_occupancy
  Ho  Ho0  1  0.99998435  0.00001565  0.75000000  1
  Ho  Ho1  1  0.00001565  0.99998435  0.25000000  1
  Ho  Ho2  1  0.66665140  0.33334860  0.25000000  1
  Ho  Ho3  1  0.33334860  0.66665140  0.75000000  1
  Mn  Mn4  1  0.50000000  -0.00000000  0.50000000  1
  Mn  Mn5  1  0.50000000  0.50000000  0.50000000  1
  Mn  Mn6  1  0.00000000  0.50000000  0.50000000  1
  Mn  Mn7  1  0.50000000  -0.00000000  0.00000000  1
  Mn  Mn8  1  0.50000000  0.50000000  0.00000000  1
  Mn  Mn9  1  0.00000000  0.50000000  0.00000000  1
  Co  Co10  1  0.66668660  0.33331340  0.60950585  1
  Co  Co11  1  0.33331340  0.66668660  0.39049415  1
  Co  Co12  1  0.33331340  0.66668660  0.10950585  1
  Co  Co13  1  0.66668660  0.33331340  0.89049415  1
  Co  Co14  1  0.67177643  0.04317752  0.75000000  1
  Co  Co15  1  0.37155069  0.32827701  0.75000000  1
  Co  Co16  1  0.95680428  0.62863605  0.75000000  1
  Co  Co17  1  0.37136395  0.04319572  0.75000000  1
  Co  Co18  1  0.95682248  0.32822357  0.75000000  1
  Co  Co19  1  0.67172299  0.62844931  0.75000000  1
  Co  Co20  1  0.32822357  0.95682248  0.25000000  1
  Co  Co21  1  0.62844931  0.67172299  0.25000000  1
  Co  Co22  1  0.04319572  0.37136395  0.25000000  1
  Co  Co23  1  0.62863605  0.95680428  0.25000000  1
  Co  Co24  1  0.04317752  0.67177643  0.25000000  1
  Co  Co25  1  0.32827701  0.37155069  0.25000000  1
  Co  Co26  1  0.83681863  0.67360996  0.48706947  1
  Co  Co27  1  0.83683546  0.16316454  0.48716107  1
  Co  Co28  1  0.32639004  0.16318137  0.48706947  1
  Co  Co29  1  0.16318137  0.32639004  0.51293053  1
  Co  Co30  1  0.16316454  0.83683546  0.51283893  1
  Co  Co31  1  0.67360996  0.83681863  0.51293053  1
  Co  Co32  1  0.16318137  0.32639004  0.98706947  1
  Co  Co33  1  0.16316454  0.83683546  0.98716107  1
  Co  Co34  1  0.67360996  0.83681863  0.98706947  1
  Co  Co35  1  0.83681863  0.67360996  0.01293053  1
  Co  Co36  1  0.83683546  0.16316454  0.01283893  1
  Co  Co37  1  0.32639004  0.16318137  0.01293053  1
