# generated using pymatgen
data_La4Fe(SbS5)2
_symmetry_space_group_name_H-M   'P 1'
_cell_length_a   7.62941232
_cell_length_b   13.25925566
_cell_length_c   15.10702493
_cell_angle_alpha   90.00000000
_cell_angle_beta   90.00000000
_cell_angle_gamma   90.00000000
_symmetry_Int_Tables_number   1
_chemical_formula_structural   La4Fe(SbS5)2
_chemical_formula_sum   'La16 Fe4 Sb8 S40'
_cell_volume   1528.23160437
_cell_formula_units_Z   4
loop_
 _symmetry_equiv_pos_site_id
 _symmetry_equiv_pos_as_xyz
  1  'x, y, z'
loop_
 _atom_site_type_symbol
 _atom_site_label
 _atom_site_symmetry_multiplicity
 _atom_site_fract_x
 _atom_site_fract_y
 _atom_site_fract_z
 _atom_site_occupancy
  La  La0  1  0.12268364  0.75000000  0.06237845  1
  La  La1  1  0.87731636  0.25000000  0.93762155  1
  La  La2  1  0.37731636  0.25000000  0.06237845  1
  La  La3  1  0.62268364  0.75000000  0.93762155  1
  La  La4  1  0.88040017  0.75000000  0.30969021  1
  La  La5  1  0.11959983  0.25000000  0.69030979  1
  La  La6  1  0.61959983  0.25000000  0.30969021  1
  La  La7  1  0.38040017  0.75000000  0.69030979  1
  La  La8  1  0.25000000  0.50000000  0.37701940  1
  La  La9  1  0.75000000  -0.00000000  0.62298060  1
  La  La10  1  0.75000000  0.50000000  0.62298060  1
  La  La11  1  0.25000000  -0.00000000  0.37701940  1
  La  La12  1  0.25000000  0.50000000  0.87392979  1
  La  La13  1  0.75000000  -0.00000000  0.12607021  1
  La  La14  1  0.75000000  0.50000000  0.12607021  1
  La  La15  1  0.25000000  -0.00000000  0.87392979  1
  Fe  Fe16  1  0.25000000  0.50000000  0.12418658  1
  Fe  Fe17  1  0.75000000  -0.00000000  0.87581342  1
  Fe  Fe18  1  0.75000000  0.50000000  0.87581342  1
  Fe  Fe19  1  0.25000000  -0.00000000  0.12418658  1
  Sb  Sb20  1  0.44893389  0.75000000  0.21535841  1
  Sb  Sb21  1  0.55106611  0.25000000  0.78464159  1
  Sb  Sb22  1  0.05106611  0.25000000  0.21535841  1
  Sb  Sb23  1  0.94893389  0.75000000  0.78464159  1
  Sb  Sb24  1  0.04881168  0.75000000  0.53628551  1
  Sb  Sb25  1  0.95118832  0.25000000  0.46371449  1
  Sb  Sb26  1  0.45118832  0.25000000  0.53628551  1
  Sb  Sb27  1  0.54881168  0.75000000  0.46371449  1
  S  S28  1  0.42123199  0.60367513  0.54427613  1
  S  S29  1  0.57876801  0.10367513  0.45572387  1
  S  S30  1  0.07876801  0.39632487  0.54427613  1
  S  S31  1  0.92123199  0.89632487  0.45572387  1
  S  S32  1  0.57876801  0.39632487  0.45572387  1
  S  S33  1  0.42123199  0.89632487  0.54427613  1
  S  S34  1  0.92123199  0.60367513  0.45572387  1
  S  S35  1  0.07876801  0.10367513  0.54427613  1
  S  S36  1  0.25960437  0.75000000  0.37479086  1
  S  S37  1  0.74039563  0.25000000  0.62520914  1
  S  S38  1  0.24039563  0.25000000  0.37479086  1
  S  S39  1  0.75960437  0.75000000  0.62520914  1
  S  S40  1  0.41145322  0.60392228  0.03725736  1
  S  S41  1  0.58854678  0.10392228  0.96274264  1
  S  S42  1  0.08854678  0.39607772  0.03725736  1
  S  S43  1  0.91145322  0.89607772  0.96274264  1
  S  S44  1  0.58854678  0.39607772  0.96274264  1
  S  S45  1  0.41145322  0.89607772  0.03725736  1
  S  S46  1  0.91145322  0.60392228  0.96274264  1
  S  S47  1  0.08854678  0.10392228  0.03725736  1
  S  S48  1  0.08588899  0.60412343  0.70743004  1
  S  S49  1  0.91411101  0.10412343  0.29256996  1
  S  S50  1  0.41411101  0.39587657  0.70743004  1
  S  S51  1  0.58588899  0.89587657  0.29256996  1
  S  S52  1  0.91411101  0.39587657  0.29256996  1
  S  S53  1  0.08588899  0.89587657  0.70743004  1
  S  S54  1  0.58588899  0.60412343  0.29256996  1
  S  S55  1  0.41411101  0.10412343  0.70743004  1
  S  S56  1  0.07881630  0.60134777  0.20863657  1
  S  S57  1  0.92118370  0.10134777  0.79136343  1
  S  S58  1  0.42118370  0.39865223  0.20863657  1
  S  S59  1  0.57881630  0.89865223  0.79136343  1
  S  S60  1  0.92118370  0.39865223  0.79136343  1
  S  S61  1  0.07881630  0.89865223  0.20863657  1
  S  S62  1  0.57881630  0.60134777  0.79136343  1
  S  S63  1  0.42118370  0.10134777  0.20863657  1
  S  S64  1  0.74055981  0.75000000  0.12652508  1
  S  S65  1  0.25944019  0.25000000  0.87347492  1
  S  S66  1  0.75944019  0.25000000  0.12652508  1
  S  S67  1  0.24055981  0.75000000  0.87347492  1
