# generated using pymatgen
data_InRhO3
_symmetry_space_group_name_H-M   'P 1'
_cell_length_a   7.70857246
_cell_length_b   7.70857852
_cell_length_c   7.73516702
_cell_angle_alpha   91.34335914
_cell_angle_beta   90.00000000
_cell_angle_gamma   90.00000000
_symmetry_Int_Tables_number   1
_chemical_formula_structural   InRhO3
_chemical_formula_sum   'In8 Rh8 O24'
_cell_volume   459.51381708
_cell_formula_units_Z   8
loop_
 _symmetry_equiv_pos_site_id
 _symmetry_equiv_pos_as_xyz
  1  'x, y, z'
loop_
 _atom_site_type_symbol
 _atom_site_label
 _atom_site_symmetry_multiplicity
 _atom_site_fract_x
 _atom_site_fract_y
 _atom_site_fract_z
 _atom_site_occupancy
  In  In0  1  0.25520585  0.71970059  0.26931995  1
  In  In1  1  0.24479415  0.21970059  0.76931995  1
  In  In2  1  0.74479415  0.28029941  0.73068005  1
  In  In3  1  0.75520585  0.78029941  0.23068005  1
  In  In4  1  0.26583743  0.72951385  0.77601027  1
  In  In5  1  0.23416257  0.22951385  0.27601027  1
  In  In6  1  0.73416257  0.27048615  0.22398973  1
  In  In7  1  0.76583743  0.77048615  0.72398973  1
  Rh  Rh8  1  0.50000000  0.50000000  0.50000000  1
  Rh  Rh9  1  0.00000000  -0.00000000  -0.00000000  1
  Rh  Rh10  1  0.50000000  0.50000000  -0.00000000  1
  Rh  Rh11  1  -0.00000000  -0.00000000  0.50000000  1
  Rh  Rh12  1  0.50000000  -0.00000000  -0.00000000  1
  Rh  Rh13  1  0.00000000  0.50000000  0.50000000  1
  Rh  Rh14  1  0.50000000  -0.00000000  0.50000000  1
  Rh  Rh15  1  0.00000000  0.50000000  -0.00000000  1
  O  O16  1  0.02679728  0.75643424  0.10240076  1
  O  O17  1  0.47320272  0.25643424  0.60240076  1
  O  O18  1  0.97320272  0.24356576  0.89759924  1
  O  O19  1  0.52679728  0.74356576  0.39759924  1
  O  O20  1  0.96041155  0.10235539  0.24865987  1
  O  O21  1  0.53958845  0.60235539  0.74865987  1
  O  O22  1  0.03958845  0.89764461  0.75134013  1
  O  O23  1  0.46041155  0.39764461  0.25134013  1
  O  O24  1  0.24746403  0.59958512  0.52741946  1
  O  O25  1  0.25253597  0.09958512  0.02741946  1
  O  O26  1  0.75253597  0.40041488  0.47258054  1
  O  O27  1  0.74746403  0.90041488  0.97258054  1
  O  O28  1  0.90391237  0.52901818  0.75170045  1
  O  O29  1  0.59608763  0.02901818  0.25170045  1
  O  O30  1  0.09608763  0.47098182  0.24829955  1
  O  O31  1  0.40391237  0.97098182  0.74829955  1
  O  O32  1  0.25069721  0.97314547  0.39831279  1
  O  O33  1  0.24930279  0.47314547  0.89831279  1
  O  O34  1  0.74930279  0.02685453  0.60168721  1
  O  O35  1  0.75069721  0.52685453  0.10168721  1
  O  O36  1  0.09773294  0.25237080  0.53428102  1
  O  O37  1  0.40226706  0.75237080  0.03428102  1
  O  O38  1  0.90226706  0.74762920  0.46571898  1
  O  O39  1  0.59773294  0.24762920  0.96571898  1
