# generated using pymatgen
data_AgH4CSN2Cl
_symmetry_space_group_name_H-M   'P 1'
_cell_length_a   7.50474628
_cell_length_b   8.60325664
_cell_length_c   16.94059386
_cell_angle_alpha   90.00000000
_cell_angle_beta   90.00000000
_cell_angle_gamma   90.00000000
_symmetry_Int_Tables_number   1
_chemical_formula_structural   AgH4CSN2Cl
_chemical_formula_sum   'Ag8 H32 C8 S8 N16 Cl8'
_cell_volume   1093.77381773
_cell_formula_units_Z   8
loop_
 _symmetry_equiv_pos_site_id
 _symmetry_equiv_pos_as_xyz
  1  'x, y, z'
loop_
 _atom_site_type_symbol
 _atom_site_label
 _atom_site_symmetry_multiplicity
 _atom_site_fract_x
 _atom_site_fract_y
 _atom_site_fract_z
 _atom_site_occupancy
  Ag  Ag0  1  0.33997025  0.33003863  0.79272979  1
  Ag  Ag1  1  0.16002975  0.83003863  0.20727021  1
  Ag  Ag2  1  0.83997025  0.66996137  0.70727021  1
  Ag  Ag3  1  0.66002975  0.16996137  0.29272979  1
  Ag  Ag4  1  0.66002975  0.66996137  0.20727021  1
  Ag  Ag5  1  0.83997025  0.16996137  0.79272979  1
  Ag  Ag6  1  0.16002975  0.33003863  0.29272979  1
  Ag  Ag7  1  0.33997025  0.83003863  0.70727021  1
  H  H8  1  0.60916186  0.14801798  0.54654817  1
  H  H9  1  0.89083814  0.64801798  0.45345183  1
  H  H10  1  0.10916186  0.85198202  0.95345183  1
  H  H11  1  0.39083814  0.35198202  0.04654817  1
  H  H12  1  0.39083814  0.85198202  0.45345183  1
  H  H13  1  0.10916186  0.35198202  0.54654817  1
  H  H14  1  0.89083814  0.14801798  0.04654817  1
  H  H15  1  0.60916186  0.64801798  0.95345183  1
  H  H16  1  0.64682951  0.09866543  0.64528329  1
  H  H17  1  0.85317049  0.59866543  0.35471671  1
  H  H18  1  0.14682951  0.90133457  0.85471671  1
  H  H19  1  0.35317049  0.40133457  0.14528329  1
  H  H20  1  0.35317049  0.90133457  0.35471671  1
  H  H21  1  0.14682951  0.40133457  0.64528329  1
  H  H22  1  0.85317049  0.09866543  0.14528329  1
  H  H23  1  0.64682951  0.59866543  0.85471671  1
  H  H24  1  0.63322807  0.39397956  0.50494073  1
  H  H25  1  0.86677193  0.89397956  0.49505927  1
  H  H26  1  0.13322807  0.60602044  0.99505927  1
  H  H27  1  0.36677193  0.10602044  0.00494073  1
  H  H28  1  0.36677193  0.60602044  0.49505927  1
  H  H29  1  0.13322807  0.10602044  0.50494073  1
  H  H30  1  0.86677193  0.39397956  0.00494073  1
  H  H31  1  0.63322807  0.89397956  0.99505927  1
  H  H32  1  0.66013882  0.54926612  0.57280624  1
  H  H33  1  0.83986118  0.04926612  0.42719376  1
  H  H34  1  0.16013882  0.45073388  0.92719376  1
  H  H35  1  0.33986118  0.95073388  0.07280624  1
  H  H36  1  0.33986118  0.45073388  0.42719376  1
  H  H37  1  0.16013882  0.95073388  0.57280624  1
  H  H38  1  0.83986118  0.54926612  0.07280624  1
  H  H39  1  0.66013882  0.04926612  0.92719376  1
  C  C40  1  0.66833297  0.32981932  0.61929079  1
  C  C41  1  0.83166703  0.82981932  0.38070921  1
  C  C42  1  0.16833297  0.67018068  0.88070921  1
  C  C43  1  0.33166703  0.17018068  0.11929079  1
  C  C44  1  0.33166703  0.67018068  0.38070921  1
  C  C45  1  0.16833297  0.17018068  0.61929079  1
  C  C46  1  0.83166703  0.32981932  0.11929079  1
  C  C47  1  0.66833297  0.82981932  0.88070921  1
  S  S48  1  0.70415368  0.39078692  0.71574813  1
  S  S49  1  0.79584632  0.89078692  0.28425187  1
  S  S50  1  0.20415368  0.60921308  0.78425187  1
  S  S51  1  0.29584632  0.10921308  0.21574813  1
  S  S52  1  0.29584632  0.60921308  0.28425187  1
  S  S53  1  0.20415368  0.10921308  0.71574813  1
  S  S54  1  0.79584632  0.39078692  0.21574813  1
  S  S55  1  0.70415368  0.89078692  0.78425187  1
  N  N56  1  0.65273831  0.17935569  0.60165583  1
  N  N57  1  0.84726169  0.67935569  0.39834417  1
  N  N58  1  0.15273831  0.82064431  0.89834417  1
  N  N59  1  0.34726169  0.32064431  0.10165583  1
  N  N60  1  0.34726169  0.82064431  0.39834417  1
  N  N61  1  0.15273831  0.32064431  0.60165583  1
  N  N62  1  0.84726169  0.17935569  0.10165583  1
  N  N63  1  0.65273831  0.67935569  0.89834417  1
  N  N64  1  0.65399289  0.43274130  0.56126663  1
  N  N65  1  0.84600711  0.93274130  0.43873337  1
  N  N66  1  0.15399289  0.56725870  0.93873337  1
  N  N67  1  0.34600711  0.06725870  0.06126663  1
  N  N68  1  0.34600711  0.56725870  0.43873337  1
  N  N69  1  0.15399289  0.06725870  0.56126663  1
  N  N70  1  0.84600711  0.43274130  0.06126663  1
  N  N71  1  0.65399289  0.93274130  0.93873337  1
  Cl  Cl72  1  0.52683527  0.30127493  0.91837584  1
  Cl  Cl73  1  0.97316473  0.80127493  0.08162416  1
  Cl  Cl74  1  0.02683527  0.69872507  0.58162416  1
  Cl  Cl75  1  0.47316473  0.19872507  0.41837584  1
  Cl  Cl76  1  0.47316473  0.69872507  0.08162416  1
  Cl  Cl77  1  0.02683527  0.19872507  0.91837584  1
  Cl  Cl78  1  0.97316473  0.30127493  0.41837584  1
  Cl  Cl79  1  0.52683527  0.80127493  0.58162416  1
