# generated using pymatgen
data_K3H3PtS2Br2O7
_symmetry_space_group_name_H-M   'P 1'
_cell_length_a   7.13983263
_cell_length_b   8.86606195
_cell_length_c   21.99215896
_cell_angle_alpha   99.61212497
_cell_angle_beta   90.00000000
_cell_angle_gamma   90.00000000
_symmetry_Int_Tables_number   1
_chemical_formula_structural   K3H3PtS2Br2O7
_chemical_formula_sum   'K12 H12 Pt4 S8 Br8 O28'
_cell_volume   1372.60720242
_cell_formula_units_Z   4
loop_
 _symmetry_equiv_pos_site_id
 _symmetry_equiv_pos_as_xyz
  1  'x, y, z'
loop_
 _atom_site_type_symbol
 _atom_site_label
 _atom_site_symmetry_multiplicity
 _atom_site_fract_x
 _atom_site_fract_y
 _atom_site_fract_z
 _atom_site_occupancy
  K  K0  1  0.09453421  0.64535906  0.26153324  1
  K  K1  1  0.59453421  0.35464094  0.23846676  1
  K  K2  1  0.90546579  0.35464094  0.73846676  1
  K  K3  1  0.40546579  0.64535906  0.76153324  1
  K  K4  1  0.13139036  0.72878677  0.48994126  1
  K  K5  1  0.63139036  0.27121323  0.01005874  1
  K  K6  1  0.86860964  0.27121323  0.51005874  1
  K  K7  1  0.36860964  0.72878677  0.98994126  1
  K  K8  1  0.60349024  0.88616730  0.37004215  1
  K  K9  1  0.10349024  0.11383270  0.12995785  1
  K  K10  1  0.39650976  0.11383270  0.62995785  1
  K  K11  1  0.89650976  0.88616730  0.87004215  1
  H  H12  1  0.03356368  0.96523844  0.71869829  1
  H  H13  1  0.53356368  0.03476156  0.78130171  1
  H  H14  1  0.96643632  0.03476156  0.28130171  1
  H  H15  1  0.46643632  0.96523844  0.21869829  1
  H  H16  1  0.74980339  0.55680389  0.43568611  1
  H  H17  1  0.24980339  0.44319611  0.06431389  1
  H  H18  1  0.25019661  0.44319611  0.56431389  1
  H  H19  1  0.75019661  0.55680389  0.93568611  1
  H  H20  1  0.89341489  0.46510026  0.39029263  1
  H  H21  1  0.39341489  0.53489974  0.10970737  1
  H  H22  1  0.10658511  0.53489974  0.60970737  1
  H  H23  1  0.60658511  0.46510026  0.89029263  1
  Pt  Pt24  1  0.77324570  0.78266685  0.62773168  1
  Pt  Pt25  1  0.27324570  0.21733315  0.87226832  1
  Pt  Pt26  1  0.22675430  0.21733315  0.37226832  1
  Pt  Pt27  1  0.72675430  0.78266685  0.12773168  1
  S  S28  1  0.92670141  0.72533887  0.71100596  1
  S  S29  1  0.42670141  0.27466113  0.78899404  1
  S  S30  1  0.07329859  0.27466113  0.28899404  1
  S  S31  1  0.57329859  0.72533887  0.21100596  1
  S  S32  1  0.91692035  0.01143927  0.62462026  1
  S  S33  1  0.41692035  0.98856073  0.87537974  1
  S  S34  1  0.08307965  0.98856073  0.37537974  1
  S  S35  1  0.58307965  0.01143927  0.12462026  1
  Br  Br36  1  0.61342596  0.52466238  0.62137408  1
  Br  Br37  1  0.11342596  0.47533762  0.87862592  1
  Br  Br38  1  0.38657404  0.47533762  0.37862592  1
  Br  Br39  1  0.88657404  0.52466238  0.12137408  1
  Br  Br40  1  0.59974798  0.81844468  0.53149361  1
  Br  Br41  1  0.09974798  0.18155532  0.96850639  1
  Br  Br42  1  0.40025202  0.18155532  0.46850639  1
  Br  Br43  1  0.90025202  0.81844468  0.03149361  1
  O  O44  1  0.78144172  0.13580178  0.61920994  1
  O  O45  1  0.28144172  0.86419822  0.88079006  1
  O  O46  1  0.21855828  0.86419822  0.38079006  1
  O  O47  1  0.71855828  0.13580178  0.11920994  1
  O  O48  1  0.02983732  0.86810968  0.74761555  1
  O  O49  1  0.52983732  0.13189032  0.75238445  1
  O  O50  1  0.97016268  0.13189032  0.25238445  1
  O  O51  1  0.47016268  0.86810968  0.24761555  1
  O  O52  1  0.80370954  0.67146104  0.75718295  1
  O  O53  1  0.30370954  0.32853896  0.74281705  1
  O  O54  1  0.19629046  0.32853896  0.24281705  1
  O  O55  1  0.69629046  0.67146104  0.25718295  1
  O  O56  1  0.07500883  0.60954929  0.69023741  1
  O  O57  1  0.57500883  0.39045071  0.80976259  1
  O  O58  1  0.92499117  0.39045071  0.30976259  1
  O  O59  1  0.42499117  0.60954929  0.19023741  1
  O  O60  1  0.02809512  0.06574095  0.68505108  1
  O  O61  1  0.52809512  0.93425905  0.81494892  1
  O  O62  1  0.97190488  0.93425905  0.31494892  1
  O  O63  1  0.47190488  0.06574095  0.18505108  1
  O  O64  1  0.05608510  0.99414588  0.57386506  1
  O  O65  1  0.55608510  0.00585412  0.92613494  1
  O  O66  1  0.94391490  0.00585412  0.42613494  1
  O  O67  1  0.44391490  0.99414588  0.07386506  1
  O  O68  1  0.87663672  0.51591360  0.43370896  1
  O  O69  1  0.37663672  0.48408640  0.06629104  1
  O  O70  1  0.12336328  0.48408640  0.56629104  1
  O  O71  1  0.62336328  0.51591360  0.93370896  1
