# generated using pymatgen
data_MnSe3O8
_symmetry_space_group_name_H-M   'P 1'
_cell_length_a   7.60279338
_cell_length_b   7.20357555
_cell_length_c   13.01829299
_cell_angle_alpha   90.00000000
_cell_angle_beta   90.00000000
_cell_angle_gamma   92.41764412
_symmetry_Int_Tables_number   1
_chemical_formula_structural   MnSe3O8
_chemical_formula_sum   'Mn4 Se12 O32'
_cell_volume   712.34208278
_cell_formula_units_Z   4
loop_
 _symmetry_equiv_pos_site_id
 _symmetry_equiv_pos_as_xyz
  1  'x, y, z'
loop_
 _atom_site_type_symbol
 _atom_site_label
 _atom_site_symmetry_multiplicity
 _atom_site_fract_x
 _atom_site_fract_y
 _atom_site_fract_z
 _atom_site_occupancy
  Mn  Mn0  1  0.93862691  0.81238514  0.82772955  1
  Mn  Mn1  1  0.43862691  0.31238514  0.67227045  1
  Mn  Mn2  1  0.06137309  0.18761486  0.17227045  1
  Mn  Mn3  1  0.56137309  0.68761486  0.32772955  1
  Se  Se4  1  0.55507874  0.88740817  0.69530676  1
  Se  Se5  1  0.05507874  0.38740817  0.80469324  1
  Se  Se6  1  0.44492126  0.11259183  0.30469324  1
  Se  Se7  1  0.94492126  0.61259183  0.19530676  1
  Se  Se8  1  0.56556724  0.56142165  0.86312046  1
  Se  Se9  1  0.06556724  0.06142165  0.63687954  1
  Se  Se10  1  0.43443276  0.43857835  0.13687954  1
  Se  Se11  1  0.93443276  0.93857835  0.36312046  1
  Se  Se12  1  0.24496488  0.92790533  0.99183214  1
  Se  Se13  1  0.74496488  0.42790533  0.50816786  1
  Se  Se14  1  0.75503512  0.07209467  0.00816786  1
  Se  Se15  1  0.25503512  0.57209467  0.49183214  1
  O  O16  1  0.01798774  0.59654432  0.75012683  1
  O  O17  1  0.51798774  0.09654432  0.74987317  1
  O  O18  1  0.98201226  0.40345568  0.24987317  1
  O  O19  1  0.48201226  0.90345568  0.25012683  1
  O  O20  1  0.77612209  0.85323624  0.70958006  1
  O  O21  1  0.27612209  0.35323624  0.79041994  1
  O  O22  1  0.22387791  0.14676376  0.29041994  1
  O  O23  1  0.72387791  0.64676376  0.20958006  1
  O  O24  1  0.76605604  0.65616382  0.90319201  1
  O  O25  1  0.26605604  0.15616382  0.59680799  1
  O  O26  1  0.23394396  0.34383618  0.09680799  1
  O  O27  1  0.73394396  0.84383618  0.40319201  1
  O  O28  1  0.12256253  0.95211256  0.74885109  1
  O  O29  1  0.62256253  0.45211256  0.75114891  1
  O  O30  1  0.87743747  0.04788744  0.25114891  1
  O  O31  1  0.37743747  0.54788744  0.24885109  1
  O  O32  1  0.39769633  0.74472585  0.43219619  1
  O  O33  1  0.89769633  0.24472585  0.06780381  1
  O  O34  1  0.60230367  0.25527415  0.56780381  1
  O  O35  1  0.10230367  0.75527415  0.93219619  1
  O  O36  1  0.11520355  0.96010977  0.10624680  1
  O  O37  1  0.61520355  0.46010977  0.39375320  1
  O  O38  1  0.88479645  0.03989023  0.89375320  1
  O  O39  1  0.38479645  0.53989023  0.60624680  1
  O  O40  1  0.10519992  0.71538543  0.53331096  1
  O  O41  1  0.60519992  0.21538543  0.96668904  1
  O  O42  1  0.89480008  0.28461457  0.46668904  1
  O  O43  1  0.39480008  0.78461457  0.03331096  1
  O  O44  1  0.03548667  0.73531277  0.30837240  1
  O  O45  1  0.53548667  0.23531277  0.19162760  1
  O  O46  1  0.96451333  0.26468723  0.69162760  1
  O  O47  1  0.46451333  0.76468723  0.80837240  1
