# generated using pymatgen
data_NiP5O14
_symmetry_space_group_name_H-M   'P 1'
_cell_length_a   8.21245225
_cell_length_b   9.84234735
_cell_length_c   13.25011753
_cell_angle_alpha   97.03070055
_cell_angle_beta   90.00000000
_cell_angle_gamma   90.00000000
_symmetry_Int_Tables_number   1
_chemical_formula_structural   NiP5O14
_chemical_formula_sum   'Ni4 P20 O56'
_cell_volume   1062.95125669
_cell_formula_units_Z   4
loop_
 _symmetry_equiv_pos_site_id
 _symmetry_equiv_pos_as_xyz
  1  'x, y, z'
loop_
 _atom_site_type_symbol
 _atom_site_label
 _atom_site_symmetry_multiplicity
 _atom_site_fract_x
 _atom_site_fract_y
 _atom_site_fract_z
 _atom_site_occupancy
  Ni  Ni0  1  0.29039014  0.30099053  0.50249048  1
  Ni  Ni1  1  0.20960986  0.80099053  0.00249048  1
  Ni  Ni2  1  0.70960986  0.69900947  0.49750952  1
  Ni  Ni3  1  0.79039014  0.19900947  0.99750952  1
  P  P4  1  0.56984412  0.96048060  0.66173686  1
  P  P5  1  0.93015588  0.46048060  0.16173686  1
  P  P6  1  0.43015588  0.03951940  0.33826314  1
  P  P7  1  0.06984412  0.53951940  0.83826314  1
  P  P8  1  0.22746768  0.06706735  0.66328794  1
  P  P9  1  0.27253232  0.56706735  0.16328794  1
  P  P10  1  0.77253232  0.93293265  0.33671206  1
  P  P11  1  0.72746768  0.43293265  0.83671206  1
  P  P12  1  0.56080905  0.49371241  0.64191474  1
  P  P13  1  0.93919095  0.99371241  0.14191474  1
  P  P14  1  0.43919095  0.50628759  0.35808526  1
  P  P15  1  0.06080905  0.00628759  0.85808526  1
  P  P16  1  0.22201814  0.58977748  0.64701783  1
  P  P17  1  0.27798186  0.08977748  0.14701783  1
  P  P18  1  0.77798186  0.41022252  0.35298217  1
  P  P19  1  0.72201814  0.91022252  0.85298217  1
  P  P20  1  0.09760238  0.81108923  0.53415025  1
  P  P21  1  0.40239762  0.31108923  0.03415025  1
  P  P22  1  0.90239762  0.18891077  0.46584975  1
  P  P23  1  0.59760238  0.68891077  0.96584975  1
  O  O24  1  0.50624389  0.38193540  0.56320233  1
  O  O25  1  0.99375611  0.88193540  0.06320233  1
  O  O26  1  0.49375611  0.61806460  0.43679767  1
  O  O27  1  0.00624389  0.11806460  0.93679767  1
  O  O28  1  0.40151007  0.58292785  0.68807112  1
  O  O29  1  0.09848993  0.08292785  0.18807112  1
  O  O30  1  0.59848993  0.41707215  0.31192888  1
  O  O31  1  0.90151007  0.91707215  0.81192888  1
  O  O32  1  0.16491199  0.47047066  0.57763695  1
  O  O33  1  0.33508801  0.97047066  0.07763695  1
  O  O34  1  0.83508801  0.52952934  0.42236305  1
  O  O35  1  0.66491199  0.02952934  0.92236305  1
  O  O36  1  0.31028171  0.40670140  0.37791530  1
  O  O37  1  0.18971829  0.90670140  0.87791530  1
  O  O38  1  0.68971829  0.59329860  0.62208470  1
  O  O39  1  0.81028171  0.09329860  0.12208470  1
  O  O40  1  0.38115101  0.98820370  0.69722694  1
  O  O41  1  0.11884899  0.48820370  0.19722694  1
  O  O42  1  0.61884899  0.01179630  0.30277306  1
  O  O43  1  0.88115101  0.51179630  0.80277306  1
  O  O44  1  0.22192413  0.73191003  0.60208382  1
  O  O45  1  0.27807587  0.23191003  0.10208382  1
  O  O46  1  0.77807587  0.26808997  0.39791618  1
  O  O47  1  0.72192413  0.76808997  0.89791618  1
  O  O48  1  0.25763687  0.20172435  0.62986510  1
  O  O49  1  0.24236313  0.70172435  0.12986510  1
  O  O50  1  0.74236313  0.79827565  0.37013490  1
  O  O51  1  0.75763687  0.29827565  0.87013490  1
  O  O52  1  0.42520077  0.13267831  0.43584109  1
  O  O53  1  0.07479923  0.63267831  0.93584109  1
  O  O54  1  0.57479923  0.86732169  0.56415891  1
  O  O55  1  0.92520077  0.36732169  0.06415891  1
  O  O56  1  0.61702939  0.87154105  0.75362857  1
  O  O57  1  0.88297061  0.37154105  0.25362857  1
  O  O58  1  0.38297061  0.12845895  0.24637143  1
  O  O59  1  0.11702939  0.62845895  0.74637143  1
  O  O60  1  0.10809438  0.07385505  0.75567513  1
  O  O61  1  0.39190562  0.57385505  0.25567513  1
  O  O62  1  0.89190562  0.92614495  0.24432487  1
  O  O63  1  0.60809438  0.42614495  0.74432487  1
  O  O64  1  0.66129324  0.09407464  0.67524323  1
  O  O65  1  0.83870676  0.59407464  0.17524323  1
  O  O66  1  0.33870676  0.90592536  0.32475677  1
  O  O67  1  0.16129324  0.40592536  0.82475677  1
  O  O68  1  0.07484698  0.21725441  0.43877095  1
  O  O69  1  0.42515302  0.71725441  0.93877095  1
  O  O70  1  0.92515302  0.78274559  0.56122905  1
  O  O71  1  0.57484698  0.28274559  0.06122905  1
  O  O72  1  0.14580435  0.96648753  0.57454832  1
  O  O73  1  0.35419565  0.46648753  0.07454832  1
  O  O74  1  0.85419565  0.03351247  0.42545168  1
  O  O75  1  0.64580435  0.53351247  0.92545168  1
  O  O76  1  0.13883276  0.78699390  0.42255380  1
  O  O77  1  0.36116724  0.28699390  0.92255380  1
  O  O78  1  0.86116724  0.21300610  0.57744620  1
  O  O79  1  0.63883276  0.71300610  0.07744620  1
