# generated using pymatgen
data_Er2Ge6Pd
_symmetry_space_group_name_H-M   'P 1'
_cell_length_a   4.04028638
_cell_length_b   4.07595721
_cell_length_c   11.15909933
_cell_angle_alpha   90.00000000
_cell_angle_beta   100.42981985
_cell_angle_gamma   90.00000000
_symmetry_Int_Tables_number   1
_chemical_formula_structural   Er2Ge6Pd
_chemical_formula_sum   'Er2 Ge6 Pd1'
_cell_volume   180.73209664
_cell_formula_units_Z   1
loop_
 _symmetry_equiv_pos_site_id
 _symmetry_equiv_pos_as_xyz
  1  'x, y, z'
loop_
 _atom_site_type_symbol
 _atom_site_label
 _atom_site_symmetry_multiplicity
 _atom_site_fract_x
 _atom_site_fract_y
 _atom_site_fract_z
 _atom_site_occupancy
  Er  Er0  1  0.77761368  0.50000000  0.55522737  1
  Er  Er1  1  0.11812421  0.50000000  0.23624841  1
  Ge  Ge2  1  0.49305254  0.50000000  0.98610508  1
  Ge  Ge3  1  0.37907066  0.50000000  0.75814131  1
  Ge  Ge4  1  0.99184974  0.00000000  0.98369947  1
  Ge  Ge5  1  0.87763743  0.00000000  0.75527486  1
  Ge  Ge6  1  0.66948797  -0.00000000  0.33897595  1
  Ge  Ge7  1  0.24111616  0.00000000  0.48223232  1
  Pd  Pd8  1  0.55904761  -0.00000000  0.11809523  1
