# generated using pymatgen
data_FeH16C4N2Cl5
_symmetry_space_group_name_H-M   'P 1'
_cell_length_a   10.85950610
_cell_length_b   11.52859740
_cell_length_c   16.02186488
_cell_angle_alpha   90.00000000
_cell_angle_beta   90.00000000
_cell_angle_gamma   113.39165440
_symmetry_Int_Tables_number   1
_chemical_formula_structural   FeH16C4N2Cl5
_chemical_formula_sum   'Fe4 H64 C16 N8 Cl20'
_cell_volume   1840.99904189
_cell_formula_units_Z   4
loop_
 _symmetry_equiv_pos_site_id
 _symmetry_equiv_pos_as_xyz
  1  'x, y, z'
loop_
 _atom_site_type_symbol
 _atom_site_label
 _atom_site_symmetry_multiplicity
 _atom_site_fract_x
 _atom_site_fract_y
 _atom_site_fract_z
 _atom_site_occupancy
  Fe  Fe0  1  0.76483000  0.13943546  0.62383234  1
  Fe  Fe1  1  0.23517000  0.36056454  0.12383234  1
  Fe  Fe2  1  0.23517000  0.86056454  0.37616766  1
  Fe  Fe3  1  0.76483000  0.63943546  0.87616766  1
  H  H4  1  0.39248613  0.17225170  0.77595649  1
  H  H5  1  0.60751387  0.32774830  0.27595649  1
  H  H6  1  0.60751387  0.82774830  0.22404351  1
  H  H7  1  0.39248613  0.67225170  0.72404351  1
  H  H8  1  0.39241390  0.29852666  0.72096692  1
  H  H9  1  0.60758610  0.20147334  0.22096692  1
  H  H10  1  0.60758610  0.70147334  0.27903308  1
  H  H11  1  0.39241390  0.79852666  0.77903308  1
  H  H12  1  0.35217390  0.45789658  0.40447743  1
  H  H13  1  0.64782610  0.04210342  0.90447743  1
  H  H14  1  0.64782610  0.54210342  0.59552257  1
  H  H15  1  0.35217390  0.95789658  0.09552257  1
  H  H16  1  0.31921069  0.44127141  0.50682314  1
  H  H17  1  0.68078931  0.05872859  0.00682314  1
  H  H18  1  0.68078931  0.55872859  0.49317686  1
  H  H19  1  0.31921069  0.94127141  0.99317686  1
  H  H20  1  0.16472938  0.18431780  0.68025072  1
  H  H21  1  0.83527062  0.31568220  0.18025072  1
  H  H22  1  0.83527062  0.81568220  0.31974928  1
  H  H23  1  0.16472938  0.68431780  0.81974928  1
  H  H24  1  0.27023157  0.10432138  0.64993869  1
  H  H25  1  0.72976843  0.39567862  0.14993869  1
  H  H26  1  0.72976843  0.89567862  0.35006131  1
  H  H27  1  0.27023157  0.60432138  0.85006131  1
  H  H28  1  0.16306912  0.05134104  0.73956901  1
  H  H29  1  0.83693088  0.44865896  0.23956901  1
  H  H30  1  0.83693088  0.94865896  0.26043099  1
  H  H31  1  0.16306912  0.55134104  0.76043099  1
  H  H32  1  0.22122829  0.18182371  0.86692839  1
  H  H33  1  0.77877171  0.31817629  0.36692839  1
  H  H34  1  0.77877171  0.81817629  0.13307161  1
  H  H35  1  0.22122829  0.68182371  0.63307161  1
  H  H36  1  0.37175725  0.32305776  0.86842345  1
  H  H37  1  0.62824275  0.17694224  0.36842345  1
  H  H38  1  0.62824275  0.67694224  0.13157655  1
  H  H39  1  0.37175725  0.82305776  0.63157655  1
  H  H40  1  0.22863315  0.31934371  0.81058216  1
  H  H41  1  0.77136685  0.18065629  0.31058216  1
  H  H42  1  0.77136685  0.68065629  0.18941784  1
  H  H43  1  0.22863315  0.81934371  0.68941784  1
  H  H44  1  0.21481445  0.23791701  0.37874138  1
  H  H45  1  0.78518555  0.26208299  0.87874138  1
  H  H46  1  0.78518555  0.76208299  0.62125862  1
  H  H47  1  0.21481445  0.73791701  0.12125862  1
  H  H48  1  0.34839537  0.26266797  0.45133265  1
  H  H49  1  0.65160463  0.23733203  0.95133265  1
  H  H50  1  0.65160463  0.73733203  0.54866735  1
  H  H51  1  0.34839537  0.76266797  0.04866735  1
  H  H52  1  0.17956589  0.21991469  0.48822354  1
  H  H53  1  0.82043411  0.28008531  0.98822354  1
  H  H54  1  0.82043411  0.78008531  0.51177646  1
  H  H55  1  0.17956589  0.71991469  0.01177646  1
  H  H56  1  0.08427991  0.38522256  0.48465407  1
  H  H57  1  0.91572009  0.11477744  0.98465407  1
  H  H58  1  0.91572009  0.61477744  0.51534593  1
  H  H59  1  0.08427991  0.88522256  0.01534593  1
  H  H60  1  0.18214719  0.53476680  0.43603165  1
  H  H61  1  0.81785281  0.96523320  0.93603165  1
  H  H62  1  0.81785281  0.46523320  0.56396835  1
  H  H63  1  0.18214719  0.03476680  0.06396835  1
  H  H64  1  0.11184518  0.39483622  0.37402417  1
  H  H65  1  0.88815482  0.10516378  0.87402417  1
  H  H66  1  0.88815482  0.60516378  0.62597583  1
  H  H67  1  0.11184518  0.89483622  0.12597583  1
  C  C68  1  0.22469622  0.13344701  0.70234420  1
  C  C69  1  0.77530378  0.36655299  0.20234420  1
  C  C70  1  0.77530378  0.86655299  0.29765580  1
  C  C71  1  0.22469622  0.63344701  0.79765580  1
  C  C72  1  0.28519217  0.26451018  0.83116988  1
  C  C73  1  0.71480783  0.23548982  0.33116988  1
  C  C74  1  0.71480783  0.73548982  0.16883012  1
  C  C75  1  0.28519217  0.76451018  0.66883012  1
  C  C76  1  0.25353067  0.27221339  0.44099026  1
  C  C77  1  0.74646933  0.22778661  0.94099026  1
  C  C78  1  0.74646933  0.72778661  0.55900974  1
  C  C79  1  0.25353067  0.77221339  0.05900974  1
  C  C80  1  0.15525290  0.43289205  0.43471166  1
  C  C81  1  0.84474710  0.06710795  0.93471166  1
  C  C82  1  0.84474710  0.56710795  0.56528834  1
  C  C83  1  0.15525290  0.93289205  0.06528834  1
  N  N84  1  0.33449767  0.21998477  0.75613507  1
  N  N85  1  0.66550233  0.28001523  0.25613507  1
  N  N86  1  0.66550233  0.78001523  0.24386493  1
  N  N87  1  0.33449767  0.71998477  0.74386493  1
  N  N88  1  0.27839223  0.40835131  0.44746225  1
  N  N89  1  0.72160777  0.09164869  0.94746225  1
  N  N90  1  0.72160777  0.59164869  0.55253775  1
  N  N91  1  0.27839223  0.90835131  0.05253775  1
  Cl  Cl92  1  0.84119965  0.08902358  0.50757139  1
  Cl  Cl93  1  0.15880035  0.41097642  0.00757139  1
  Cl  Cl94  1  0.15880035  0.91097642  0.49242861  1
  Cl  Cl95  1  0.84119965  0.58902358  0.99242861  1
  Cl  Cl96  1  0.69226588  0.97633910  0.70919900  1
  Cl  Cl97  1  0.30773412  0.52366090  0.20919900  1
  Cl  Cl98  1  0.30773412  0.02366090  0.29080100  1
  Cl  Cl99  1  0.69226588  0.47633910  0.79080100  1
  Cl  Cl100  1  0.93377215  0.29626284  0.68296385  1
  Cl  Cl101  1  0.06622785  0.20373716  0.18296385  1
  Cl  Cl102  1  0.06622785  0.70373716  0.31703615  1
  Cl  Cl103  1  0.93377215  0.79626284  0.81703615  1
  Cl  Cl104  1  0.60098825  0.20067319  0.59458082  1
  Cl  Cl105  1  0.39901175  0.29932681  0.09458082  1
  Cl  Cl106  1  0.39901175  0.79932681  0.40541918  1
  Cl  Cl107  1  0.60098825  0.70067319  0.90541918  1
  Cl  Cl108  1  0.39977314  0.48574669  0.63366546  1
  Cl  Cl109  1  0.60022686  0.01425331  0.13366546  1
  Cl  Cl110  1  0.60022686  0.51425331  0.36633454  1
  Cl  Cl111  1  0.39977314  0.98574669  0.86633454  1
