# generated using pymatgen
data_Mg(CoO2)2
_symmetry_space_group_name_H-M   'P 1'
_cell_length_a   5.97244255
_cell_length_b   5.95035955
_cell_length_c   5.95035921
_cell_angle_alpha   59.99999534
_cell_angle_beta   60.12222896
_cell_angle_gamma   60.12222738
_symmetry_Int_Tables_number   1
_chemical_formula_structural   Mg(CoO2)2
_chemical_formula_sum   'Mg2 Co4 O8'
_cell_volume   149.80394309
_cell_formula_units_Z   2
loop_
 _symmetry_equiv_pos_site_id
 _symmetry_equiv_pos_as_xyz
  1  'x, y, z'
loop_
 _atom_site_type_symbol
 _atom_site_label
 _atom_site_symmetry_multiplicity
 _atom_site_fract_x
 _atom_site_fract_y
 _atom_site_fract_z
 _atom_site_occupancy
  Mg  Mg0  1  0.98770991  0.00409670  0.00409670  1
  Mg  Mg1  1  0.12393292  0.62535569  0.62535569  1
  Co  Co2  1  0.26281302  0.24572933  0.24572933  1
  Co  Co3  1  0.62669464  0.12085381  0.62622578  1
  Co  Co4  1  0.62669464  0.62622578  0.12085381  1
  Co  Co5  1  0.62669464  0.62622578  0.62622578  1
  O  O6  1  0.39923536  0.37838047  0.37838047  1
  O  O7  1  0.39923536  0.37838047  0.84400269  1
  O  O8  1  0.39923536  0.84400269  0.37838047  1
  O  O9  1  0.85613260  0.38128913  0.38128913  1
  O  O10  1  0.39604961  0.86798280  0.86798280  1
  O  O11  1  0.84852465  0.40949672  0.87098932  1
  O  O12  1  0.84852465  0.87098932  0.40949672  1
  O  O13  1  0.84852465  0.87098932  0.87098932  1
