# generated using pymatgen
data_As9Pb5S18
_symmetry_space_group_name_H-M   'P 1'
_cell_length_a   8.52217866
_cell_length_b   7.91519596
_cell_length_c   23.21283700
_cell_angle_alpha   90.12414164
_cell_angle_beta   97.08347811
_cell_angle_gamma   90.48687996
_symmetry_Int_Tables_number   1
_chemical_formula_structural   As9Pb5S18
_chemical_formula_sum   'As18 Pb10 S36'
_cell_volume   1553.80000473
_cell_formula_units_Z   2
loop_
 _symmetry_equiv_pos_site_id
 _symmetry_equiv_pos_as_xyz
  1  'x, y, z'
loop_
 _atom_site_type_symbol
 _atom_site_label
 _atom_site_symmetry_multiplicity
 _atom_site_fract_x
 _atom_site_fract_y
 _atom_site_fract_z
 _atom_site_occupancy
  As  As0  1  0.93212611  0.37324795  0.38738295  1
  As  As1  1  0.06787389  0.62675205  0.61261705  1
  As  As2  1  0.93583263  0.87214593  0.38587180  1
  As  As3  1  0.06416737  0.12785407  0.61412820  1
  As  As4  1  0.37528365  0.36839867  0.17985636  1
  As  As5  1  0.62471635  0.63160133  0.82014364  1
  As  As6  1  0.38498782  0.83551347  0.17352006  1
  As  As7  1  0.61501218  0.16448653  0.82647994  1
  As  As8  1  0.67606643  0.34079611  0.06734849  1
  As  As9  1  0.32393357  0.65920389  0.93265151  1
  As  As10  1  0.65760388  0.87208965  0.06752466  1
  As  As11  1  0.34239612  0.12791035  0.93247534  1
  As  As12  1  0.04657236  0.63496134  0.05756635  1
  As  As13  1  0.95342764  0.36503866  0.94243365  1
  As  As14  1  0.30570108  0.87315683  0.49213248  1
  As  As15  1  0.69429892  0.12684317  0.50786752  1
  As  As16  1  0.30610636  0.37136900  0.49194623  1
  As  As17  1  0.69389364  0.62863100  0.50805377  1
  Pb  Pb18  1  0.78744621  0.12496534  0.23380988  1
  Pb  Pb19  1  0.21255379  0.87503466  0.76619012  1
  Pb  Pb20  1  0.79393317  0.62362682  0.23391983  1
  Pb  Pb21  1  0.20606683  0.37637318  0.76608017  1
  Pb  Pb22  1  0.32128543  0.12592419  0.34497315  1
  Pb  Pb23  1  0.67871457  0.87407581  0.65502685  1
  Pb  Pb24  1  0.32527890  0.62439372  0.34748845  1
  Pb  Pb25  1  0.67472110  0.37560628  0.65251155  1
  Pb  Pb26  1  0.08396495  0.12537531  0.08330104  1
  Pb  Pb27  1  0.91603505  0.87462469  0.91669896  1
  S  S28  1  0.06937455  0.37345093  0.31047103  1
  S  S29  1  0.93062545  0.62654907  0.68952897  1
  S  S30  1  0.07373424  0.87278110  0.30826116  1
  S  S31  1  0.92626576  0.12721890  0.69173884  1
  S  S32  1  0.17760901  0.40138042  0.00449495  1
  S  S33  1  0.82239099  0.59861958  0.99550505  1
  S  S34  1  0.18536082  0.84088846  0.00772788  1
  S  S35  1  0.81463918  0.15911154  0.99227212  1
  S  S36  1  0.22603067  0.15922416  0.20793172  1
  S  S37  1  0.77396933  0.84077584  0.79206828  1
  S  S38  1  0.23447380  0.61491698  0.20422750  1
  S  S39  1  0.76552620  0.38508302  0.79577250  1
  S  S40  1  0.77172167  0.12268377  0.35875218  1
  S  S41  1  0.22827833  0.87731623  0.64124782  1
  S  S42  1  0.77217823  0.62611781  0.35852691  1
  S  S43  1  0.22782177  0.37388219  0.64147309  1
  S  S44  1  0.56665593  0.37536275  0.25838316  1
  S  S45  1  0.43334407  0.62463725  0.74161684  1
  S  S46  1  0.56068749  0.86730179  0.25489117  1
  S  S47  1  0.43931251  0.13269821  0.74510883  1
  S  S48  1  0.54540206  0.10744466  0.10768643  1
  S  S49  1  0.45459794  0.89255534  0.89231357  1
  S  S50  1  0.53101406  0.65841601  0.11336370  1
  S  S51  1  0.46898594  0.34158399  0.88663630  1
  S  S52  1  0.88467500  0.36799694  0.13340537  1
  S  S53  1  0.11532500  0.63200306  0.86659463  1
  S  S54  1  0.89463317  0.85814798  0.12373677  1
  S  S55  1  0.10536683  0.14185202  0.87626323  1
  S  S56  1  0.15399201  0.12564223  0.44953670  1
  S  S57  1  0.84600799  0.87435777  0.55046330  1
  S  S58  1  0.15435777  0.62600877  0.44938173  1
  S  S59  1  0.84564223  0.37399123  0.55061827  1
  S  S60  1  0.49175658  0.37331086  0.43230169  1
  S  S61  1  0.50824342  0.62668914  0.56769831  1
  S  S62  1  0.49224637  0.87365318  0.43290901  1
  S  S63  1  0.50775363  0.12634682  0.56709099  1
