# generated using pymatgen
data_TmWClO4
_symmetry_space_group_name_H-M   'P 1'
_cell_length_a   6.29084096
_cell_length_b   6.29084096
_cell_length_c   6.89967093
_cell_angle_alpha   75.84551812
_cell_angle_beta   75.84551812
_cell_angle_gamma   70.58301406
_symmetry_Int_Tables_number   1
_chemical_formula_structural   TmWClO4
_chemical_formula_sum   'Tm2 W2 Cl2 O8'
_cell_volume   245.69321203
_cell_formula_units_Z   2
loop_
 _symmetry_equiv_pos_site_id
 _symmetry_equiv_pos_as_xyz
  1  'x, y, z'
loop_
 _atom_site_type_symbol
 _atom_site_label
 _atom_site_symmetry_multiplicity
 _atom_site_fract_x
 _atom_site_fract_y
 _atom_site_fract_z
 _atom_site_occupancy
  Tm  Tm0  1  0.27752452  0.27752452  0.61662280  1
  Tm  Tm1  1  0.72247548  0.72247548  0.38337720  1
  W  W2  1  0.13738326  0.13738326  0.23245515  1
  W  W3  1  0.86261674  0.86261674  0.76754485  1
  Cl  Cl4  1  0.51095670  0.51095670  0.73016965  1
  Cl  Cl5  1  0.48904330  0.48904330  0.26983035  1
  O  O6  1  0.04646056  0.04646056  0.70043101  1
  O  O7  1  0.95353944  0.95353944  0.29956899  1
  O  O8  1  0.60666623  0.99270438  0.65073856  1
  O  O9  1  0.39333377  0.00729562  0.34926144  1
  O  O10  1  0.00729562  0.39333377  0.34926144  1
  O  O11  1  0.99270438  0.60666623  0.65073856  1
  O  O12  1  0.20741196  0.20741196  0.96052294  1
  O  O13  1  0.79258804  0.79258804  0.03947706  1
