# generated using pymatgen
data_Zr9Pd11
_symmetry_space_group_name_H-M   'P 1'
_cell_length_a   6.88095056
_cell_length_b   8.15207816
_cell_length_c   8.15207816
_cell_angle_alpha   79.74002363
_cell_angle_beta   65.03676706
_cell_angle_gamma   65.03676706
_symmetry_Int_Tables_number   1
_chemical_formula_structural   Zr9Pd11
_chemical_formula_sum   'Zr9 Pd11'
_cell_volume   375.83413553
_cell_formula_units_Z   1
loop_
 _symmetry_equiv_pos_site_id
 _symmetry_equiv_pos_as_xyz
  1  'x, y, z'
loop_
 _atom_site_type_symbol
 _atom_site_label
 _atom_site_symmetry_multiplicity
 _atom_site_fract_x
 _atom_site_fract_y
 _atom_site_fract_z
 _atom_site_occupancy
  Zr  Zr0  1  0.23928570  0.17600739  0.34542121  1
  Zr  Zr1  1  0.76071430  0.82399261  0.65457879  1
  Zr  Zr2  1  0.58470691  0.65457879  0.17600739  1
  Zr  Zr3  1  0.41529309  0.34542121  0.82399261  1
  Zr  Zr4  1  0.30655136  0.78826077  0.59863651  1
  Zr  Zr5  1  0.69344864  0.21173923  0.40136349  1
  Zr  Zr6  1  0.90518787  0.40136349  0.78826077  1
  Zr  Zr7  1  0.09481213  0.59863651  0.21173923  1
  Zr  Zr8  1  0.00000000  -0.00000000  0.00000000  1
  Pd  Pd9  1  0.32550953  0.10924829  0.66537677  1
  Pd  Pd10  1  0.67449047  0.89075171  0.33462323  1
  Pd  Pd11  1  0.10013459  0.89075171  0.33462323  1
  Pd  Pd12  1  0.99088630  0.33462323  0.10924829  1
  Pd  Pd13  1  0.89986541  0.10924829  0.66537677  1
  Pd  Pd14  1  0.00911370  0.66537677  0.89075171  1
  Pd  Pd15  1  0.43475782  0.66537677  0.89075171  1
  Pd  Pd16  1  0.56524218  0.33462323  0.10924829  1
  Pd  Pd17  1  0.25000000  0.50000000  0.50000000  1
  Pd  Pd18  1  0.75000000  0.50000000  0.50000000  1
  Pd  Pd19  1  0.50000000  -0.00000000  0.00000000  1
