# generated using pymatgen
data_Sr3Ti3(Ga2O5)4
_symmetry_space_group_name_H-M   'P 1'
_cell_length_a   5.17271727
_cell_length_b   9.86245334
_cell_length_c   9.86245334
_cell_angle_alpha   73.58270173
_cell_angle_beta   75.15020157
_cell_angle_gamma   75.15020157
_symmetry_Int_Tables_number   1
_chemical_formula_structural   Sr3Ti3(Ga2O5)4
_chemical_formula_sum   'Sr3 Ti3 Ga8 O20'
_cell_volume   457.24377204
_cell_formula_units_Z   1
loop_
 _symmetry_equiv_pos_site_id
 _symmetry_equiv_pos_as_xyz
  1  'x, y, z'
loop_
 _atom_site_type_symbol
 _atom_site_label
 _atom_site_symmetry_multiplicity
 _atom_site_fract_x
 _atom_site_fract_y
 _atom_site_fract_z
 _atom_site_occupancy
  Sr  Sr0  1  0.71513189  0.77477162  0.77477162  1
  Sr  Sr1  1  0.28486811  0.22522838  0.22522838  1
  Sr  Sr2  1  -0.00000000  0.50000000  0.50000000  1
  Ti  Ti3  1  0.50000000  0.87322304  0.12677696  1
  Ti  Ti4  1  0.50000000  0.12677696  0.87322304  1
  Ti  Ti5  1  -0.00000000  0.00000000  -0.00000000  1
  Ga  Ga6  1  0.16759563  0.64140277  0.07654932  1
  Ga  Ga7  1  0.83240437  0.35859723  0.92345068  1
  Ga  Ga8  1  0.83240437  0.92345068  0.35859723  1
  Ga  Ga9  1  0.16759563  0.07654932  0.64140277  1
  Ga  Ga10  1  0.34649206  0.50805242  0.77841234  1
  Ga  Ga11  1  0.65350794  0.49194758  0.22158766  1
  Ga  Ga12  1  0.65350794  0.22158766  0.49194758  1
  Ga  Ga13  1  0.34649206  0.77841234  0.50805242  1
  O  O14  1  0.01277116  0.49729396  0.21922317  1
  O  O15  1  0.98722884  0.50270604  0.78077683  1
  O  O16  1  0.98722884  0.78077683  0.50270604  1
  O  O17  1  0.01277116  0.21922317  0.49729396  1
  O  O18  1  0.34984714  0.62471908  0.89440532  1
  O  O19  1  0.65015286  0.37528092  0.10559468  1
  O  O20  1  0.65015286  0.10559468  0.37528092  1
  O  O21  1  0.34984714  0.89440532  0.62471908  1
  O  O22  1  0.39973971  0.93005386  0.93005386  1
  O  O23  1  0.60026029  0.06994614  0.06994614  1
  O  O24  1  0.57480041  0.32894310  0.83429235  1
  O  O25  1  0.42519959  0.67105690  0.16570765  1
  O  O26  1  0.42519959  0.16570765  0.67105690  1
  O  O27  1  0.57480041  0.83429235  0.32894310  1
  O  O28  1  0.89231711  0.80476679  0.04329866  1
  O  O29  1  0.10768289  0.19523321  0.95670134  1
  O  O30  1  0.10768289  0.95670134  0.19523321  1
  O  O31  1  0.89231711  0.04329866  0.80476679  1
  O  O32  1  0.50454539  0.59371168  0.59371168  1
  O  O33  1  0.49545461  0.40628832  0.40628832  1
