# generated using pymatgen
data_Rb2Na2Al3(GeO4)3
_symmetry_space_group_name_H-M   'P 1'
_cell_length_a   5.38775981
_cell_length_b   8.50064811
_cell_length_c   15.82861315
_cell_angle_alpha   90.00000000
_cell_angle_beta   90.00000000
_cell_angle_gamma   90.00000000
_symmetry_Int_Tables_number   1
_chemical_formula_structural   Rb2Na2Al3(GeO4)3
_chemical_formula_sum   'Rb4 Na4 Al6 Ge6 O24'
_cell_volume   724.94178043
_cell_formula_units_Z   2
loop_
 _symmetry_equiv_pos_site_id
 _symmetry_equiv_pos_as_xyz
  1  'x, y, z'
loop_
 _atom_site_type_symbol
 _atom_site_label
 _atom_site_symmetry_multiplicity
 _atom_site_fract_x
 _atom_site_fract_y
 _atom_site_fract_z
 _atom_site_occupancy
  Rb  Rb0  1  0.80975752  0.32356532  0.74111692  1
  Rb  Rb1  1  0.30975752  0.67643468  0.75888308  1
  Rb  Rb2  1  0.30975752  0.67643468  0.24111692  1
  Rb  Rb3  1  0.80975752  0.32356532  0.25888308  1
  Na  Na4  1  0.79579455  0.18457596  0.00000000  1
  Na  Na5  1  0.29579455  0.81542404  0.50000000  1
  Na  Na6  1  0.29593593  0.82119182  0.00000000  1
  Na  Na7  1  0.79593593  0.17880818  0.50000000  1
  Al  Al8  1  0.33703728  0.39549635  0.00000000  1
  Al  Al9  1  0.83703728  0.60450365  0.50000000  1
  Al  Al10  1  0.82224847  0.89485667  0.85852280  1
  Al  Al11  1  0.32224847  0.10514333  0.64147720  1
  Al  Al12  1  0.32224847  0.10514333  0.35852280  1
  Al  Al13  1  0.82224847  0.89485667  0.14147720  1
  Ge  Ge14  1  0.83735729  0.60849295  0.00000000  1
  Ge  Ge15  1  0.33735729  0.39150705  0.50000000  1
  Ge  Ge16  1  0.82247202  0.88941289  0.64177293  1
  Ge  Ge17  1  0.32247202  0.11058711  0.85822707  1
  Ge  Ge18  1  0.32247202  0.11058711  0.14177293  1
  Ge  Ge19  1  0.82247202  0.88941289  0.35822707  1
  O  O20  1  0.93300344  0.71754879  0.58954902  1
  O  O21  1  0.43300344  0.28245121  0.91045098  1
  O  O22  1  0.43300344  0.28245121  0.08954902  1
  O  O23  1  0.93300344  0.71754879  0.41045098  1
  O  O24  1  0.51178732  0.94416684  0.88774969  1
  O  O25  1  0.01178732  0.05583316  0.61225031  1
  O  O26  1  0.01178732  0.05583316  0.38774969  1
  O  O27  1  0.51178732  0.94416684  0.11225031  1
  O  O28  1  0.51018411  0.57445990  0.00000000  1
  O  O29  1  0.01018411  0.42554010  0.50000000  1
  O  O30  1  0.84105757  0.84053574  0.75092375  1
  O  O31  1  0.34105757  0.15946426  0.74907625  1
  O  O32  1  0.34105757  0.15946426  0.25092375  1
  O  O33  1  0.84105757  0.84053574  0.24907625  1
  O  O34  1  0.50949135  0.93916669  0.61317884  1
  O  O35  1  0.00949135  0.06083331  0.88682116  1
  O  O36  1  0.00949135  0.06083331  0.11317884  1
  O  O37  1  0.50949135  0.93916669  0.38682116  1
  O  O38  1  0.01109271  0.43054280  0.00000000  1
  O  O39  1  0.51109271  0.56945720  0.50000000  1
  O  O40  1  0.93236135  0.72310655  0.91054601  1
  O  O41  1  0.43236135  0.27689345  0.58945399  1
  O  O42  1  0.43236135  0.27689345  0.41054601  1
  O  O43  1  0.93236135  0.72310655  0.08945399  1
