# generated using pymatgen
data_LaCo8Si5
_symmetry_space_group_name_H-M   'P 1'
_cell_length_a   7.79209137
_cell_length_b   7.79209137
_cell_length_c   7.97346888
_cell_angle_alpha   119.25032075
_cell_angle_beta   119.25032075
_cell_angle_gamma   90.00000000
_symmetry_Int_Tables_number   1
_chemical_formula_structural   LaCo8Si5
_chemical_formula_sum   'La2 Co16 Si10'
_cell_volume   349.94029991
_cell_formula_units_Z   2
loop_
 _symmetry_equiv_pos_site_id
 _symmetry_equiv_pos_as_xyz
  1  'x, y, z'
loop_
 _atom_site_type_symbol
 _atom_site_label
 _atom_site_symmetry_multiplicity
 _atom_site_fract_x
 _atom_site_fract_y
 _atom_site_fract_z
 _atom_site_occupancy
  La  La0  1  0.25000000  0.25000000  0.50000000  1
  La  La1  1  0.75000000  0.75000000  0.50000000  1
  Co  Co2  1  0.79571643  0.29571643  0.35802441  1
  Co  Co3  1  0.20428357  0.70428357  0.64197559  1
  Co  Co4  1  0.56230798  0.06230798  0.35802441  1
  Co  Co5  1  0.06230798  0.79571643  0.35802441  1
  Co  Co6  1  0.70428357  0.43769202  0.64197559  1
  Co  Co7  1  0.43769202  0.93769202  0.64197559  1
  Co  Co8  1  0.93769202  0.20428357  0.64197559  1
  Co  Co9  1  0.29571643  0.56230798  0.35802441  1
  Co  Co10  1  0.05734162  0.21137567  0.00000000  1
  Co  Co11  1  0.94265838  0.78862433  1.00000000  1
  Co  Co12  1  0.78862433  0.05734162  0.00000000  1
  Co  Co13  1  0.44265838  0.71137567  1.00000000  1
  Co  Co14  1  0.21137567  0.94265838  1.00000000  1
  Co  Co15  1  0.55734162  0.28862433  0.00000000  1
  Co  Co16  1  0.71137567  0.55734162  0.00000000  1
  Co  Co17  1  0.28862433  0.44265838  1.00000000  1
  Si  Si18  1  0.30729757  0.80729757  0.24936373  1
  Si  Si19  1  0.69270243  0.19270243  0.75063627  1
  Si  Si20  1  0.94206616  0.44206616  0.24936373  1
  Si  Si21  1  0.44206616  0.30729757  0.24936373  1
  Si  Si22  1  0.19270243  0.05793384  0.75063627  1
  Si  Si23  1  0.05793384  0.55793384  0.75063627  1
  Si  Si24  1  0.55793384  0.69270243  0.75063627  1
  Si  Si25  1  0.80729757  0.94206616  0.24936373  1
  Si  Si26  1  0.00000000  0.50000000  0.00000000  1
  Si  Si27  1  0.50000000  -0.00000000  0.00000000  1
