# generated using pymatgen
data_Li8CaSn7
_symmetry_space_group_name_H-M   'P 1'
_cell_length_a   4.61741785
_cell_length_b   11.56206392
_cell_length_c   13.64320189
_cell_angle_alpha   90.00000000
_cell_angle_beta   99.74249814
_cell_angle_gamma   90.00000000
_symmetry_Int_Tables_number   1
_chemical_formula_structural   Li8CaSn7
_chemical_formula_sum   'Li16 Ca2 Sn14'
_cell_volume   717.86362672
_cell_formula_units_Z   2
loop_
 _symmetry_equiv_pos_site_id
 _symmetry_equiv_pos_as_xyz
  1  'x, y, z'
loop_
 _atom_site_type_symbol
 _atom_site_label
 _atom_site_symmetry_multiplicity
 _atom_site_fract_x
 _atom_site_fract_y
 _atom_site_fract_z
 _atom_site_occupancy
  Li  Li0  1  0.97583849  0.25000000  0.95167698  1
  Li  Li1  1  0.02416151  0.75000000  0.04832302  1
  Li  Li2  1  0.75874555  0.09489034  0.51749111  1
  Li  Li3  1  0.24125445  0.90510966  0.48250889  1
  Li  Li4  1  0.24125445  0.59489034  0.48250889  1
  Li  Li5  1  0.75874555  0.40510966  0.51749111  1
  Li  Li6  1  0.54538338  0.12425532  0.09076676  1
  Li  Li7  1  0.45461662  0.87574468  0.90923324  1
  Li  Li8  1  0.45461662  0.62425532  0.90923324  1
  Li  Li9  1  0.54538338  0.37574468  0.09076676  1
  Li  Li10  1  0.88837652  0.51901508  0.77675304  1
  Li  Li11  1  0.11162348  0.48098492  0.22324696  1
  Li  Li12  1  0.11162348  0.01901508  0.22324696  1
  Li  Li13  1  0.88837652  0.98098492  0.77675304  1
  Li  Li14  1  -0.00000000  -0.00000000  -0.00000000  1
  Li  Li15  1  -0.00000000  0.50000000  -0.00000000  1
  Ca  Ca16  1  0.85823438  0.25000000  0.71646876  1
  Ca  Ca17  1  0.14176562  0.75000000  0.28353124  1
  Sn  Sn18  1  0.65486825  0.25000000  0.30973649  1
  Sn  Sn19  1  0.34513175  0.75000000  0.69026351  1
  Sn  Sn20  1  0.07878718  0.25000000  0.15757437  1
  Sn  Sn21  1  0.92121282  0.75000000  0.84242563  1
  Sn  Sn22  1  0.67071947  0.54725325  0.34143894  1
  Sn  Sn23  1  0.32928053  0.45274675  0.65856106  1
  Sn  Sn24  1  0.32928053  0.04725325  0.65856106  1
  Sn  Sn25  1  0.67071947  0.95274675  0.34143894  1
  Sn  Sn26  1  0.26236373  0.25000000  0.52472746  1
  Sn  Sn27  1  0.73763627  0.75000000  0.47527254  1
  Sn  Sn28  1  0.43425147  0.12178639  0.86850293  1
  Sn  Sn29  1  0.56574853  0.87821361  0.13149707  1
  Sn  Sn30  1  0.56574853  0.62178639  0.13149707  1
  Sn  Sn31  1  0.43425147  0.37821361  0.86850293  1
