# generated using pymatgen
data_Rb2Pd
_symmetry_space_group_name_H-M   'P 1'
_cell_length_a   5.81821400
_cell_length_b   5.80379372
_cell_length_c   5.80379372
_cell_angle_alpha   60.55042729
_cell_angle_beta   60.49336262
_cell_angle_gamma   60.49336262
_symmetry_Int_Tables_number   1
_chemical_formula_structural   Rb2Pd
_chemical_formula_sum   'Rb2 Pd1'
_cell_volume   140.18388943
_cell_formula_units_Z   1
loop_
 _symmetry_equiv_pos_site_id
 _symmetry_equiv_pos_as_xyz
  1  'x, y, z'
loop_
 _atom_site_type_symbol
 _atom_site_label
 _atom_site_symmetry_multiplicity
 _atom_site_fract_x
 _atom_site_fract_y
 _atom_site_fract_z
 _atom_site_occupancy
  Rb  Rb0  1  0.25065659  0.25185318  0.25185318  1
  Rb  Rb1  1  0.74934341  0.74814682  0.74814682  1
  Pd  Pd2  1  0.00000000  0.00000000  0.00000000  1
