# generated using pymatgen
data_RbU3F10
_symmetry_space_group_name_H-M   'P 1'
_cell_length_a   8.63244110
_cell_length_b   8.63244110
_cell_length_c   14.08315328
_cell_angle_alpha   90.00000000
_cell_angle_beta   90.00000000
_cell_angle_gamma   120.00000631
_symmetry_Int_Tables_number   1
_chemical_formula_structural   RbU3F10
_chemical_formula_sum   'Rb4 U12 F40'
_cell_volume   908.86160749
_cell_formula_units_Z   4
loop_
 _symmetry_equiv_pos_site_id
 _symmetry_equiv_pos_as_xyz
  1  'x, y, z'
loop_
 _atom_site_type_symbol
 _atom_site_label
 _atom_site_symmetry_multiplicity
 _atom_site_fract_x
 _atom_site_fract_y
 _atom_site_fract_z
 _atom_site_occupancy
  Rb  Rb0  1  0.66666700  0.33333300  0.73449181  1
  Rb  Rb1  1  0.33333300  0.66666700  0.23449181  1
  Rb  Rb2  1  -0.00000000  -0.00000000  0.97812610  1
  Rb  Rb3  1  -0.00000000  -0.00000000  0.47812610  1
  U  U4  1  0.17907724  0.35815448  0.72214770  1
  U  U5  1  0.17907724  0.82092276  0.72214770  1
  U  U6  1  0.82092276  0.64184552  0.22214770  1
  U  U7  1  0.64184552  0.82092276  0.72214770  1
  U  U8  1  0.82092276  0.17907724  0.22214770  1
  U  U9  1  0.35815448  0.17907724  0.22214770  1
  U  U10  1  0.50792145  0.01584290  0.98717141  1
  U  U11  1  0.50792145  0.49207855  0.98717141  1
  U  U12  1  0.49207855  0.98415710  0.48717141  1
  U  U13  1  0.98415710  0.49207855  0.98717141  1
  U  U14  1  0.49207855  0.50792145  0.48717141  1
  U  U15  1  0.01584290  0.50792145  0.48717141  1
  F  F16  1  0.17489099  0.34978197  0.54501629  1
  F  F17  1  0.17489099  0.82510901  0.54501629  1
  F  F18  1  0.82510901  0.65021803  0.04501629  1
  F  F19  1  0.65021803  0.82510901  0.54501629  1
  F  F20  1  0.82510901  0.17489099  0.04501629  1
  F  F21  1  0.34978197  0.17489099  0.04501629  1
  F  F22  1  0.66666700  0.33333300  0.93279058  1
  F  F23  1  0.33333300  0.66666700  0.43279058  1
  F  F24  1  0.66666700  0.33333300  0.29680459  1
  F  F25  1  0.33333300  0.66666700  0.79680459  1
  F  F26  1  0.77740597  0.55481195  0.52146885  1
  F  F27  1  0.77740597  0.22259403  0.52146885  1
  F  F28  1  0.22259403  0.44518805  0.02146885  1
  F  F29  1  0.44518805  0.22259403  0.52146885  1
  F  F30  1  0.22259403  0.77740597  0.02146885  1
  F  F31  1  0.55481195  0.77740597  0.02146885  1
  F  F32  1  0.89095086  0.78190173  0.69352906  1
  F  F33  1  0.89095086  0.10904914  0.69352906  1
  F  F34  1  0.10904914  0.21809827  0.19352906  1
  F  F35  1  0.21809827  0.10904914  0.69352906  1
  F  F36  1  0.10904914  0.89095086  0.19352906  1
  F  F37  1  0.78190173  0.89095086  0.19352906  1
  F  F38  1  0.66137837  0.66385435  0.85404493  1
  F  F39  1  0.00247598  0.33862163  0.85404493  1
  F  F40  1  0.33862163  0.33614565  0.35404493  1
  F  F41  1  0.00247598  0.66385435  0.85404493  1
  F  F42  1  0.33614565  0.99752402  0.85404493  1
  F  F43  1  0.99752402  0.66137837  0.35404493  1
  F  F44  1  0.33614565  0.33862163  0.85404493  1
  F  F45  1  0.99752402  0.33614565  0.35404493  1
  F  F46  1  0.66385435  0.00247598  0.35404493  1
  F  F47  1  0.66385435  0.66137837  0.35404493  1
  F  F48  1  0.66137837  0.99752402  0.85404493  1
  F  F49  1  0.33862163  0.00247598  0.35404493  1
  F  F50  1  0.49275878  0.98551756  0.66347248  1
  F  F51  1  0.49275878  0.50724122  0.66347248  1
  F  F52  1  0.50724122  0.01448244  0.16347248  1
  F  F53  1  0.01448244  0.50724122  0.66347248  1
  F  F54  1  0.50724122  0.49275878  0.16347248  1
  F  F55  1  0.98551756  0.49275878  0.16347248  1
