# generated using pymatgen
data_Sr3Nb5O15
_symmetry_space_group_name_H-M   'P 1'
_cell_length_a   4.00064632
_cell_length_b   12.68441195
_cell_length_c   12.68441195
_cell_angle_alpha   90.00000000
_cell_angle_beta   90.00000000
_cell_angle_gamma   90.00000000
_symmetry_Int_Tables_number   1
_chemical_formula_structural   Sr3Nb5O15
_chemical_formula_sum   'Sr6 Nb10 O30'
_cell_volume   643.68121528
_cell_formula_units_Z   2
loop_
 _symmetry_equiv_pos_site_id
 _symmetry_equiv_pos_as_xyz
  1  'x, y, z'
loop_
 _atom_site_type_symbol
 _atom_site_label
 _atom_site_symmetry_multiplicity
 _atom_site_fract_x
 _atom_site_fract_y
 _atom_site_fract_z
 _atom_site_occupancy
  Sr  Sr0  1  0.99719184  -0.00000000  0.00000000  1
  Sr  Sr1  1  0.99719184  0.50000000  0.50000000  1
  Sr  Sr2  1  0.01075322  0.66205309  0.16205309  1
  Sr  Sr3  1  0.01075322  0.33794691  0.83794691  1
  Sr  Sr4  1  0.01075322  0.83794691  0.66205309  1
  Sr  Sr5  1  0.01075322  0.16205309  0.33794691  1
  Nb  Nb6  1  0.50275698  0.50000000  0.00000000  1
  Nb  Nb7  1  0.50275698  -0.00000000  0.50000000  1
  Nb  Nb8  1  0.49995379  0.21066783  0.07889485  1
  Nb  Nb9  1  0.49995379  0.78933217  0.92110515  1
  Nb  Nb10  1  0.49995379  0.92110515  0.21066783  1
  Nb  Nb11  1  0.49995379  0.71066783  0.42110515  1
  Nb  Nb12  1  0.49995379  0.07889485  0.78933217  1
  Nb  Nb13  1  0.49995379  0.28933217  0.57889485  1
  Nb  Nb14  1  0.49995379  0.42110515  0.28933217  1
  Nb  Nb15  1  0.49995379  0.57889485  0.71066783  1
  O  O16  1  0.99941249  0.20626974  0.07910606  1
  O  O17  1  0.99941249  0.79373026  0.92089394  1
  O  O18  1  0.99941249  0.92089394  0.20626974  1
  O  O19  1  0.99941249  0.70626974  0.42089394  1
  O  O20  1  0.99941249  0.07910606  0.79373026  1
  O  O21  1  0.99941249  0.29373026  0.57910606  1
  O  O22  1  0.99941249  0.42089394  0.29373026  1
  O  O23  1  0.99941249  0.57910606  0.70626974  1
  O  O24  1  0.49857378  0.06419099  0.13544963  1
  O  O25  1  0.49857378  0.93580901  0.86455037  1
  O  O26  1  0.49857378  0.86455037  0.06419099  1
  O  O27  1  0.49857378  0.56419099  0.36455037  1
  O  O28  1  0.49857378  0.13544963  0.93580901  1
  O  O29  1  0.49857378  0.43580901  0.63544963  1
  O  O30  1  0.49857378  0.36455037  0.43580901  1
  O  O31  1  0.49857378  0.63544963  0.56419099  1
  O  O32  1  0.00038236  0.50000000  0.00000000  1
  O  O33  1  0.00038236  -0.00000000  0.50000000  1
  O  O34  1  0.49996392  0.22692708  0.72692708  1
  O  O35  1  0.49996392  0.77307292  0.27307292  1
  O  O36  1  0.49996392  0.27307292  0.22692708  1
  O  O37  1  0.49996392  0.72692708  0.77307292  1
  O  O38  1  0.49886858  0.01101460  0.34108089  1
  O  O39  1  0.49886858  0.98898540  0.65891911  1
  O  O40  1  0.49886858  0.65891911  0.01101460  1
  O  O41  1  0.49886858  0.51101460  0.15891911  1
  O  O42  1  0.49886858  0.34108089  0.98898540  1
  O  O43  1  0.49886858  0.48898540  0.84108089  1
  O  O44  1  0.49886858  0.15891911  0.48898540  1
  O  O45  1  0.49886858  0.84108089  0.51101460  1
