# generated using pymatgen
data_RbB2SbO6
_symmetry_space_group_name_H-M   'P 1'
_cell_length_a   3.89225512
_cell_length_b   7.47695552
_cell_length_c   9.76536388
_cell_angle_alpha   90.00000000
_cell_angle_beta   90.00000000
_cell_angle_gamma   90.00000000
_symmetry_Int_Tables_number   1
_chemical_formula_structural   RbB2SbO6
_chemical_formula_sum   'Rb2 B4 Sb2 O12'
_cell_volume   284.19375244
_cell_formula_units_Z   2
loop_
 _symmetry_equiv_pos_site_id
 _symmetry_equiv_pos_as_xyz
  1  'x, y, z'
loop_
 _atom_site_type_symbol
 _atom_site_label
 _atom_site_symmetry_multiplicity
 _atom_site_fract_x
 _atom_site_fract_y
 _atom_site_fract_z
 _atom_site_occupancy
  Rb  Rb0  1  0.55557214  0.00000000  0.61227016  1
  Rb  Rb1  1  0.44442786  0.50000000  0.11227016  1
  B  B2  1  0.99084572  0.66872166  0.79009238  1
  B  B3  1  0.00915428  0.83127834  0.29009238  1
  B  B4  1  0.00915428  0.16872166  0.29009238  1
  B  B5  1  0.99084572  0.33127834  0.79009238  1
  Sb  Sb6  1  0.93397143  0.00000000  0.00909443  1
  Sb  Sb7  1  0.06602857  0.50000000  0.50909443  1
  O  O8  1  0.93273071  0.80709135  0.15317026  1
  O  O9  1  0.06726929  0.69290865  0.65317026  1
  O  O10  1  0.06726929  0.30709135  0.65317026  1
  O  O11  1  0.93273071  0.19290865  0.15317026  1
  O  O12  1  0.02639474  0.00000000  0.35340431  1
  O  O13  1  0.97360526  0.50000000  0.85340431  1
  O  O14  1  0.43335544  0.00000000  0.00604754  1
  O  O15  1  0.56664456  0.50000000  0.50604754  1
  O  O16  1  0.91597876  0.81770191  0.86263914  1
  O  O17  1  0.08402124  0.68229809  0.36263914  1
  O  O18  1  0.08402124  0.31770191  0.36263914  1
  O  O19  1  0.91597876  0.18229809  0.86263914  1
