# generated using pymatgen
data_Nd6Ni2Sn
_symmetry_space_group_name_H-M   'P 1'
_cell_length_a   8.75320340
_cell_length_b   8.75320340
_cell_length_c   8.75320340
_cell_angle_alpha   106.54600594
_cell_angle_beta   108.51903524
_cell_angle_gamma   113.42792611
_symmetry_Int_Tables_number   1
_chemical_formula_structural   Nd6Ni2Sn
_chemical_formula_sum   'Nd12 Ni4 Sn2'
_cell_volume   514.27071078
_cell_formula_units_Z   2
loop_
 _symmetry_equiv_pos_site_id
 _symmetry_equiv_pos_as_xyz
  1  'x, y, z'
loop_
 _atom_site_type_symbol
 _atom_site_label
 _atom_site_symmetry_multiplicity
 _atom_site_fract_x
 _atom_site_fract_y
 _atom_site_fract_z
 _atom_site_occupancy
  Nd  Nd0  1  0.79701816  0.76728427  0.56430243  1
  Nd  Nd1  1  0.20298184  0.23271573  0.43569757  1
  Nd  Nd2  1  0.20298184  0.76728427  0.97026612  1
  Nd  Nd3  1  0.79701816  0.23271573  0.02973388  1
  Nd  Nd4  1  0.52769727  0.71176268  0.81593458  1
  Nd  Nd5  1  0.47230273  0.28823732  0.18406542  1
  Nd  Nd6  1  0.10417190  0.28823732  0.81593458  1
  Nd  Nd7  1  0.89582810  0.71176268  0.18406542  1
  Nd  Nd8  1  0.69232627  0.37070811  0.67838183  1
  Nd  Nd9  1  0.30767373  0.62929189  0.32161817  1
  Nd  Nd10  1  0.30767373  0.98605556  0.67838183  1
  Nd  Nd11  1  0.69232627  0.01394444  0.32161817  1
  Ni  Ni12  1  0.63482568  0.00000000  0.63482568  1
  Ni  Ni13  1  0.36517432  0.00000000  0.36517432  1
  Ni  Ni14  1  0.50000000  0.38357915  0.88357915  1
  Ni  Ni15  1  0.50000000  0.61642085  0.11642085  1
  Sn  Sn16  1  -0.00000000  0.50000000  0.50000000  1
  Sn  Sn17  1  -0.00000000  0.00000000  -0.00000000  1
