# generated using pymatgen
data_In2Hg5Te8
_symmetry_space_group_name_H-M   'P 1'
_cell_length_a   9.25771042
_cell_length_b   9.25771042
_cell_length_c   9.25771042
_cell_angle_alpha   119.72735518
_cell_angle_beta   119.72735518
_cell_angle_gamma   90.47288697
_symmetry_Int_Tables_number   1
_chemical_formula_structural   In2Hg5Te8
_chemical_formula_sum   'In2 Hg5 Te8'
_cell_volume   563.33381514
_cell_formula_units_Z   1
loop_
 _symmetry_equiv_pos_site_id
 _symmetry_equiv_pos_as_xyz
  1  'x, y, z'
loop_
 _atom_site_type_symbol
 _atom_site_label
 _atom_site_symmetry_multiplicity
 _atom_site_fract_x
 _atom_site_fract_y
 _atom_site_fract_z
 _atom_site_occupancy
  In  In0  1  0.23865623  0.23865623  0.00000000  1
  In  In1  1  0.76134377  0.76134377  0.00000000  1
  Hg  Hg2  1  0.25000000  0.75000000  0.50000000  1
  Hg  Hg3  1  0.23391864  0.76608136  -0.00000000  1
  Hg  Hg4  1  0.76608136  0.23391864  0.00000000  1
  Hg  Hg5  1  0.23391864  0.23391864  0.46783729  1
  Hg  Hg6  1  0.76608136  0.76608136  0.53216271  1
  Te  Te7  1  0.40779067  0.13719940  0.27059127  1
  Te  Te8  1  0.86660812  0.13719940  0.72940873  1
  Te  Te9  1  0.86280060  0.13339188  0.27059127  1
  Te  Te10  1  0.86280060  0.59220933  0.72940873  1
  Te  Te11  1  0.86931696  0.62437107  0.24494589  1
  Te  Te12  1  0.37942518  0.62437107  0.75505411  1
  Te  Te13  1  0.37562893  0.62057482  0.24494589  1
  Te  Te14  1  0.37562893  0.13068304  0.75505411  1
