# generated using pymatgen
data_KNbPO5
_symmetry_space_group_name_H-M   'P 1'
_cell_length_a   6.61910618
_cell_length_b   13.36635489
_cell_length_c   11.22134027
_cell_angle_alpha   90.00000000
_cell_angle_beta   90.00000000
_cell_angle_gamma   90.00000000
_symmetry_Int_Tables_number   1
_chemical_formula_structural   KNbPO5
_chemical_formula_sum   'K8 Nb8 P8 O40'
_cell_volume   992.78925386
_cell_formula_units_Z   8
loop_
 _symmetry_equiv_pos_site_id
 _symmetry_equiv_pos_as_xyz
  1  'x, y, z'
loop_
 _atom_site_type_symbol
 _atom_site_label
 _atom_site_symmetry_multiplicity
 _atom_site_fract_x
 _atom_site_fract_y
 _atom_site_fract_z
 _atom_site_occupancy
  K  K0  1  0.81143923  0.89756860  0.41056791  1
  K  K1  1  0.18856077  0.10243140  0.91056791  1
  K  K2  1  0.68856077  0.39756860  0.41056791  1
  K  K3  1  0.31143923  0.60243140  0.91056791  1
  K  K4  1  0.22748833  0.87551352  0.67413057  1
  K  K5  1  0.77251167  0.12448648  0.17413057  1
  K  K6  1  0.27251167  0.37551352  0.67413057  1
  K  K7  1  0.72748833  0.62448648  0.17413057  1
  Nb  Nb8  1  0.75069639  0.74665403  0.72670880  1
  Nb  Nb9  1  0.24930361  0.25334597  0.22670880  1
  Nb  Nb10  1  0.74930361  0.24665403  0.72670880  1
  Nb  Nb11  1  0.25069639  0.75334597  0.22670880  1
  Nb  Nb12  1  0.50228937  0.87223934  0.97422770  1
  Nb  Nb13  1  0.49771063  0.12776066  0.47422770  1
  Nb  Nb14  1  0.99771063  0.37223934  0.97422770  1
  Nb  Nb15  1  0.00228937  0.62776066  0.47422770  1
  P  P16  1  0.99765820  0.82008459  0.97514252  1
  P  P17  1  0.00234180  0.17991541  0.47514252  1
  P  P18  1  0.50234180  0.32008459  0.97514252  1
  P  P19  1  0.49765820  0.67991541  0.47514252  1
  P  P20  1  0.66083156  0.99858359  0.72274974  1
  P  P21  1  0.33916844  0.00141641  0.22274974  1
  P  P22  1  0.83916844  0.49858359  0.72274974  1
  P  P23  1  0.16083156  0.50141641  0.22274974  1
  O  O24  1  0.81403044  0.89091995  0.99376917  1
  O  O25  1  0.18596956  0.10908005  0.49376917  1
  O  O26  1  0.68596956  0.39091995  0.99376917  1
  O  O27  1  0.31403044  0.60908005  0.49376917  1
  O  O28  1  0.80145271  0.90564805  0.70633080  1
  O  O29  1  0.19854729  0.09435195  0.20633080  1
  O  O30  1  0.69854729  0.40564805  0.70633080  1
  O  O31  1  0.30145271  0.59435195  0.20633080  1
  O  O32  1  0.96791218  0.51085238  0.60690809  1
  O  O33  1  0.03208782  0.48914762  0.10690809  1
  O  O34  1  0.53208782  0.01085238  0.60690809  1
  O  O35  1  0.46791218  0.98914762  0.10690809  1
  O  O36  1  0.96738417  0.74801960  0.86792566  1
  O  O37  1  0.03261583  0.25198040  0.36792566  1
  O  O38  1  0.53261583  0.24801960  0.86792566  1
  O  O39  1  0.46738417  0.75198040  0.36792566  1
  O  O40  1  0.51127650  0.98390176  0.82883373  1
  O  O41  1  0.48872350  0.01609824  0.32883373  1
  O  O42  1  0.98872350  0.48390176  0.82883373  1
  O  O43  1  0.01127650  0.51609824  0.32883373  1
  O  O44  1  0.68453771  0.61204443  0.44863147  1
  O  O45  1  0.31546229  0.38795557  0.94863147  1
  O  O46  1  0.81546229  0.11204443  0.44863147  1
  O  O47  1  0.18453771  0.88795557  0.94863147  1
  O  O48  1  0.95566976  0.72371405  0.59943321  1
  O  O49  1  0.04433024  0.27628595  0.09943321  1
  O  O50  1  0.54433024  0.22371405  0.59943321  1
  O  O51  1  0.45566976  0.77628595  0.09943321  1
  O  O52  1  0.70097756  0.59084620  0.74488729  1
  O  O53  1  0.29902244  0.40915380  0.24488729  1
  O  O54  1  0.79902244  0.09084620  0.74488729  1
  O  O55  1  0.20097756  0.90915380  0.24488729  1
  O  O56  1  0.52975176  0.74622367  0.58711477  1
  O  O57  1  0.47024824  0.25377633  0.08711477  1
  O  O58  1  0.97024824  0.24622367  0.58711477  1
  O  O59  1  0.02975176  0.75377633  0.08711477  1
  O  O60  1  0.54094479  0.77548859  0.85003855  1
  O  O61  1  0.45905521  0.22451141  0.35003855  1
  O  O62  1  0.95905521  0.27548859  0.85003855  1
  O  O63  1  0.04094479  0.72451141  0.35003855  1
