# generated using pymatgen
data_Te
_symmetry_space_group_name_H-M   'P 1'
_cell_length_a   3.10712697
_cell_length_b   5.24756219
_cell_length_c   8.29945462
_cell_angle_alpha   90.00000000
_cell_angle_beta   90.00000000
_cell_angle_gamma   90.10867676
_symmetry_Int_Tables_number   1
_chemical_formula_structural   Te
_chemical_formula_sum   Te4
_cell_volume   135.32105277
_cell_formula_units_Z   4
loop_
 _symmetry_equiv_pos_site_id
 _symmetry_equiv_pos_as_xyz
  1  'x, y, z'
loop_
 _atom_site_type_symbol
 _atom_site_label
 _atom_site_symmetry_multiplicity
 _atom_site_fract_x
 _atom_site_fract_y
 _atom_site_fract_z
 _atom_site_occupancy
  Te  Te0  1  0.23842382  0.45430249  0.27514832  1
  Te  Te1  1  0.76157618  0.54569751  0.77514832  1
  Te  Te2  1  0.23711496  0.04573509  0.49485168  1
  Te  Te3  1  0.76288504  0.95426491  0.99485168  1
