# generated using pymatgen
data_KPHO3
_symmetry_space_group_name_H-M   'P 1'
_cell_length_a   8.46422928
_cell_length_b   8.35328268
_cell_length_c   11.01354674
_cell_angle_alpha   81.73921520
_cell_angle_beta   85.40239889
_cell_angle_gamma   88.16379699
_symmetry_Int_Tables_number   1
_chemical_formula_structural   KPHO3
_chemical_formula_sum   'K8 P8 H8 O24'
_cell_volume   767.97737873
_cell_formula_units_Z   8
loop_
 _symmetry_equiv_pos_site_id
 _symmetry_equiv_pos_as_xyz
  1  'x, y, z'
loop_
 _atom_site_type_symbol
 _atom_site_label
 _atom_site_symmetry_multiplicity
 _atom_site_fract_x
 _atom_site_fract_y
 _atom_site_fract_z
 _atom_site_occupancy
  K  K0  1  0.58815396  0.69036131  0.07390569  1
  K  K1  1  0.41184604  0.30963869  0.92609431  1
  K  K2  1  0.28703556  0.11141189  0.57984105  1
  K  K3  1  0.71296444  0.88858811  0.42015895  1
  K  K4  1  0.81082898  0.21826606  0.05269171  1
  K  K5  1  0.18917102  0.78173394  0.94730829  1
  K  K6  1  0.23202312  0.71138400  0.45028667  1
  K  K7  1  0.76797688  0.28861600  0.54971333  1
  P  P8  1  0.63018892  0.00263490  0.79667346  1
  P  P9  1  0.36981108  0.99736510  0.20332654  1
  P  P10  1  0.21585078  0.45754935  0.21308049  1
  P  P11  1  0.78414922  0.54245065  0.78691951  1
  P  P12  1  0.51399623  0.28598486  0.28374763  1
  P  P13  1  0.48600377  0.71401514  0.71625237  1
  P  P14  1  0.06255524  0.14263495  0.30361730  1
  P  P15  1  0.93744476  0.85736505  0.69638270  1
  H  H16  1  0.14720874  0.45447029  0.63945115  1
  H  H17  1  0.85279126  0.54552971  0.36054885  1
  H  H18  1  0.22214634  0.48276934  0.66195564  1
  H  H19  1  0.77785366  0.51723066  0.33804436  1
  H  H20  1  0.09227940  0.22122994  0.90473947  1
  H  H21  1  0.90772060  0.77877006  0.09526053  1
  H  H22  1  0.05175585  0.27783557  0.85641846  1
  H  H23  1  0.94824415  0.72216443  0.14358154  1
  O  O24  1  0.54827382  0.19072080  0.40551889  1
  O  O25  1  0.45172618  0.80927920  0.59448111  1
  O  O26  1  0.53293478  0.14042835  0.73541815  1
  O  O27  1  0.46706522  0.85957165  0.26458185  1
  O  O28  1  0.63335188  0.39860820  0.21307982  1
  O  O29  1  0.36664812  0.60139180  0.78692018  1
  O  O30  1  0.31077859  0.98995432  0.07972847  1
  O  O31  1  0.68922141  0.01004568  0.92027153  1
  O  O32  1  0.03607062  0.19010124  0.42956204  1
  O  O33  1  0.96392938  0.80989876  0.57043796  1
  O  O34  1  0.11533170  0.57590065  0.27505068  1
  O  O35  1  0.88466830  0.42409935  0.72494932  1
  O  O36  1  0.22822455  0.03139280  0.30681705  1
  O  O37  1  0.77177545  0.96860720  0.69318295  1
  O  O38  1  0.93683709  0.05721774  0.25082093  1
  O  O39  1  0.06316291  0.94278226  0.74917907  1
  O  O40  1  0.34609356  0.38181634  0.31004227  1
  O  O41  1  0.65390644  0.61818366  0.68995773  1
  O  O42  1  0.47109395  0.16529736  0.18620382  1
  O  O43  1  0.52890605  0.83470264  0.81379618  1
  O  O44  1  0.29815296  0.50946019  0.08801688  1
  O  O45  1  0.70184704  0.49053981  0.91198312  1
  O  O46  1  0.11537028  0.29653531  0.20005926  1
  O  O47  1  0.88462972  0.70346469  0.79994074  1
