# generated using pymatgen
data_Ho2Cu(WO4)4
_symmetry_space_group_name_H-M   'P 1'
_cell_length_a   5.65041078
_cell_length_b   10.12601166
_cell_length_c   11.29356761
_cell_angle_alpha   109.67529895
_cell_angle_beta   90.00000000
_cell_angle_gamma   106.20081429
_symmetry_Int_Tables_number   1
_chemical_formula_structural   Ho2Cu(WO4)4
_chemical_formula_sum   'Ho4 Cu2 W8 O32'
_cell_volume   581.12461074
_cell_formula_units_Z   2
loop_
 _symmetry_equiv_pos_site_id
 _symmetry_equiv_pos_as_xyz
  1  'x, y, z'
loop_
 _atom_site_type_symbol
 _atom_site_label
 _atom_site_symmetry_multiplicity
 _atom_site_fract_x
 _atom_site_fract_y
 _atom_site_fract_z
 _atom_site_occupancy
  Ho  Ho0  1  0.48128522  0.29936787  0.95584096  1
  Ho  Ho1  1  0.51871478  0.70063213  0.04415904  1
  Ho  Ho2  1  0.18191735  0.70063213  0.54415904  1
  Ho  Ho3  1  0.81808265  0.29936787  0.45584096  1
  Cu  Cu4  1  0.65267271  -0.00000000  0.75000000  1
  Cu  Cu5  1  0.34732729  -0.00000000  0.25000000  1
  W  W6  1  0.68943865  0.62476704  0.71387363  1
  W  W7  1  0.31056135  0.37523296  0.28612637  1
  W  W8  1  0.06467161  0.37523296  0.78612637  1
  W  W9  1  0.93532839  0.62476704  0.21387363  1
  W  W10  1  0.75593302  0.88755932  0.40829938  1
  W  W11  1  0.24406698  0.11244068  0.59170062  1
  W  W12  1  0.86837370  0.11244068  0.09170062  1
  W  W13  1  0.13162630  0.88755932  0.90829938  1
  O  O14  1  0.77807784  0.73793798  0.89785532  1
  O  O15  1  0.22192216  0.26206202  0.10214468  1
  O  O16  1  0.04013986  0.26206202  0.60214468  1
  O  O17  1  0.95986014  0.73793798  0.39785532  1
  O  O18  1  0.25691152  0.46633349  0.94573487  1
  O  O19  1  0.74308848  0.53366651  0.05426513  1
  O  O20  1  0.79057803  0.53366651  0.55426513  1
  O  O21  1  0.20942197  0.46633349  0.44573487  1
  O  O22  1  0.52783359  0.74165265  0.67508247  1
  O  O23  1  0.47216641  0.25834735  0.32491753  1
  O  O24  1  0.78618093  0.25834735  0.82491753  1
  O  O25  1  0.21381907  0.74165265  0.17508247  1
  O  O26  1  0.87339814  0.97874594  0.58916266  1
  O  O27  1  0.12660186  0.02125406  0.41083734  1
  O  O28  1  0.89465220  0.02125406  0.91083734  1
  O  O29  1  0.10534780  0.97874594  0.08916266  1
  O  O30  1  0.52282037  0.23814279  0.57425127  1
  O  O31  1  0.47717963  0.76185721  0.42574873  1
  O  O32  1  0.28467758  0.76185721  0.92574873  1
  O  O33  1  0.71532242  0.23814279  0.07425127  1
  O  O34  1  0.39444211  0.02791764  0.87936034  1
  O  O35  1  0.60555789  0.97208236  0.12063966  1
  O  O36  1  0.36652447  0.97208236  0.62063966  1
  O  O37  1  0.63347553  0.02791764  0.37936034  1
  O  O38  1  0.41521766  0.49218076  0.73569226  1
  O  O39  1  0.58478234  0.50781924  0.26430774  1
  O  O40  1  0.92303690  0.50781924  0.76430774  1
  O  O41  1  0.07696310  0.49218076  0.23569226  1
  O  O42  1  0.24001315  0.21531256  0.77221668  1
  O  O43  1  0.75998685  0.78468744  0.22778332  1
  O  O44  1  0.02470059  0.78468744  0.72778332  1
  O  O45  1  0.97529941  0.21531256  0.27221668  1
