# generated using pymatgen
data_SmGe3Rh5
_symmetry_space_group_name_H-M   'P 1'
_cell_length_a   3.95772457
_cell_length_b   22.77114909
_cell_length_c   22.77114909
_cell_angle_alpha   120.00000038
_cell_angle_beta   90.00000000
_cell_angle_gamma   90.00000000
_symmetry_Int_Tables_number   1
_chemical_formula_structural   SmGe3Rh5
_chemical_formula_sum   'Sm12 Ge36 Rh60'
_cell_volume   1777.24004677
_cell_formula_units_Z   12
loop_
 _symmetry_equiv_pos_site_id
 _symmetry_equiv_pos_as_xyz
  1  'x, y, z'
loop_
 _atom_site_type_symbol
 _atom_site_label
 _atom_site_symmetry_multiplicity
 _atom_site_fract_x
 _atom_site_fract_y
 _atom_site_fract_z
 _atom_site_occupancy
  Sm  Sm0  1  0.75000000  0.73493184  0.77028712  1
  Sm  Sm1  1  0.25000000  0.26506816  0.22971288  1
  Sm  Sm2  1  0.75000000  0.03535528  0.26506816  1
  Sm  Sm3  1  0.25000000  0.96464472  0.73493184  1
  Sm  Sm4  1  0.75000000  0.22971288  0.96464472  1
  Sm  Sm5  1  0.25000000  0.77028712  0.03535528  1
  Sm  Sm6  1  0.75000000  0.38498156  0.52431063  1
  Sm  Sm7  1  0.25000000  0.61501844  0.47568937  1
  Sm  Sm8  1  0.75000000  0.13932907  0.61501844  1
  Sm  Sm9  1  0.25000000  0.86067093  0.38498156  1
  Sm  Sm10  1  0.75000000  0.47568937  0.86067093  1
  Sm  Sm11  1  0.25000000  0.52431063  0.13932907  1
  Ge  Ge12  1  0.75000000  0.88963679  0.06305844  1
  Ge  Ge13  1  0.25000000  0.11036321  0.93694156  1
  Ge  Ge14  1  0.75000000  0.17342165  0.11036321  1
  Ge  Ge15  1  0.25000000  0.82657835  0.88963679  1
  Ge  Ge16  1  0.75000000  0.93694156  0.82657835  1
  Ge  Ge17  1  0.25000000  0.06305844  0.17342165  1
  Ge  Ge18  1  0.75000000  0.63941153  0.16518251  1
  Ge  Ge19  1  0.25000000  0.36058847  0.83481749  1
  Ge  Ge20  1  0.75000000  0.52577098  0.36058847  1
  Ge  Ge21  1  0.25000000  0.47422902  0.63941153  1
  Ge  Ge22  1  0.75000000  0.83481749  0.47422902  1
  Ge  Ge23  1  0.25000000  0.16518251  0.52577098  1
  Ge  Ge24  1  0.75000000  0.77894352  0.26706338  1
  Ge  Ge25  1  0.25000000  0.22105648  0.73293662  1
  Ge  Ge26  1  0.75000000  0.48811986  0.22105648  1
  Ge  Ge27  1  0.25000000  0.51188014  0.77894352  1
  Ge  Ge28  1  0.75000000  0.73293662  0.51188014  1
  Ge  Ge29  1  0.25000000  0.26706338  0.48811986  1
  Ge  Ge30  1  0.75000000  0.73945698  0.12418119  1
  Ge  Ge31  1  0.25000000  0.26054302  0.87581881  1
  Ge  Ge32  1  0.75000000  0.38472421  0.26054302  1
  Ge  Ge33  1  0.25000000  0.61527579  0.73945698  1
  Ge  Ge34  1  0.75000000  0.87581881  0.61527579  1
  Ge  Ge35  1  0.25000000  0.12418119  0.38472421  1
  Ge  Ge36  1  0.75000000  0.98489889  0.41495479  1
  Ge  Ge37  1  0.25000000  0.01510111  0.58504521  1
  Ge  Ge38  1  0.75000000  0.43005590  0.01510111  1
  Ge  Ge39  1  0.25000000  0.56994410  0.98489889  1
  Ge  Ge40  1  0.75000000  0.58504521  0.56994410  1
  Ge  Ge41  1  0.25000000  0.41495479  0.43005590  1
  Ge  Ge42  1  0.75000000  0.68289786  0.91711398  1
  Ge  Ge43  1  0.25000000  0.31710214  0.08288602  1
  Ge  Ge44  1  0.75000000  0.23421612  0.31710214  1
  Ge  Ge45  1  0.25000000  0.76578388  0.68289786  1
  Ge  Ge46  1  0.75000000  0.08288602  0.76578388  1
  Ge  Ge47  1  0.25000000  0.91711398  0.23421612  1
  Rh  Rh48  1  0.75000000  0.74397952  0.35391242  1
  Rh  Rh49  1  0.25000000  0.25602048  0.64608758  1
  Rh  Rh50  1  0.75000000  0.60993290  0.25602048  1
  Rh  Rh51  1  0.25000000  0.39006710  0.74397952  1
  Rh  Rh52  1  0.75000000  0.64608758  0.39006710  1
  Rh  Rh53  1  0.25000000  0.35391242  0.60993290  1
  Rh  Rh54  1  0.75000000  0.44663575  0.69662728  1
  Rh  Rh55  1  0.25000000  0.55336425  0.30337272  1
  Rh  Rh56  1  0.75000000  0.24999152  0.55336425  1
  Rh  Rh57  1  0.25000000  0.75000848  0.44663575  1
  Rh  Rh58  1  0.75000000  0.30337272  0.75000848  1
  Rh  Rh59  1  0.25000000  0.69662728  0.24999152  1
  Rh  Rh60  1  0.75000000  0.86041831  0.15497249  1
  Rh  Rh61  1  0.25000000  0.13958169  0.84502751  1
  Rh  Rh62  1  0.75000000  0.29455418  0.13958169  1
  Rh  Rh63  1  0.25000000  0.70544582  0.86041831  1
  Rh  Rh64  1  0.75000000  0.84502751  0.70544582  1
  Rh  Rh65  1  0.25000000  0.15497249  0.29455418  1
  Rh  Rh66  1  0.75000000  0.95808679  0.50680432  1
  Rh  Rh67  1  0.25000000  0.04191321  0.49319568  1
  Rh  Rh68  1  0.75000000  0.54871754  0.04191321  1
  Rh  Rh69  1  0.25000000  0.45128246  0.95808679  1
  Rh  Rh70  1  0.75000000  0.49319568  0.45128246  1
  Rh  Rh71  1  0.25000000  0.50680432  0.54871754  1
  Rh  Rh72  1  0.75000000  0.59131607  0.79845938  1
  Rh  Rh73  1  0.25000000  0.40868393  0.20154062  1
  Rh  Rh74  1  0.75000000  0.20714330  0.40868393  1
  Rh  Rh75  1  0.25000000  0.79285670  0.59131607  1
  Rh  Rh76  1  0.75000000  0.20154062  0.79285670  1
  Rh  Rh77  1  0.25000000  0.79845938  0.20714330  1
  Rh  Rh78  1  0.75000000  0.80260429  0.94303963  1
  Rh  Rh79  1  0.25000000  0.19739571  0.05696037  1
  Rh  Rh80  1  0.75000000  0.14043535  0.19739571  1
  Rh  Rh81  1  0.25000000  0.85956465  0.80260429  1
  Rh  Rh82  1  0.75000000  0.05696037  0.85956465  1
  Rh  Rh83  1  0.25000000  0.94303963  0.14043535  1
  Rh  Rh84  1  0.75000000  0.89928711  0.29369892  1
  Rh  Rh85  1  0.25000000  0.10071289  0.70630108  1
  Rh  Rh86  1  0.75000000  0.39441181  0.10071289  1
  Rh  Rh87  1  0.25000000  0.60558819  0.89928711  1
  Rh  Rh88  1  0.75000000  0.70630108  0.60558819  1
  Rh  Rh89  1  0.25000000  0.29369892  0.39441181  1
  Rh  Rh90  1  0.75000000  0.91105967  0.91801621  1
  Rh  Rh91  1  0.25000000  0.08894033  0.08198379  1
  Rh  Rh92  1  0.75000000  0.00695654  0.08894033  1
  Rh  Rh93  1  0.25000000  0.99304346  0.91105967  1
  Rh  Rh94  1  0.75000000  0.08198379  0.99304346  1
  Rh  Rh95  1  0.25000000  0.91801621  0.00695654  1
  Rh  Rh96  1  0.75000000  0.55233798  0.65790429  1
  Rh  Rh97  1  0.25000000  0.44766202  0.34209571  1
  Rh  Rh98  1  0.75000000  0.10556630  0.44766202  1
  Rh  Rh99  1  0.25000000  0.89443370  0.55233798  1
  Rh  Rh100  1  0.75000000  0.34209571  0.89443370  1
  Rh  Rh101  1  0.25000000  0.65790429  0.10556630  1
  Rh  Rh102  1  0.75000000  0.64794435  0.00400481  1
  Rh  Rh103  1  0.25000000  0.35205565  0.99599519  1
  Rh  Rh104  1  0.75000000  0.35606046  0.35205565  1
  Rh  Rh105  1  0.25000000  0.64393954  0.64794435  1
  Rh  Rh106  1  0.75000000  0.99599519  0.64393954  1
  Rh  Rh107  1  0.25000000  0.00400481  0.35606046  1
