# generated using pymatgen
data_FePH3CO7
_symmetry_space_group_name_H-M   'P 1'
_cell_length_a   5.12637305
_cell_length_b   7.90642659
_cell_length_c   7.82587292
_cell_angle_alpha   98.20318920
_cell_angle_beta   102.46323185
_cell_angle_gamma   106.10285246
_symmetry_Int_Tables_number   1
_chemical_formula_structural   FePH3CO7
_chemical_formula_sum   'Fe2 P2 H6 C2 O14'
_cell_volume   290.54826740
_cell_formula_units_Z   2
loop_
 _symmetry_equiv_pos_site_id
 _symmetry_equiv_pos_as_xyz
  1  'x, y, z'
loop_
 _atom_site_type_symbol
 _atom_site_label
 _atom_site_symmetry_multiplicity
 _atom_site_fract_x
 _atom_site_fract_y
 _atom_site_fract_z
 _atom_site_occupancy
  Fe  Fe0  1  0.55366128  0.26491058  0.29306647  1
  Fe  Fe1  1  0.44633872  0.73508942  0.70693353  1
  P  P2  1  0.14784235  0.53905896  0.28986017  1
  P  P3  1  0.85215765  0.46094104  0.71013983  1
  H  H4  1  0.23924759  0.60363021  0.03379668  1
  H  H5  1  0.76075241  0.39636979  0.96620332  1
  H  H6  1  0.72894887  0.06451178  0.64277454  1
  H  H7  1  0.27105113  0.93548822  0.35722546  1
  H  H8  1  0.06281179  0.05100582  0.31757112  1
  H  H9  1  0.93718821  0.94899418  0.68242888  1
  C  C10  1  0.37941850  0.02677680  0.94596539  1
  C  C11  1  0.62058150  0.97322320  0.05403461  1
  O  O12  1  0.30737175  0.40407649  0.31858926  1
  O  O13  1  0.69262825  0.59592351  0.68141074  1
  O  O14  1  0.26350576  0.05881863  0.36586814  1
  O  O15  1  0.73649424  0.94118137  0.63413186  1
  O  O16  1  0.73263246  0.06161782  0.21553282  1
  O  O17  1  0.26736754  0.93838218  0.78446718  1
  O  O18  1  0.26046891  0.66119961  0.16041839  1
  O  O19  1  0.73953109  0.33880039  0.83958161  1
  O  O20  1  0.19683513  0.67686652  0.46298029  1
  O  O21  1  0.80316487  0.32313348  0.53701971  1
  O  O22  1  0.31155434  0.15181120  0.02436411  1
  O  O23  1  0.68844566  0.84818880  0.97563589  1
  O  O24  1  0.82869212  0.43924211  0.20113176  1
  O  O25  1  0.17130788  0.56075789  0.79886824  1
