# generated using pymatgen
data_Er(Co2Ge)2
_symmetry_space_group_name_H-M   'P 1'
_cell_length_a   3.70480223
_cell_length_b   7.21969577
_cell_length_c   7.21969577
_cell_angle_alpha   90.00000000
_cell_angle_beta   90.00000000
_cell_angle_gamma   90.00000000
_symmetry_Int_Tables_number   1
_chemical_formula_structural   Er(Co2Ge)2
_chemical_formula_sum   'Er2 Co8 Ge4'
_cell_volume   193.10913741
_cell_formula_units_Z   2
loop_
 _symmetry_equiv_pos_site_id
 _symmetry_equiv_pos_as_xyz
  1  'x, y, z'
loop_
 _atom_site_type_symbol
 _atom_site_label
 _atom_site_symmetry_multiplicity
 _atom_site_fract_x
 _atom_site_fract_y
 _atom_site_fract_z
 _atom_site_occupancy
  Er  Er0  1  -0.00000000  0.00000000  -0.00000000  1
  Er  Er1  1  0.50000000  0.50000000  0.50000000  1
  Co  Co2  1  -0.00000000  0.14625337  0.58236030  1
  Co  Co3  1  0.00000000  0.85374663  0.41763970  1
  Co  Co4  1  0.50000000  0.91763970  0.64625337  1
  Co  Co5  1  0.50000000  0.35374663  0.08236030  1
  Co  Co6  1  0.50000000  0.08236030  0.35374663  1
  Co  Co7  1  0.50000000  0.64625337  0.91763970  1
  Co  Co8  1  0.00000000  0.58236030  0.14625337  1
  Co  Co9  1  -0.00000000  0.41763970  0.85374663  1
  Ge  Ge10  1  -0.00000000  0.27852627  0.27852627  1
  Ge  Ge11  1  -0.00000000  0.72147373  0.72147373  1
  Ge  Ge12  1  0.50000000  0.22147373  0.77852627  1
  Ge  Ge13  1  0.50000000  0.77852627  0.22147373  1
