# generated using pymatgen
data_Ba2CrF6
_symmetry_space_group_name_H-M   'P 1'
_cell_length_a   6.06669158
_cell_length_b   6.13500361
_cell_length_c   8.55624783
_cell_angle_alpha   111.00872823
_cell_angle_beta   90.00000000
_cell_angle_gamma   90.00000000
_symmetry_Int_Tables_number   1
_chemical_formula_structural   Ba2CrF6
_chemical_formula_sum   'Ba4 Cr2 F12'
_cell_volume   297.28735061
_cell_formula_units_Z   2
loop_
 _symmetry_equiv_pos_site_id
 _symmetry_equiv_pos_as_xyz
  1  'x, y, z'
loop_
 _atom_site_type_symbol
 _atom_site_label
 _atom_site_symmetry_multiplicity
 _atom_site_fract_x
 _atom_site_fract_y
 _atom_site_fract_z
 _atom_site_occupancy
  Ba  Ba0  1  0.00000000  0.65389658  0.30779316  1
  Ba  Ba1  1  0.00000000  0.34610342  0.69220684  1
  Ba  Ba2  1  0.50000000  0.84610342  0.69220684  1
  Ba  Ba3  1  0.50000000  0.15389658  0.30779316  1
  Cr  Cr4  1  -0.00000000  0.00000000  0.00000000  1
  Cr  Cr5  1  0.50000000  0.50000000  0.00000000  1
  F  F6  1  0.00000000  0.87505978  0.75011956  1
  F  F7  1  0.00000000  0.12494022  0.24988044  1
  F  F8  1  0.50000000  0.62494022  0.24988044  1
  F  F9  1  0.50000000  0.37505978  0.75011956  1
  F  F10  1  0.76824192  0.76349637  0.00000000  1
  F  F11  1  0.23175808  0.23650363  0.00000000  1
  F  F12  1  0.26824192  0.73650363  0.00000000  1
  F  F13  1  0.73175808  0.26349637  0.00000000  1
  F  F14  1  0.75000000  0.50053158  0.50000000  1
  F  F15  1  0.25000000  0.49946842  0.50000000  1
  F  F16  1  0.25000000  0.99946842  0.50000000  1
  F  F17  1  0.75000000  0.00053158  0.50000000  1
