# generated using pymatgen
data_CeZnCo2
_symmetry_space_group_name_H-M   'P 1'
_cell_length_a   5.17344568
_cell_length_b   5.17344568
_cell_length_c   15.85564361
_cell_angle_alpha   90.00000000
_cell_angle_beta   90.00000000
_cell_angle_gamma   119.99998666
_symmetry_Int_Tables_number   1
_chemical_formula_structural   CeZnCo2
_chemical_formula_sum   'Ce6 Zn6 Co12'
_cell_volume   367.51439293
_cell_formula_units_Z   6
loop_
 _symmetry_equiv_pos_site_id
 _symmetry_equiv_pos_as_xyz
  1  'x, y, z'
loop_
 _atom_site_type_symbol
 _atom_site_label
 _atom_site_symmetry_multiplicity
 _atom_site_fract_x
 _atom_site_fract_y
 _atom_site_fract_z
 _atom_site_occupancy
  Ce  Ce0  1  0.66666700  0.33333300  0.45440529  1
  Ce  Ce1  1  0.33333300  0.66666700  0.54559471  1
  Ce  Ce2  1  0.33333300  0.66666700  0.95440529  1
  Ce  Ce3  1  0.66666700  0.33333300  0.04559471  1
  Ce  Ce4  1  0.66666700  0.33333300  0.25000000  1
  Ce  Ce5  1  0.33333300  0.66666700  0.75000000  1
  Zn  Zn6  1  -0.00000000  -0.00000000  0.75000000  1
  Zn  Zn7  1  -0.00000000  -0.00000000  0.25000000  1
  Zn  Zn8  1  0.66666700  0.33333300  0.75000000  1
  Zn  Zn9  1  0.33333300  0.66666700  0.25000000  1
  Zn  Zn10  1  -0.00000000  -0.00000000  0.00000000  1
  Zn  Zn11  1  -0.00000000  -0.00000000  0.50000000  1
  Co  Co12  1  0.83173916  0.16826084  0.87554520  1
  Co  Co13  1  0.16826084  0.83173916  0.12445480  1
  Co  Co14  1  0.33652168  0.16826084  0.87554520  1
  Co  Co15  1  0.16826084  0.83173916  0.37554520  1
  Co  Co16  1  0.66347832  0.83173916  0.12445480  1
  Co  Co17  1  0.83173916  0.16826084  0.62445480  1
  Co  Co18  1  0.83173916  0.66347832  0.87554520  1
  Co  Co19  1  0.66347832  0.83173916  0.37554520  1
  Co  Co20  1  0.16826084  0.33652168  0.12445480  1
  Co  Co21  1  0.33652168  0.16826084  0.62445480  1
  Co  Co22  1  0.16826084  0.33652168  0.37554520  1
  Co  Co23  1  0.83173916  0.66347832  0.62445480  1
