# generated using pymatgen
data_Ca2EuBeO5
_symmetry_space_group_name_H-M   'P 1'
_cell_length_a   6.52970245
_cell_length_b   7.18419928
_cell_length_c   9.42088221
_cell_angle_alpha   90.00000000
_cell_angle_beta   90.00000000
_cell_angle_gamma   90.00000000
_symmetry_Int_Tables_number   1
_chemical_formula_structural   Ca2EuBeO5
_chemical_formula_sum   'Ca8 Eu4 Be4 O20'
_cell_volume   441.94002496
_cell_formula_units_Z   4
loop_
 _symmetry_equiv_pos_site_id
 _symmetry_equiv_pos_as_xyz
  1  'x, y, z'
loop_
 _atom_site_type_symbol
 _atom_site_label
 _atom_site_symmetry_multiplicity
 _atom_site_fract_x
 _atom_site_fract_y
 _atom_site_fract_z
 _atom_site_occupancy
  Ca  Ca0  1  0.91900364  0.97612928  0.67389871  1
  Ca  Ca1  1  0.08099636  0.02387072  0.32610129  1
  Ca  Ca2  1  0.41900364  0.02387072  0.82610129  1
  Ca  Ca3  1  0.08099636  0.47612928  0.32610129  1
  Ca  Ca4  1  0.58099636  0.97612928  0.17389871  1
  Ca  Ca5  1  0.91900364  0.52387072  0.67389871  1
  Ca  Ca6  1  0.58099636  0.52387072  0.17389871  1
  Ca  Ca7  1  0.41900364  0.47612928  0.82610129  1
  Eu  Eu8  1  0.40711771  0.75000000  0.52278519  1
  Eu  Eu9  1  0.59288229  0.25000000  0.47721481  1
  Eu  Eu10  1  0.90711771  0.25000000  0.97721481  1
  Eu  Eu11  1  0.09288229  0.75000000  0.02278519  1
  Be  Be12  1  0.68905245  0.75000000  0.89487956  1
  Be  Be13  1  0.31094755  0.25000000  0.10512044  1
  Be  Be14  1  0.18905245  0.25000000  0.60512044  1
  Be  Be15  1  0.81094755  0.75000000  0.39487956  1
  O  O16  1  0.16731569  0.75000000  0.77721626  1
  O  O17  1  0.83268431  0.25000000  0.22278374  1
  O  O18  1  0.66731569  0.25000000  0.72278374  1
  O  O19  1  0.33268431  0.75000000  0.27721626  1
  O  O20  1  0.63495071  0.75000000  0.72186963  1
  O  O21  1  0.36504929  0.25000000  0.27813037  1
  O  O22  1  0.13495071  0.25000000  0.77813037  1
  O  O23  1  0.86504929  0.75000000  0.22186963  1
  O  O24  1  0.47551610  0.75000000  0.98861889  1
  O  O25  1  0.52448390  0.25000000  0.01138111  1
  O  O26  1  0.97551610  0.25000000  0.51138111  1
  O  O27  1  0.02448390  0.75000000  0.48861889  1
  O  O28  1  0.81386914  0.94119099  0.92921003  1
  O  O29  1  0.18613086  0.05880901  0.07078997  1
  O  O30  1  0.31386914  0.05880901  0.57078997  1
  O  O31  1  0.18613086  0.44119099  0.07078997  1
  O  O32  1  0.68613086  0.94119099  0.42921003  1
  O  O33  1  0.81386914  0.55880901  0.92921003  1
  O  O34  1  0.68613086  0.55880901  0.42921003  1
  O  O35  1  0.31386914  0.44119099  0.57078997  1
