# generated using pymatgen
data_Cd3H28C12(N15O)2
_symmetry_space_group_name_H-M   'P 1'
_cell_length_a   8.50148052
_cell_length_b   9.90512306
_cell_length_c   9.90512306
_cell_angle_alpha   101.42507044
_cell_angle_beta   106.21046572
_cell_angle_gamma   106.21046572
_symmetry_Int_Tables_number   1
_chemical_formula_structural   Cd3H28C12(N15O)2
_chemical_formula_sum   'Cd3 H28 C12 N30 O2'
_cell_volume   733.82082770
_cell_formula_units_Z   1
loop_
 _symmetry_equiv_pos_site_id
 _symmetry_equiv_pos_as_xyz
  1  'x, y, z'
loop_
 _atom_site_type_symbol
 _atom_site_label
 _atom_site_symmetry_multiplicity
 _atom_site_fract_x
 _atom_site_fract_y
 _atom_site_fract_z
 _atom_site_occupancy
  Cd  Cd0  1  0.73720521  0.73054459  0.26173281  1
  Cd  Cd1  1  0.26279479  0.73826719  0.26945541  1
  Cd  Cd2  1  -0.00000000  0.14819744  0.85180256  1
  H  H3  1  0.13154911  0.51849771  0.43674485  1
  H  H4  1  0.86845089  0.56325515  0.48150229  1
  H  H5  1  0.73217140  0.22321677  0.87105101  1
  H  H6  1  0.26782860  0.12894899  0.77678323  1
  H  H7  1  0.51269302  0.41279756  0.17068782  1
  H  H8  1  0.48730698  0.82931218  0.58720244  1
  H  H9  1  0.80781676  0.90668206  0.56634150  1
  H  H10  1  0.19218324  0.43365850  0.09331794  1
  H  H11  1  0.48765435  0.23287796  0.11747588  1
  H  H12  1  0.51234565  0.88252412  0.76712204  1
  H  H13  1  0.64257487  0.09784061  0.71675189  1
  H  H14  1  0.35742513  0.28324811  0.90215939  1
  H  H15  1  0.78329778  0.40414738  0.51709952  1
  H  H16  1  0.21670222  0.48290048  0.59585262  1
  H  H17  1  0.55880716  0.51630100  0.75377212  1
  H  H18  1  0.44119284  0.24622788  0.48369900  1
  H  H19  1  0.69543767  0.57334359  0.93633928  1
  H  H20  1  0.30456233  0.06366072  0.42665641  1
  H  H21  1  0.62837282  0.89609150  0.05360850  1
  H  H22  1  0.37162718  0.94639150  0.10390850  1
  H  H23  1  0.00523295  0.63698158  0.94687882  1
  H  H24  1  0.99476705  0.05312118  0.36301842  1
  H  H25  1  0.72228164  0.06723035  0.04059550  1
  H  H26  1  0.27771836  0.95940450  0.93276965  1
  H  H27  1  0.97108046  0.56727076  0.76296551  1
  H  H28  1  0.02891954  0.23703449  0.43272924  1
  H  H29  1  0.86555771  0.84636049  0.71358634  1
  H  H30  1  0.13444229  0.28641366  0.15363951  1
  C  C31  1  0.78740097  0.08853596  0.40281732  1
  C  C32  1  0.21259903  0.59718268  0.91146404  1
  C  C33  1  0.37089101  0.51135025  0.47342899  1
  C  C34  1  0.62910899  0.52657101  0.48864975  1
  C  C35  1  0.95623783  0.38527943  0.11214056  1
  C  C36  1  0.04376217  0.88785944  0.61472057  1
  C  C37  1  0.87218360  0.93976414  0.05379219  1
  C  C38  1  0.12781640  0.94620781  0.06023586  1
  C  C39  1  0.71003831  0.38009950  0.11929397  1
  C  C40  1  0.28996169  0.88070603  0.61990050  1
  C  C41  1  0.45918976  0.59397198  0.90817456  1
  C  C42  1  0.54081024  0.09182544  0.40602802  1
  N  N43  1  0.41552256  0.60052455  0.39372346  1
  N  N44  1  0.58447744  0.60627654  0.39947545  1
  N  N45  1  0.96217054  0.12991694  0.42217655  1
  N  N46  1  0.03782946  0.57782345  0.87008306  1
  N  N47  1  0.70551318  0.18427659  0.43200542  1
  N  N48  1  0.29448682  0.56799458  0.81572341  1
  N  N49  1  0.91781259  0.85947689  0.14066418  1
  N  N50  1  0.08218741  0.85933582  0.14052311  1
  N  N51  1  0.48126676  0.63901473  0.05160699  1
  N  N52  1  0.51873324  0.94839301  0.36098527  1
  N  N53  1  0.79280532  0.51361610  0.53425259  1
  N  N54  1  0.20719468  0.46574741  0.48638390  1
  N  N55  1  0.98021014  0.52349559  0.17884044  1
  N  N56  1  0.01978986  0.82115956  0.47650441  1
  N  N57  1  0.31599628  0.63881163  0.05428281  1
  N  N58  1  0.68400372  0.94571719  0.36118837  1
  N  N59  1  0.71130615  0.95801430  0.01340882  1
  N  N60  1  0.28869385  0.98659118  0.04198570  1
  N  N61  1  0.78909093  0.28963846  0.06984661  1
  N  N62  1  0.21090907  0.93015339  0.71036154  1
  N  N63  1  0.53299527  0.33374605  0.10116548  1
  N  N64  1  0.46700473  0.89883452  0.66625395  1
  N  N65  1  0.90966846  0.91819128  0.65911913  1
  N  N66  1  0.09033154  0.34088087  0.08180872  1
  N  N67  1  0.59199488  0.57995153  0.85981226  1
  N  N68  1  0.40800512  0.14018774  0.42004847  1
  N  N69  1  0.50000000  0.46335338  0.53664662  1
  N  N70  1  -0.00000000  0.99836067  0.00163933  1
  N  N71  1  0.81735626  0.52075513  0.18308841  1
  N  N72  1  0.18264374  0.81691159  0.47924487  1
  O  O73  1  0.74502614  0.19028207  0.77382640  1
  O  O74  1  0.25497386  0.22617360  0.80971793  1
