# generated using pymatgen
data_Ce3Sb4Pt7
_symmetry_space_group_name_H-M   'P 1'
_cell_length_a   4.36724250
_cell_length_b   8.54997365
_cell_length_c   8.61185656
_cell_angle_alpha   73.67192470
_cell_angle_beta   75.31172946
_cell_angle_gamma   75.20300002
_symmetry_Int_Tables_number   1
_chemical_formula_structural   Ce3Sb4Pt7
_chemical_formula_sum   'Ce3 Sb4 Pt7'
_cell_volume   292.58082076
_cell_formula_units_Z   1
loop_
 _symmetry_equiv_pos_site_id
 _symmetry_equiv_pos_as_xyz
  1  'x, y, z'
loop_
 _atom_site_type_symbol
 _atom_site_label
 _atom_site_symmetry_multiplicity
 _atom_site_fract_x
 _atom_site_fract_y
 _atom_site_fract_z
 _atom_site_occupancy
  Ce  Ce0  1  0.82875505  0.68427149  0.65821841  1
  Ce  Ce1  1  0.17124495  0.31572851  0.34178159  1
  Ce  Ce2  1  0.50000000  0.00000000  -0.00000000  1
  Sb  Sb3  1  0.63547707  0.59511433  0.13393154  1
  Sb  Sb4  1  0.36452293  0.40488567  0.86606846  1
  Sb  Sb5  1  0.82578001  0.03452305  0.31391692  1
  Sb  Sb6  1  0.17421999  0.96547695  0.68608308  1
  Pt  Pt7  1  0.82547041  0.28743492  0.06162427  1
  Pt  Pt8  1  0.17452959  0.71256508  0.93837573  1
  Pt  Pt9  1  0.01085069  0.68418680  0.29411181  1
  Pt  Pt10  1  0.98914931  0.31581320  0.70588819  1
  Pt  Pt11  1  0.62534209  0.14784287  0.60147295  1
  Pt  Pt12  1  0.37465791  0.85215713  0.39852705  1
  Pt  Pt13  1  0.50000000  0.50000000  0.50000000  1
