# generated using pymatgen
data_Yb4Zr3O12
_symmetry_space_group_name_H-M   'P 1'
_cell_length_a   6.53224122
_cell_length_b   6.38271044
_cell_length_c   6.40820332
_cell_angle_alpha   100.63976664
_cell_angle_beta   97.67585753
_cell_angle_gamma   99.30492580
_symmetry_Int_Tables_number   1
_chemical_formula_structural   Yb4Zr3O12
_chemical_formula_sum   'Yb4 Zr3 O12'
_cell_volume   255.42610492
_cell_formula_units_Z   1
loop_
 _symmetry_equiv_pos_site_id
 _symmetry_equiv_pos_as_xyz
  1  'x, y, z'
loop_
 _atom_site_type_symbol
 _atom_site_label
 _atom_site_symmetry_multiplicity
 _atom_site_fract_x
 _atom_site_fract_y
 _atom_site_fract_z
 _atom_site_occupancy
  Yb  Yb0  1  0.69940028  0.85390829  0.38698990  1
  Yb  Yb1  1  0.86829587  0.39547447  0.70629193  1
  Yb  Yb2  1  0.30059972  0.14609171  0.61301010  1
  Yb  Yb3  1  0.13170413  0.60452553  0.29370807  1
  Zr  Zr4  1  -0.00000000  0.00000000  0.00000000  1
  Zr  Zr5  1  0.38463085  0.71604091  0.86435301  1
  Zr  Zr6  1  0.61536915  0.28395909  0.13564699  1
  O  O7  1  0.20025623  0.46811149  0.60050623  1
  O  O8  1  0.43709955  0.55550887  0.15081178  1
  O  O9  1  0.58440719  0.18891391  0.42450894  1
  O  O10  1  0.79974377  0.53188851  0.39949377  1
  O  O11  1  0.56290045  0.44449113  0.84918822  1
  O  O12  1  0.41559281  0.81108609  0.57549106  1
  O  O13  1  0.67569845  0.92681045  0.03474481  1
  O  O14  1  0.94506225  0.04986708  0.68175608  1
  O  O15  1  0.08018590  0.69144877  0.93993325  1
  O  O16  1  0.32430155  0.07318955  0.96525519  1
  O  O17  1  0.05493775  0.95013292  0.31824392  1
  O  O18  1  0.91981410  0.30855123  0.06006675  1
