# generated using pymatgen
data_ZrMnNi
_symmetry_space_group_name_H-M   'P 1'
_cell_length_a   5.00084786
_cell_length_b   4.86629431
_cell_length_c   8.05499898
_cell_angle_alpha   90.00000000
_cell_angle_beta   90.00000000
_cell_angle_gamma   119.03200039
_symmetry_Int_Tables_number   1
_chemical_formula_structural   ZrMnNi
_chemical_formula_sum   'Zr4 Mn4 Ni4'
_cell_volume   171.39266056
_cell_formula_units_Z   4
loop_
 _symmetry_equiv_pos_site_id
 _symmetry_equiv_pos_as_xyz
  1  'x, y, z'
loop_
 _atom_site_type_symbol
 _atom_site_label
 _atom_site_symmetry_multiplicity
 _atom_site_fract_x
 _atom_site_fract_y
 _atom_site_fract_z
 _atom_site_occupancy
  Zr  Zr0  1  0.67045335  0.33534115  0.56194709  1
  Zr  Zr1  1  0.32851279  0.66426888  0.43946842  1
  Zr  Zr2  1  0.32851279  0.66426888  0.06053158  1
  Zr  Zr3  1  0.67045335  0.33534115  0.93805291  1
  Mn  Mn4  1  0.00919041  0.00420417  0.50555335  1
  Mn  Mn5  1  0.00919041  0.00420417  0.99444665  1
  Mn  Mn6  1  0.16141210  0.33364481  0.75000000  1
  Mn  Mn7  1  0.16142142  0.82821527  0.75000000  1
  Ni  Ni8  1  0.65727521  0.82881315  0.75000000  1
  Ni  Ni9  1  0.83597095  0.66834475  0.25000000  1
  Ni  Ni10  1  0.83607492  0.16759428  0.25000000  1
  Ni  Ni11  1  0.33153231  0.16575933  0.25000000  1
