# generated using pymatgen
data_ZnCd3GeS6
_symmetry_space_group_name_H-M   'P 1'
_cell_length_a   7.15877804
_cell_length_b   7.15877804
_cell_length_c   12.39140440
_cell_angle_alpha   74.03684503
_cell_angle_beta   89.50539992
_cell_angle_gamma   120.59836239
_symmetry_Int_Tables_number   1
_chemical_formula_structural   ZnCd3GeS6
_chemical_formula_sum   'Zn2 Cd6 Ge2 S12'
_cell_volume   516.98908885
_cell_formula_units_Z   2
loop_
 _symmetry_equiv_pos_site_id
 _symmetry_equiv_pos_as_xyz
  1  'x, y, z'
loop_
 _atom_site_type_symbol
 _atom_site_label
 _atom_site_symmetry_multiplicity
 _atom_site_fract_x
 _atom_site_fract_y
 _atom_site_fract_z
 _atom_site_occupancy
  Zn  Zn0  1  0.22254401  0.04749834  0.49650691  1
  Zn  Zn1  1  0.45599475  0.78094908  0.99650691  1
  Cd  Cd2  1  0.83382533  0.41643588  0.15207945  1
  Cd  Cd3  1  0.43148467  0.51409521  0.65207945  1
  Cd  Cd4  1  0.91484681  0.41937378  0.49991340  1
  Cd  Cd5  1  0.08071282  0.08523979  0.99991340  1
  Cd  Cd6  1  0.69728243  0.75480366  0.30882767  1
  Cd  Cd7  1  0.93636867  0.49388990  0.80882767  1
  Ge  Ge8  1  0.29904315  0.91466670  0.24901563  1
  Ge  Ge9  1  0.83631766  0.95194122  0.74901563  1
  S  S10  1  0.10491621  0.46392822  0.99235384  1
  S  S11  1  0.54371794  0.40272995  0.49235384  1
  S  S12  1  0.11840969  0.53881644  0.29661747  1
  S  S13  1  0.16456609  0.08497283  0.79661747  1
  S  S14  1  0.70905530  0.71574464  0.10839873  1
  S  S15  1  0.17585663  0.68254597  0.60839873  1
  S  S16  1  0.41688206  0.05919208  0.06021612  1
  S  S17  1  0.88059181  0.02290182  0.56021612  1
  S  S18  1  0.59950107  0.04575426  0.32742189  1
  S  S19  1  0.62682386  0.57307705  0.82742189  1
  S  S20  1  0.11842169  0.05251375  0.31064890  1
  S  S21  1  0.63683735  0.07092942  0.81064890  1
