# generated using pymatgen
data_NaHfMg14O15
_symmetry_space_group_name_H-M   'P 1'
_cell_length_a   8.61343925
_cell_length_b   8.66965001
_cell_length_c   4.33153758
_cell_angle_alpha   90.00000000
_cell_angle_beta   90.00000000
_cell_angle_gamma   90.00000000
_symmetry_Int_Tables_number   1
_chemical_formula_structural   NaHfMg14O15
_chemical_formula_sum   'Na1 Hf1 Mg14 O15'
_cell_volume   323.45975049
_cell_formula_units_Z   1
loop_
 _symmetry_equiv_pos_site_id
 _symmetry_equiv_pos_as_xyz
  1  'x, y, z'
loop_
 _atom_site_type_symbol
 _atom_site_label
 _atom_site_symmetry_multiplicity
 _atom_site_fract_x
 _atom_site_fract_y
 _atom_site_fract_z
 _atom_site_occupancy
  Na  Na0  1  0.00231534  0.00000000  -0.00000000  1
  Hf  Hf1  1  0.50085262  0.50000000  -0.00000000  1
  Mg  Mg2  1  0.99951573  0.50000000  -0.00000000  1
  Mg  Mg3  1  0.49900789  0.00000000  -0.00000000  1
  Mg  Mg4  1  0.00041554  0.24473714  0.50000000  1
  Mg  Mg5  1  0.00041554  0.75526286  0.50000000  1
  Mg  Mg6  1  0.50002215  0.24021119  0.50000000  1
  Mg  Mg7  1  0.50002215  0.75978881  0.50000000  1
  Mg  Mg8  1  0.24630645  0.00000000  0.50000000  1
  Mg  Mg9  1  0.24029816  0.50000000  0.50000000  1
  Mg  Mg10  1  0.75560625  0.00000000  0.50000000  1
  Mg  Mg11  1  0.75975432  0.50000000  0.50000000  1
  Mg  Mg12  1  0.24181393  0.24544459  0.00000000  1
  Mg  Mg13  1  0.24181393  0.75455541  0.00000000  1
  Mg  Mg14  1  0.75882958  0.24102150  0.00000000  1
  Mg  Mg15  1  0.75882958  0.75897850  -0.00000000  1
  O  O16  1  0.25114221  0.50000000  -0.00000000  1
  O  O17  1  0.73552214  0.00000000  -0.00000000  1
  O  O18  1  0.74949642  0.50000000  -0.00000000  1
  O  O19  1  0.25259142  0.25457698  0.50000000  1
  O  O20  1  0.25259142  0.74542302  0.50000000  1
  O  O21  1  0.74809134  0.25211677  0.50000000  1
  O  O22  1  0.74809134  0.74788323  0.50000000  1
  O  O23  1  0.00106682  0.00000000  0.50000000  1
  O  O24  1  0.99995975  0.50000000  0.50000000  1
  O  O25  1  0.50209282  0.00000000  0.50000000  1
  O  O26  1  0.50028163  0.50000000  0.50000000  1
  O  O27  1  0.99995512  0.26525618  -0.00000000  1
  O  O28  1  0.99995512  0.73474382  -0.00000000  1
  O  O29  1  0.50167164  0.25202485  -0.00000000  1
  O  O30  1  0.50167164  0.74797515  -0.00000000  1
