# generated using pymatgen
data_TlIn3Se4
_symmetry_space_group_name_H-M   'P 1'
_cell_length_a   6.79453558
_cell_length_b   6.79453558
_cell_length_c   6.79453558
_cell_angle_alpha   61.51123497
_cell_angle_beta   74.84051166
_cell_angle_gamma   105.15948834
_symmetry_Int_Tables_number   1
_chemical_formula_structural   TlIn3Se4
_chemical_formula_sum   'Tl1 In3 Se4'
_cell_volume   236.91759613
_cell_formula_units_Z   1
loop_
 _symmetry_equiv_pos_site_id
 _symmetry_equiv_pos_as_xyz
  1  'x, y, z'
loop_
 _atom_site_type_symbol
 _atom_site_label
 _atom_site_symmetry_multiplicity
 _atom_site_fract_x
 _atom_site_fract_y
 _atom_site_fract_z
 _atom_site_occupancy
  Tl  Tl0  1  -0.00000000  0.25000000  0.75000000  1
  In  In1  1  0.50000000  0.25000000  0.25000000  1
  In  In2  1  0.50000000  0.75000000  0.75000000  1
  In  In3  1  -0.00000000  0.75000000  0.25000000  1
  Se  Se4  1  0.50000000  0.32873405  0.82873405  1
  Se  Se5  1  0.50000000  0.67126595  0.17126595  1
  Se  Se6  1  0.15746809  0.82873405  0.67126595  1
  Se  Se7  1  0.84253191  0.17126595  0.32873405  1
