# generated using pymatgen
data_SrCa(CoO3)2
_symmetry_space_group_name_H-M   'P 1'
_cell_length_a   7.65934917
_cell_length_b   7.65747931
_cell_length_c   7.65934917
_cell_angle_alpha   90.00000000
_cell_angle_beta   90.00000000
_cell_angle_gamma   90.00000000
_symmetry_Int_Tables_number   1
_chemical_formula_structural   SrCa(CoO3)2
_chemical_formula_sum   'Sr4 Ca4 Co8 O24'
_cell_volume   449.23084570
_cell_formula_units_Z   4
loop_
 _symmetry_equiv_pos_site_id
 _symmetry_equiv_pos_as_xyz
  1  'x, y, z'
loop_
 _atom_site_type_symbol
 _atom_site_label
 _atom_site_symmetry_multiplicity
 _atom_site_fract_x
 _atom_site_fract_y
 _atom_site_fract_z
 _atom_site_occupancy
  Sr  Sr0  1  0.25000000  0.25000000  0.25000000  1
  Sr  Sr1  1  0.25000000  0.25000000  0.75000000  1
  Sr  Sr2  1  0.75000000  0.25000000  0.75000000  1
  Sr  Sr3  1  0.75000000  0.75000000  0.25000000  1
  Ca  Ca4  1  0.25000000  0.75000000  0.25000000  1
  Ca  Ca5  1  0.25000000  0.75000000  0.75000000  1
  Ca  Ca6  1  0.75000000  0.25000000  0.25000000  1
  Ca  Ca7  1  0.75000000  0.75000000  0.75000000  1
  Co  Co8  1  0.99998795  0.99928625  0.00001205  1
  Co  Co9  1  0.99998795  0.99928625  0.49998795  1
  Co  Co10  1  0.99998795  0.50071375  0.00001205  1
  Co  Co11  1  0.99998795  0.50071375  0.49998795  1
  Co  Co12  1  0.50001205  0.99928625  0.00001205  1
  Co  Co13  1  0.50001205  0.99928625  0.49998795  1
  Co  Co14  1  0.50001205  0.50071375  0.00001205  1
  Co  Co15  1  0.50001205  0.50071375  0.49998795  1
  O  O16  1  0.25000000  0.99720493  0.00001058  1
  O  O17  1  0.25000000  0.99720493  0.49998942  1
  O  O18  1  0.25000000  0.50279507  0.00001058  1
  O  O19  1  0.25000000  0.50279507  0.49998942  1
  O  O20  1  0.75000000  -0.00009512  0.00002812  1
  O  O21  1  0.75000000  -0.00009512  0.49997188  1
  O  O22  1  0.75000000  0.50009512  0.00002812  1
  O  O23  1  0.75000000  0.50009512  0.49997188  1
  O  O24  1  0.99863011  0.25000000  0.00136989  1
  O  O25  1  0.99863011  0.25000000  0.49863011  1
  O  O26  1  0.00132756  0.75000000  0.99867244  1
  O  O27  1  0.00132756  0.75000000  0.50132756  1
  O  O28  1  0.50136989  0.25000000  0.00136989  1
  O  O29  1  0.50136989  0.25000000  0.49863011  1
  O  O30  1  0.49867244  0.75000000  0.99867244  1
  O  O31  1  0.49867244  0.75000000  0.50132756  1
  O  O32  1  -0.00002812  -0.00009512  0.25000000  1
  O  O33  1  0.99998942  0.99720493  0.75000000  1
  O  O34  1  -0.00002812  0.50009512  0.25000000  1
  O  O35  1  0.99998942  0.50279507  0.75000000  1
  O  O36  1  0.50002812  -0.00009512  0.25000000  1
  O  O37  1  0.50001058  0.99720493  0.75000000  1
  O  O38  1  0.50002812  0.50009512  0.25000000  1
  O  O39  1  0.50001058  0.50279507  0.75000000  1
