# generated using pymatgen
data_VFe2(CuO2)3
_symmetry_space_group_name_H-M   'P 1'
_cell_length_a   3.06262726
_cell_length_b   3.06262751
_cell_length_c   17.32389388
_cell_angle_alpha   90.00000000
_cell_angle_beta   90.00000000
_cell_angle_gamma   120.00000285
_symmetry_Int_Tables_number   1
_chemical_formula_structural   VFe2(CuO2)3
_chemical_formula_sum   'V1 Fe2 Cu3 O6'
_cell_volume   140.72279632
_cell_formula_units_Z   1
loop_
 _symmetry_equiv_pos_site_id
 _symmetry_equiv_pos_as_xyz
  1  'x, y, z'
loop_
 _atom_site_type_symbol
 _atom_site_label
 _atom_site_symmetry_multiplicity
 _atom_site_fract_x
 _atom_site_fract_y
 _atom_site_fract_z
 _atom_site_occupancy
  V  V0  1  0.33333300  0.66666700  0.16666700  1
  Fe  Fe1  1  0.00000000  -0.00000000  0.50004412  1
  Fe  Fe2  1  0.66666700  0.33333300  0.83328888  1
  Cu  Cu3  1  0.33333300  0.66666700  0.66666700  1
  Cu  Cu4  1  -0.00000000  0.00000000  0.99989432  1
  Cu  Cu5  1  0.66666700  0.33333300  0.33343868  1
  O  O6  1  -0.00000000  0.00000000  0.89320794  1
  O  O7  1  0.66666700  0.33333300  0.22701768  1
  O  O8  1  0.33333300  0.66666700  0.56006825  1
  O  O9  1  0.33333300  0.66666700  0.77326575  1
  O  O10  1  -0.00000000  0.00000000  0.10631532  1
  O  O11  1  0.66666700  0.33333300  0.44012506  1
