# generated using pymatgen
data_YTiFe11C
_symmetry_space_group_name_H-M   'P 1'
_cell_length_a   4.85352416
_cell_length_b   6.49680481
_cell_length_c   6.49680481
_cell_angle_alpha   97.67996056
_cell_angle_beta   111.93358298
_cell_angle_gamma   68.06641702
_symmetry_Int_Tables_number   1
_chemical_formula_structural   YTiFe11C
_chemical_formula_sum   'Y1 Ti1 Fe11 C1'
_cell_volume   176.27247967
_cell_formula_units_Z   1
loop_
 _symmetry_equiv_pos_site_id
 _symmetry_equiv_pos_as_xyz
  1  'x, y, z'
loop_
 _atom_site_type_symbol
 _atom_site_label
 _atom_site_symmetry_multiplicity
 _atom_site_fract_x
 _atom_site_fract_y
 _atom_site_fract_z
 _atom_site_occupancy
  Y  Y0  1  0.00726122  0.99273878  0.00726122  1
  Ti  Ti1  1  0.63403590  0.36596410  0.63403590  1
  Fe  Fe2  1  0.72437576  0.77562424  0.22437576  1
  Fe  Fe3  1  0.27758793  0.22241207  0.77758793  1
  Fe  Fe4  1  0.49799597  0.78167945  0.77767139  1
  Fe  Fe5  1  0.49799597  0.22232861  0.21832055  1
  Fe  Fe6  1  0.50012513  0.99777554  0.49918224  1
  Fe  Fe7  1  0.00128158  0.99777554  0.49918224  1
  Fe  Fe8  1  0.50012513  0.50081776  0.00222446  1
  Fe  Fe9  1  0.00128158  0.50081776  0.00222446  1
  Fe  Fe10  1  0.35655009  0.64344991  0.35655009  1
  Fe  Fe11  1  -0.00006573  0.35872778  0.35859633  1
  Fe  Fe12  1  -0.00006573  0.64140367  0.64127222  1
  C  C13  1  0.50151520  0.99848480  0.00151520  1
