# generated using pymatgen
data_YFe5Co5Mo2
_symmetry_space_group_name_H-M   'P 1'
_cell_length_a   4.69187000
_cell_length_b   6.47048964
_cell_length_c   6.48943958
_cell_angle_alpha   97.68376205
_cell_angle_beta   111.68447649
_cell_angle_gamma   68.75885051
_symmetry_Int_Tables_number   1
_chemical_formula_structural   YFe5Co5Mo2
_chemical_formula_sum   'Y1 Fe5 Co5 Mo2'
_cell_volume   170.63199014
_cell_formula_units_Z   1
loop_
 _symmetry_equiv_pos_site_id
 _symmetry_equiv_pos_as_xyz
  1  'x, y, z'
loop_
 _atom_site_type_symbol
 _atom_site_label
 _atom_site_symmetry_multiplicity
 _atom_site_fract_x
 _atom_site_fract_y
 _atom_site_fract_z
 _atom_site_occupancy
  Y  Y0  1  0.00000000  -0.00000000  0.00000000  1
  Fe  Fe1  1  0.64121116  0.35692303  0.64140600  1
  Fe  Fe2  1  0.35878884  0.64307697  0.35859400  1
  Fe  Fe3  1  0.00000000  -0.00000000  0.50000000  1
  Fe  Fe4  1  0.50000000  0.50000000  0.00000000  1
  Fe  Fe5  1  0.00000000  0.50000000  0.00000000  1
  Co  Co6  1  0.71992497  0.78020682  0.21905135  1
  Co  Co7  1  0.28007503  0.21979318  0.78094865  1
  Co  Co8  1  0.49943183  0.77669406  0.77580192  1
  Co  Co9  1  0.50056817  0.22330594  0.22419808  1
  Co  Co10  1  0.50000000  -0.00000000  0.50000000  1
  Mo  Mo11  1  0.00203104  0.35602817  0.35785330  1
  Mo  Mo12  1  0.99796896  0.64397183  0.64214670  1
