# generated using pymatgen
data_Y3Th3Mn23
_symmetry_space_group_name_H-M   'P 1'
_cell_length_a   8.58097501
_cell_length_b   8.58097501
_cell_length_c   8.57299191
_cell_angle_alpha   59.96919158
_cell_angle_beta   120.03080842
_cell_angle_gamma   120.00000000
_symmetry_Int_Tables_number   1
_chemical_formula_structural   Y3Th3Mn23
_chemical_formula_sum   'Y3 Th3 Mn23'
_cell_volume   446.15760079
_cell_formula_units_Z   1
loop_
 _symmetry_equiv_pos_site_id
 _symmetry_equiv_pos_as_xyz
  1  'x, y, z'
loop_
 _atom_site_type_symbol
 _atom_site_label
 _atom_site_symmetry_multiplicity
 _atom_site_fract_x
 _atom_site_fract_y
 _atom_site_fract_z
 _atom_site_occupancy
  Y  Y0  1  0.70555246  0.70655504  0.29244237  1
  Y  Y1  1  0.29344496  0.29444754  0.29244237  1
  Y  Y2  1  0.29344496  0.70655504  0.29244237  1
  Th  Th3  1  0.29176970  0.29152492  0.70871986  1
  Th  Th4  1  0.70847508  0.70823030  0.70871986  1
  Th  Th5  1  0.70847508  0.29152492  0.70871986  1
  Mn  Mn6  1  0.68078986  0.31921014  0.04236957  1
  Mn  Mn7  1  0.67646738  0.32353262  0.31884293  1
  Mn  Mn8  1  0.67646738  0.03409184  0.31884293  1
  Mn  Mn9  1  0.96590816  0.32353262  0.31884293  1
  Mn  Mn10  1  0.32300342  0.67699658  0.96901027  1
  Mn  Mn11  1  0.31994420  0.68005580  0.67665541  1
  Mn  Mn12  1  0.31994420  0.96323299  0.67665541  1
  Mn  Mn13  1  0.03676701  0.68005580  0.67665541  1
  Mn  Mn14  1  0.00331225  0.99668775  0.00993674  1
  Mn  Mn15  1  0.87742803  0.12257197  0.63228408  1
  Mn  Mn16  1  0.87606253  0.12393747  0.12123490  1
  Mn  Mn17  1  0.87606253  0.63089016  0.12123490  1
  Mn  Mn18  1  0.36910984  0.12393747  0.12123490  1
  Mn  Mn19  1  0.12307589  0.87692411  0.36922766  1
  Mn  Mn20  1  0.12159687  0.87840313  0.87606076  1
  Mn  Mn21  1  0.12159687  0.36713298  0.87606076  1
  Mn  Mn22  1  0.63286702  0.87840313  0.87606076  1
  Mn  Mn23  1  0.49323810  0.00139360  0.49045090  1
  Mn  Mn24  1  0.99860640  0.50676190  0.49045090  1
  Mn  Mn25  1  0.99860640  0.00139360  0.49045090  1
  Mn  Mn26  1  0.01108704  0.50155180  0.00798343  1
  Mn  Mn27  1  0.49844820  0.98891296  0.00798343  1
  Mn  Mn28  1  0.49844820  0.50155180  0.00798343  1
