# generated using pymatgen
data_ZnCu15H24(ClO3)8
_symmetry_space_group_name_H-M   'P 1'
_cell_length_a   6.96428400
_cell_length_b   18.91212502
_cell_length_c   6.96428373
_cell_angle_alpha   79.39004080
_cell_angle_beta   59.99999864
_cell_angle_gamma   89.99999948
_symmetry_Int_Tables_number   1
_chemical_formula_structural   ZnCu15H24(ClO3)8
_chemical_formula_sum   'Zn1 Cu15 H24 Cl8 O24'
_cell_volume   776.21099775
_cell_formula_units_Z   1
loop_
 _symmetry_equiv_pos_site_id
 _symmetry_equiv_pos_as_xyz
  1  'x, y, z'
loop_
 _atom_site_type_symbol
 _atom_site_label
 _atom_site_symmetry_multiplicity
 _atom_site_fract_x
 _atom_site_fract_y
 _atom_site_fract_z
 _atom_site_occupancy
  Zn  Zn0  1  0.12500000  0.37500000  0.75000000  1
  Cu  Cu1  1  0.74966824  0.74974589  0.50064451  1
  Cu  Cu2  1  0.00031187  0.49978246  0.99934331  1
  Cu  Cu3  1  0.50033176  0.00025411  0.99935549  1
  Cu  Cu4  1  0.24968813  0.25021754  0.50065669  1
  Cu  Cu5  1  0.00034483  0.49978246  0.50052940  1
  Cu  Cu6  1  0.24965517  0.25021754  0.99947060  1
  Cu  Cu7  1  0.74968725  0.74974589  0.99992235  1
  Cu  Cu8  1  0.50031275  0.00025411  0.50007765  1
  Cu  Cu9  1  0.25039040  0.74974589  0.99994135  1
  Cu  Cu10  1  0.49912577  0.49978246  0.50056236  1
  Cu  Cu11  1  0.99960960  0.00025411  0.50005865  1
  Cu  Cu12  1  0.75087423  0.25021754  0.99943764  1
  Cu  Cu13  1  0.87508130  0.62524389  0.24983741  1
  Cu  Cu14  1  0.62500000  0.87500000  0.75000000  1
  Cu  Cu15  1  0.37491870  0.12475611  0.25016259  1
  H  H16  1  0.09401313  0.68212989  0.81332014  1
  H  H17  1  0.34598345  0.43290019  0.30942243  1
  H  H18  1  0.84419176  0.93251196  0.31297619  1
  H  H19  1  0.59353331  0.18260572  0.81426917  1
  H  H20  1  0.09266673  0.68212989  0.41188324  1
  H  H21  1  0.34459411  0.43290019  0.91308326  1
  H  H22  1  0.84283205  0.93251196  0.91167979  1
  H  H23  1  0.59219752  0.18260572  0.41092758  1
  H  H24  1  0.49545003  0.68212989  0.41053684  1
  H  H25  1  0.74232262  0.43290019  0.91169392  1
  H  H26  1  0.24548815  0.93251196  0.91032009  1
  H  H27  1  0.99687489  0.18260572  0.40959180  1
  H  H28  1  0.65646669  0.56739428  0.68573083  1
  H  H29  1  0.90401655  0.31709981  0.19057757  1
  H  H30  1  0.40580824  0.81748804  0.18702381  1
  H  H31  1  0.15598687  0.06787011  0.68667986  1
  H  H32  1  0.65780248  0.56739428  0.08907242  1
  H  H33  1  0.90540589  0.31709981  0.58691674  1
  H  H34  1  0.40716795  0.81748804  0.58832021  1
  H  H35  1  0.15733327  0.06787011  0.08811676  1
  H  H36  1  0.25312511  0.56739428  0.09040820  1
  H  H37  1  0.50767738  0.31709981  0.58830608  1
  H  H38  1  0.00451185  0.81748804  0.58967991  1
  H  H39  1  0.75454997  0.06787011  0.08946316  1
  Cl  Cl40  1  0.95496452  0.86489356  0.09007096  1
  Cl  Cl41  1  0.20505273  0.61515818  0.58989455  1
  Cl  Cl42  1  0.70500907  0.11502722  0.58998185  1
  Cl  Cl43  1  0.45486077  0.36458232  0.09027846  1
  Cl  Cl44  1  0.79513923  0.38541768  0.40972154  1
  Cl  Cl45  1  0.04494727  0.13484182  0.91010545  1
  Cl  Cl46  1  0.54499093  0.63497278  0.91001815  1
  Cl  Cl47  1  0.29503548  0.88510644  0.40992904  1
  O  O48  1  0.02632488  0.70520513  0.94797308  1
  O  O49  1  0.27881269  0.45615099  0.44297145  1
  O  O50  1  0.77627759  0.95533868  0.44807998  1
  O  O51  1  0.52549059  0.20517573  0.94967432  1
  O  O52  1  0.02570204  0.70520513  0.32111974  1
  O  O53  1  0.27821687  0.45615099  0.82266170  1
  O  O54  1  0.77564343  0.95533868  0.82093892  1
  O  O55  1  0.52483609  0.20517573  0.32031485  1
  O  O56  1  0.65317922  0.70520513  0.32049591  1
  O  O57  1  0.89912243  0.45615099  0.82206588  1
  O  O58  1  0.40341865  0.95533868  0.82030476  1
  O  O59  1  0.15485005  0.20517573  0.31966036  1
  O  O60  1  0.72450941  0.54482427  0.55032568  1
  O  O61  1  0.97118731  0.29384901  0.05702855  1
  O  O62  1  0.47372241  0.79466132  0.05192002  1
  O  O63  1  0.22367512  0.04479487  0.55202692  1
  O  O64  1  0.72516391  0.54482427  0.17968515  1
  O  O65  1  0.97178313  0.29384901  0.67733930  1
  O  O66  1  0.47435657  0.79466132  0.67906208  1
  O  O67  1  0.22429796  0.04479487  0.17888126  1
  O  O68  1  0.09514995  0.54482427  0.18034064  1
  O  O69  1  0.35087757  0.29384901  0.67793512  1
  O  O70  1  0.84658135  0.79466132  0.67969624  1
  O  O71  1  0.59682078  0.04479487  0.17950309  1
