# generated using pymatgen
data_Y3Ga8Ni3
_symmetry_space_group_name_H-M   'P 1'
_cell_length_a   4.18509047
_cell_length_b   8.12098238
_cell_length_c   8.01347812
_cell_angle_alpha   80.44398225
_cell_angle_beta   105.13701937
_cell_angle_gamma   75.06805908
_symmetry_Int_Tables_number   1
_chemical_formula_structural   Y3Ga8Ni3
_chemical_formula_sum   'Y3 Ga8 Ni3'
_cell_volume   245.95238550
_cell_formula_units_Z   1
loop_
 _symmetry_equiv_pos_site_id
 _symmetry_equiv_pos_as_xyz
  1  'x, y, z'
loop_
 _atom_site_type_symbol
 _atom_site_label
 _atom_site_symmetry_multiplicity
 _atom_site_fract_x
 _atom_site_fract_y
 _atom_site_fract_z
 _atom_site_occupancy
  Y  Y0  1  0.99400506  0.69845029  0.68646041  1
  Y  Y1  1  0.99462404  0.31979505  0.30904313  1
  Y  Y2  1  0.00258464  0.98876534  0.99393461  1
  Ga  Ga3  1  0.21104722  0.28447688  0.70657131  1
  Ga  Ga4  1  0.77987412  0.71906748  0.27881572  1
  Ga  Ga5  1  0.25964843  0.58744045  0.10673731  1
  Ga  Ga6  1  0.72627804  0.43267492  0.88523099  1
  Ga  Ga7  1  0.73733628  0.10417222  0.57884477  1
  Ga  Ga8  1  0.25979217  0.90162095  0.42120529  1
  Ga  Ga9  1  0.49944297  0.50007675  0.49896269  1
  Ga  Ga10  1  0.39567795  0.25954609  0.05090200  1
  Ni  Ni11  1  0.62822152  0.71356764  0.97001068  1
  Ni  Ni12  1  0.64089063  0.01592284  0.29770409  1
  Ni  Ni13  1  0.37057695  0.97442311  0.71557700  1
