# generated using pymatgen
data_U2FeSi3
_symmetry_space_group_name_H-M   'P 1'
_cell_length_a   3.69138970
_cell_length_b   4.06754614
_cell_length_c   6.93801666
_cell_angle_alpha   90.02671739
_cell_angle_beta   90.00000000
_cell_angle_gamma   90.00000000
_symmetry_Int_Tables_number   1
_chemical_formula_structural   U2FeSi3
_chemical_formula_sum   'U2 Fe1 Si3'
_cell_volume   104.17360064
_cell_formula_units_Z   1
loop_
 _symmetry_equiv_pos_site_id
 _symmetry_equiv_pos_as_xyz
  1  'x, y, z'
loop_
 _atom_site_type_symbol
 _atom_site_label
 _atom_site_symmetry_multiplicity
 _atom_site_fract_x
 _atom_site_fract_y
 _atom_site_fract_z
 _atom_site_occupancy
  U  U0  1  -0.00000000  0.99991726  0.01091544  1
  U  U1  1  0.00000000  0.49996880  0.49185097  1
  Fe  Fe2  1  0.50000000  0.00002300  0.33049925  1
  Si  Si3  1  0.50000000  0.50000664  0.83334386  1
  Si  Si4  1  0.50000000  0.49996746  0.17031054  1
  Si  Si5  1  0.50000000  0.99991684  0.66307994  1
