# generated using pymatgen
data_Ti2VSe4
_symmetry_space_group_name_H-M   'P 1'
_cell_length_a   3.50817677
_cell_length_b   6.39815328
_cell_length_c   6.99041685
_cell_angle_alpha   116.21537648
_cell_angle_beta   75.46759167
_cell_angle_gamma   90.00000000
_symmetry_Int_Tables_number   1
_chemical_formula_structural   Ti2VSe4
_chemical_formula_sum   'Ti2 V1 Se4'
_cell_volume   135.14826717
_cell_formula_units_Z   1
loop_
 _symmetry_equiv_pos_site_id
 _symmetry_equiv_pos_as_xyz
  1  'x, y, z'
loop_
 _atom_site_type_symbol
 _atom_site_label
 _atom_site_symmetry_multiplicity
 _atom_site_fract_x
 _atom_site_fract_y
 _atom_site_fract_z
 _atom_site_occupancy
  Ti  Ti0  1  0.00010245  0.99918496  0.99979509  1
  Ti  Ti1  1  0.25273050  0.69942508  0.49453900  1
  V  V2  1  0.74730052  0.30043366  0.50539897  1
  Se  Se3  1  0.11130892  0.54714059  0.77738216  1
  Se  Se4  1  0.89005075  0.44627971  0.21989851  1
  Se  Se5  1  0.36229767  0.97466484  0.27540465  1
  Se  Se6  1  0.63620919  0.03287116  0.72758162  1
