# generated using pymatgen
data_TbUTe6
_symmetry_space_group_name_H-M   'P 1'
_cell_length_a   4.38700026
_cell_length_b   4.38883734
_cell_length_c   12.90674310
_cell_angle_alpha   90.00000000
_cell_angle_beta   80.21509191
_cell_angle_gamma   90.00000000
_symmetry_Int_Tables_number   1
_chemical_formula_structural   TbUTe6
_chemical_formula_sum   'Tb1 U1 Te6'
_cell_volume   244.88917832
_cell_formula_units_Z   1
loop_
 _symmetry_equiv_pos_site_id
 _symmetry_equiv_pos_as_xyz
  1  'x, y, z'
loop_
 _atom_site_type_symbol
 _atom_site_label
 _atom_site_symmetry_multiplicity
 _atom_site_fract_x
 _atom_site_fract_y
 _atom_site_fract_z
 _atom_site_occupancy
  Tb  Tb0  1  0.16779136  0.25000000  0.66441728  1
  U  U1  1  0.83406320  0.75000000  0.33187360  1
  Te  Te2  1  0.42513455  0.75000000  0.14973090  1
  Te  Te3  1  0.57209705  0.25000000  0.85580590  1
  Te  Te4  1  0.70729183  0.75000000  0.58541634  1
  Te  Te5  1  0.29674997  0.25000000  0.40650007  1
  Te  Te6  1  0.07163252  0.75000000  0.85673497  1
  Te  Te7  1  0.92523953  0.25000000  0.14952094  1
