# generated using pymatgen
data_Ba3Sr5Ti7MnO20
_symmetry_space_group_name_H-M   'P 1'
_cell_length_a   11.41850542
_cell_length_b   11.45944391
_cell_length_c   17.94359804
_cell_angle_alpha   108.71691903
_cell_angle_beta   108.60823571
_cell_angle_gamma   89.96477629
_symmetry_Int_Tables_number   1
_chemical_formula_structural   Ba3Sr5Ti7MnO20
_chemical_formula_sum   'Ba12 Sr20 Ti28 Mn4 O80'
_cell_volume   2093.90230148
_cell_formula_units_Z   4
loop_
 _symmetry_equiv_pos_site_id
 _symmetry_equiv_pos_as_xyz
  1  'x, y, z'
loop_
 _atom_site_type_symbol
 _atom_site_label
 _atom_site_symmetry_multiplicity
 _atom_site_fract_x
 _atom_site_fract_y
 _atom_site_fract_z
 _atom_site_occupancy
  Ba  Ba0  1  0.30949599  0.06091456  0.12208377  1
  Ba  Ba1  1  0.31032698  0.56354046  0.12264955  1
  Ba  Ba2  1  0.80805653  0.06191414  0.12366038  1
  Ba  Ba3  1  0.80551394  0.56132425  0.12014748  1
  Ba  Ba4  1  0.18869710  0.93741304  0.37932835  1
  Ba  Ba5  1  0.19212783  0.93624211  0.88479719  1
  Ba  Ba6  1  0.68729112  0.43394716  0.88009234  1
  Ba  Ba7  1  0.05892782  0.31092653  0.12337485  1
  Ba  Ba8  1  0.05882365  0.81035618  0.12125452  1
  Ba  Ba9  1  0.55910667  0.30928458  0.12281646  1
  Ba  Ba10  1  0.55870680  0.80903623  0.12097187  1
  Ba  Ba11  1  0.93895140  0.69938929  0.88353090  1
  Sr  Sr12  1  0.30343832  0.06013113  0.60452522  1
  Sr  Sr13  1  0.30617107  0.56134859  0.60881516  1
  Sr  Sr14  1  0.80260284  0.05616815  0.60546118  1
  Sr  Sr15  1  0.80037712  0.56773499  0.60546523  1
  Sr  Sr16  1  0.19461489  0.44316741  0.38695176  1
  Sr  Sr17  1  0.19288678  0.43836127  0.88826066  1
  Sr  Sr18  1  0.69132487  0.43755062  0.38450004  1
  Sr  Sr19  1  0.69099947  0.94219401  0.38350559  1
  Sr  Sr20  1  0.69535644  0.94511925  0.89461767  1
  Sr  Sr21  1  0.05344549  0.29868603  0.60810724  1
  Sr  Sr22  1  0.05646019  0.79155484  0.60461511  1
  Sr  Sr23  1  0.55165389  0.29384710  0.60775925  1
  Sr  Sr24  1  0.55062616  0.79513458  0.60223405  1
  Sr  Sr25  1  0.44016169  0.19311690  0.38395131  1
  Sr  Sr26  1  0.44375128  0.19882635  0.89233843  1
  Sr  Sr27  1  0.43967612  0.69481067  0.38298706  1
  Sr  Sr28  1  0.44527401  0.69984085  0.88930083  1
  Sr  Sr29  1  0.94476694  0.19611968  0.38623247  1
  Sr  Sr30  1  0.94668633  0.20032668  0.89244170  1
  Sr  Sr31  1  0.94207000  0.69233524  0.38509051  1
  Ti  Ti32  1  0.99879986  0.00406778  0.00291975  1
  Ti  Ti33  1  0.99825211  0.99787953  0.49753938  1
  Ti  Ti34  1  0.00277105  0.50204785  0.00694332  1
  Ti  Ti35  1  0.00287132  0.49945891  0.50213171  1
  Ti  Ti36  1  0.49905168  0.99870040  0.99826327  1
  Ti  Ti37  1  0.50111611  0.99688268  0.49652139  1
  Ti  Ti38  1  0.49416804  0.49567096  0.99325136  1
  Ti  Ti39  1  0.50180146  0.49934074  0.50140836  1
  Ti  Ti40  1  0.25170769  0.25350423  0.00565875  1
  Ti  Ti41  1  0.25255136  0.25348370  0.50289042  1
  Ti  Ti42  1  0.24855645  0.74649551  0.99701104  1
  Ti  Ti43  1  0.25177313  0.74994168  0.50038538  1
  Ti  Ti44  1  0.74975164  0.24880096  0.00110458  1
  Ti  Ti45  1  0.74966064  0.24856852  0.49630406  1
  Ti  Ti46  1  0.74617955  0.74951232  0.99648708  1
  Ti  Ti47  1  0.74967825  0.75145190  0.49630398  1
  Ti  Ti48  1  0.12370695  0.11626789  0.25452570  1
  Ti  Ti49  1  0.10695100  0.08860496  0.74445409  1
  Ti  Ti50  1  0.12532739  0.60965290  0.25496618  1
  Ti  Ti51  1  0.61941541  0.11326506  0.25396567  1
  Ti  Ti52  1  0.60169685  0.08927538  0.74785731  1
  Ti  Ti53  1  0.62158786  0.61308634  0.25437690  1
  Ti  Ti54  1  0.37787586  0.38951663  0.25615146  1
  Ti  Ti55  1  0.37048344  0.89051048  0.25240579  1
  Ti  Ti56  1  0.87096182  0.39404650  0.25525150  1
  Ti  Ti57  1  0.85708885  0.40572181  0.74048023  1
  Ti  Ti58  1  0.87206246  0.89245093  0.25396613  1
  Ti  Ti59  1  0.84695622  0.90976807  0.74796057  1
  Mn  Mn60  1  0.11874131  0.58705880  0.74667997  1
  Mn  Mn61  1  0.60198482  0.60672183  0.74615294  1
  Mn  Mn62  1  0.35441402  0.40213013  0.74729242  1
  Mn  Mn63  1  0.36943352  0.90249533  0.74664476  1
  O  O64  1  0.12111662  0.12506450  0.49431409  1
  O  O65  1  0.12023732  0.12559613  0.99485633  1
  O  O66  1  0.12227184  0.62166652  0.49186435  1
  O  O67  1  0.12157408  0.61958881  0.99457136  1
  O  O68  1  0.62484152  0.12302137  0.49521141  1
  O  O69  1  0.62139620  0.12199812  0.99653835  1
  O  O70  1  0.62175186  0.62075156  0.48896952  1
  O  O71  1  0.61975320  0.62363948  0.99506720  1
  O  O72  1  0.12278499  0.37353727  0.99923331  1
  O  O73  1  0.13034613  0.37790643  0.50651410  1
  O  O74  1  0.12373856  0.87479972  0.00126313  1
  O  O75  1  0.12994625  0.87825291  0.51002972  1
  O  O76  1  0.62333049  0.37254274  0.00105199  1
  O  O77  1  0.63270512  0.37919843  0.51108024  1
  O  O78  1  0.62554676  0.87621041  0.00312335  1
  O  O79  1  0.62870131  0.87770672  0.50437779  1
  O  O80  1  0.37585539  0.12158749  0.49329267  1
  O  O81  1  0.37119162  0.12288203  0.99393285  1
  O  O82  1  0.37126121  0.61814643  0.48875547  1
  O  O83  1  0.37222050  0.62008476  0.99517533  1
  O  O84  1  0.87141231  0.12008851  0.49238346  1
  O  O85  1  0.87148763  0.12435481  0.99752628  1
  O  O86  1  0.87364807  0.62270070  0.49427532  1
  O  O87  1  0.87198145  0.62089766  0.99484265  1
  O  O88  1  0.37399150  0.37528381  0.00116778  1
  O  O89  1  0.38147219  0.37998073  0.50746802  1
  O  O90  1  0.37690834  0.87540921  0.00193821  1
  O  O91  1  0.37880349  0.87574810  0.50437566  1
  O  O92  1  0.87477041  0.37293679  0.99822855  1
  O  O93  1  0.88011115  0.38067134  0.50927495  1
  O  O94  1  0.87249848  0.87940968  0.00338970  1
  O  O95  1  0.88138565  0.88019850  0.50993587  1
  O  O96  1  0.06318916  0.07434265  0.13204718  1
  O  O97  1  0.07219353  0.09680245  0.63808187  1
  O  O98  1  0.06212489  0.56616889  0.12985735  1
  O  O99  1  0.07664809  0.58545955  0.62664273  1
  O  O100  1  0.56438119  0.07168444  0.13243993  1
  O  O101  1  0.57299392  0.07614433  0.63366321  1
  O  O102  1  0.56641573  0.57472771  0.13500380  1
  O  O103  1  0.56844656  0.58950347  0.62373418  1
  O  O104  1  0.43762391  0.41359045  0.37338923  1
  O  O105  1  0.43754262  0.42031808  0.87341051  1
  O  O106  1  0.44117348  0.92028950  0.37258376  1
  O  O107  1  0.44245129  0.92259027  0.86949036  1
  O  O108  1  0.93770524  0.41676739  0.37339468  1
  O  O109  1  0.93337511  0.39389139  0.84521472  1
  O  O110  1  0.93261394  0.91482356  0.37316503  1
  O  O111  1  0.92237430  0.93303808  0.86393196  1
  O  O112  1  0.31290609  0.31062872  0.13073150  1
  O  O113  1  0.32408370  0.29163092  0.62433900  1
  O  O114  1  0.31563161  0.80992182  0.13078834  1
  O  O115  1  0.32651989  0.79191833  0.62631634  1
  O  O116  1  0.81416468  0.31115909  0.13275312  1
  O  O117  1  0.83247819  0.28371004  0.63908267  1
  O  O118  1  0.81519448  0.80921289  0.13333306  1
  O  O119  1  0.81336692  0.80574321  0.63434784  1
  O  O120  1  0.18822053  0.20831433  0.37295423  1
  O  O121  1  0.18461212  0.19650227  0.85269752  1
  O  O122  1  0.18295701  0.69794138  0.37341082  1
  O  O123  1  0.19315298  0.69276297  0.87099743  1
  O  O124  1  0.68858337  0.20499702  0.37496291  1
  O  O125  1  0.68447264  0.17872960  0.86490833  1
  O  O126  1  0.69047502  0.71065686  0.37248693  1
  O  O127  1  0.68593446  0.70288581  0.87240900  1
  O  O128  1  0.49365470  0.01675932  0.26032401  1
  O  O129  1  0.43939117  0.07554258  0.74692167  1
  O  O130  1  0.49282813  0.51390471  0.26113824  1
  O  O131  1  0.42851044  0.56764664  0.74809475  1
  O  O132  1  0.99390370  0.01365833  0.25975639  1
  O  O133  1  0.94844027  0.04665262  0.74685612  1
  O  O134  1  0.98569001  0.51847337  0.25788783  1
  O  O135  1  0.93347978  0.54205010  0.73631831  1
  O  O136  1  0.24005011  0.49089846  0.25901774  1
  O  O137  1  0.17664579  0.41940739  0.74720059  1
  O  O138  1  0.24810079  0.00366621  0.25573926  1
  O  O139  1  0.18760993  0.94962960  0.73789785  1
  O  O140  1  0.74058431  0.49446630  0.26193280  1
  O  O141  1  0.70137395  0.44864368  0.73754517  1
  O  O142  1  0.74295653  0.99727059  0.26024500  1
  O  O143  1  0.67998427  0.93556736  0.74640210  1
