# generated using pymatgen
data_ThFe2Co3
_symmetry_space_group_name_H-M   'P 1'
_cell_length_a   4.03082605
_cell_length_b   4.97616764
_cell_length_c   4.99123319
_cell_angle_alpha   59.89498441
_cell_angle_beta   90.00000000
_cell_angle_gamma   90.00000000
_symmetry_Int_Tables_number   1
_chemical_formula_structural   ThFe2Co3
_chemical_formula_sum   'Th1 Fe2 Co3'
_cell_volume   86.60979388
_cell_formula_units_Z   1
loop_
 _symmetry_equiv_pos_site_id
 _symmetry_equiv_pos_as_xyz
  1  'x, y, z'
loop_
 _atom_site_type_symbol
 _atom_site_label
 _atom_site_symmetry_multiplicity
 _atom_site_fract_x
 _atom_site_fract_y
 _atom_site_fract_z
 _atom_site_occupancy
  Th  Th0  1  -0.00000000  0.00005657  -0.00001855  1
  Fe  Fe1  1  0.50000000  0.49991291  0.50004880  1
  Fe  Fe2  1  0.50000000  0.49992239  0.00005236  1
  Co  Co3  1  0.50000000  -0.00006095  0.50003216  1
  Co  Co4  1  -0.00000000  0.35281391  0.32404281  1
  Co  Co5  1  -0.00000000  0.64725517  0.67594242  1
