# generated using pymatgen
data_U3(CoNi2)2
_symmetry_space_group_name_H-M   'P 1'
_cell_length_a   5.00662853
_cell_length_b   5.04034572
_cell_length_c   11.98931939
_cell_angle_alpha   89.21553454
_cell_angle_beta   91.18667209
_cell_angle_gamma   121.35256429
_symmetry_Int_Tables_number   1
_chemical_formula_structural   U3(CoNi2)2
_chemical_formula_sum   'U6 Co4 Ni8'
_cell_volume   258.31711447
_cell_formula_units_Z   2
loop_
 _symmetry_equiv_pos_site_id
 _symmetry_equiv_pos_as_xyz
  1  'x, y, z'
loop_
 _atom_site_type_symbol
 _atom_site_label
 _atom_site_symmetry_multiplicity
 _atom_site_fract_x
 _atom_site_fract_y
 _atom_site_fract_z
 _atom_site_occupancy
  U  U0  1  0.34020640  0.66816669  0.91744257  1
  U  U1  1  0.00411591  0.99804345  0.24664276  1
  U  U2  1  0.67087012  0.32877803  0.58152520  1
  U  U3  1  0.32912988  0.67122197  0.66847480  1
  U  U4  1  0.99588409  0.00195655  0.00335724  1
  U  U5  1  0.65979360  0.33183331  0.33255743  1
  Co  Co6  1  0.50000000  0.50000000  0.12500000  1
  Co  Co7  1  0.16625219  0.83239515  0.45892697  1
  Co  Co8  1  0.83374781  0.16760485  0.79107303  1
  Co  Co9  1  0.50000000  0.00000000  0.12500000  1
  Ni  Ni10  1  0.16655949  0.33306563  0.45824937  1
  Ni  Ni11  1  0.83344051  0.66693437  0.79175063  1
  Ni  Ni12  1  0.33286896  0.66632691  0.29145393  1
  Ni  Ni13  1  0.00000000  0.00000000  0.62500000  1
  Ni  Ni14  1  0.66713104  0.33367309  0.95854607  1
  Ni  Ni15  1  0.00000000  0.50000000  0.12500000  1
  Ni  Ni16  1  0.66707502  0.83248980  0.45819288  1
  Ni  Ni17  1  0.33292498  0.16751020  0.79180712  1
