# generated using pymatgen
data_TbBeCu4
_symmetry_space_group_name_H-M   'P 1'
_cell_length_a   3.87151156
_cell_length_b   5.07157167
_cell_length_c   5.07133822
_cell_angle_alpha   119.99907557
_cell_angle_beta   90.00000000
_cell_angle_gamma   90.00000000
_symmetry_Int_Tables_number   1
_chemical_formula_structural   TbBeCu4
_chemical_formula_sum   'Tb1 Be1 Cu4'
_cell_volume   86.23436715
_cell_formula_units_Z   1
loop_
 _symmetry_equiv_pos_site_id
 _symmetry_equiv_pos_as_xyz
  1  'x, y, z'
loop_
 _atom_site_type_symbol
 _atom_site_label
 _atom_site_symmetry_multiplicity
 _atom_site_fract_x
 _atom_site_fract_y
 _atom_site_fract_z
 _atom_site_occupancy
  Tb  Tb0  1  0.00000000  0.99997100  0.00000764  1
  Be  Be1  1  0.00000000  0.33331896  0.66667570  1
  Cu  Cu2  1  -0.00000000  0.66664225  0.33331623  1
  Cu  Cu3  1  0.50000000  0.49547482  0.99097932  1
  Cu  Cu4  1  0.50000000  0.49549199  0.50451103  1
  Cu  Cu5  1  0.50000000  0.00900098  0.50451008  1
