# generated using pymatgen
data_Ta6Al8O27F
_symmetry_space_group_name_H-M   'P 1'
_cell_length_a   7.43601087
_cell_length_b   8.74112037
_cell_length_c   8.73841307
_cell_angle_alpha   63.37061033
_cell_angle_beta   115.16139145
_cell_angle_gamma   115.17275200
_symmetry_Int_Tables_number   1
_chemical_formula_structural   Ta6Al8O27F
_chemical_formula_sum   'Ta6 Al8 O27 F1'
_cell_volume   439.78843832
_cell_formula_units_Z   1
loop_
 _symmetry_equiv_pos_site_id
 _symmetry_equiv_pos_as_xyz
  1  'x, y, z'
loop_
 _atom_site_type_symbol
 _atom_site_label
 _atom_site_symmetry_multiplicity
 _atom_site_fract_x
 _atom_site_fract_y
 _atom_site_fract_z
 _atom_site_occupancy
  Ta  Ta0  1  0.28184342  0.07164741  0.81899062  1
  Ta  Ta1  1  0.28338008  0.56988804  0.32225542  1
  Ta  Ta2  1  0.11074838  0.81995437  0.56969156  1
  Ta  Ta3  1  0.10799653  0.32073746  0.07189239  1
  Ta  Ta4  1  0.60923583  0.98245099  0.73541390  1
  Ta  Ta5  1  0.60797144  0.48487397  0.23253932  1
  Al  Al6  1  0.00051836  0.87230159  0.12864269  1
  Al  Al7  1  0.99961607  0.37155021  0.62749259  1
  Al  Al8  1  0.87598876  0.16107595  0.41240961  1
  Al  Al9  1  0.88221176  0.65890076  0.92198765  1
  Al  Al10  1  0.42636566  0.02684819  0.27600723  1
  Al  Al11  1  0.41940322  0.51810902  0.78283006  1
  Al  Al12  1  0.69605198  0.93579600  0.18696594  1
  Al  Al13  1  0.69961569  0.42809072  0.69077817  1
  O  O14  1  0.33322922  0.05013925  0.61580272  1
  O  O15  1  0.33330561  0.55207575  0.11517155  1
  O  O16  1  0.62185473  0.02229244  0.50373104  1
  O  O17  1  0.62703331  0.52652093  0.99942885  1
  O  O18  1  0.47380780  0.80712839  0.28901159  1
  O  O19  1  0.47400091  0.31419979  0.78658241  1
  O  O20  1  0.90448311  0.94766791  0.43040771  1
  O  O21  1  0.89878377  0.45047022  0.92302228  1
  O  O22  1  0.04783397  0.16866652  0.64134048  1
  O  O23  1  0.04853623  0.66748314  0.14671710  1
  O  O24  1  0.19013531  0.88166443  0.35526185  1
  O  O25  1  0.18548337  0.37848278  0.85657050  1
  O  O26  1  0.76504112  0.23640760  0.71493650  1
  O  O27  1  0.76266286  0.73948835  0.21268024  1
  O  O28  1  0.82248066  0.37056199  0.39323705  1
  O  O29  1  0.82329392  0.86717363  0.89314898  1
  O  O30  1  0.23625063  0.01795687  0.04061205  1
  O  O31  1  0.23943832  0.51885408  0.54422526  1
  O  O32  1  0.93999142  0.07648794  0.10040046  1
  O  O33  1  0.93826214  0.57624959  0.60113109  1
  O  O34  1  0.08195395  0.81838264  0.79553591  1
  O  O35  1  0.08500015  0.31979518  0.29547281  1
  O  O36  1  0.38679548  0.74415537  0.72418036  1
  O  O37  1  0.38404313  0.24845636  0.22133135  1
  O  O38  1  0.52886805  0.96998159  0.94460959  1
  O  O39  1  0.53281143  0.46995120  0.44808325  1
  O  O40  1  0.66702846  0.12958962  0.20374274  1
  F  F41  1  0.66664376  0.63949176  0.69372713  1
