# generated using pymatgen
data_ZnCu15H24(ClO3)8
_symmetry_space_group_name_H-M   'P 1'
_cell_length_a   9.27155783
_cell_length_b   9.29831862
_cell_length_c   9.20396919
_cell_angle_alpha   97.24449313
_cell_angle_beta   97.46993218
_cell_angle_gamma   97.00481954
_symmetry_Int_Tables_number   1
_chemical_formula_structural   ZnCu15H24(ClO3)8
_chemical_formula_sum   'Zn1 Cu15 H24 Cl8 O24'
_cell_volume   772.70004868
_cell_formula_units_Z   1
loop_
 _symmetry_equiv_pos_site_id
 _symmetry_equiv_pos_as_xyz
  1  'x, y, z'
loop_
 _atom_site_type_symbol
 _atom_site_label
 _atom_site_symmetry_multiplicity
 _atom_site_fract_x
 _atom_site_fract_y
 _atom_site_fract_z
 _atom_site_occupancy
  Zn  Zn0  1  0.50000000  0.00000000  -0.00000000  1
  Cu  Cu1  1  0.99692935  0.25595255  0.75296596  1
  Cu  Cu2  1  0.25519850  0.75272846  0.99576987  1
  Cu  Cu3  1  0.75513319  0.99698040  0.25485691  1
  Cu  Cu4  1  0.00307065  0.74404745  0.24703404  1
  Cu  Cu5  1  0.74480150  0.24727154  0.00423013  1
  Cu  Cu6  1  0.24486681  0.00301960  0.74514309  1
  Cu  Cu7  1  0.50000000  0.50000000  0.50000000  1
  Cu  Cu8  1  0.00000000  0.00000000  0.50000000  1
  Cu  Cu9  1  0.00000000  0.50000000  -0.00000000  1
  Cu  Cu10  1  0.24478604  0.25435532  0.49849720  1
  Cu  Cu11  1  0.25490549  0.50047312  0.24552529  1
  Cu  Cu12  1  0.49689870  0.24372475  0.25377350  1
  Cu  Cu13  1  0.75521396  0.74564468  0.50150280  1
  Cu  Cu14  1  0.74509451  0.49952688  0.75447471  1
  Cu  Cu15  1  0.50310130  0.75627525  0.74622650  1
  H  H16  1  0.77762195  0.47518703  0.48207578  1
  H  H17  1  0.47312061  0.48295060  0.77547900  1
  H  H18  1  0.48438624  0.78204060  0.47430229  1
  H  H19  1  0.22237805  0.52481297  0.51792422  1
  H  H20  1  0.52687939  0.51704940  0.22452100  1
  H  H21  1  0.51561376  0.21795940  0.52569771  1
  H  H22  1  0.97822002  0.29401975  0.48580101  1
  H  H23  1  0.29329195  0.48661505  0.97806978  1
  H  H24  1  0.48553426  0.97759241  0.29037730  1
  H  H25  1  0.02177998  0.70598025  0.51419899  1
  H  H26  1  0.70670805  0.51338495  0.02193022  1
  H  H27  1  0.51446574  0.02240759  0.70962270  1
  H  H28  1  0.97206290  0.98168731  0.77279604  1
  H  H29  1  0.98228259  0.77402253  0.97256400  1
  H  H30  1  0.77950297  0.97500489  0.98080820  1
  H  H31  1  0.02793710  0.01831269  0.22720396  1
  H  H32  1  0.01771741  0.22597747  0.02743600  1
  H  H33  1  0.22049703  0.02499511  0.01919180  1
  H  H34  1  0.26074211  0.97603967  0.46704295  1
  H  H35  1  0.97627094  0.46781621  0.26176111  1
  H  H36  1  0.46918975  0.26775843  0.97670847  1
  H  H37  1  0.73925789  0.02396033  0.53295705  1
  H  H38  1  0.02372906  0.53218379  0.73823889  1
  H  H39  1  0.53081025  0.73224157  0.02329153  1
  Cl  Cl40  1  0.32119193  0.31411991  0.81770502  1
  Cl  Cl41  1  0.31335403  0.81868416  0.32199364  1
  Cl  Cl42  1  0.81830549  0.32192159  0.31408461  1
  Cl  Cl43  1  0.67880807  0.68588009  0.18229498  1
  Cl  Cl44  1  0.68664597  0.18131584  0.67800636  1
  Cl  Cl45  1  0.18169451  0.67807841  0.68591539  1
  Cl  Cl46  1  0.82008091  0.81923959  0.81897511  1
  Cl  Cl47  1  0.17991909  0.18076041  0.18102489  1
  O  O48  1  0.03881342  0.05002561  0.72770955  1
  O  O49  1  0.04961685  0.72858206  0.04109858  1
  O  O50  1  0.73338829  0.04194194  0.04813464  1
  O  O51  1  0.96118658  0.94997439  0.27229045  1
  O  O52  1  0.95038315  0.27141794  0.95890142  1
  O  O53  1  0.26661171  0.95805806  0.95186536  1
  O  O54  1  0.21796032  0.04561612  0.53621431  1
  O  O55  1  0.04438424  0.53574989  0.21698923  1
  O  O56  1  0.53839132  0.22570027  0.04695752  1
  O  O57  1  0.78203968  0.95438388  0.46378569  1
  O  O58  1  0.95561576  0.46425011  0.78301077  1
  O  O59  1  0.46160868  0.77429973  0.95304248  1
  O  O60  1  0.73143788  0.54260350  0.54945148  1
  O  O61  1  0.53936027  0.54656154  0.72494936  1
  O  O62  1  0.55250396  0.73923304  0.54469418  1
  O  O63  1  0.26856212  0.45739650  0.45054852  1
  O  O64  1  0.46063973  0.45343846  0.27505064  1
  O  O65  1  0.44749604  0.26076696  0.45530582  1
  O  O66  1  0.05046254  0.25807416  0.55654410  1
  O  O67  1  0.25417338  0.55568771  0.04899567  1
  O  O68  1  0.55183181  0.04480675  0.24447268  1
  O  O69  1  0.94953746  0.74192584  0.44345590  1
  O  O70  1  0.74582662  0.44431229  0.95100433  1
  O  O71  1  0.44816819  0.95519325  0.75552732  1
