# generated using pymatgen
data_La7SmCr2(Fe3O10)2
_symmetry_space_group_name_H-M   'P 1'
_cell_length_a   11.13141395
_cell_length_b   11.68132972
_cell_length_c   17.90992742
_cell_angle_alpha   109.08683813
_cell_angle_beta   108.16315936
_cell_angle_gamma   90.00027224
_symmetry_Int_Tables_number   1
_chemical_formula_structural   La7SmCr2(Fe3O10)2
_chemical_formula_sum   'La28 Sm4 Cr8 Fe24 O80'
_cell_volume   2077.61487714
_cell_formula_units_Z   4
loop_
 _symmetry_equiv_pos_site_id
 _symmetry_equiv_pos_as_xyz
  1  'x, y, z'
loop_
 _atom_site_type_symbol
 _atom_site_label
 _atom_site_symmetry_multiplicity
 _atom_site_fract_x
 _atom_site_fract_y
 _atom_site_fract_z
 _atom_site_occupancy
  La  La0  1  0.29870297  0.06412732  0.11428933  1
  La  La1  1  0.30076181  0.06264242  0.61248095  1
  La  La2  1  0.30528126  0.56305490  0.61079596  1
  La  La3  1  0.80432963  0.06405209  0.61254263  1
  La  La4  1  0.80357788  0.56467342  0.11473459  1
  La  La5  1  0.80419330  0.56131366  0.61060652  1
  La  La6  1  0.19273980  0.43672397  0.38867371  1
  La  La7  1  0.18679343  0.43734194  0.88764434  1
  La  La8  1  0.18605188  0.93768404  0.38605215  1
  La  La9  1  0.18778319  0.93580876  0.88565782  1
  La  La10  1  0.69188303  0.43723528  0.38787687  1
  La  La11  1  0.69142507  0.93494429  0.38768000  1
  La  La12  1  0.68715477  0.93587863  0.88530527  1
  La  La13  1  0.05426535  0.29930731  0.11416015  1
  La  La14  1  0.05320715  0.30019224  0.61071139  1
  La  La15  1  0.05346816  0.79951379  0.61095684  1
  La  La16  1  0.55018527  0.29830544  0.11297433  1
  La  La17  1  0.55669150  0.29919790  0.61425854  1
  La  La18  1  0.54993454  0.80091383  0.11516665  1
  La  La19  1  0.55478551  0.79772116  0.61035832  1
  La  La20  1  0.44326951  0.20084743  0.38937534  1
  La  La21  1  0.43971406  0.20310829  0.88785883  1
  La  La22  1  0.44122136  0.69976532  0.38540781  1
  La  La23  1  0.43678463  0.69914192  0.88536652  1
  La  La24  1  0.93994324  0.20050574  0.38673314  1
  La  La25  1  0.94044773  0.20226152  0.88773924  1
  La  La26  1  0.94118781  0.70013708  0.38787861  1
  La  La27  1  0.93693599  0.69848308  0.88532829  1
  Sm  Sm28  1  0.29705157  0.56603562  0.11224073  1
  Sm  Sm29  1  0.80017577  0.06605489  0.11285167  1
  Sm  Sm30  1  0.68680757  0.43434936  0.88790955  1
  Sm  Sm31  1  0.05188188  0.79747334  0.11404641  1
  Cr  Cr32  1  0.99854987  0.99829272  0.00202808  1
  Cr  Cr33  1  0.99771128  0.50114019  0.00081488  1
  Cr  Cr34  1  0.49994488  0.99967686  0.00080359  1
  Cr  Cr35  1  0.50049125  0.99892396  0.49965254  1
  Cr  Cr36  1  0.49949196  0.50266099  0.00102736  1
  Cr  Cr37  1  0.24813615  0.75109197  0.00109699  1
  Cr  Cr38  1  0.74946932  0.24946142  0.00057812  1
  Cr  Cr39  1  0.74992779  0.75060989  0.00146315  1
  Fe  Fe40  1  0.00295751  0.00051676  0.49954793  1
  Fe  Fe41  1  0.00474694  0.50038253  0.49955505  1
  Fe  Fe42  1  0.50426084  0.49902614  0.49946015  1
  Fe  Fe43  1  0.25296061  0.25192427  0.00162657  1
  Fe  Fe44  1  0.25419629  0.24945872  0.49968183  1
  Fe  Fe45  1  0.25453583  0.75101839  0.49917693  1
  Fe  Fe46  1  0.75346429  0.24864215  0.49966790  1
  Fe  Fe47  1  0.75352300  0.74982979  0.49962413  1
  Fe  Fe48  1  0.10945805  0.10453878  0.25048239  1
  Fe  Fe49  1  0.11230615  0.10644276  0.75061293  1
  Fe  Fe50  1  0.11475448  0.60665225  0.25129931  1
  Fe  Fe51  1  0.11152479  0.60286544  0.74741535  1
  Fe  Fe52  1  0.61453338  0.10496763  0.25135147  1
  Fe  Fe53  1  0.61299759  0.10657593  0.75100064  1
  Fe  Fe54  1  0.61014389  0.60463193  0.24975254  1
  Fe  Fe55  1  0.61228418  0.60335715  0.74935140  1
  Fe  Fe56  1  0.36124475  0.39679757  0.24932729  1
  Fe  Fe57  1  0.36299395  0.39444771  0.74816947  1
  Fe  Fe58  1  0.35950946  0.89356244  0.24873858  1
  Fe  Fe59  1  0.36208154  0.89442695  0.74806543  1
  Fe  Fe60  1  0.86290069  0.39379402  0.25086209  1
  Fe  Fe61  1  0.85956814  0.39400534  0.74904361  1
  Fe  Fe62  1  0.86338083  0.89669771  0.24923151  1
  Fe  Fe63  1  0.86149287  0.89448545  0.74828458  1
  O  O64  1  0.11239353  0.11848713  0.47608895  1
  O  O65  1  0.11262161  0.11498728  0.97970493  1
  O  O66  1  0.11419746  0.61861333  0.47579596  1
  O  O67  1  0.11131869  0.61895015  0.98040169  1
  O  O68  1  0.61328523  0.11284265  0.47698708  1
  O  O69  1  0.61155902  0.11718308  0.97844421  1
  O  O70  1  0.61420039  0.61598147  0.47658127  1
  O  O71  1  0.61120009  0.61469526  0.97423015  1
  O  O72  1  0.13545972  0.38798216  0.02343681  1
  O  O73  1  0.13862924  0.38627053  0.52384554  1
  O  O74  1  0.13243409  0.88147757  0.02776160  1
  O  O75  1  0.13703055  0.88601629  0.52320717  1
  O  O76  1  0.63081486  0.38076107  0.02009326  1
  O  O77  1  0.63622323  0.38111287  0.52239698  1
  O  O78  1  0.63744263  0.88608453  0.02642620  1
  O  O79  1  0.63585533  0.88496744  0.52210688  1
  O  O80  1  0.36194922  0.10570642  0.47570716  1
  O  O81  1  0.36396956  0.11088905  0.97907382  1
  O  O82  1  0.36450686  0.60985741  0.47604936  1
  O  O83  1  0.36089033  0.61181386  0.97792726  1
  O  O84  1  0.86409435  0.11066365  0.47674559  1
  O  O85  1  0.86066898  0.10833601  0.97909293  1
  O  O86  1  0.86458034  0.60957037  0.47651388  1
  O  O87  1  0.85661409  0.60637853  0.97388359  1
  O  O88  1  0.38298107  0.39789511  0.02535077  1
  O  O89  1  0.38727034  0.38710411  0.52154844  1
  O  O90  1  0.38179534  0.89031333  0.02187298  1
  O  O91  1  0.38761513  0.89131943  0.52420364  1
  O  O92  1  0.88267873  0.38925079  0.02168328  1
  O  O93  1  0.88738104  0.38930998  0.52321187  1
  O  O94  1  0.88701285  0.89284452  0.03091174  1
  O  O95  1  0.88655174  0.88852604  0.52249162  1
  O  O96  1  0.10838558  0.12423705  0.14658884  1
  O  O97  1  0.09060105  0.11591407  0.63983464  1
  O  O98  1  0.11354584  0.62438365  0.14637652  1
  O  O99  1  0.09009335  0.61517667  0.63779482  1
  O  O100  1  0.61411250  0.12265731  0.14659677  1
  O  O101  1  0.60410831  0.12258830  0.64490506  1
  O  O102  1  0.61234736  0.62412677  0.14599282  1
  O  O103  1  0.59004127  0.61235746  0.63843914  1
  O  O104  1  0.45032345  0.38349797  0.35912379  1
  O  O105  1  0.46732517  0.37857275  0.85366639  1
  O  O106  1  0.45665847  0.87641612  0.35438508  1
  O  O107  1  0.46085467  0.87794578  0.85451072  1
  O  O108  1  0.95207115  0.38522918  0.36184315  1
  O  O109  1  0.96305806  0.37941811  0.85481568  1
  O  O110  1  0.95071376  0.88543863  0.36043393  1
  O  O111  1  0.96188121  0.87790953  0.85463410  1
  O  O112  1  0.34700166  0.27457671  0.13929781  1
  O  O113  1  0.33994673  0.27246320  0.63757101  1
  O  O114  1  0.35603100  0.76985445  0.14362332  1
  O  O115  1  0.34087764  0.77481759  0.63750651  1
  O  O116  1  0.85635575  0.27140404  0.14477883  1
  O  O117  1  0.83821057  0.27558770  0.63795377  1
  O  O118  1  0.86934438  0.77079561  0.14705255  1
  O  O119  1  0.83823415  0.77349282  0.63761888  1
  O  O120  1  0.20007297  0.22343684  0.36133819  1
  O  O121  1  0.20672119  0.22522259  0.86210069  1
  O  O122  1  0.20259151  0.72906369  0.36171626  1
  O  O123  1  0.20916522  0.72481979  0.85458568  1
  O  O124  1  0.70104946  0.22644270  0.36219560  1
  O  O125  1  0.71179534  0.22964605  0.85731106  1
  O  O126  1  0.70047254  0.72263478  0.36117791  1
  O  O127  1  0.71250426  0.72831640  0.85504521  1
  O  O128  1  0.42383133  0.06791625  0.25100657  1
  O  O129  1  0.42195808  0.06964297  0.75132610  1
  O  O130  1  0.41665307  0.56571283  0.24343171  1
  O  O131  1  0.42133509  0.56779211  0.74854981  1
  O  O132  1  0.91576002  0.06887389  0.24536997  1
  O  O133  1  0.92377482  0.06860602  0.75121193  1
  O  O134  1  0.92515676  0.56661348  0.25118442  1
  O  O135  1  0.92165826  0.56613082  0.74854416  1
  O  O136  1  0.17307524  0.43313376  0.25163795  1
  O  O137  1  0.17356677  0.43067912  0.74950140  1
  O  O138  1  0.16706263  0.92881469  0.24542136  1
  O  O139  1  0.17281019  0.93316998  0.74913506  1
  O  O140  1  0.67095009  0.43156042  0.24981973  1
  O  O141  1  0.67222087  0.43290392  0.75581966  1
  O  O142  1  0.67518594  0.93254942  0.25073902  1
  O  O143  1  0.67110054  0.93156275  0.74825358  1
