# generated using pymatgen
data_Sr3FeRuO7
_symmetry_space_group_name_H-M   'P 1'
_cell_length_a   3.89573768
_cell_length_b   3.89573768
_cell_length_c   10.95442404
_cell_angle_alpha   79.75743901
_cell_angle_beta   79.75743901
_cell_angle_gamma   90.00000000
_symmetry_Int_Tables_number   1
_chemical_formula_structural   Sr3FeRuO7
_chemical_formula_sum   'Sr3 Fe1 Ru1 O7'
_cell_volume   160.91030079
_cell_formula_units_Z   1
loop_
 _symmetry_equiv_pos_site_id
 _symmetry_equiv_pos_as_xyz
  1  'x, y, z'
loop_
 _atom_site_type_symbol
 _atom_site_label
 _atom_site_symmetry_multiplicity
 _atom_site_fract_x
 _atom_site_fract_y
 _atom_site_fract_z
 _atom_site_occupancy
  Sr  Sr0  1  0.31103308  0.31103308  0.37793385  1
  Sr  Sr1  1  0.68296670  0.68296670  0.63406659  1
  Sr  Sr2  1  0.51102430  0.51102430  0.97795141  1
  Fe  Fe3  1  0.10231834  0.10231834  0.79536332  1
  Ru  Ru4  1  0.90304068  0.90304068  0.19391863  1
  O  O5  1  0.59470113  0.09470113  0.81059774  1
  O  O6  1  0.09470113  0.59470113  0.81059774  1
  O  O7  1  0.40124384  0.90124384  0.19751231  1
  O  O8  1  0.90124384  0.40124384  0.19751231  1
  O  O9  1  0.19701260  0.19701260  0.60597481  1
  O  O10  1  0.80479411  0.80479411  0.39041178  1
  O  O11  1  0.99592025  0.99592025  0.00815950  1
