# generated using pymatgen
data_SnP
_symmetry_space_group_name_H-M   'P 1'
_cell_length_a   4.17630908
_cell_length_b   4.17630911
_cell_length_c   6.87715385
_cell_angle_alpha   89.92521765
_cell_angle_beta   89.92521768
_cell_angle_gamma   59.99996975
_symmetry_Int_Tables_number   1
_chemical_formula_structural   SnP
_chemical_formula_sum   'Sn2 P2'
_cell_volume   103.87810401
_cell_formula_units_Z   2
loop_
 _symmetry_equiv_pos_site_id
 _symmetry_equiv_pos_as_xyz
  1  'x, y, z'
loop_
 _atom_site_type_symbol
 _atom_site_label
 _atom_site_symmetry_multiplicity
 _atom_site_fract_x
 _atom_site_fract_y
 _atom_site_fract_z
 _atom_site_occupancy
  Sn  Sn0  1  0.66627183  0.66627183  0.33388779  1
  Sn  Sn1  1  0.33372817  0.33372817  0.66611221  1
  P  P2  1  0.99995115  0.99995115  0.15909337  1
  P  P3  1  0.00004885  0.00004885  0.84090663  1
