# generated using pymatgen
data_Sr3CaMn2FeO10
_symmetry_space_group_name_H-M   'P 1'
_cell_length_a   3.86331589
_cell_length_b   3.86331589
_cell_length_c   14.28364428
_cell_angle_alpha   82.22775116
_cell_angle_beta   82.22775116
_cell_angle_gamma   90.00000000
_symmetry_Int_Tables_number   1
_chemical_formula_structural   Sr3CaMn2FeO10
_chemical_formula_sum   'Sr3 Ca1 Mn2 Fe1 O10'
_cell_volume   209.25116534
_cell_formula_units_Z   1
loop_
 _symmetry_equiv_pos_site_id
 _symmetry_equiv_pos_as_xyz
  1  'x, y, z'
loop_
 _atom_site_type_symbol
 _atom_site_label
 _atom_site_symmetry_multiplicity
 _atom_site_fract_x
 _atom_site_fract_y
 _atom_site_fract_z
 _atom_site_occupancy
  Sr  Sr0  1  0.70198948  0.70198948  0.59602104  1
  Sr  Sr1  1  0.29869151  0.29869151  0.40261698  1
  Sr  Sr2  1  0.56882311  0.56882311  0.86235379  1
  Ca  Ca3  1  0.43073729  0.43073729  0.13852542  1
  Mn  Mn4  1  0.14034809  0.14034809  0.71930382  1
  Mn  Mn5  1  0.86041325  0.86041325  0.27917350  1
  Fe  Fe6  1  0.99899430  0.99899430  0.00201141  1
  O  O7  1  0.63858624  0.13858624  0.72282752  1
  O  O8  1  0.13858624  0.63858624  0.72282752  1
  O  O9  1  0.36337315  0.86337315  0.27325370  1
  O  O10  1  0.86337315  0.36337315  0.27325370  1
  O  O11  1  0.99789525  0.49789525  0.00420951  1
  O  O12  1  0.49789525  0.99789525  0.00420951  1
  O  O13  1  0.20941114  0.20941114  0.58117772  1
  O  O14  1  0.79156528  0.79156528  0.41686944  1
  O  O15  1  0.06972183  0.06972183  0.86055633  1
  O  O16  1  0.92959546  0.92959546  0.14080909  1
