# generated using pymatgen
data_SrLa2(CuO3)2
_symmetry_space_group_name_H-M   'P 1'
_cell_length_a   3.87841403
_cell_length_b   3.87841403
_cell_length_c   10.33212123
_cell_angle_alpha   79.18215684
_cell_angle_beta   79.18215684
_cell_angle_gamma   90.00000000
_symmetry_Int_Tables_number   1
_chemical_formula_structural   SrLa2(CuO3)2
_chemical_formula_sum   'Sr1 La2 Cu2 O6'
_cell_volume   149.84198363
_cell_formula_units_Z   1
loop_
 _symmetry_equiv_pos_site_id
 _symmetry_equiv_pos_as_xyz
  1  'x, y, z'
loop_
 _atom_site_type_symbol
 _atom_site_label
 _atom_site_symmetry_multiplicity
 _atom_site_fract_x
 _atom_site_fract_y
 _atom_site_fract_z
 _atom_site_occupancy
  Sr  Sr0  1  0.00000000  0.00000000  -0.00000000  1
  La  La1  1  0.17737229  0.17737229  0.64525543  1
  La  La2  1  0.82262771  0.82262771  0.35474457  1
  Cu  Cu3  1  0.41116952  0.41116952  0.17766096  1
  Cu  Cu4  1  0.58883048  0.58883048  0.82233904  1
  O  O5  1  0.58879327  0.08879327  0.82241346  1
  O  O6  1  0.08879327  0.58879327  0.82241346  1
  O  O7  1  0.41120673  0.91120673  0.17758654  1
  O  O8  1  0.91120673  0.41120673  0.17758654  1
  O  O9  1  0.29275782  0.29275782  0.41448436  1
  O  O10  1  0.70724218  0.70724218  0.58551564  1
