# generated using pymatgen
data_SmDyC4
_symmetry_space_group_name_H-M   'P 1'
_cell_length_a   3.71237365
_cell_length_b   4.11463663
_cell_length_c   6.68065059
_cell_angle_alpha   84.27129967
_cell_angle_beta   73.86835741
_cell_angle_gamma   63.18456097
_symmetry_Int_Tables_number   1
_chemical_formula_structural   SmDyC4
_chemical_formula_sum   'Sm1 Dy1 C4'
_cell_volume   87.44893220
_cell_formula_units_Z   1
loop_
 _symmetry_equiv_pos_site_id
 _symmetry_equiv_pos_as_xyz
  1  'x, y, z'
loop_
 _atom_site_type_symbol
 _atom_site_label
 _atom_site_symmetry_multiplicity
 _atom_site_fract_x
 _atom_site_fract_y
 _atom_site_fract_z
 _atom_site_occupancy
  Sm  Sm0  1  0.00000000  -0.00000000  0.00000000  1
  Dy  Dy1  1  0.00000000  0.50000000  0.50000000  1
  C  C2  1  0.59696180  0.59877147  0.20730492  1
  C  C3  1  0.60932237  0.09055460  0.69080065  1
  C  C4  1  0.40303820  0.40122853  0.79269508  1
  C  C5  1  0.39067763  0.90944540  0.30919935  1
