# generated using pymatgen
data_La3SmV3CrO12
_symmetry_space_group_name_H-M   'P 1'
_cell_length_a   7.94944023
_cell_length_b   7.91443510
_cell_length_c   7.79579280
_cell_angle_alpha   90.00000000
_cell_angle_beta   90.00000000
_cell_angle_gamma   90.00000000
_symmetry_Int_Tables_number   1
_chemical_formula_structural   La3SmV3CrO12
_chemical_formula_sum   'La6 Sm2 V6 Cr2 O24'
_cell_volume   490.47486713
_cell_formula_units_Z   2
loop_
 _symmetry_equiv_pos_site_id
 _symmetry_equiv_pos_as_xyz
  1  'x, y, z'
loop_
 _atom_site_type_symbol
 _atom_site_label
 _atom_site_symmetry_multiplicity
 _atom_site_fract_x
 _atom_site_fract_y
 _atom_site_fract_z
 _atom_site_occupancy
  La  La0  1  0.25000000  0.25390886  0.25000000  1
  La  La1  1  0.25000000  0.25390886  0.75000000  1
  La  La2  1  0.25000000  0.74820204  0.25000000  1
  La  La3  1  0.25000000  0.74820204  0.75000000  1
  La  La4  1  0.75000000  0.74603082  0.25000000  1
  La  La5  1  0.75000000  0.74603082  0.75000000  1
  Sm  Sm6  1  0.75000000  0.25261981  0.25000000  1
  Sm  Sm7  1  0.75000000  0.25261981  0.75000000  1
  V  V8  1  0.99953444  0.00035945  0.00000000  1
  V  V9  1  0.99911382  0.00080893  0.50000000  1
  V  V10  1  0.99925623  0.49917377  0.00000000  1
  V  V11  1  0.50088618  0.00080893  0.00000000  1
  V  V12  1  0.50046556  0.00035945  0.50000000  1
  V  V13  1  0.50074377  0.49917377  0.50000000  1
  Cr  Cr14  1  0.99945282  0.49939823  0.50000000  1
  Cr  Cr15  1  0.50054718  0.49939823  0.00000000  1
  O  O16  1  0.25180962  0.00045774  -0.00000000  1
  O  O17  1  0.24819038  0.00045774  0.50000000  1
  O  O18  1  0.25301316  0.50064064  -0.00000000  1
  O  O19  1  0.24698684  0.50064064  0.50000000  1
  O  O20  1  0.74859460  0.00291436  0.00000000  1
  O  O21  1  0.75140540  0.00291436  0.50000000  1
  O  O22  1  0.74689380  0.49580436  -0.00000000  1
  O  O23  1  0.75310620  0.49580436  0.50000000  1
  O  O24  1  0.99657508  0.25057245  0.00000000  1
  O  O25  1  0.99648778  0.25331331  0.50000000  1
  O  O26  1  -0.00009333  0.74902969  0.00000000  1
  O  O27  1  0.00012376  0.74675151  0.50000000  1
  O  O28  1  0.50351222  0.25331331  0.00000000  1
  O  O29  1  0.50342492  0.25057245  0.50000000  1
  O  O30  1  0.49987624  0.74675151  0.00000000  1
  O  O31  1  0.50009333  0.74902969  0.50000000  1
  O  O32  1  0.99842146  0.00159944  0.24967311  1
  O  O33  1  0.99842146  0.00159944  0.75032689  1
  O  O34  1  0.99836715  0.49840757  0.25000782  1
  O  O35  1  0.99836715  0.49840757  0.74999218  1
  O  O36  1  0.50157854  0.00159944  0.25032689  1
  O  O37  1  0.50157854  0.00159944  0.74967311  1
  O  O38  1  0.50163285  0.49840757  0.24999218  1
  O  O39  1  0.50163285  0.49840757  0.75000782  1
