# generated using pymatgen
data_Sm2Ta3(SO4)2
_symmetry_space_group_name_H-M   'P 1'
_cell_length_a   3.79115291
_cell_length_b   9.90896303
_cell_length_c   11.68587920
_cell_angle_alpha   90.00000000
_cell_angle_beta   90.00000000
_cell_angle_gamma   90.00000000
_symmetry_Int_Tables_number   1
_chemical_formula_structural   Sm2Ta3(SO4)2
_chemical_formula_sum   'Sm4 Ta6 S4 O16'
_cell_volume   438.99634257
_cell_formula_units_Z   2
loop_
 _symmetry_equiv_pos_site_id
 _symmetry_equiv_pos_as_xyz
  1  'x, y, z'
loop_
 _atom_site_type_symbol
 _atom_site_label
 _atom_site_symmetry_multiplicity
 _atom_site_fract_x
 _atom_site_fract_y
 _atom_site_fract_z
 _atom_site_occupancy
  Sm  Sm0  1  0.50121646  0.21763414  0.34346215  1
  Sm  Sm1  1  0.50121646  0.78236586  0.65653785  1
  Sm  Sm2  1  0.49878354  0.71763414  0.15653785  1
  Sm  Sm3  1  0.49878354  0.28236586  0.84346215  1
  Ta  Ta4  1  0.00027605  0.86431919  0.41642808  1
  Ta  Ta5  1  0.00027605  0.13568081  0.58357192  1
  Ta  Ta6  1  0.99972395  0.36431919  0.08357192  1
  Ta  Ta7  1  0.99972395  0.63568081  0.91642808  1
  Ta  Ta8  1  0.01762078  0.50000000  0.50000000  1
  Ta  Ta9  1  0.98237922  -0.00000000  0.00000000  1
  S  S10  1  0.51339817  0.51667611  0.35251870  1
  S  S11  1  0.51339817  0.48332389  0.64748130  1
  S  S12  1  0.48660183  0.01667611  0.14748130  1
  S  S13  1  0.48660183  0.98332389  0.85251870  1
  O  O14  1  0.00384167  0.30278611  0.47292734  1
  O  O15  1  0.00384167  0.69721389  0.52707266  1
  O  O16  1  0.99615833  0.80278611  0.02707266  1
  O  O17  1  0.99615833  0.19721389  0.97292734  1
  O  O18  1  0.99974761  0.05752584  0.39300569  1
  O  O19  1  0.99974761  0.94247416  0.60699431  1
  O  O20  1  0.00025239  0.55752584  0.10699431  1
  O  O21  1  0.00025239  0.44247416  0.89300569  1
  O  O22  1  0.00085933  0.28249321  0.22709009  1
  O  O23  1  0.00085933  0.71750679  0.77290991  1
  O  O24  1  0.99914067  0.78249321  0.27290991  1
  O  O25  1  0.99914067  0.21750679  0.72709009  1
  O  O26  1  0.50060202  0.14285850  0.54638655  1
  O  O27  1  0.50060202  0.85714150  0.45361345  1
  O  O28  1  0.49939798  0.64285850  0.95361345  1
  O  O29  1  0.49939798  0.35714150  0.04638655  1
