# generated using pymatgen
data_ScSb(PbO3)2
_symmetry_space_group_name_H-M   'P 1'
_cell_length_a   5.79142223
_cell_length_b   5.79142223
_cell_length_c   5.79142223
_cell_angle_alpha   89.95783241
_cell_angle_beta   59.86304930
_cell_angle_gamma   119.81462580
_symmetry_Int_Tables_number   1
_chemical_formula_structural   ScSb(PbO3)2
_chemical_formula_sum   'Sc1 Sb1 Pb2 O6'
_cell_volume   137.40267080
_cell_formula_units_Z   1
loop_
 _symmetry_equiv_pos_site_id
 _symmetry_equiv_pos_as_xyz
  1  'x, y, z'
loop_
 _atom_site_type_symbol
 _atom_site_label
 _atom_site_symmetry_multiplicity
 _atom_site_fract_x
 _atom_site_fract_y
 _atom_site_fract_z
 _atom_site_occupancy
  Sc  Sc0  1  0.98959436  0.98959436  0.00000000  1
  Sb  Sb1  1  0.99573044  0.49573044  0.50000000  1
  Pb  Pb2  1  0.47339725  0.23233259  0.24106465  1
  Pb  Pb3  1  0.47339725  0.71446190  0.75893535  1
  O  O4  1  0.50979333  0.26135740  0.75156407  1
  O  O5  1  0.01292147  0.26135740  0.24843593  1
  O  O6  1  0.00585915  0.74971664  0.25614251  1
  O  O7  1  0.48482195  0.74192380  0.25710185  1
  O  O8  1  0.99902565  0.74192380  0.74289815  1
  O  O9  1  0.00585915  0.26200166  0.74385749  1
