# generated using pymatgen
data_Ni7Ge4
_symmetry_space_group_name_H-M   'P 1'
_cell_length_a   3.96942521
_cell_length_b   3.96942521
_cell_length_c   10.03019864
_cell_angle_alpha   90.00000000
_cell_angle_beta   90.00000000
_cell_angle_gamma   120.00013322
_symmetry_Int_Tables_number   1
_chemical_formula_structural   Ni7Ge4
_chemical_formula_sum   'Ni7 Ge4'
_cell_volume   136.86576539
_cell_formula_units_Z   1
loop_
 _symmetry_equiv_pos_site_id
 _symmetry_equiv_pos_as_xyz
  1  'x, y, z'
loop_
 _atom_site_type_symbol
 _atom_site_label
 _atom_site_symmetry_multiplicity
 _atom_site_fract_x
 _atom_site_fract_y
 _atom_site_fract_z
 _atom_site_occupancy
  Ni  Ni0  1  0.00000751  0.99999249  0.00216257  1
  Ni  Ni1  1  0.00000004  -0.00000004  0.49585211  1
  Ni  Ni2  1  0.00000004  -0.00000004  0.25414789  1
  Ni  Ni3  1  0.00000751  0.99999249  0.74783743  1
  Ni  Ni4  1  0.66671224  0.33328776  0.87500000  1
  Ni  Ni5  1  0.33328415  0.66671585  0.12950780  1
  Ni  Ni6  1  0.33328415  0.66671585  0.62049220  1
  Ge  Ge7  1  0.66668851  0.33331149  0.13153871  1
  Ge  Ge8  1  0.66668851  0.33331149  0.61846129  1
  Ge  Ge9  1  0.33331061  0.66668939  0.37500000  1
  Ge  Ge10  1  0.33331672  0.66668328  0.87500000  1
