# generated using pymatgen
data_Sm2Ga2Fe15
_symmetry_space_group_name_H-M   'P 1'
_cell_length_a   6.45498062
_cell_length_b   6.50848872
_cell_length_c   6.45498046
_cell_angle_alpha   83.10988927
_cell_angle_beta   82.55236383
_cell_angle_gamma   83.10989204
_symmetry_Int_Tables_number   1
_chemical_formula_structural   Sm2Ga2Fe15
_chemical_formula_sum   'Sm2 Ga2 Fe15'
_cell_volume   265.45194155
_cell_formula_units_Z   1
loop_
 _symmetry_equiv_pos_site_id
 _symmetry_equiv_pos_as_xyz
  1  'x, y, z'
loop_
 _atom_site_type_symbol
 _atom_site_label
 _atom_site_symmetry_multiplicity
 _atom_site_fract_x
 _atom_site_fract_y
 _atom_site_fract_z
 _atom_site_occupancy
  Sm  Sm0  1  0.66208552  0.66636272  0.66208552  1
  Sm  Sm1  1  0.34326894  0.34223071  0.34326894  1
  Ga  Ga2  1  0.84720438  0.34417480  0.34411176  1
  Ga  Ga3  1  0.34411176  0.34417480  0.84720438  1
  Fe  Fe4  1  0.90415276  0.90271770  0.90415276  1
  Fe  Fe5  1  0.09559771  0.09158656  0.09559771  1
  Fe  Fe6  1  0.28846994  0.71142575  0.00105723  1
  Fe  Fe7  1  0.70902548  0.99874919  0.28985019  1
  Fe  Fe8  1  0.99666903  0.28796365  0.71137404  1
  Fe  Fe9  1  0.28985019  0.99874919  0.70902548  1
  Fe  Fe10  1  0.00105723  0.71142575  0.28846994  1
  Fe  Fe11  1  0.71137404  0.28796365  0.99666903  1
  Fe  Fe12  1  0.99952552  0.99769358  0.49926567  1
  Fe  Fe13  1  0.99606153  0.50334500  0.99606153  1
  Fe  Fe14  1  0.49926567  0.99769358  0.99952552  1
  Fe  Fe15  1  0.34234594  0.84554616  0.34234594  1
  Fe  Fe16  1  0.15354117  0.66253216  0.65634764  1
  Fe  Fe17  1  0.65634764  0.66253216  0.15354117  1
  Fe  Fe18  1  0.66004555  0.14313288  0.66004555  1
