# generated using pymatgen
data_Pr4(BRh4)3
_symmetry_space_group_name_H-M   'P 1'
_cell_length_a   4.28029387
_cell_length_b   4.28029387
_cell_length_c   16.71624035
_cell_angle_alpha   90.00000000
_cell_angle_beta   90.00000000
_cell_angle_gamma   90.00000000
_symmetry_Int_Tables_number   1
_chemical_formula_structural   Pr4(BRh4)3
_chemical_formula_sum   'Pr4 B3 Rh12'
_cell_volume   306.25682883
_cell_formula_units_Z   1
loop_
 _symmetry_equiv_pos_site_id
 _symmetry_equiv_pos_as_xyz
  1  'x, y, z'
loop_
 _atom_site_type_symbol
 _atom_site_label
 _atom_site_symmetry_multiplicity
 _atom_site_fract_x
 _atom_site_fract_y
 _atom_site_fract_z
 _atom_site_occupancy
  Pr  Pr0  1  -0.00000000  0.00000000  0.00488487  1
  Pr  Pr1  1  0.00000000  -0.00000000  0.24511513  1
  Pr  Pr2  1  -0.00000000  0.00000000  0.49891880  1
  Pr  Pr3  1  0.00000000  0.00000000  0.75108120  1
  B  B4  1  0.50000000  0.50000000  0.36425775  1
  B  B5  1  0.50000000  0.50000000  0.62500000  1
  B  B6  1  0.50000000  0.50000000  0.88574225  1
  Rh  Rh7  1  0.50000000  0.50000000  0.01009165  1
  Rh  Rh8  1  0.50000000  0.50000000  0.23990835  1
  Rh  Rh9  1  0.50000000  0.50000000  0.49594662  1
  Rh  Rh10  1  0.50000000  0.50000000  0.75405338  1
  Rh  Rh11  1  0.50000000  0.00000000  0.12500000  1
  Rh  Rh12  1  0.50000000  -0.00000000  0.37160139  1
  Rh  Rh13  1  0.50000000  -0.00000000  0.62500000  1
  Rh  Rh14  1  0.50000000  0.00000000  0.87839861  1
  Rh  Rh15  1  -0.00000000  0.50000000  0.12500000  1
  Rh  Rh16  1  -0.00000000  0.50000000  0.37160139  1
  Rh  Rh17  1  0.00000000  0.50000000  0.62500000  1
  Rh  Rh18  1  0.00000000  0.50000000  0.87839861  1
