# generated using pymatgen
data_ScMnCr
_symmetry_space_group_name_H-M   'P 1'
_cell_length_a   4.98673562
_cell_length_b   4.98924188
_cell_length_c   7.98682672
_cell_angle_alpha   90.00000000
_cell_angle_beta   90.00000000
_cell_angle_gamma   60.08083878
_symmetry_Int_Tables_number   1
_chemical_formula_structural   ScMnCr
_chemical_formula_sum   'Sc4 Mn4 Cr4'
_cell_volume   172.23007518
_cell_formula_units_Z   4
loop_
 _symmetry_equiv_pos_site_id
 _symmetry_equiv_pos_as_xyz
  1  'x, y, z'
loop_
 _atom_site_type_symbol
 _atom_site_label
 _atom_site_symmetry_multiplicity
 _atom_site_fract_x
 _atom_site_fract_y
 _atom_site_fract_z
 _atom_site_occupancy
  Sc  Sc0  1  0.33319600  0.33310040  0.94132770  1
  Sc  Sc1  1  0.66719388  0.66723554  0.06601025  1
  Sc  Sc2  1  0.66719388  0.66723554  0.43398975  1
  Sc  Sc3  1  0.33319600  0.33310040  0.55867230  1
  Mn  Mn4  1  0.82917431  0.82913294  0.75000000  1
  Mn  Mn5  1  0.17074192  0.65893188  0.25000000  1
  Mn  Mn6  1  0.65891552  0.17073434  0.25000000  1
  Mn  Mn7  1  0.17165110  0.17161555  0.25000000  1
  Cr  Cr8  1  0.99863713  0.99878260  0.49604842  1
  Cr  Cr9  1  0.99863713  0.99878260  0.00395158  1
  Cr  Cr10  1  0.83129610  0.34011105  0.75000000  1
  Cr  Cr11  1  0.34016703  0.83123716  0.75000000  1
