# generated using pymatgen
data_Sm4GdS5
_symmetry_space_group_name_H-M   'P 1'
_cell_length_a   4.16127341
_cell_length_b   5.74541980
_cell_length_c   10.84397868
_cell_angle_alpha   105.36178091
_cell_angle_beta   101.06194897
_cell_angle_gamma   90.00000000
_symmetry_Int_Tables_number   1
_chemical_formula_structural   Sm4GdS5
_chemical_formula_sum   'Sm4 Gd1 S5'
_cell_volume   244.99887491
_cell_formula_units_Z   1
loop_
 _symmetry_equiv_pos_site_id
 _symmetry_equiv_pos_as_xyz
  1  'x, y, z'
loop_
 _atom_site_type_symbol
 _atom_site_label
 _atom_site_symmetry_multiplicity
 _atom_site_fract_x
 _atom_site_fract_y
 _atom_site_fract_z
 _atom_site_occupancy
  Sm  Sm0  1  0.60058501  0.60058501  0.20117003  1
  Sm  Sm1  1  0.19970737  0.19970737  0.39941474  1
  Sm  Sm2  1  0.80029263  0.80029263  0.60058526  1
  Sm  Sm3  1  0.39941499  0.39941499  0.79882997  1
  Gd  Gd4  1  0.00000000  -0.00000000  -0.00000000  1
  S  S5  1  0.40283607  0.90283607  0.80567213  1
  S  S6  1  0.20005022  0.70005022  0.40010045  1
  S  S7  1  0.79994978  0.29994978  0.59989955  1
  S  S8  1  0.00000000  0.50000000  -0.00000000  1
  S  S9  1  0.59716393  0.09716393  0.19432787  1
