# generated using pymatgen
data_NiH6(NCl)2
_symmetry_space_group_name_H-M   'P 1'
_cell_length_a   3.77207845
_cell_length_b   5.91312639
_cell_length_c   5.91312639
_cell_angle_alpha   87.53585753
_cell_angle_beta   88.10010679
_cell_angle_gamma   91.89989321
_symmetry_Int_Tables_number   1
_chemical_formula_structural   NiH6(NCl)2
_chemical_formula_sum   'Ni1 H6 N2 Cl2'
_cell_volume   131.61758013
_cell_formula_units_Z   1
loop_
 _symmetry_equiv_pos_site_id
 _symmetry_equiv_pos_as_xyz
  1  'x, y, z'
loop_
 _atom_site_type_symbol
 _atom_site_label
 _atom_site_symmetry_multiplicity
 _atom_site_fract_x
 _atom_site_fract_y
 _atom_site_fract_z
 _atom_site_occupancy
  Ni  Ni0  1  0.00000000  0.00445116  0.00445116  1
  H  H1  1  0.78680058  0.80946096  0.38317997  1
  H  H2  1  0.21319942  0.38317997  0.80946096  1
  H  H3  1  0.20075886  0.74689463  0.34421742  1
  H  H4  1  0.10787837  0.21161079  0.60562244  1
  H  H5  1  0.79924114  0.34421742  0.74689463  1
  H  H6  1  0.89212163  0.60562244  0.21161079  1
  N  N7  1  0.03174024  0.26206597  0.76317393  1
  N  N8  1  0.96825976  0.76317393  0.26206597  1
  Cl  Cl9  1  0.50000000  0.81024114  0.81024114  1
  Cl  Cl10  1  0.50000000  0.19708160  0.19708160  1
