# generated using pymatgen
data_Nd20(Si3Ru)3
_symmetry_space_group_name_H-M   'P 1'
_cell_length_a   7.81436555
_cell_length_b   7.81436555
_cell_length_c   13.87137317
_cell_angle_alpha   90.00000000
_cell_angle_beta   90.00000000
_cell_angle_gamma   91.16435366
_symmetry_Int_Tables_number   1
_chemical_formula_structural   Nd20(Si3Ru)3
_chemical_formula_sum   'Nd20 Si9 Ru3'
_cell_volume   846.87091801
_cell_formula_units_Z   1
loop_
 _symmetry_equiv_pos_site_id
 _symmetry_equiv_pos_as_xyz
  1  'x, y, z'
loop_
 _atom_site_type_symbol
 _atom_site_label
 _atom_site_symmetry_multiplicity
 _atom_site_fract_x
 _atom_site_fract_y
 _atom_site_fract_z
 _atom_site_occupancy
  Nd  Nd0  1  0.99864352  0.99507092  -0.00000000  1
  Nd  Nd1  1  0.49398453  0.49185767  0.50000000  1
  Nd  Nd2  1  0.50492908  0.50135648  -0.00000000  1
  Nd  Nd3  1  0.00814233  0.00601547  0.50000000  1
  Nd  Nd4  1  0.82428218  0.67571782  0.35079280  1
  Nd  Nd5  1  0.31856100  0.18143900  0.85943914  1
  Nd  Nd6  1  0.17780332  0.32219668  0.35538774  1
  Nd  Nd7  1  0.67719498  0.82280502  0.85468281  1
  Nd  Nd8  1  0.66875675  0.16995630  0.35414208  1
  Nd  Nd9  1  0.16763136  0.66467509  0.85927860  1
  Nd  Nd10  1  0.33004370  0.83124325  0.35414208  1
  Nd  Nd11  1  0.83532491  0.33236864  0.85927860  1
  Nd  Nd12  1  0.67719498  0.82280502  0.14531719  1
  Nd  Nd13  1  0.17780332  0.32219668  0.64461226  1
  Nd  Nd14  1  0.31856100  0.18143900  0.14056086  1
  Nd  Nd15  1  0.82428218  0.67571782  0.64920720  1
  Nd  Nd16  1  0.83532491  0.33236864  0.14072140  1
  Nd  Nd17  1  0.33004370  0.83124325  0.64585792  1
  Nd  Nd18  1  0.16763136  0.66467509  0.14072140  1
  Nd  Nd19  1  0.66875675  0.16995630  0.64585792  1
  Si  Si20  1  0.62245187  0.87754813  0.50000000  1
  Si  Si21  1  0.61401880  0.11423514  -0.00000000  1
  Si  Si22  1  0.11036219  0.61800505  0.50000000  1
  Si  Si23  1  0.38576486  0.88598120  -0.00000000  1
  Si  Si24  1  0.88199495  0.38963781  0.50000000  1
  Si  Si25  1  0.49988684  0.50080114  0.25124225  1
  Si  Si26  1  0.99919886  0.00011316  0.74875775  1
  Si  Si27  1  0.99919886  0.00011316  0.25124225  1
  Si  Si28  1  0.49988684  0.50080114  0.74875775  1
  Ru  Ru29  1  0.38449375  0.11550625  0.50000000  1
  Ru  Ru30  1  0.86997706  0.63002294  -0.00000000  1
  Ru  Ru31  1  0.12786924  0.37213076  -0.00000000  1
