# generated using pymatgen
data_Na2EuGeSe4
_symmetry_space_group_name_H-M   'P 1'
_cell_length_a   6.42867786
_cell_length_b   6.42867786
_cell_length_c   6.42867786
_cell_angle_alpha   70.34369959
_cell_angle_beta   70.34369959
_cell_angle_gamma   109.10169185
_symmetry_Int_Tables_number   1
_chemical_formula_structural   Na2EuGeSe4
_chemical_formula_sum   'Na2 Eu1 Ge1 Se4'
_cell_volume   204.51706989
_cell_formula_units_Z   1
loop_
 _symmetry_equiv_pos_site_id
 _symmetry_equiv_pos_as_xyz
  1  'x, y, z'
loop_
 _atom_site_type_symbol
 _atom_site_label
 _atom_site_symmetry_multiplicity
 _atom_site_fract_x
 _atom_site_fract_y
 _atom_site_fract_z
 _atom_site_occupancy
  Na  Na0  1  0.50000000  -0.00000000  0.50000000  1
  Na  Na1  1  0.00000000  0.50000000  0.50000000  1
  Eu  Eu2  1  0.50000000  0.50000000  0.00000000  1
  Ge  Ge3  1  0.00000000  -0.00000000  0.00000000  1
  Se  Se4  1  0.62640620  0.62640620  0.37779147  1
  Se  Se5  1  0.37359380  0.99580234  -0.00000000  1
  Se  Se6  1  0.99580234  0.37359380  0.00000000  1
  Se  Se7  1  0.00419766  0.00419766  0.62220853  1
