# generated using pymatgen
data_Nd3Ti4O12
_symmetry_space_group_name_H-M   'P 1'
_cell_length_a   5.52245441
_cell_length_b   5.52245441
_cell_length_c   7.75256682
_cell_angle_alpha   90.00000000
_cell_angle_beta   90.00000000
_cell_angle_gamma   88.90417121
_symmetry_Int_Tables_number   1
_chemical_formula_structural   Nd3Ti4O12
_chemical_formula_sum   'Nd3 Ti4 O12'
_cell_volume   236.39068546
_cell_formula_units_Z   1
loop_
 _symmetry_equiv_pos_site_id
 _symmetry_equiv_pos_as_xyz
  1  'x, y, z'
loop_
 _atom_site_type_symbol
 _atom_site_label
 _atom_site_symmetry_multiplicity
 _atom_site_fract_x
 _atom_site_fract_y
 _atom_site_fract_z
 _atom_site_occupancy
  Nd  Nd0  1  0.74168259  0.74168259  0.00000000  1
  Nd  Nd1  1  0.24997288  0.24997288  0.00000000  1
  Nd  Nd2  1  0.74619716  0.74619716  0.50000000  1
  Ti  Ti3  1  0.24855783  0.74853092  0.74299316  1
  Ti  Ti4  1  0.74853092  0.24855783  0.74299316  1
  Ti  Ti5  1  0.74853092  0.24855783  0.25700684  1
  Ti  Ti6  1  0.24855783  0.74853092  0.25700684  1
  O  O7  1  0.99148074  0.50976442  0.76489164  1
  O  O8  1  0.50976442  0.99148074  0.23510836  1
  O  O9  1  0.99148074  0.50976442  0.23510836  1
  O  O10  1  0.50976442  0.99148074  0.76489164  1
  O  O11  1  0.51665345  0.51665345  0.70999803  1
  O  O12  1  0.51665345  0.51665345  0.29000197  1
  O  O13  1  0.19291854  0.78602953  0.50000000  1
  O  O14  1  0.78602953  0.19291854  0.50000000  1
  O  O15  1  0.00149746  0.00149746  0.80990363  1
  O  O16  1  0.00149746  0.00149746  0.19009637  1
  O  O17  1  0.30056466  0.69066499  0.00000000  1
  O  O18  1  0.69066499  0.30056466  0.00000000  1
