# generated using pymatgen
data_Sm2Fe2O5
_symmetry_space_group_name_H-M   'P 1'
_cell_length_a   5.49641847
_cell_length_b   5.82393425
_cell_length_c   8.68197213
_cell_angle_alpha   109.59709949
_cell_angle_beta   108.45393090
_cell_angle_gamma   90.00000000
_symmetry_Int_Tables_number   1
_chemical_formula_structural   Sm2Fe2O5
_chemical_formula_sum   'Sm4 Fe4 O10'
_cell_volume   246.59612496
_cell_formula_units_Z   2
loop_
 _symmetry_equiv_pos_site_id
 _symmetry_equiv_pos_as_xyz
  1  'x, y, z'
loop_
 _atom_site_type_symbol
 _atom_site_label
 _atom_site_symmetry_multiplicity
 _atom_site_fract_x
 _atom_site_fract_y
 _atom_site_fract_z
 _atom_site_occupancy
  Sm  Sm0  1  0.59982912  0.12625967  0.22589003  1
  Sm  Sm1  1  0.37393909  0.87374033  0.77410997  1
  Sm  Sm2  1  0.09982912  0.59963035  0.22589003  1
  Sm  Sm3  1  0.87393909  0.40036965  0.77410997  1
  Fe  Fe4  1  0.00655781  -0.00000000  0.00000000  1
  Fe  Fe5  1  0.50655781  0.50000000  0.00000000  1
  Fe  Fe6  1  0.22464412  0.21464983  0.50000000  1
  Fe  Fe7  1  0.72464412  0.78535017  0.50000000  1
  O  O8  1  0.21341996  0.23031656  0.93880068  1
  O  O9  1  0.27461928  0.76968344  0.06119932  1
  O  O10  1  0.71341996  0.20848412  0.93880068  1
  O  O11  1  0.77461928  0.79151588  0.06119932  1
  O  O12  1  0.20817730  0.24616254  0.28069213  1
  O  O13  1  0.92748517  0.75383746  0.71930787  1
  O  O14  1  0.70817730  0.53452959  0.28069213  1
  O  O15  1  0.42748517  0.46547041  0.71930787  1
  O  O16  1  0.83532814  0.13783753  0.50000000  1
  O  O17  1  0.33532814  0.86216247  0.50000000  1
