# generated using pymatgen
data_NbInBi2O7
_symmetry_space_group_name_H-M   'P 1'
_cell_length_a   7.63173269
_cell_length_b   7.56699346
_cell_length_c   7.65636979
_cell_angle_alpha   90.00000000
_cell_angle_beta   59.89315298
_cell_angle_gamma   119.71978243
_symmetry_Int_Tables_number   1
_chemical_formula_structural   NbInBi2O7
_chemical_formula_sum   'Nb2 In2 Bi4 O14'
_cell_volume   313.46103333
_cell_formula_units_Z   2
loop_
 _symmetry_equiv_pos_site_id
 _symmetry_equiv_pos_as_xyz
  1  'x, y, z'
loop_
 _atom_site_type_symbol
 _atom_site_label
 _atom_site_symmetry_multiplicity
 _atom_site_fract_x
 _atom_site_fract_y
 _atom_site_fract_z
 _atom_site_occupancy
  Nb  Nb0  1  -0.00000000  0.50000000  -0.00000000  1
  Nb  Nb1  1  -0.00000000  0.50000000  0.50000000  1
  In  In2  1  0.50000000  0.00000000  0.50000000  1
  In  In3  1  0.50000000  0.50000000  0.50000000  1
  Bi  Bi4  1  0.50000000  0.50000000  -0.00000000  1
  Bi  Bi5  1  0.50000000  0.00000000  -0.00000000  1
  Bi  Bi6  1  0.00000000  0.00000000  0.50000000  1
  Bi  Bi7  1  0.00000000  0.00000000  -0.00000000  1
  O  O8  1  0.90206803  0.45103402  0.79896598  1
  O  O9  1  0.70280822  0.85140411  0.39859589  1
  O  O10  1  0.25224852  0.42935997  0.39859220  1
  O  O11  1  0.25224852  0.82288855  0.84915928  1
  O  O12  1  0.25224852  0.82288855  0.39859220  1
  O  O13  1  0.25224852  0.42935997  0.84915928  1
  O  O14  1  0.09793197  0.54896598  0.20103402  1
  O  O15  1  0.29719178  0.14859589  0.60140411  1
  O  O16  1  0.74775148  0.57064003  0.60140780  1
  O  O17  1  0.74775148  0.17711145  0.15084072  1
  O  O18  1  0.74775148  0.17711145  0.60140780  1
  O  O19  1  0.74775148  0.57064003  0.15084072  1
  O  O20  1  0.25987758  0.12993879  0.12006121  1
  O  O21  1  0.74012242  0.87006121  0.87993879  1
