# generated using pymatgen
data_Na2AlGe7O16
_symmetry_space_group_name_H-M   'P 1'
_cell_length_a   7.54428461
_cell_length_b   7.98643098
_cell_length_c   8.08352747
_cell_angle_alpha   114.89288260
_cell_angle_beta   100.09816191
_cell_angle_gamma   107.57735305
_symmetry_Int_Tables_number   1
_chemical_formula_structural   Na2AlGe7O16
_chemical_formula_sum   'Na2 Al1 Ge7 O16'
_cell_volume   394.57068365
_cell_formula_units_Z   1
loop_
 _symmetry_equiv_pos_site_id
 _symmetry_equiv_pos_as_xyz
  1  'x, y, z'
loop_
 _atom_site_type_symbol
 _atom_site_label
 _atom_site_symmetry_multiplicity
 _atom_site_fract_x
 _atom_site_fract_y
 _atom_site_fract_z
 _atom_site_occupancy
  Na  Na0  1  0.12672304  0.28575481  0.25727054  1
  Na  Na1  1  0.87789607  0.71808018  0.74035117  1
  Al  Al2  1  0.21009403  0.16955607  0.85268986  1
  Ge  Ge3  1  0.31048496  0.79928734  0.59122768  1
  Ge  Ge4  1  0.68832340  0.20568778  0.41568256  1
  Ge  Ge5  1  0.35525341  0.54521605  0.80006700  1
  Ge  Ge6  1  0.63512657  0.44238368  0.19296839  1
  Ge  Ge7  1  0.78723208  0.82751990  0.14669794  1
  Ge  Ge8  1  0.23021795  0.81304339  0.19123836  1
  Ge  Ge9  1  0.77324773  0.18349874  0.81173780  1
  O  O10  1  0.24323309  0.64456652  0.97143276  1
  O  O11  1  0.75834599  0.35838984  0.02848993  1
  O  O12  1  0.18586254  0.91615235  0.73006560  1
  O  O13  1  0.81700893  0.08724501  0.26938302  1
  O  O14  1  0.37740772  0.30946438  0.09686433  1
  O  O15  1  0.62137528  0.68990211  0.89828192  1
  O  O16  1  0.27169932  0.56439849  0.58941861  1
  O  O17  1  0.73131401  0.43846720  0.41062409  1
  O  O18  1  0.28494452  0.28904758  0.72192065  1
  O  O19  1  0.71447465  0.71097957  0.28323849  1
  O  O20  1  0.42889452  0.05980888  0.32781756  1
  O  O21  1  0.56976576  0.94045652  0.67120964  1
  O  O22  1  0.19582641  0.69508238  0.33552152  1
  O  O23  1  0.80505444  0.30478179  0.66913621  1
  O  O24  1  0.97813875  0.13795439  0.88395308  1
  O  O25  1  0.02205484  0.86327503  0.11271129  1
