# generated using pymatgen
data_NaNdTiNbO6F
_symmetry_space_group_name_H-M   'P 1'
_cell_length_a   7.36431551
_cell_length_b   7.22719755
_cell_length_c   7.59839696
_cell_angle_alpha   90.00000000
_cell_angle_beta   58.94284005
_cell_angle_gamma   119.38596835
_symmetry_Int_Tables_number   1
_chemical_formula_structural   NaNdTiNbO6F
_chemical_formula_sum   'Na2 Nd2 Ti2 Nb2 O12 F2'
_cell_volume   283.97613609
_cell_formula_units_Z   2
loop_
 _symmetry_equiv_pos_site_id
 _symmetry_equiv_pos_as_xyz
  1  'x, y, z'
loop_
 _atom_site_type_symbol
 _atom_site_label
 _atom_site_symmetry_multiplicity
 _atom_site_fract_x
 _atom_site_fract_y
 _atom_site_fract_z
 _atom_site_occupancy
  Na  Na0  1  0.50000000  0.50000000  -0.00000000  1
  Na  Na1  1  0.50000000  -0.00000000  -0.00000000  1
  Nd  Nd2  1  0.00000000  -0.00000000  0.50000000  1
  Nd  Nd3  1  0.00000000  -0.00000000  -0.00000000  1
  Ti  Ti4  1  0.50000000  -0.00000000  0.50000000  1
  Ti  Ti5  1  0.50000000  0.50000000  0.50000000  1
  Nb  Nb6  1  -0.00000000  0.50000000  -0.00000000  1
  Nb  Nb7  1  -0.00000000  0.50000000  0.50000000  1
  O  O8  1  0.65735654  0.82867827  0.42132173  1
  O  O9  1  0.86694264  0.43347132  0.81652868  1
  O  O10  1  0.24605135  0.82857094  0.81721350  1
  O  O11  1  0.24605135  0.41748041  0.43673515  1
  O  O12  1  0.24605135  0.41748041  0.81721350  1
  O  O13  1  0.24605135  0.82857094  0.43673515  1
  O  O14  1  0.34264346  0.17132173  0.57867827  1
  O  O15  1  0.13305736  0.56652868  0.18347132  1
  O  O16  1  0.75394865  0.17142906  0.18278650  1
  O  O17  1  0.75394865  0.58251959  0.56326485  1
  O  O18  1  0.75394865  0.58251959  0.18278650  1
  O  O19  1  0.75394865  0.17142906  0.56326485  1
  F  F20  1  0.25496500  0.12748250  0.12251750  1
  F  F21  1  0.74503500  0.87251750  0.87748250  1
