# generated using pymatgen
data_NaHf6(NCl)6
_symmetry_space_group_name_H-M   'P 1'
_cell_length_a   6.26107483
_cell_length_b   6.26107516
_cell_length_c   10.18569858
_cell_angle_alpha   84.11957930
_cell_angle_beta   95.88042103
_cell_angle_gamma   60.00205865
_symmetry_Int_Tables_number   1
_chemical_formula_structural   NaHf6(NCl)6
_chemical_formula_sum   'Na1 Hf6 N6 Cl6'
_cell_volume   338.46577245
_cell_formula_units_Z   1
loop_
 _symmetry_equiv_pos_site_id
 _symmetry_equiv_pos_as_xyz
  1  'x, y, z'
loop_
 _atom_site_type_symbol
 _atom_site_label
 _atom_site_symmetry_multiplicity
 _atom_site_fract_x
 _atom_site_fract_y
 _atom_site_fract_z
 _atom_site_occupancy
  Na  Na0  1  0.00000000  0.00000000  0.00000000  1
  Hf  Hf1  1  0.79202734  0.20797266  0.37518521  1
  Hf  Hf2  1  0.45818175  0.87488142  0.37541341  1
  Hf  Hf3  1  0.12511858  0.54181825  0.37541341  1
  Hf  Hf4  1  0.87488142  0.45818175  0.62458659  1
  Hf  Hf5  1  0.54181825  0.12511858  0.62458659  1
  Hf  Hf6  1  0.20797266  0.79202734  0.62481479  1
  N  N7  1  0.86300876  0.13699124  0.58900107  1
  N  N8  1  0.52972818  0.80355243  0.58932696  1
  N  N9  1  0.19644757  0.47027182  0.58932696  1
  N  N10  1  0.80355243  0.52972818  0.41067304  1
  N  N11  1  0.47027182  0.19644757  0.41067304  1
  N  N12  1  0.13699124  0.86300876  0.41099893  1
  Cl  Cl13  1  0.93903877  0.72739026  0.81714352  1
  Cl  Cl14  1  0.60549045  0.39450955  0.81714597  1
  Cl  Cl15  1  0.27260974  0.06096123  0.81714352  1
  Cl  Cl16  1  0.72739026  0.93903877  0.18285648  1
  Cl  Cl17  1  0.39450955  0.60549045  0.18285403  1
  Cl  Cl18  1  0.06096123  0.27260974  0.18285648  1
