# generated using pymatgen
data_MnFe4(BiO3)5
_symmetry_space_group_name_H-M   'P 1'
_cell_length_a   5.64701211
_cell_length_b   5.71056922
_cell_length_c   23.25119720
_cell_angle_alpha   96.28590974
_cell_angle_beta   89.73919253
_cell_angle_gamma   119.62501010
_symmetry_Int_Tables_number   1
_chemical_formula_structural   MnFe4(BiO3)5
_chemical_formula_sum   'Mn2 Fe8 Bi10 O30'
_cell_volume   646.79693633
_cell_formula_units_Z   2
loop_
 _symmetry_equiv_pos_site_id
 _symmetry_equiv_pos_as_xyz
  1  'x, y, z'
loop_
 _atom_site_type_symbol
 _atom_site_label
 _atom_site_symmetry_multiplicity
 _atom_site_fract_x
 _atom_site_fract_y
 _atom_site_fract_z
 _atom_site_occupancy
  Mn  Mn0  1  0.00847963  0.01729526  0.14338943  1
  Mn  Mn1  1  0.40595675  0.80823128  0.34452690  1
  Fe  Fe2  1  0.81303552  0.62707705  0.54496078  1
  Fe  Fe3  1  0.21136872  0.42403050  0.74496090  1
  Fe  Fe4  1  0.61106305  0.22532596  0.94464711  1
  Fe  Fe5  1  0.11397873  0.22549839  0.44438208  1
  Fe  Fe6  1  0.51365342  0.02558488  0.64499708  1
  Fe  Fe7  1  0.91304802  0.82449309  0.84444877  1
  Fe  Fe8  1  0.30844512  0.62183707  0.04392438  1
  Fe  Fe9  1  0.71822514  0.43167446  0.24617389  1
  Bi  Bi10  1  0.10396805  0.19677767  0.29877062  1
  Bi  Bi11  1  0.50390968  0.00601760  0.50064677  1
  Bi  Bi12  1  0.90257226  0.80392580  0.70075423  1
  Bi  Bi13  1  0.30172192  0.60319964  0.90013838  1
  Bi  Bi14  1  0.70171444  0.40628152  0.10160963  1
  Bi  Bi15  1  0.99658397  0.00091616  0.00009768  1
  Bi  Bi16  1  0.40946031  0.81668449  0.20092211  1
  Bi  Bi17  1  0.80290150  0.60149079  0.40031495  1
  Bi  Bi18  1  0.20297006  0.40627922  0.60106618  1
  Bi  Bi19  1  0.60115130  0.20356408  0.80039322  1
  O  O20  1  0.60996435  0.07067165  0.29261632  1
  O  O21  1  0.01263961  0.87985348  0.48660908  1
  O  O22  1  0.41553952  0.67876508  0.68705130  1
  O  O23  1  0.81571952  0.47952392  0.88673095  1
  O  O24  1  0.21048991  0.27684610  0.08784865  1
  O  O25  1  0.32001328  0.16980846  0.21204969  1
  O  O26  1  0.70334999  0.96160181  0.40676922  1
  O  O27  1  0.10614194  0.75773381  0.60781573  1
  O  O28  1  0.50653062  0.55768620  0.80730397  1
  O  O29  1  0.90228831  0.35661813  0.00803910  1
  O  O30  1  0.20055702  0.98985139  0.37708204  1
  O  O31  1  0.59545116  0.79314369  0.57785436  1
  O  O32  1  -0.00475997  0.59202075  0.77722879  1
  O  O33  1  0.38880539  0.38668139  0.97625469  1
  O  O34  1  0.80097758  0.19337858  0.17803649  1
  O  O35  1  0.10735625  0.59885077  0.28200267  1
  O  O36  1  0.49544760  0.39009865  0.47758260  1
  O  O37  1  0.89646843  0.19192803  0.67768883  1
  O  O38  1  0.29620418  0.99019999  0.87641175  1
  O  O39  1  0.68415596  0.77774523  0.07332536  1
  O  O40  1  0.54763962  0.57079521  0.31205315  1
  O  O41  1  0.95173790  0.35625320  0.50747512  1
  O  O42  1  0.35031543  0.15582187  0.70767694  1
  O  O43  1  0.75291773  0.95767876  0.90743732  1
  O  O44  1  0.15738018  0.76323928  0.10773147  1
  O  O45  1  0.17095001  0.49007903  0.38979914  1
  O  O46  1  0.56260787  0.27953296  0.58746800  1
  O  O47  1  0.96293358  0.07937572  0.78705864  1
  O  O48  1  0.35939000  0.87626818  0.98615860  1
  O  O49  1  0.77577945  0.70016377  0.18531496  1
