# generated using pymatgen
data_Mn3Cr3Si7Ni16
_symmetry_space_group_name_H-M   'P 1'
_cell_length_a   7.84602266
_cell_length_b   7.84602266
_cell_length_c   7.84196396
_cell_angle_alpha   90.00000000
_cell_angle_beta   59.98287775
_cell_angle_gamma   120.00000000
_symmetry_Int_Tables_number   1
_chemical_formula_structural   Mn3Cr3Si7Ni16
_chemical_formula_sum   'Mn3 Cr3 Si7 Ni16'
_cell_volume   341.26874502
_cell_formula_units_Z   1
loop_
 _symmetry_equiv_pos_site_id
 _symmetry_equiv_pos_as_xyz
  1  'x, y, z'
loop_
 _atom_site_type_symbol
 _atom_site_label
 _atom_site_symmetry_multiplicity
 _atom_site_fract_x
 _atom_site_fract_y
 _atom_site_fract_z
 _atom_site_occupancy
  Mn  Mn0  1  0.39296469  0.19648234  0.80400452  1
  Mn  Mn1  1  0.99951314  0.80303079  0.80400452  1
  Mn  Mn2  1  0.99951314  0.19648234  0.80400452  1
  Cr  Cr3  1  0.60643951  0.80321975  0.19871077  1
  Cr  Cr4  1  0.99806948  0.19484973  0.19871077  1
  Cr  Cr5  1  0.99806948  0.80321975  0.19871077  1
  Si  Si6  1  0.00105635  0.50052817  0.49841548  1
  Si  Si7  1  0.00107046  0.00053523  0.49635361  1
  Si  Si8  1  0.50311116  0.50257592  0.49635361  1
  Si  Si9  1  0.50311116  0.00053523  0.49635361  1
  Si  Si10  1  0.00102017  0.50051009  0.00237384  1
  Si  Si11  1  0.49711607  0.99660598  0.00237384  1
  Si  Si12  1  0.49711607  0.50051009  0.00237384  1
  Ni  Ni13  1  0.32959637  0.16479819  0.50560544  1
  Ni  Ni14  1  0.66958362  0.16679200  0.16362438  1
  Ni  Ni15  1  0.66958362  0.50279161  0.16362438  1
  Ni  Ni16  1  0.33358400  0.16679200  0.16362438  1
  Ni  Ni17  1  0.66595368  0.83297684  0.50106948  1
  Ni  Ni18  1  0.33113110  0.83585128  0.83301762  1
  Ni  Ni19  1  0.33113110  0.49527982  0.83301762  1
  Ni  Ni20  1  0.67170256  0.83585128  0.83301762  1
  Ni  Ni21  1  0.76523279  0.38261640  0.85215081  1
  Ni  Ni22  1  0.23524509  0.38203168  0.38272322  1
  Ni  Ni23  1  0.23524509  0.85321341  0.38272322  1
  Ni  Ni24  1  0.76406337  0.38203168  0.38272322  1
  Ni  Ni25  1  0.23580324  0.61790162  0.14629514  1
  Ni  Ni26  1  0.76471647  0.61727027  0.61801326  1
  Ni  Ni27  1  0.76471647  0.14744619  0.61801326  1
  Ni  Ni28  1  0.23454055  0.61727027  0.61801326  1
