# generated using pymatgen
data_Mn2NbFeO6
_symmetry_space_group_name_H-M   'P 1'
_cell_length_a   5.34520069
_cell_length_b   5.34520124
_cell_length_c   5.61691200
_cell_angle_alpha   61.58769911
_cell_angle_beta   118.41230206
_cell_angle_gamma   119.99999615
_symmetry_Int_Tables_number   1
_chemical_formula_structural   Mn2NbFeO6
_chemical_formula_sum   'Mn2 Nb1 Fe1 O6'
_cell_volume   116.12516105
_cell_formula_units_Z   1
loop_
 _symmetry_equiv_pos_site_id
 _symmetry_equiv_pos_as_xyz
  1  'x, y, z'
loop_
 _atom_site_type_symbol
 _atom_site_label
 _atom_site_symmetry_multiplicity
 _atom_site_fract_x
 _atom_site_fract_y
 _atom_site_fract_z
 _atom_site_occupancy
  Mn  Mn0  1  0.49517555  0.50482445  0.48552665  1
  Mn  Mn1  1  0.00209843  0.99790157  0.00629530  1
  Nb  Nb2  1  0.21892403  0.78107597  0.65677209  1
  Fe  Fe3  1  0.71961635  0.28038365  0.15884904  1
  O  O4  1  0.57587897  0.05541166  0.86080427  1
  O  O5  1  0.34033696  0.42412103  0.86080427  1
  O  O6  1  0.94458834  0.65966304  0.86080427  1
  O  O7  1  0.43772275  0.92143433  0.36142137  1
  O  O8  1  0.84513295  0.56227725  0.36142137  1
  O  O9  1  0.07856567  0.15486705  0.36142137  1
