# generated using pymatgen
data_La6Sm2Cr3Fe5O24
_symmetry_space_group_name_H-M   'P 1'
_cell_length_a   7.87526931
_cell_length_b   7.87413015
_cell_length_c   7.87506232
_cell_angle_alpha   90.00000000
_cell_angle_beta   90.00000000
_cell_angle_gamma   89.99090923
_symmetry_Int_Tables_number   1
_chemical_formula_structural   La6Sm2Cr3Fe5O24
_chemical_formula_sum   'La6 Sm2 Cr3 Fe5 O24'
_cell_volume   488.33966113
_cell_formula_units_Z   1
loop_
 _symmetry_equiv_pos_site_id
 _symmetry_equiv_pos_as_xyz
  1  'x, y, z'
loop_
 _atom_site_type_symbol
 _atom_site_label
 _atom_site_symmetry_multiplicity
 _atom_site_fract_x
 _atom_site_fract_y
 _atom_site_fract_z
 _atom_site_occupancy
  La  La0  1  0.24970412  0.25087726  0.24971004  1
  La  La1  1  0.24970412  0.25087726  0.75028996  1
  La  La2  1  0.24970905  0.74916451  0.24969140  1
  La  La3  1  0.24970905  0.74916451  0.75030860  1
  La  La4  1  0.75031424  0.74915495  0.24969997  1
  La  La5  1  0.75031424  0.74915495  0.75030003  1
  Sm  Sm6  1  0.75030317  0.25088009  0.24969659  1
  Sm  Sm7  1  0.75030317  0.25088009  0.75030341  1
  Cr  Cr8  1  0.99942225  0.49945889  0.00000000  1
  Cr  Cr9  1  0.99946158  0.49949984  0.50000000  1
  Cr  Cr10  1  0.50052460  0.49945955  0.00000000  1
  Fe  Fe11  1  0.99939781  0.00064407  0.00000000  1
  Fe  Fe12  1  0.99939719  0.00065193  0.50000000  1
  Fe  Fe13  1  0.50062704  0.00064174  0.00000000  1
  Fe  Fe14  1  0.50062089  0.00063102  0.50000000  1
  Fe  Fe15  1  0.50064974  0.49939104  0.50000000  1
  O  O16  1  0.24987748  0.00014442  0.00000000  1
  O  O17  1  0.24975392  0.00012439  0.50000000  1
  O  O18  1  0.24979796  0.49992456  0.00000000  1
  O  O19  1  0.24945951  0.49991733  0.50000000  1
  O  O20  1  0.75013772  0.00224613  0.00000000  1
  O  O21  1  0.75024269  0.00222349  0.50000000  1
  O  O22  1  0.75017652  0.49743841  0.00000000  1
  O  O23  1  0.75060466  0.49761004  0.50000000  1
  O  O24  1  0.99761779  0.25101513  0.00000000  1
  O  O25  1  0.99761346  0.25087753  0.50000000  1
  O  O26  1  0.99989923  0.74904145  0.00000000  1
  O  O27  1  0.99990329  0.74922473  0.50000000  1
  O  O28  1  0.50238011  0.25086621  0.00000000  1
  O  O29  1  0.50223948  0.25067735  0.50000000  1
  O  O30  1  0.50011836  0.74920378  0.00000000  1
  O  O31  1  0.50011335  0.74930847  0.50000000  1
  O  O32  1  0.99882811  0.00121015  0.24987110  1
  O  O33  1  0.99882811  0.00121015  0.75012890  1
  O  O34  1  0.99866109  0.49866710  0.24981165  1
  O  O35  1  0.99866109  0.49866710  0.75018835  1
  O  O36  1  0.50117950  0.00119410  0.24975986  1
  O  O37  1  0.50117950  0.00119410  0.75024014  1
  O  O38  1  0.50128241  0.49874111  0.24942555  1
  O  O39  1  0.50128241  0.49874111  0.75057445  1
