# generated using pymatgen
data_Mn3(Al2Si)2
_symmetry_space_group_name_H-M   'P 1'
_cell_length_a   4.53942780
_cell_length_b   4.53942780
_cell_length_c   12.96196122
_cell_angle_alpha   85.06295248
_cell_angle_beta   85.06295248
_cell_angle_gamma   119.64949407
_symmetry_Int_Tables_number   1
_chemical_formula_structural   Mn3(Al2Si)2
_chemical_formula_sum   'Mn6 Al8 Si4'
_cell_volume   228.69982967
_cell_formula_units_Z   2
loop_
 _symmetry_equiv_pos_site_id
 _symmetry_equiv_pos_as_xyz
  1  'x, y, z'
loop_
 _atom_site_type_symbol
 _atom_site_label
 _atom_site_symmetry_multiplicity
 _atom_site_fract_x
 _atom_site_fract_y
 _atom_site_fract_z
 _atom_site_occupancy
  Mn  Mn0  1  0.12448874  0.37551126  0.25000000  1
  Mn  Mn1  1  0.45915814  0.70939781  0.58332393  1
  Mn  Mn2  1  0.79060219  0.04084186  0.91667607  1
  Mn  Mn3  1  0.20203818  0.95028654  0.08842109  1
  Mn  Mn4  1  0.54971346  0.29796182  0.41157891  1
  Mn  Mn5  1  0.87750516  0.62249484  0.75000000  1
  Al  Al6  1  0.13079463  0.03954006  0.58158980  1
  Al  Al7  1  0.46045994  0.36920537  0.91841020  1
  Al  Al8  1  0.87849705  0.28966405  0.08253769  1
  Al  Al9  1  0.21033595  0.62150295  0.41746231  1
  Al  Al10  1  0.54397703  0.95602297  0.75000000  1
  Al  Al11  1  0.53734994  0.62923137  0.08583276  1
  Al  Al12  1  0.87076863  0.96265006  0.41416724  1
  Al  Al13  1  0.20509946  0.29490054  0.75000000  1
  Si  Si14  1  0.45521839  0.04478161  0.25000000  1
  Si  Si15  1  0.78606052  0.37920985  0.58257340  1
  Si  Si16  1  0.12079015  0.71393948  0.91742660  1
  Si  Si17  1  0.79714243  0.70285757  0.25000000  1
