# generated using pymatgen
data_Lu4CoSn8
_symmetry_space_group_name_H-M   'P 1'
_cell_length_a   4.35541009
_cell_length_b   4.39724513
_cell_length_c   16.66052290
_cell_angle_alpha   90.00000000
_cell_angle_beta   90.00000000
_cell_angle_gamma   90.00000000
_symmetry_Int_Tables_number   1
_chemical_formula_structural   Lu4CoSn8
_chemical_formula_sum   'Lu4 Co1 Sn8'
_cell_volume   319.07909923
_cell_formula_units_Z   1
loop_
 _symmetry_equiv_pos_site_id
 _symmetry_equiv_pos_as_xyz
  1  'x, y, z'
loop_
 _atom_site_type_symbol
 _atom_site_label
 _atom_site_symmetry_multiplicity
 _atom_site_fract_x
 _atom_site_fract_y
 _atom_site_fract_z
 _atom_site_occupancy
  Lu  Lu0  1  0.25000000  -0.00000000  0.10088529  1
  Lu  Lu1  1  0.25000000  0.50000000  0.60225132  1
  Lu  Lu2  1  0.75000000  0.50000000  0.39736690  1
  Lu  Lu3  1  0.75000000  -0.00000000  0.89972973  1
  Co  Co4  1  0.25000000  0.00000000  0.30992470  1
  Sn  Sn5  1  0.25000000  0.50000000  0.23687293  1
  Sn  Sn6  1  0.25000000  -0.00000000  0.74576489  1
  Sn  Sn7  1  0.75000000  -0.00000000  0.24074094  1
  Sn  Sn8  1  0.75000000  0.50000000  0.75475390  1
  Sn  Sn9  1  0.25000000  0.00000000  0.45513101  1
  Sn  Sn10  1  0.25000000  0.50000000  0.93739246  1
  Sn  Sn11  1  0.75000000  0.50000000  0.06366212  1
  Sn  Sn12  1  0.75000000  -0.00000000  0.57252381  1
