# generated using pymatgen
data_LuTiFe11C
_symmetry_space_group_name_H-M   'P 1'
_cell_length_a   4.80517773
_cell_length_b   6.47968423
_cell_length_c   6.47968423
_cell_angle_alpha   97.65793190
_cell_angle_beta   111.76421592
_cell_angle_gamma   68.23578408
_symmetry_Int_Tables_number   1
_chemical_formula_structural   LuTiFe11C
_chemical_formula_sum   'Lu1 Ti1 Fe11 C1'
_cell_volume   174.01202674
_cell_formula_units_Z   1
loop_
 _symmetry_equiv_pos_site_id
 _symmetry_equiv_pos_as_xyz
  1  'x, y, z'
loop_
 _atom_site_type_symbol
 _atom_site_label
 _atom_site_symmetry_multiplicity
 _atom_site_fract_x
 _atom_site_fract_y
 _atom_site_fract_z
 _atom_site_occupancy
  Lu  Lu0  1  0.00759426  0.99240574  0.00759426  1
  Ti  Ti1  1  0.63430273  0.36569727  0.63430273  1
  Fe  Fe2  1  0.72398033  0.77601967  0.22398033  1
  Fe  Fe3  1  0.27821754  0.22178246  0.77821754  1
  Fe  Fe4  1  0.49800803  0.78189248  0.77790854  1
  Fe  Fe5  1  0.49800803  0.22209146  0.21810752  1
  Fe  Fe6  1  0.50016213  0.99765001  0.49917900  1
  Fe  Fe7  1  0.00136686  0.99765001  0.49917900  1
  Fe  Fe8  1  0.50016213  0.50082100  0.00234999  1
  Fe  Fe9  1  0.00136686  0.50082100  0.00234999  1
  Fe  Fe10  1  0.35563722  0.64436278  0.35563722  1
  Fe  Fe11  1  0.99984804  0.35792152  0.35761760  1
  Fe  Fe12  1  0.99984804  0.64238240  0.64207848  1
  C  C13  1  0.50149780  0.99850220  0.00149780  1
