# generated using pymatgen
data_Mg2Fe7O12
_symmetry_space_group_name_H-M   'P 1'
_cell_length_a   6.04159721
_cell_length_b   13.51640830
_cell_length_c   6.04159721
_cell_angle_alpha   77.27303207
_cell_angle_beta   90.22506436
_cell_angle_gamma   77.00174929
_symmetry_Int_Tables_number   1
_chemical_formula_structural   Mg2Fe7O12
_chemical_formula_sum   'Mg4 Fe14 O24'
_cell_volume   468.16588282
_cell_formula_units_Z   2
loop_
 _symmetry_equiv_pos_site_id
 _symmetry_equiv_pos_as_xyz
  1  'x, y, z'
loop_
 _atom_site_type_symbol
 _atom_site_label
 _atom_site_symmetry_multiplicity
 _atom_site_fract_x
 _atom_site_fract_y
 _atom_site_fract_z
 _atom_site_occupancy
  Mg  Mg0  1  0.66642347  0.16708591  0.66708223  1
  Mg  Mg1  1  0.00024353  0.49958109  0.99958477  1
  Mg  Mg2  1  0.66583286  0.66708591  0.16649162  1
  Mg  Mg3  1  0.00083414  0.99958109  0.50017538  1
  Fe  Fe4  1  0.21176807  0.08333300  0.96176807  1
  Fe  Fe5  1  0.54724846  0.41806940  0.29555376  1
  Fe  Fe6  1  0.88028915  0.74859760  0.63198386  1
  Fe  Fe7  1  0.45489793  0.58333300  0.70489793  1
  Fe  Fe8  1  0.78637785  0.91806940  0.03468314  1
  Fe  Fe9  1  0.11941854  0.24859760  0.37111324  1
  Fe  Fe10  1  0.33333300  0.83333300  0.33333300  1
  Fe  Fe11  1  0.66808641  0.16650204  0.16839821  1
  Fe  Fe12  1  0.99858059  0.50016496  0.49826879  1
  Fe  Fe13  1  0.33333300  0.83333300  0.83333300  1
  Fe  Fe14  1  0.33333300  0.33333300  0.83333300  1
  Fe  Fe15  1  0.83333300  0.33333300  0.83333300  1
  Fe  Fe16  1  0.16510075  0.66650204  0.16541255  1
  Fe  Fe17  1  0.50156625  0.00016496  0.50125445  1
  O  O18  1  0.59280899  0.32806163  0.07852747  1
  O  O19  1  0.92398724  0.66152623  0.40724029  1
  O  O20  1  0.25709467  0.99428736  0.74062560  1
  O  O21  1  0.59575308  0.33031456  0.59548507  1
  O  O22  1  0.92352209  0.66264369  0.93508778  1
  O  O23  1  0.25459425  -0.00039369  0.26668531  1
  O  O24  1  0.90157996  0.17237964  0.91804902  1
  O  O25  1  0.23543252  0.50514077  0.25217947  1
  O  O26  1  0.57325609  0.83860437  0.58753761  1
  O  O27  1  0.43295862  0.16706069  0.92086756  1
  O  O28  1  0.76439747  0.50402331  0.25283178  1
  O  O29  1  0.09246663  0.83635144  0.59273464  1
  O  O30  1  0.07385701  0.33860437  0.58813853  1
  O  O31  1  0.40957233  0.67237964  0.92604140  1
  O  O32  1  0.74267976  0.00514077  0.25942671  1
  O  O33  1  0.07091292  0.33635144  0.07118093  1
  O  O34  1  0.41207275  0.66706069  0.39998169  1
  O  O35  1  0.74314491  0.00402331  0.73157922  1
  O  O36  1  0.76508704  0.49428736  0.74861798  1
  O  O37  1  0.09340991  0.82806163  0.07912839  1
  O  O38  1  0.43123448  0.16152623  0.41448753  1
  O  O39  1  0.23370838  0.49960631  0.74579944  1
  O  O40  1  0.57419937  0.83031456  0.07393136  1
  O  O41  1  0.90226953  0.16264369  0.41383522  1
