# generated using pymatgen
data_Na5H7(Se2O9)2
_symmetry_space_group_name_H-M   'P 1'
_cell_length_a   6.20014280
_cell_length_b   7.25376900
_cell_length_c   10.27658159
_cell_angle_alpha   99.13796197
_cell_angle_beta   96.70685943
_cell_angle_gamma   99.91789136
_symmetry_Int_Tables_number   1
_chemical_formula_structural   Na5H7(Se2O9)2
_chemical_formula_sum   'Na5 H7 Se4 O18'
_cell_volume   444.53373059
_cell_formula_units_Z   1
loop_
 _symmetry_equiv_pos_site_id
 _symmetry_equiv_pos_as_xyz
  1  'x, y, z'
loop_
 _atom_site_type_symbol
 _atom_site_label
 _atom_site_symmetry_multiplicity
 _atom_site_fract_x
 _atom_site_fract_y
 _atom_site_fract_z
 _atom_site_occupancy
  Na  Na0  1  0.87214629  0.28711154  0.33179638  1
  Na  Na1  1  0.11144452  0.72284289  0.66678462  1
  Na  Na2  1  0.52888051  0.98838225  0.48923764  1
  Na  Na3  1  0.40946174  0.82517631  0.12885591  1
  Na  Na4  1  0.60394808  0.15305439  0.88841098  1
  H  H5  1  0.35339779  0.61614026  0.45233925  1
  H  H6  1  0.64784592  0.39041450  0.56268196  1
  H  H7  1  0.00748909  0.05789672  0.12530226  1
  H  H8  1  0.98983085  0.92454573  0.89272865  1
  H  H9  1  0.52319186  0.66237038  0.58663460  1
  H  H10  1  0.47418153  0.33841895  0.43054518  1
  H  H11  1  0.20806971  0.43413331  0.89114541  1
  Se  Se12  1  0.27147253  0.32357501  0.13931994  1
  Se  Se13  1  0.71835256  0.66028746  0.86037923  1
  Se  Se14  1  0.08762929  0.20913581  0.68914473  1
  Se  Se15  1  0.91171178  0.79272138  0.32357503  1
  O  O16  1  0.25726921  0.49374107  0.05169778  1
  O  O17  1  0.70414329  0.48208199  0.93882653  1
  O  O18  1  0.26810399  0.07524793  0.73135438  1
  O  O19  1  0.73697594  0.93565425  0.27716414  1
  O  O20  1  0.44051799  0.17957288  0.09604229  1
  O  O21  1  0.55738811  0.81403613  0.90082669  1
  O  O22  1  0.99901511  0.17470579  0.08771490  1
  O  O23  1  0.99681421  0.79834002  0.91543024  1
  O  O24  1  0.27816084  0.39572763  0.30062379  1
  O  O25  1  0.72178312  0.60278229  0.69714579  1
  O  O26  1  0.83980583  0.11999230  0.72300821  1
  O  O27  1  0.16082963  0.88228657  0.28439174  1
  O  O28  1  0.09329157  0.27199110  0.54341655  1
  O  O29  1  0.91950034  0.80832635  0.48783701  1
  O  O30  1  0.39461276  0.70104424  0.53910304  1
  O  O31  1  0.60318544  0.30134811  0.47730100  1
  O  O32  1  0.18350674  0.43775423  0.79204434  1
  O  O33  1  0.81604182  0.56916024  0.24618983  1
