# generated using pymatgen
data_InGaP2
_symmetry_space_group_name_H-M   'P 1'
_cell_length_a   4.05474305
_cell_length_b   4.05474305
_cell_length_c   7.03525523
_cell_angle_alpha   73.25138438
_cell_angle_beta   90.00000000
_cell_angle_gamma   120.00000000
_symmetry_Int_Tables_number   1
_chemical_formula_structural   InGaP2
_chemical_formula_sum   'In1 Ga1 P2'
_cell_volume   94.46158030
_cell_formula_units_Z   1
loop_
 _symmetry_equiv_pos_site_id
 _symmetry_equiv_pos_as_xyz
  1  'x, y, z'
loop_
 _atom_site_type_symbol
 _atom_site_label
 _atom_site_symmetry_multiplicity
 _atom_site_fract_x
 _atom_site_fract_y
 _atom_site_fract_z
 _atom_site_occupancy
  In  In0  1  0.49975279  0.99950557  0.50074164  1
  Ga  Ga1  1  0.99978069  0.99956139  0.00065792  1
  P  P2  1  0.88042502  0.76085004  0.35872494  1
  P  P3  1  0.37004150  0.74008300  0.88987550  1
