# generated using pymatgen
data_KLaTa2O7
_symmetry_space_group_name_H-M   'P 1'
_cell_length_a   3.90645680
_cell_length_b   3.91940145
_cell_length_c   11.44338101
_cell_angle_alpha   80.13938660
_cell_angle_beta   90.00000000
_cell_angle_gamma   90.00000000
_symmetry_Int_Tables_number   1
_chemical_formula_structural   KLaTa2O7
_chemical_formula_sum   'K1 La1 Ta2 O7'
_cell_volume   172.62097389
_cell_formula_units_Z   1
loop_
 _symmetry_equiv_pos_site_id
 _symmetry_equiv_pos_as_xyz
  1  'x, y, z'
loop_
 _atom_site_type_symbol
 _atom_site_label
 _atom_site_symmetry_multiplicity
 _atom_site_fract_x
 _atom_site_fract_y
 _atom_site_fract_z
 _atom_site_occupancy
  K  K0  1  -0.00000000  0.23532767  0.52934467  1
  La  La1  1  -0.00000000  0.99899654  0.00200691  1
  Ta  Ta2  1  0.50000000  0.39740800  0.20518399  1
  Ta  Ta3  1  0.50000000  0.60144773  0.79710453  1
  O  O4  1  -0.00000000  0.41775330  0.16449340  1
  O  O5  1  -0.00000000  0.58289024  0.83421953  1
  O  O6  1  0.50000000  0.31794253  0.36411495  1
  O  O7  1  0.50000000  0.68174186  0.63651628  1
  O  O8  1  0.50000000  0.08355978  0.83288045  1
  O  O9  1  0.50000000  0.91741118  0.16517764  1
  O  O10  1  0.50000000  0.50052117  0.99895766  1
