# generated using pymatgen
data_LiCuRu2(RhO4)2
_symmetry_space_group_name_H-M   'P 1'
_cell_length_a   6.14588261
_cell_length_b   6.26228296
_cell_length_c   5.66037704
_cell_angle_alpha   90.00000000
_cell_angle_beta   62.58052309
_cell_angle_gamma   120.62851875
_symmetry_Int_Tables_number   1
_chemical_formula_structural   LiCuRu2(RhO4)2
_chemical_formula_sum   'Li1 Cu1 Ru2 Rh2 O8'
_cell_volume   158.35618227
_cell_formula_units_Z   1
loop_
 _symmetry_equiv_pos_site_id
 _symmetry_equiv_pos_as_xyz
  1  'x, y, z'
loop_
 _atom_site_type_symbol
 _atom_site_label
 _atom_site_symmetry_multiplicity
 _atom_site_fract_x
 _atom_site_fract_y
 _atom_site_fract_z
 _atom_site_occupancy
  Li  Li0  1  0.25982034  0.12991017  0.12008983  1
  Cu  Cu1  1  0.76392661  0.88196330  0.86803670  1
  Ru  Ru2  1  0.00004047  0.50002023  0.02720053  1
  Ru  Ru3  1  0.00004047  0.50002023  0.47275901  1
  Rh  Rh4  1  0.49786433  0.99625505  0.50106783  1
  Rh  Rh5  1  0.49786433  0.50160928  0.50106783  1
  O  O6  1  0.03261518  0.29981840  0.73369241  1
  O  O7  1  0.03261518  0.73279679  0.73369241  1
  O  O8  1  0.45677581  0.72838791  0.28239561  1
  O  O9  1  0.45677581  0.72838791  0.76082858  1
  O  O10  1  0.96174074  0.72972685  0.26912963  1
  O  O11  1  0.96174074  0.23201390  0.26912963  1
  O  O12  1  0.53908999  0.26954499  0.71109702  1
  O  O13  1  0.53908999  0.26954499  0.24981300  1
