# generated using pymatgen
data_LaCeSi2
_symmetry_space_group_name_H-M   'P 1'
_cell_length_a   3.89252390
_cell_length_b   5.85038502
_cell_length_c   8.14136646
_cell_angle_alpha   90.00000000
_cell_angle_beta   90.00000000
_cell_angle_gamma   90.00000000
_symmetry_Int_Tables_number   1
_chemical_formula_structural   LaCeSi2
_chemical_formula_sum   'La2 Ce2 Si4'
_cell_volume   185.40141308
_cell_formula_units_Z   2
loop_
 _symmetry_equiv_pos_site_id
 _symmetry_equiv_pos_as_xyz
  1  'x, y, z'
loop_
 _atom_site_type_symbol
 _atom_site_label
 _atom_site_symmetry_multiplicity
 _atom_site_fract_x
 _atom_site_fract_y
 _atom_site_fract_z
 _atom_site_occupancy
  La  La0  1  0.75000000  0.61229218  0.31984506  1
  La  La1  1  0.75000000  0.88770782  0.81984506  1
  Ce  Ce2  1  0.25000000  0.38535162  0.68156383  1
  Ce  Ce3  1  0.25000000  0.11464838  0.18156383  1
  Si  Si4  1  0.25000000  0.88702008  0.53338284  1
  Si  Si5  1  0.25000000  0.61297992  0.03338284  1
  Si  Si6  1  0.75000000  0.12127237  0.46520828  1
  Si  Si7  1  0.75000000  0.37872763  0.96520828  1
