# generated using pymatgen
data_La3YTi4O14
_symmetry_space_group_name_H-M   'P 1'
_cell_length_a   7.37373658
_cell_length_b   7.36346241
_cell_length_c   7.37373658
_cell_angle_alpha   90.00000000
_cell_angle_beta   60.00000000
_cell_angle_gamma   120.04616658
_symmetry_Int_Tables_number   1
_chemical_formula_structural   La3YTi4O14
_chemical_formula_sum   'La3 Y1 Ti4 O14'
_cell_volume   282.90388249
_cell_formula_units_Z   1
loop_
 _symmetry_equiv_pos_site_id
 _symmetry_equiv_pos_as_xyz
  1  'x, y, z'
loop_
 _atom_site_type_symbol
 _atom_site_label
 _atom_site_symmetry_multiplicity
 _atom_site_fract_x
 _atom_site_fract_y
 _atom_site_fract_z
 _atom_site_occupancy
  La  La0  1  0.50000000  0.50000000  0.50000000  1
  La  La1  1  -0.00000000  0.50000000  0.00000000  1
  La  La2  1  -0.00000000  0.50000000  0.50000000  1
  Y  Y3  1  0.50000000  -0.00000000  0.50000000  1
  Ti  Ti4  1  0.50000000  0.50000000  0.00000000  1
  Ti  Ti5  1  0.50000000  -0.00000000  0.00000000  1
  Ti  Ti6  1  -0.00000000  -0.00000000  0.50000000  1
  Ti  Ti7  1  -0.00000000  -0.00000000  0.00000000  1
  O  O8  1  0.73984450  0.35976675  0.38007775  1
  O  O9  1  0.26015550  0.64023325  0.61992225  1
  O  O10  1  0.84993796  0.92756858  0.32503102  1
  O  O11  1  0.64765892  0.32374723  0.92617054  1
  O  O12  1  0.25259960  0.92756858  0.92236938  1
  O  O13  1  0.24991777  0.32374723  0.32391169  1
  O  O14  1  0.24991777  0.32374723  0.92617054  1
  O  O15  1  0.25259960  0.92756858  0.32503102  1
  O  O16  1  0.15006204  0.07243142  0.67496898  1
  O  O17  1  0.35234108  0.67625277  0.07382946  1
  O  O18  1  0.74740040  0.07243142  0.07763062  1
  O  O19  1  0.75008223  0.67625277  0.67608831  1
  O  O20  1  0.75008223  0.67625277  0.07382946  1
  O  O21  1  0.74740040  0.07243142  0.67496898  1
