# generated using pymatgen
data_La2CuTe4
_symmetry_space_group_name_H-M   'P 1'
_cell_length_a   6.53895547
_cell_length_b   7.74718283
_cell_length_c   8.55255933
_cell_angle_alpha   90.00000000
_cell_angle_beta   90.00000000
_cell_angle_gamma   90.22759564
_symmetry_Int_Tables_number   1
_chemical_formula_structural   La2CuTe4
_chemical_formula_sum   'La4 Cu2 Te8'
_cell_volume   433.25626803
_cell_formula_units_Z   2
loop_
 _symmetry_equiv_pos_site_id
 _symmetry_equiv_pos_as_xyz
  1  'x, y, z'
loop_
 _atom_site_type_symbol
 _atom_site_label
 _atom_site_symmetry_multiplicity
 _atom_site_fract_x
 _atom_site_fract_y
 _atom_site_fract_z
 _atom_site_occupancy
  La  La0  1  0.75078458  0.22758856  0.05631807  1
  La  La1  1  0.24528034  0.76298484  0.94096596  1
  La  La2  1  0.25471966  0.23701516  0.44096596  1
  La  La3  1  0.74921542  0.77241144  0.55631807  1
  Cu  Cu4  1  0.56704212  0.58640912  0.20314855  1
  Cu  Cu5  1  0.93295788  0.41359088  0.70314855  1
  Te  Te6  1  0.74017716  0.38388965  0.41052308  1
  Te  Te7  1  0.23042885  0.61585139  0.59355408  1
  Te  Te8  1  0.26957115  0.38414861  0.09355408  1
  Te  Te9  1  0.75982284  0.61611035  0.91052308  1
  Te  Te10  1  0.50133573  0.91378057  0.24856638  1
  Te  Te11  1  0.99866427  0.08621943  0.74856638  1
  Te  Te12  1  0.49715527  0.07624597  0.74892387  1
  Te  Te13  1  0.00284473  0.92375403  0.24892387  1
