# generated using pymatgen
data_La7SmV7CrO24
_symmetry_space_group_name_H-M   'P 1'
_cell_length_a   7.91721650
_cell_length_b   7.91721650
_cell_length_c   7.91721650
_cell_angle_alpha   89.81951846
_cell_angle_beta   90.18048154
_cell_angle_gamma   89.81951846
_symmetry_Int_Tables_number   1
_chemical_formula_structural   La7SmV7CrO24
_chemical_formula_sum   'La7 Sm1 V7 Cr1 O24'
_cell_volume   496.26207351
_cell_formula_units_Z   1
loop_
 _symmetry_equiv_pos_site_id
 _symmetry_equiv_pos_as_xyz
  1  'x, y, z'
loop_
 _atom_site_type_symbol
 _atom_site_label
 _atom_site_symmetry_multiplicity
 _atom_site_fract_x
 _atom_site_fract_y
 _atom_site_fract_z
 _atom_site_occupancy
  La  La0  1  0.25376679  0.25321301  0.24678699  1
  La  La1  1  0.25323089  0.25369021  0.75323089  1
  La  La2  1  0.25323089  0.74676911  0.24630979  1
  La  La3  1  0.25306163  0.74693837  0.75306163  1
  La  La4  1  0.74678699  0.25321301  0.75376679  1
  La  La5  1  0.74678699  0.74623321  0.24678699  1
  La  La6  1  0.74630979  0.74676911  0.75323089  1
  Sm  Sm7  1  0.74661688  0.25338312  0.24661688  1
  V  V8  1  0.99992433  0.00007567  0.00009792  1
  V  V9  1  0.99959627  0.00040373  0.49959627  1
  V  V10  1  0.99974880  0.49973381  0.00026619  1
  V  V11  1  0.99992433  0.49990208  0.49992433  1
  V  V12  1  0.50026619  0.00025120  0.00026619  1
  V  V13  1  0.50009792  0.00007567  0.49992433  1
  V  V14  1  0.50026619  0.49973381  0.49974880  1
  Cr  Cr15  1  0.50015615  0.49984385  0.00015615  1
  O  O16  1  0.25183049  0.00065991  0.00012618  1
  O  O17  1  0.25129986  0.99925010  0.50074990  1
  O  O18  1  0.25352868  0.50028618  0.99971382  1
  O  O19  1  0.25183049  0.49987382  0.49934009  1
  O  O20  1  0.74838021  0.00099489  0.00149391  1
  O  O21  1  0.74838414  0.00233953  0.49766047  1
  O  O22  1  0.74645631  0.49802023  0.00197977  1
  O  O23  1  0.74838021  0.49850609  0.49900511  1
  O  O24  1  0.99900511  0.25161979  0.00149391  1
  O  O25  1  0.99766047  0.25161586  0.49766047  1
  O  O26  1  0.99934009  0.74816951  0.00012618  1
  O  O27  1  0.00074990  0.74870014  0.50074990  1
  O  O28  1  0.50197977  0.25354369  0.00197977  1
  O  O29  1  0.50149391  0.25161979  0.49900511  1
  O  O30  1  0.49971382  0.74647132  0.99971382  1
  O  O31  1  0.50012618  0.74816951  0.49934009  1
  O  O32  1  0.99766047  0.00233953  0.24838414  1
  O  O33  1  0.00074990  0.99925010  0.75129986  1
  O  O34  1  0.99900511  0.49850609  0.24838021  1
  O  O35  1  0.99934009  0.49987382  0.75183049  1
  O  O36  1  0.50149391  0.00099489  0.24838021  1
  O  O37  1  0.50012618  0.00065991  0.75183049  1
  O  O38  1  0.50197977  0.49802023  0.24645631  1
  O  O39  1  0.49971382  0.50028618  0.75352868  1
