# generated using pymatgen
data_La2Nd(GaO3)3
_symmetry_space_group_name_H-M   'P 1'
_cell_length_a   5.58099772
_cell_length_b   13.56921451
_cell_length_c   9.60761334
_cell_angle_alpha   89.81012331
_cell_angle_beta   89.96595865
_cell_angle_gamma   90.04913471
_symmetry_Int_Tables_number   1
_chemical_formula_structural   La2Nd(GaO3)3
_chemical_formula_sum   'La8 Nd4 Ga12 O36'
_cell_volume   727.57781454
_cell_formula_units_Z   4
loop_
 _symmetry_equiv_pos_site_id
 _symmetry_equiv_pos_as_xyz
  1  'x, y, z'
loop_
 _atom_site_type_symbol
 _atom_site_label
 _atom_site_symmetry_multiplicity
 _atom_site_fract_x
 _atom_site_fract_y
 _atom_site_fract_z
 _atom_site_occupancy
  La  La0  1  0.03481722  0.08547835  0.16434463  1
  La  La1  1  0.03457404  0.41874647  0.83155547  1
  La  La2  1  0.46740876  0.08613374  0.66471697  1
  La  La3  1  0.46745805  0.41883197  0.33101638  1
  La  La4  1  0.46672713  0.75214930  0.99706424  1
  La  La5  1  0.96475122  0.24758033  0.50247623  1
  La  La6  1  0.96494212  0.58112518  0.16996183  1
  La  La7  1  0.96476809  0.91344284  0.83547774  1
  Nd  Nd8  1  0.54647712  0.91277928  0.33718472  1
  Nd  Nd9  1  0.54454412  0.24667063  0.00353239  1
  Nd  Nd10  1  0.54457805  0.58062007  0.66921437  1
  Nd  Nd11  1  0.04613091  0.75364126  0.49624516  1
  Ga  Ga12  1  0.50142179  0.66695437  0.33500120  1
  Ga  Ga13  1  0.49906813  0.99994095  0.00133654  1
  Ga  Ga14  1  0.49899223  0.33407755  0.66785189  1
  Ga  Ga15  1  0.00208852  0.66662068  0.83115179  1
  Ga  Ga16  1  0.00222154  0.99919581  0.49945353  1
  Ga  Ga17  1  0.00254579  0.33327690  0.16626664  1
  Ga  Ga18  1  0.50139780  0.83236948  0.66564794  1
  Ga  Ga19  1  0.49891662  0.16560080  0.33274704  1
  Ga  Ga20  1  0.49917127  0.49958998  0.99895130  1
  Ga  Ga21  1  0.00231838  0.50156901  0.50069186  1
  Ga  Ga22  1  0.00226798  0.83339033  0.16765200  1
  Ga  Ga23  1  0.00222890  0.16676793  0.83386602  1
  O  O24  1  0.97820750  0.61140910  0.63859174  1
  O  O25  1  0.97961057  0.94196723  0.30787168  1
  O  O26  1  0.97929118  0.27486763  0.97520742  1
  O  O27  1  0.47819699  0.72204307  0.52805921  1
  O  O28  1  0.48489373  0.05529963  0.19465174  1
  O  O29  1  0.48460837  0.38876538  0.86126914  1
  O  O30  1  0.01459019  0.72500642  0.02524514  1
  O  O31  1  0.01439843  0.05778198  0.69160776  1
  O  O32  1  0.01474807  0.39192541  0.35850715  1
  O  O33  1  0.51414604  0.60860583  0.14188680  1
  O  O34  1  0.51411226  0.94131340  0.80793903  1
  O  O35  1  0.51398741  0.27463564  0.47555878  1
  O  O36  1  0.78511512  0.42012291  0.62294022  1
  O  O37  1  0.78772799  0.75266662  0.29303599  1
  O  O38  1  0.78434970  0.08600806  0.95597961  1
  O  O39  1  0.28956438  0.58214123  0.87406100  1
  O  O40  1  0.28843010  0.91349158  0.54047893  1
  O  O41  1  0.28980639  0.24859946  0.20820057  1
  O  O42  1  0.20810105  0.77633984  0.76213666  1
  O  O43  1  0.21009983  0.10937902  0.43082555  1
  O  O44  1  0.21033688  0.44316620  0.09706982  1
  O  O45  1  0.71063010  0.89099250  0.07082754  1
  O  O46  1  0.71144612  0.22498326  0.73693517  1
  O  O47  1  0.70903906  0.55747706  0.40346504  1
  O  O48  1  0.21027866  0.91595494  0.04363558  1
  O  O49  1  0.21004604  0.24950106  0.71045826  1
  O  O50  1  0.20827418  0.58418629  0.37743547  1
  O  O51  1  0.70904902  0.75012051  0.78896258  1
  O  O52  1  0.71076932  0.08301282  0.45504002  1
  O  O53  1  0.71131019  0.41715433  0.12094562  1
  O  O54  1  0.78485759  0.55818016  0.89875676  1
  O  O55  1  0.78783093  0.88879594  0.56541525  1
  O  O56  1  0.78458044  0.22468875  0.23338883  1
  O  O57  1  0.28943148  0.44463885  0.59931997  1
  O  O58  1  0.28828642  0.77750934  0.26863081  1
  O  O59  1  0.29003247  0.11071533  0.93225129  1
