# generated using pymatgen
data_In4(SnO4)3
_symmetry_space_group_name_H-M   'P 1'
_cell_length_a   6.27098950
_cell_length_b   6.35218838
_cell_length_c   6.36587015
_cell_angle_alpha   99.55293892
_cell_angle_beta   99.53556835
_cell_angle_gamma   99.72767401
_symmetry_Int_Tables_number   1
_chemical_formula_structural   In4(SnO4)3
_chemical_formula_sum   'In4 Sn3 O12'
_cell_volume   241.52530565
_cell_formula_units_Z   1
loop_
 _symmetry_equiv_pos_site_id
 _symmetry_equiv_pos_as_xyz
  1  'x, y, z'
loop_
 _atom_site_type_symbol
 _atom_site_label
 _atom_site_symmetry_multiplicity
 _atom_site_fract_x
 _atom_site_fract_y
 _atom_site_fract_z
 _atom_site_occupancy
  In  In0  1  0.69427178  0.86508528  0.39295983  1
  In  In1  1  0.13755600  0.60415633  0.31683636  1
  In  In2  1  0.60382254  0.31393334  0.13833852  1
  In  In3  1  0.30963288  0.12895966  0.60487170  1
  Sn  Sn4  1  0.00085843  0.00450086  0.00085289  1
  Sn  Sn5  1  0.85978985  0.39669092  0.68160092  1
  Sn  Sn6  1  0.39589679  0.68642989  0.86147850  1
  O  O7  1  0.59030733  0.43089753  0.82053328  1
  O  O8  1  0.41572795  0.80997578  0.58448881  1
  O  O9  1  0.82146540  0.58027701  0.43134770  1
  O  O10  1  0.41350430  0.58446962  0.16186943  1
  O  O11  1  0.58968803  0.18042171  0.42607657  1
  O  O12  1  0.17774364  0.41746517  0.59973184  1
  O  O13  1  0.05681565  0.68726309  0.89014091  1
  O  O14  1  0.68110688  0.89904575  0.04608352  1
  O  O15  1  0.90457611  0.07262924  0.69292732  1
  O  O16  1  0.94355670  0.31571559  0.09671589  1
  O  O17  1  0.31917721  0.08238953  0.94217024  1
  O  O18  1  0.08450255  0.93969369  0.31097576  1
