# generated using pymatgen
data_K8La(PS4)4
_symmetry_space_group_name_H-M   'P 1'
_cell_length_a   8.95253504
_cell_length_b   9.84695606
_cell_length_c   11.34517937
_cell_angle_alpha   64.28016944
_cell_angle_beta   66.76193696
_cell_angle_gamma   90.00000000
_symmetry_Int_Tables_number   1
_chemical_formula_structural   K8La(PS4)4
_chemical_formula_sum   'K8 La1 P4 S16'
_cell_volume   810.04757468
_cell_formula_units_Z   1
loop_
 _symmetry_equiv_pos_site_id
 _symmetry_equiv_pos_as_xyz
  1  'x, y, z'
loop_
 _atom_site_type_symbol
 _atom_site_label
 _atom_site_symmetry_multiplicity
 _atom_site_fract_x
 _atom_site_fract_y
 _atom_site_fract_z
 _atom_site_occupancy
  K  K0  1  0.24487922  0.99487922  0.51024157  1
  K  K1  1  0.75512078  0.50512078  0.48975843  1
  K  K2  1  0.76576083  0.01576083  0.46847833  1
  K  K3  1  0.23423917  0.48423917  0.53152167  1
  K  K4  1  0.55205479  0.41226916  0.15984496  1
  K  K5  1  0.44794521  0.57211412  0.84015504  1
  K  K6  1  0.71189975  0.08773084  0.84015504  1
  K  K7  1  0.28810025  0.92788588  0.15984496  1
  La  La8  1  -0.00000000  0.75000000  0.00000000  1
  P  P9  1  0.33320269  0.12176337  0.74696064  1
  P  P10  1  0.66679731  0.86872401  0.25303936  1
  P  P11  1  0.08016333  0.37823663  0.25303936  1
  P  P12  1  0.91983667  0.63127599  0.74696064  1
  S  S13  1  0.36914188  0.90207171  0.84996698  1
  S  S14  1  0.63085812  0.75203869  0.15003302  1
  S  S15  1  0.21910887  0.59792829  0.15003302  1
  S  S16  1  0.78089113  0.74796131  0.84996698  1
  S  S17  1  0.61000993  0.07982095  0.16794901  1
  S  S18  1  0.38999007  0.24776996  0.83205099  1
  S  S19  1  0.77795893  0.42017905  0.83205099  1
  S  S20  1  0.22204107  0.25223004  0.16794901  1
  S  S21  1  0.48398520  0.23093887  0.52741342  1
  S  S22  1  0.51601480  0.75835229  0.47258658  1
  S  S23  1  0.01139863  0.26906113  0.47258658  1
  S  S24  1  0.98860137  0.74164771  0.52741342  1
  S  S25  1  0.12505764  0.62225050  0.78714068  1
  S  S26  1  0.87494236  0.40939118  0.21285932  1
  S  S27  1  0.91219832  0.87774950  0.21285932  1
  S  S28  1  0.08780168  0.09060882  0.78714068  1
