# generated using pymatgen
data_Hg
_symmetry_space_group_name_H-M   'P 1'
_cell_length_a   10.51850712
_cell_length_b   13.27734099
_cell_length_c   13.26692138
_cell_angle_alpha   120.02598328
_cell_angle_beta   90.00000000
_cell_angle_gamma   90.00000000
_symmetry_Int_Tables_number   1
_chemical_formula_structural   Hg
_chemical_formula_sum   Hg34
_cell_volume   1604.17680625
_cell_formula_units_Z   34
loop_
 _symmetry_equiv_pos_site_id
 _symmetry_equiv_pos_as_xyz
  1  'x, y, z'
loop_
 _atom_site_type_symbol
 _atom_site_label
 _atom_site_symmetry_multiplicity
 _atom_site_fract_x
 _atom_site_fract_y
 _atom_site_fract_z
 _atom_site_occupancy
  Hg  Hg0  1  0.49787182  0.74935795  0.49838465  1
  Hg  Hg1  1  0.49743699  0.74904192  0.25095032  1
  Hg  Hg2  1  0.49787133  0.50163163  0.25060852  1
  Hg  Hg3  1  0.50212818  0.25097330  0.50161535  1
  Hg  Hg4  1  0.50212867  0.25102310  0.74939148  1
  Hg  Hg5  1  0.50256301  0.49809160  0.74904968  1
  Hg  Hg6  1  0.99787182  0.25097330  0.50161535  1
  Hg  Hg7  1  0.99787133  0.25102310  0.74939148  1
  Hg  Hg8  1  0.99743699  0.49809160  0.74904968  1
  Hg  Hg9  1  0.00212818  0.74935795  0.49838465  1
  Hg  Hg10  1  0.00256301  0.74904192  0.25095032  1
  Hg  Hg11  1  0.00212867  0.50163163  0.25060852  1
  Hg  Hg12  1  0.75000000  0.83302755  0.16633011  1
  Hg  Hg13  1  0.75000000  0.33332145  0.16657439  1
  Hg  Hg14  1  0.75000000  0.83324985  0.66690906  1
  Hg  Hg15  1  0.25000000  0.16674706  0.83342561  1
  Hg  Hg16  1  0.25000000  0.66669744  0.83366989  1
  Hg  Hg17  1  0.25000000  0.16634080  0.33309094  1
  Hg  Hg18  1  0.50000000  0.75012561  1.00000000  1
  Hg  Hg19  1  0.49982059  0.25016133  0.25010742  1
  Hg  Hg20  1  0.50017941  0.00005391  0.74989258  1
  Hg  Hg21  1  0.50000000  0.25001373  0.00000000  1
  Hg  Hg22  1  0.50011766  0.00048269  0.25034032  1
  Hg  Hg23  1  0.49988234  0.75014237  0.74965968  1
  Hg  Hg24  1  0.00000000  0.25001373  0.00000000  1
  Hg  Hg25  1  0.00011766  0.75014237  0.74965968  1
  Hg  Hg26  1  0.99988234  0.00048269  0.25034032  1
  Hg  Hg27  1  0.00000000  0.75012561  1.00000000  1
  Hg  Hg28  1  0.99982059  0.00005391  0.74989258  1
  Hg  Hg29  1  0.00017941  0.25016133  0.25010742  1
  Hg  Hg30  1  0.75000000  0.49952805  0.99904715  1
  Hg  Hg31  1  0.75000000  0.49945054  0.50049243  1
  Hg  Hg32  1  0.25000000  0.50048090  0.00095285  1
  Hg  Hg33  1  0.25000000  0.99895811  0.49950757  1
