# generated using pymatgen
data_Hf4N3
_symmetry_space_group_name_H-M   'P 1'
_cell_length_a   3.19610872
_cell_length_b   3.19610842
_cell_length_c   10.72567489
_cell_angle_alpha   81.43140589
_cell_angle_beta   98.56859637
_cell_angle_gamma   119.99999691
_symmetry_Int_Tables_number   1
_chemical_formula_structural   Hf4N3
_chemical_formula_sum   'Hf4 N3'
_cell_volume   93.47037955
_cell_formula_units_Z   1
loop_
 _symmetry_equiv_pos_site_id
 _symmetry_equiv_pos_as_xyz
  1  'x, y, z'
loop_
 _atom_site_type_symbol
 _atom_site_label
 _atom_site_symmetry_multiplicity
 _atom_site_fract_x
 _atom_site_fract_y
 _atom_site_fract_z
 _atom_site_occupancy
  Hf  Hf0  1  0.62560057  0.37439943  0.87680172  1
  Hf  Hf1  1  0.37482629  0.62517371  0.12447887  1
  Hf  Hf2  1  0.79104021  0.20895979  0.37312064  1
  Hf  Hf3  1  0.20638111  0.79361889  0.61914333  1
  N  N4  1  0.50070416  0.49929584  0.50211248  1
  N  N5  1  0.00187961  0.99812039  0.00563882  1
  N  N6  1  0.91456805  0.08543195  0.74370414  1
