# generated using pymatgen
data_Hf5Sc5Si6
_symmetry_space_group_name_H-M   'P 1'
_cell_length_a   5.69222459
_cell_length_b   7.88054719
_cell_length_c   7.90517908
_cell_angle_alpha   119.89698045
_cell_angle_beta   89.99969931
_cell_angle_gamma   90.00060329
_symmetry_Int_Tables_number   1
_chemical_formula_structural   Hf5Sc5Si6
_chemical_formula_sum   'Hf5 Sc5 Si6'
_cell_volume   307.41895953
_cell_formula_units_Z   1
loop_
 _symmetry_equiv_pos_site_id
 _symmetry_equiv_pos_as_xyz
  1  'x, y, z'
loop_
 _atom_site_type_symbol
 _atom_site_label
 _atom_site_symmetry_multiplicity
 _atom_site_fract_x
 _atom_site_fract_y
 _atom_site_fract_z
 _atom_site_occupancy
  Hf  Hf0  1  0.50047816  0.33287100  0.66753251  1
  Hf  Hf1  1  0.50047816  0.66533848  0.33246749  1
  Hf  Hf2  1  0.99952085  0.66533440  0.33246664  1
  Hf  Hf3  1  0.99952085  0.33286776  0.66753336  1
  Hf  Hf4  1  0.75000876  0.24743743  0.00000000  1
  Sc  Sc5  1  0.74999275  0.75632305  0.75585709  1
  Sc  Sc6  1  0.74999275  0.00046596  0.24414291  1
  Sc  Sc7  1  0.24999390  0.75527372  1.00000000  1
  Sc  Sc8  1  0.25001280  0.24557718  0.24488880  1
  Sc  Sc9  1  0.25001280  0.00068838  0.75511120  1
  Si  Si10  1  0.75001342  0.60350240  1.00000000  1
  Si  Si11  1  0.74998347  0.39484415  0.39432446  1
  Si  Si12  1  0.74998347  0.00051969  0.60567554  1
  Si  Si13  1  0.24997680  0.39491936  0.00000000  1
  Si  Si14  1  0.25001553  0.60393235  0.60382766  1
  Si  Si15  1  0.25001553  0.00010468  0.39617234  1
