# generated using pymatgen
data_InFeCoO4
_symmetry_space_group_name_H-M   'P 1'
_cell_length_a   6.23557482
_cell_length_b   6.31080148
_cell_length_c   6.15239317
_cell_angle_alpha   90.00000000
_cell_angle_beta   60.44030624
_cell_angle_gamma   120.39988648
_symmetry_Int_Tables_number   1
_chemical_formula_structural   InFeCoO4
_chemical_formula_sum   'In2 Fe2 Co2 O8'
_cell_volume   171.28994190
_cell_formula_units_Z   2
loop_
 _symmetry_equiv_pos_site_id
 _symmetry_equiv_pos_as_xyz
  1  'x, y, z'
loop_
 _atom_site_type_symbol
 _atom_site_label
 _atom_site_symmetry_multiplicity
 _atom_site_fract_x
 _atom_site_fract_y
 _atom_site_fract_z
 _atom_site_occupancy
  In  In0  1  0.50000000  0.00000000  0.50000000  1
  In  In1  1  0.50000000  0.50000000  0.50000000  1
  Fe  Fe2  1  -0.00000000  0.50000000  -0.00000000  1
  Fe  Fe3  1  -0.00000000  0.50000000  0.50000000  1
  Co  Co4  1  0.25158420  0.12579210  0.12420790  1
  Co  Co5  1  0.74841580  0.87420790  0.87579210  1
  O  O6  1  0.99710077  0.72244572  0.25144962  1
  O  O7  1  0.99710077  0.27465505  0.25144962  1
  O  O8  1  0.53214897  0.26607448  0.72627472  1
  O  O9  1  0.53214897  0.26607448  0.24157631  1
  O  O10  1  0.00289923  0.27755428  0.74855038  1
  O  O11  1  0.00289923  0.72534495  0.74855038  1
  O  O12  1  0.46785103  0.73392552  0.27372528  1
  O  O13  1  0.46785103  0.73392552  0.75842369  1
