# generated using pymatgen
data_Ho9B5S21
_symmetry_space_group_name_H-M   'P 1'
_cell_length_a   11.15559299
_cell_length_b   11.15548900
_cell_length_c   11.15549751
_cell_angle_alpha   94.12382962
_cell_angle_beta   85.87668754
_cell_angle_gamma   85.87575818
_symmetry_Int_Tables_number   1
_chemical_formula_structural   Ho9B5S21
_chemical_formula_sum   'Ho18 B10 S42'
_cell_volume   1376.92697406
_cell_formula_units_Z   2
loop_
 _symmetry_equiv_pos_site_id
 _symmetry_equiv_pos_as_xyz
  1  'x, y, z'
loop_
 _atom_site_type_symbol
 _atom_site_label
 _atom_site_symmetry_multiplicity
 _atom_site_fract_x
 _atom_site_fract_y
 _atom_site_fract_z
 _atom_site_occupancy
  Ho  Ho0  1  0.92221846  0.23807002  0.46710939  1
  Ho  Ho1  1  0.55558764  0.58234542  0.80238939  1
  Ho  Ho2  1  0.23837609  0.91554044  0.15041932  1
  Ho  Ho3  1  0.19761442  0.44439441  0.58234513  1
  Ho  Ho4  1  0.84956525  0.76161032  0.91554556  1
  Ho  Ho5  1  0.53289271  0.07778237  0.23807540  1
  Ho  Ho6  1  0.08446243  0.15042503  0.76161284  1
  Ho  Ho7  1  0.76192145  0.46710620  0.07778823  1
  Ho  Ho8  1  0.41764999  0.80239147  0.44440637  1
  Ho  Ho9  1  0.72331897  0.13406128  0.91826566  1
  Ho  Ho10  1  0.37625476  0.46817423  0.23455453  1
  Ho  Ho11  1  0.05795789  0.78906964  0.55334715  1
  Ho  Ho12  1  0.44665763  0.94204321  0.78904920  1
  Ho  Ho13  1  0.08173602  0.27667731  0.13406685  1
  Ho  Ho14  1  0.76545296  0.62376394  0.46817913  1
  Ho  Ho15  1  0.53182452  0.23456229  0.62375647  1
  Ho  Ho16  1  0.21094853  0.55334767  0.94204236  1
  Ho  Ho17  1  0.86592914  0.91827096  0.27667593  1
  B  B18  1  0.76011778  0.91508788  0.57799849  1
  B  B19  1  0.42200229  0.23987921  0.91507793  1
  B  B20  1  0.08492118  0.57798850  0.23987586  1
  B  B21  1  0.58600458  0.73884716  0.07990146  1
  B  B22  1  0.26114992  0.07990093  0.41399319  1
  B  B23  1  0.92010186  0.41399379  0.73884852  1
  B  B24  1  0.02392531  0.97606731  0.97606986  1
  B  B25  1  0.69854244  0.30146117  0.30145985  1
  B  B26  1  0.19811095  0.80188179  0.80188691  1
  B  B27  1  0.52414929  0.47585442  0.47585121  1
  S  S28  1  0.97248815  0.69041490  0.34484338  1
  S  S29  1  0.65515943  0.02753055  0.69040624  1
  S  S30  1  0.30958604  0.34485544  0.02752082  1
  S  S31  1  0.47358835  0.84364303  0.19257597  1
  S  S32  1  0.15635884  0.19257640  0.52639366  1
  S  S33  1  0.80742141  0.52639802  0.84364725  1
  S  S34  1  0.51132074  0.74766259  0.64518784  1
  S  S35  1  0.15105986  0.07046387  0.98096066  1
  S  S36  1  0.82015319  0.40236194  0.31071669  1
  S  S37  1  0.68927223  0.17983905  0.40236154  1
  S  S38  1  0.35481314  0.48869232  0.74766633  1
  S  S39  1  0.01903928  0.84893953  0.07046126  1
  S  S40  1  0.92953647  0.98095834  0.84894399  1
  S  S41  1  0.59763432  0.31072152  0.17984360  1
  S  S42  1  0.25233719  0.64518409  0.48868492  1
  S  S43  1  0.73563232  0.00544390  0.11061698  1
  S  S44  1  0.41538945  0.36301655  0.45262307  1
  S  S45  1  0.08365708  0.69411796  0.78347657  1
  S  S46  1  0.54738660  0.58461084  0.36301624  1
  S  S47  1  0.21652875  0.91634233  0.69412218  1
  S  S48  1  0.88938693  0.26436071  0.00546087  1
  S  S49  1  0.30587514  0.78346553  0.91634533  1
  S  S50  1  0.99454656  0.11061407  0.26437342  1
  S  S51  1  0.63697721  0.45262000  0.58461240  1
  S  S52  1  0.68378312  0.85942439  0.43352522  1
  S  S53  1  0.34642470  0.17997495  0.77243682  1
  S  S54  1  0.01162876  0.52050196  0.09627814  1
  S  S55  1  0.90373714  0.98837310  0.52049556  1
  S  S56  1  0.56647257  0.31622024  0.85941562  1
  S  S57  1  0.22756473  0.65356883  0.17996647  1
  S  S58  1  0.82002894  0.77244629  0.65358202  1
  S  S59  1  0.47950065  0.09625551  0.98836530  1
  S  S60  1  0.14057621  0.43353124  0.31619863  1
  S  S61  1  0.74498541  0.71093647  0.13833510  1
  S  S62  1  0.41996489  0.05101339  0.47393563  1
  S  S63  1  0.07933465  0.39114712  0.79919621  1
  S  S64  1  0.52606505  0.58004036  0.05101116  1
  S  S65  1  0.20081488  0.92067723  0.39113821  1
  S  S66  1  0.86167492  0.25501043  0.71093426  1
  S  S67  1  0.60885144  0.79919127  0.92067119  1
  S  S68  1  0.28905998  0.13833629  0.25501858  1
  S  S69  1  0.94898880  0.47391907  0.58004245  1
