# generated using pymatgen
data_ErGaNi
_symmetry_space_group_name_H-M   'P 1'
_cell_length_a   4.17836791
_cell_length_b   5.26181454
_cell_length_c   5.69279518
_cell_angle_alpha   93.14931027
_cell_angle_beta   111.52993481
_cell_angle_gamma   66.60634767
_symmetry_Int_Tables_number   1
_chemical_formula_structural   ErGaNi
_chemical_formula_sum   'Er2 Ga2 Ni2'
_cell_volume   106.25147691
_cell_formula_units_Z   2
loop_
 _symmetry_equiv_pos_site_id
 _symmetry_equiv_pos_as_xyz
  1  'x, y, z'
loop_
 _atom_site_type_symbol
 _atom_site_label
 _atom_site_symmetry_multiplicity
 _atom_site_fract_x
 _atom_site_fract_y
 _atom_site_fract_z
 _atom_site_occupancy
  Er  Er0  1  0.74436827  0.69912783  0.18786438  1
  Er  Er1  1  0.25563173  0.30087217  0.81213562  1
  Ga  Ga2  1  0.57379856  0.25179452  0.39939164  1
  Ga  Ga3  1  0.42620144  0.74820548  0.60060836  1
  Ni  Ni4  1  0.04680062  0.11226443  0.20586567  1
  Ni  Ni5  1  0.95319938  0.88773557  0.79413433  1
