# generated using pymatgen
data_Ga4B2O9
_symmetry_space_group_name_H-M   'P 1'
_cell_length_a   5.69356156
_cell_length_b   8.66335453
_cell_length_c   8.48358473
_cell_angle_alpha   96.45857064
_cell_angle_beta   70.39319661
_cell_angle_gamma   109.18384057
_symmetry_Int_Tables_number   1
_chemical_formula_structural   Ga4B2O9
_chemical_formula_sum   'Ga8 B4 O18'
_cell_volume   372.30162333
_cell_formula_units_Z   2
loop_
 _symmetry_equiv_pos_site_id
 _symmetry_equiv_pos_as_xyz
  1  'x, y, z'
loop_
 _atom_site_type_symbol
 _atom_site_label
 _atom_site_symmetry_multiplicity
 _atom_site_fract_x
 _atom_site_fract_y
 _atom_site_fract_z
 _atom_site_occupancy
  Ga  Ga0  1  0.00524588  0.13830029  0.12780853  1
  Ga  Ga1  1  0.99475412  0.86169971  0.87219147  1
  Ga  Ga2  1  -0.00000000  -0.00000000  0.50000000  1
  Ga  Ga3  1  0.50000000  -0.00000000  0.50000000  1
  Ga  Ga4  1  -0.00000000  0.50000000  -0.00000000  1
  Ga  Ga5  1  0.50000000  0.50000000  -0.00000000  1
  Ga  Ga6  1  0.74431275  0.73951471  0.25088921  1
  Ga  Ga7  1  0.25568725  0.26048529  0.74911079  1
  B  B8  1  0.20506490  0.70803698  0.29790718  1
  B  B9  1  0.79493510  0.29196302  0.70209282  1
  B  B10  1  0.50326444  0.21733707  0.21080820  1
  B  B11  1  0.49673556  0.78266293  0.78919180  1
  O  O12  1  0.22902397  0.14873211  0.26118615  1
  O  O13  1  0.34147800  0.85126789  0.73881385  1
  O  O14  1  0.77097603  0.85126789  0.73881385  1
  O  O15  1  0.65852200  0.14873211  0.26118615  1
  O  O16  1  0.98981929  0.63510994  0.24023362  1
  O  O17  1  0.59494297  0.36489006  0.75976638  1
  O  O18  1  0.01018071  0.36489006  0.75976638  1
  O  O19  1  0.40505703  0.63510994  0.24023362  1
  O  O20  1  0.71618199  0.87165584  0.43929185  1
  O  O21  1  0.28381801  0.12834416  0.56070815  1
  O  O22  1  0.15887279  0.36622492  0.04847934  1
  O  O23  1  0.84112721  0.63377508  0.95152066  1
  O  O24  1  0.62424895  0.35502880  0.10653090  1
  O  O25  1  0.37575105  0.64497120  0.89346910  1
  O  O26  1  0.21920292  0.84270336  0.40429753  1
  O  O27  1  0.78079708  0.15729664  0.59570247  1
  O  O28  1  0.89959171  0.90534798  0.10616455  1
  O  O29  1  0.10040829  0.09465202  0.89383545  1
