# generated using pymatgen
data_ErTiFe11C
_symmetry_space_group_name_H-M   'P 1'
_cell_length_a   4.84830031
_cell_length_b   6.49698283
_cell_length_c   6.49698283
_cell_angle_alpha   97.75768223
_cell_angle_beta   111.90812152
_cell_angle_gamma   68.09187848
_symmetry_Int_Tables_number   1
_chemical_formula_structural   ErTiFe11C
_chemical_formula_sum   'Er1 Ti1 Fe11 C1'
_cell_volume   176.15739072
_cell_formula_units_Z   1
loop_
 _symmetry_equiv_pos_site_id
 _symmetry_equiv_pos_as_xyz
  1  'x, y, z'
loop_
 _atom_site_type_symbol
 _atom_site_label
 _atom_site_symmetry_multiplicity
 _atom_site_fract_x
 _atom_site_fract_y
 _atom_site_fract_z
 _atom_site_occupancy
  Er  Er0  1  0.00670358  0.99329642  0.00670358  1
  Ti  Ti1  1  0.63489704  0.36510296  0.63489704  1
  Fe  Fe2  1  0.72372925  0.77627075  0.22372925  1
  Fe  Fe3  1  0.27808113  0.22191887  0.77808113  1
  Fe  Fe4  1  0.49798091  0.78150328  0.77746509  1
  Fe  Fe5  1  0.49798091  0.22253491  0.21849672  1
  Fe  Fe6  1  0.50013586  0.99761086  0.49917728  1
  Fe  Fe7  1  0.00143056  0.99761086  0.49917728  1
  Fe  Fe8  1  0.50013586  0.50082272  0.00238914  1
  Fe  Fe9  1  0.00143056  0.50082272  0.00238914  1
  Fe  Fe10  1  0.35629453  0.64370547  0.35629453  1
  Fe  Fe11  1  0.99981447  0.35829091  0.35791985  1
  Fe  Fe12  1  0.99981447  0.64208015  0.64170909  1
  C  C13  1  0.50157088  0.99842912  0.00157088  1
