# generated using pymatgen
data_Eu2Ge3Au
_symmetry_space_group_name_H-M   'P 1'
_cell_length_a   4.38986534
_cell_length_b   4.39287639
_cell_length_c   8.72413167
_cell_angle_alpha   90.00000000
_cell_angle_beta   90.00000000
_cell_angle_gamma   120.01014427
_symmetry_Int_Tables_number   1
_chemical_formula_structural   Eu2Ge3Au
_chemical_formula_sum   'Eu2 Ge3 Au1'
_cell_volume   145.68291489
_cell_formula_units_Z   1
loop_
 _symmetry_equiv_pos_site_id
 _symmetry_equiv_pos_as_xyz
  1  'x, y, z'
loop_
 _atom_site_type_symbol
 _atom_site_label
 _atom_site_symmetry_multiplicity
 _atom_site_fract_x
 _atom_site_fract_y
 _atom_site_fract_z
 _atom_site_occupancy
  Eu  Eu0  1  0.99999253  0.99998244  0.00493002  1
  Eu  Eu1  1  0.99999253  0.99998244  0.49506998  1
  Ge  Ge2  1  0.33325048  0.66663802  0.75000000  1
  Ge  Ge3  1  0.66647417  0.33332293  0.25000000  1
  Ge  Ge4  1  0.66665026  0.33334740  0.75000000  1
  Au  Au5  1  0.33344004  0.66672677  0.25000000  1
