# generated using pymatgen
data_K7Mo12H29Pt2O59
_symmetry_space_group_name_H-M   'P 1'
_cell_length_a   10.39705940
_cell_length_b   12.30268284
_cell_length_c   12.62453677
_cell_angle_alpha   68.24348315
_cell_angle_beta   70.22996070
_cell_angle_gamma   84.78124590
_symmetry_Int_Tables_number   1
_chemical_formula_structural   K7Mo12H29Pt2O59
_chemical_formula_sum   'K7 Mo12 H29 Pt2 O59'
_cell_volume   1410.30189452
_cell_formula_units_Z   1
loop_
 _symmetry_equiv_pos_site_id
 _symmetry_equiv_pos_as_xyz
  1  'x, y, z'
loop_
 _atom_site_type_symbol
 _atom_site_label
 _atom_site_symmetry_multiplicity
 _atom_site_fract_x
 _atom_site_fract_y
 _atom_site_fract_z
 _atom_site_occupancy
  K  K0  1  0.75432218  0.90675019  0.87307492  1
  K  K1  1  0.24498239  0.09468407  0.12526820  1
  K  K2  1  0.42290861  0.63419530  0.17310630  1
  K  K3  1  0.57750864  0.36275494  0.82666741  1
  K  K4  1  0.99911213  0.00098833  0.49835767  1
  K  K5  1  0.92115827  0.56900530  0.15016801  1
  K  K6  1  0.07674437  0.42751968  0.85203415  1
  Mo  Mo7  1  0.52852891  0.68134951  0.80703531  1
  Mo  Mo8  1  0.47123711  0.31720305  0.19370929  1
  Mo  Mo9  1  0.97067764  0.77984720  0.33763872  1
  Mo  Mo10  1  0.02930609  0.22024932  0.66187406  1
  Mo  Mo11  1  0.29883371  0.77210237  0.67359894  1
  Mo  Mo12  1  0.69807901  0.22457510  0.33024402  1
  Mo  Mo13  1  0.86523651  0.68667737  0.64616953  1
  Mo  Mo14  1  0.13474516  0.31309973  0.35419751  1
  Mo  Mo15  1  0.39328965  0.85993659  0.36803154  1
  Mo  Mo16  1  0.60856858  0.14003618  0.62715231  1
  Mo  Mo17  1  0.73091407  0.86481574  0.19858935  1
  Mo  Mo18  1  0.26961713  0.13613291  0.80116011  1
  H  H19  1  0.84599333  0.62055556  0.90200003  1
  H  H20  1  0.15349970  0.37850669  0.09917657  1
  H  H21  1  0.75315623  0.51414500  0.00459972  1
  H  H22  1  0.24641959  0.48451356  0.99631202  1
  H  H23  1  0.25132514  0.74336150  0.97627886  1
  H  H24  1  0.74775881  0.25715542  0.02448631  1
  H  H25  1  0.75703040  0.59046128  0.50911068  1
  H  H26  1  0.23983073  0.40971524  0.49055040  1
  H  H27  1  0.59421537  0.58526707  0.36233697  1
  H  H28  1  0.40524532  0.41293736  0.63875572  1
  H  H29  1  0.03540275  0.87631148  0.94178825  1
  H  H30  1  0.96412494  0.12462334  0.05818828  1
  H  H31  1  0.68866267  0.89616816  0.62576597  1
  H  H32  1  0.31337724  0.10430686  0.37448279  1
  H  H33  1  0.18378086  0.58456235  0.42550648  1
  H  H34  1  0.81590777  0.41682048  0.57430510  1
  H  H35  1  0.57707458  0.46504045  0.34720837  1
  H  H36  1  0.42398334  0.53437661  0.65082755  1
  H  H37  1  0.78456395  0.97813709  0.35122748  1
  H  H38  1  0.21732020  0.02242104  0.64852298  1
  H  H39  1  0.04180028  0.81018309  0.85753839  1
  H  H40  1  0.95604475  0.19117474  0.14250808  1
  H  H41  1  0.57707329  0.05284780  0.22991728  1
  H  H42  1  0.42090037  0.94809755  0.77057896  1
  H  H43  1  0.23708505  0.84307697  0.02270597  1
  H  H44  1  0.76424387  0.15710695  0.97821088  1
  H  H45  1  0.26869405  0.57939951  0.50900172  1
  H  H46  1  0.73109134  0.41888174  0.49188762  1
  H  H47  1  0.49871030  0.98388802  0.50009190  1
  Pt  Pt48  1  0.62804191  0.78906501  0.50060080  1
  Pt  Pt49  1  0.37346167  0.21227472  0.49967869  1
  O  O50  1  0.84789434  0.54655656  0.96695599  1
  O  O51  1  0.15172015  0.45213793  0.03370199  1
  O  O52  1  0.96346904  0.80095302  0.48616403  1
  O  O53  1  0.03602361  0.19838955  0.51407814  1
  O  O54  1  0.07309045  0.65924093  0.34678463  1
  O  O55  1  0.92547687  0.33994322  0.65400645  1
  O  O56  1  0.26122006  0.54544470  0.45238204  1
  O  O57  1  0.73867973  0.45534113  0.54668838  1
  O  O58  1  0.56270639  0.97070550  0.23736123  1
  O  O59  1  0.43690924  0.02963188  0.76334097  1
  O  O60  1  0.25018250  0.75864995  0.04688552  1
  O  O61  1  0.74994466  0.24137829  0.95388738  1
  O  O62  1  0.82519094  0.99235357  0.09075012  1
  O  O63  1  0.17488274  0.00887809  0.90929345  1
  O  O64  1  0.89378290  0.75714016  0.73471464  1
  O  O65  1  0.10659801  0.24171507  0.26605512  1
  O  O66  1  0.48438072  0.68021836  0.64433639  1
  O  O67  1  0.51587015  0.32131073  0.35615947  1
  O  O68  1  0.86879945  0.75794582  0.23871414  1
  O  O69  1  0.13166146  0.24256693  0.76034243  1
  O  O70  1  0.29178169  0.98588248  0.36287570  1
  O  O71  1  0.71039000  0.01354332  0.63515542  1
  O  O72  1  0.77656081  0.89448152  0.35314812  1
  O  O73  1  0.22494673  0.10547355  0.64656458  1
  O  O74  1  0.97471608  0.57153622  0.65427128  1
  O  O75  1  0.02520374  0.42822733  0.34526155  1
  O  O76  1  0.68089341  0.81132203  0.63245990  1
  O  O77  1  0.31975993  0.18855069  0.36844996  1
  O  O78  1  0.63176283  0.53931610  0.31107675  1
  O  O79  1  0.36707996  0.46151677  0.68727959  1
  O  O80  1  0.57711605  0.73851663  0.89638765  1
  O  O81  1  0.42249279  0.26082303  0.10385101  1
  O  O82  1  0.67042231  0.80312001  0.11985326  1
  O  O83  1  0.32881262  0.19897484  0.87981331  1
  O  O84  1  0.29813164  0.75106516  0.52287420  1
  O  O85  1  0.70799565  0.25170517  0.47576630  1
  O  O86  1  0.35867066  0.80587830  0.27192142  1
  O  O87  1  0.63667348  0.19458128  0.72647155  1
  O  O88  1  0.57497056  0.76558334  0.37030135  1
  O  O89  1  0.42534921  0.23579598  0.62946667  1
  O  O90  1  0.41799001  0.56067411  0.90608699  1
  O  O91  1  0.58260334  0.43749847  0.09462438  1
  O  O92  1  0.18939133  0.65595367  0.77950372  1
  O  O93  1  0.80593209  0.34189467  0.22257339  1
  O  O94  1  0.07497033  0.90193644  0.23537765  1
  O  O95  1  0.92614997  0.09747156  0.76454198  1
  O  O96  1  0.78274588  0.67345869  0.49879021  1
  O  O97  1  0.21442600  0.32694104  0.50091188  1
  O  O98  1  0.19529605  0.89689378  0.66120625  1
  O  O99  1  0.80367981  0.10068480  0.34036167  1
  O  O100  1  0.49693627  0.00031669  0.99185801  1
  O  O101  1  0.99013699  0.81239347  0.93731288  1
  O  O102  1  0.00904706  0.18837426  0.06323024  1
  O  O103  1  0.39075584  0.80369022  0.77324481  1
  O  O104  1  0.60526570  0.19312172  0.22982994  1
  O  O105  1  0.47459701  0.90154257  0.50321773  1
  O  O106  1  0.52788793  0.10305163  0.49842500  1
  O  O107  1  0.69317933  0.59812472  0.75372399  1
  O  O108  1  0.30670555  0.40137682  0.24609907  1
