# generated using pymatgen
data_CrB2Mo
_symmetry_space_group_name_H-M   'P 1'
_cell_length_a   3.00999375
_cell_length_b   3.06154056
_cell_length_c   4.39150386
_cell_angle_alpha   69.59980205
_cell_angle_beta   90.00000000
_cell_angle_gamma   90.00000000
_symmetry_Int_Tables_number   1
_chemical_formula_structural   CrB2Mo
_chemical_formula_sum   'Cr1 B2 Mo1'
_cell_volume   37.93050233
_cell_formula_units_Z   1
loop_
 _symmetry_equiv_pos_site_id
 _symmetry_equiv_pos_as_xyz
  1  'x, y, z'
loop_
 _atom_site_type_symbol
 _atom_site_label
 _atom_site_symmetry_multiplicity
 _atom_site_fract_x
 _atom_site_fract_y
 _atom_site_fract_z
 _atom_site_occupancy
  Cr  Cr0  1  0.25000000  0.14043042  0.71913916  1
  B  B1  1  0.75000000  0.56475006  0.87049988  1
  B  B2  1  0.25000000  0.44364295  0.11271410  1
  Mo  Mo3  1  0.75000000  0.85117657  0.29764686  1
