# generated using pymatgen
data_Cu2NiSnSe4
_symmetry_space_group_name_H-M   'P 1'
_cell_length_a   5.64077510
_cell_length_b   5.64077510
_cell_length_c   6.92876285
_cell_angle_alpha   65.98003189
_cell_angle_beta   65.98003180
_cell_angle_gamma   90.00000000
_symmetry_Int_Tables_number   1
_chemical_formula_structural   Cu2NiSnSe4
_chemical_formula_sum   'Cu2 Ni1 Sn1 Se4'
_cell_volume   180.26877113
_cell_formula_units_Z   1
loop_
 _symmetry_equiv_pos_site_id
 _symmetry_equiv_pos_as_xyz
  1  'x, y, z'
loop_
 _atom_site_type_symbol
 _atom_site_label
 _atom_site_symmetry_multiplicity
 _atom_site_fract_x
 _atom_site_fract_y
 _atom_site_fract_z
 _atom_site_occupancy
  Cu  Cu0  1  -0.00000000  0.00000000  0.00000000  1
  Cu  Cu1  1  0.25000000  0.75000000  0.50000000  1
  Ni  Ni2  1  0.50000000  0.50000000  0.00000000  1
  Sn  Sn3  1  0.75000000  0.25000000  0.50000000  1
  Se  Se4  1  0.35202897  0.84050226  0.77248543  1
  Se  Se5  1  0.61298768  0.64797103  0.22751457  1
  Se  Se6  1  0.87548561  0.38701232  0.77248543  1
  Se  Se7  1  0.15949774  0.12451439  0.22751457  1
