# generated using pymatgen
data_CeInCu
_symmetry_space_group_name_H-M   'P 1'
_cell_length_a   3.51186384
_cell_length_b   4.76565773
_cell_length_c   4.76811254
_cell_angle_alpha   120.02460156
_cell_angle_beta   90.00000000
_cell_angle_gamma   90.00000000
_symmetry_Int_Tables_number   1
_chemical_formula_structural   CeInCu
_chemical_formula_sum   'Ce1 In1 Cu1'
_cell_volume   69.09234471
_cell_formula_units_Z   1
loop_
 _symmetry_equiv_pos_site_id
 _symmetry_equiv_pos_as_xyz
  1  'x, y, z'
loop_
 _atom_site_type_symbol
 _atom_site_label
 _atom_site_symmetry_multiplicity
 _atom_site_fract_x
 _atom_site_fract_y
 _atom_site_fract_z
 _atom_site_occupancy
  Ce  Ce0  1  0.00000000  0.99956583  0.99983075  1
  In  In1  1  0.50000000  0.66663876  0.33333332  1
  Cu  Cu2  1  0.50000000  0.33369541  0.66683594  1
