# generated using pymatgen
data_BaPrTaCoO6
_symmetry_space_group_name_H-M   'P 1'
_cell_length_a   5.76125802
_cell_length_b   5.82261106
_cell_length_c   8.06182468
_cell_angle_alpha   90.00000000
_cell_angle_beta   90.27671135
_cell_angle_gamma   90.00000000
_symmetry_Int_Tables_number   1
_chemical_formula_structural   BaPrTaCoO6
_chemical_formula_sum   'Ba2 Pr2 Ta2 Co2 O12'
_cell_volume   270.43530747
_cell_formula_units_Z   2
loop_
 _symmetry_equiv_pos_site_id
 _symmetry_equiv_pos_as_xyz
  1  'x, y, z'
loop_
 _atom_site_type_symbol
 _atom_site_label
 _atom_site_symmetry_multiplicity
 _atom_site_fract_x
 _atom_site_fract_y
 _atom_site_fract_z
 _atom_site_occupancy
  Ba  Ba0  1  0.50052664  0.49193885  0.25125589  1
  Ba  Ba1  1  0.00052664  0.00806115  0.75125589  1
  Pr  Pr2  1  0.51652877  0.54678609  0.75206228  1
  Pr  Pr3  1  0.01652877  0.95321391  0.25206228  1
  Ta  Ta4  1  -0.00050800  0.48986034  -0.00011997  1
  Ta  Ta5  1  0.49949200  0.01013966  0.49988003  1
  Co  Co6  1  0.00203926  0.49636945  0.50123414  1
  Co  Co7  1  0.50203926  0.00363055  0.00123414  1
  O  O8  1  0.22089976  0.20853755  0.45419845  1
  O  O9  1  0.72089976  0.29146245  0.95419845  1
  O  O10  1  0.74932902  0.76588572  0.52957604  1
  O  O11  1  0.24932902  0.73411428  0.02957604  1
  O  O12  1  0.26298128  0.75812630  0.46324224  1
  O  O13  1  0.76298128  0.74187370  0.96324224  1
  O  O14  1  0.69486182  0.28224010  0.54688376  1
  O  O15  1  0.19486182  0.21775990  0.04688376  1
  O  O16  1  0.59798967  0.00904466  0.25866772  1
  O  O17  1  0.09798967  0.49095534  0.75866772  1
  O  O18  1  0.45535177  0.97250182  0.74299947  1
  O  O19  1  0.95535177  0.52749818  0.24299947  1
