# generated using pymatgen
data_Ca2Gd2MnNiO8
_symmetry_space_group_name_H-M   'P 1'
_cell_length_a   5.32730193
_cell_length_b   5.59230803
_cell_length_c   6.43928183
_cell_angle_alpha   90.44193835
_cell_angle_beta   65.56525995
_cell_angle_gamma   90.00000000
_symmetry_Int_Tables_number   1
_chemical_formula_structural   Ca2Gd2MnNiO8
_chemical_formula_sum   'Ca2 Gd2 Mn1 Ni1 O8'
_cell_volume   174.64986030
_cell_formula_units_Z   1
loop_
 _symmetry_equiv_pos_site_id
 _symmetry_equiv_pos_as_xyz
  1  'x, y, z'
loop_
 _atom_site_type_symbol
 _atom_site_label
 _atom_site_symmetry_multiplicity
 _atom_site_fract_x
 _atom_site_fract_y
 _atom_site_fract_z
 _atom_site_occupancy
  Ca  Ca0  1  0.35490164  0.01441408  0.29019672  1
  Ca  Ca1  1  0.14478199  0.52616187  0.71043602  1
  Gd  Gd2  1  0.86195559  0.47329245  0.27608882  1
  Gd  Gd3  1  0.63880520  0.98173341  0.72238960  1
  Mn  Mn4  1  0.49899994  0.49800675  0.00200011  1
  Ni  Ni5  1  0.00036671  0.99731989  0.99926658  1
  O  O6  1  0.76824196  0.25804497  0.95647220  1
  O  O7  1  0.72543938  0.73774052  0.04394070  1
  O  O8  1  0.23061992  0.73774052  0.04394070  1
  O  O9  1  0.27528584  0.25804497  0.95647220  1
  O  O10  1  0.17226327  0.93534432  0.65547347  1
  O  O11  1  0.67232606  0.56818614  0.65534787  1
  O  O12  1  0.33638239  0.43898153  0.32723523  1
  O  O13  1  0.81963011  0.07498856  0.36073978  1
