# generated using pymatgen
data_CdP6Pb9O26
_symmetry_space_group_name_H-M   'P 1'
_cell_length_a   7.41425883
_cell_length_b   9.91378784
_cell_length_c   9.90976571
_cell_angle_alpha   119.88304592
_cell_angle_beta   89.82004272
_cell_angle_gamma   90.10546968
_symmetry_Int_Tables_number   1
_chemical_formula_structural   CdP6Pb9O26
_chemical_formula_sum   'Cd1 P6 Pb9 O26'
_cell_volume   631.55304284
_cell_formula_units_Z   1
loop_
 _symmetry_equiv_pos_site_id
 _symmetry_equiv_pos_as_xyz
  1  'x, y, z'
loop_
 _atom_site_type_symbol
 _atom_site_label
 _atom_site_symmetry_multiplicity
 _atom_site_fract_x
 _atom_site_fract_y
 _atom_site_fract_z
 _atom_site_occupancy
  Cd  Cd0  1  0.50419242  0.66614082  0.33209559  1
  P  P1  1  0.73976556  0.02240926  0.62293824  1
  P  P2  1  0.74139205  0.37912645  0.40131272  1
  P  P3  1  0.74036185  0.59805686  0.97888820  1
  P  P4  1  0.25680527  0.96809753  0.37360473  1
  P  P5  1  0.25697012  0.62939331  0.59487162  1
  P  P6  1  0.25655744  0.40385625  0.03295266  1
  Pb  Pb7  1  0.72972802  0.23025753  0.99280365  1
  Pb  Pb8  1  0.73776046  0.00370144  0.23590052  1
  Pb  Pb9  1  0.73461660  0.76432171  0.76907169  1
  Pb  Pb10  1  0.24111320  0.76556398  0.00301626  1
  Pb  Pb11  1  0.23645676  0.99042154  0.75939426  1
  Pb  Pb12  1  0.23997325  0.23317667  0.22993543  1
  Pb  Pb13  1  -0.00296522  0.33358926  0.66440713  1
  Pb  Pb14  1  0.49161759  0.33183468  0.66378691  1
  Pb  Pb15  1  0.99454481  0.66340991  0.33101065  1
  O  O16  1  0.72682284  0.84400837  0.51112305  1
  O  O17  1  0.72855970  0.49016622  0.33304375  1
  O  O18  1  0.72773488  0.66377688  0.15708303  1
  O  O19  1  0.24399008  0.14451601  0.49237637  1
  O  O20  1  0.24325902  0.51170165  0.65407943  1
  O  O21  1  0.24302345  0.34397247  0.85598831  1
  O  O22  1  0.57472440  0.08597977  0.73769240  1
  O  O23  1  0.57795941  0.26439294  0.35184310  1
  O  O24  1  0.57708443  0.65046096  0.91655852  1
  O  O25  1  0.08253829  0.90678470  0.27281068  1
  O  O26  1  0.08118091  0.73011436  0.63348261  1
  O  O27  1  0.08156000  0.36515283  0.09603404  1
  O  O28  1  0.41600654  0.93210418  0.25711664  1
  O  O29  1  0.41285516  0.74891297  0.68097119  1
  O  O30  1  0.41496871  0.32159204  0.06760268  1
  O  O31  1  0.91160917  0.06652485  0.72829548  1
  O  O32  1  0.91504435  0.27703700  0.34447987  1
  O  O33  1  0.91332940  0.65671664  0.93375362  1
  O  O34  1  0.74600491  0.11336991  0.53200997  1
  O  O35  1  0.74521612  0.47366863  0.58379817  1
  O  O36  1  0.74415379  0.41508232  0.88922561  1
  O  O37  1  0.28510287  0.87452582  0.46159113  1
  O  O38  1  0.28943178  0.54513827  0.41571122  1
  O  O39  1  0.28645876  0.58411457  0.12673188  1
  O  O40  1  0.68597113  0.00769624  0.99461947  1
  O  O41  1  0.18651973  0.99913221  0.98598752  1
