# generated using pymatgen
data_CaGd2BeO5
_symmetry_space_group_name_H-M   'P 1'
_cell_length_a   6.42739040
_cell_length_b   7.06003136
_cell_length_c   9.36728696
_cell_angle_alpha   90.00000000
_cell_angle_beta   90.00000000
_cell_angle_gamma   90.00000000
_symmetry_Int_Tables_number   1
_chemical_formula_structural   CaGd2BeO5
_chemical_formula_sum   'Ca4 Gd8 Be4 O20'
_cell_volume   425.06479268
_cell_formula_units_Z   4
loop_
 _symmetry_equiv_pos_site_id
 _symmetry_equiv_pos_as_xyz
  1  'x, y, z'
loop_
 _atom_site_type_symbol
 _atom_site_label
 _atom_site_symmetry_multiplicity
 _atom_site_fract_x
 _atom_site_fract_y
 _atom_site_fract_z
 _atom_site_occupancy
  Ca  Ca0  1  0.58052562  0.98169848  0.67636528  1
  Ca  Ca1  1  0.41947438  0.48169848  0.32363472  1
  Ca  Ca2  1  0.08052562  0.48169848  0.82363472  1
  Ca  Ca3  1  0.91947438  0.98169848  0.17636528  1
  Gd  Gd4  1  0.09626424  0.74582201  0.52191006  1
  Gd  Gd5  1  0.40373576  0.74582201  0.02191006  1
  Gd  Gd6  1  0.90373576  0.24582201  0.47808994  1
  Gd  Gd7  1  0.59626424  0.24582201  0.97808994  1
  Gd  Gd8  1  0.92816405  0.52793787  0.17354360  1
  Gd  Gd9  1  0.07183595  0.02793787  0.82645640  1
  Gd  Gd10  1  0.42816405  0.02793787  0.32645640  1
  Gd  Gd11  1  0.57183595  0.52793787  0.67354360  1
  Be  Be12  1  0.69405789  0.74845760  0.39680221  1
  Be  Be13  1  0.80594211  0.74845760  0.89680221  1
  Be  Be14  1  0.30594211  0.24845760  0.60319779  1
  Be  Be15  1  0.19405789  0.24845760  0.10319779  1
  O  O16  1  0.16426092  0.74735256  0.27697930  1
  O  O17  1  0.33573908  0.74735256  0.77697930  1
  O  O18  1  0.83573908  0.24735256  0.72302070  1
  O  O19  1  0.66426092  0.24735256  0.22302070  1
  O  O20  1  0.02045843  0.75003343  0.99034184  1
  O  O21  1  0.47954157  0.75003343  0.49034184  1
  O  O22  1  0.97954157  0.25003343  0.00965816  1
  O  O23  1  0.52045843  0.25003343  0.50965816  1
  O  O24  1  0.31666444  0.05465026  0.07250351  1
  O  O25  1  0.19223529  0.44494728  0.57262072  1
  O  O26  1  0.68333556  0.55465026  0.92749649  1
  O  O27  1  0.80776471  0.94494728  0.42737928  1
  O  O28  1  0.69223529  0.94494728  0.92737928  1
  O  O29  1  0.81666444  0.55465026  0.42749649  1
  O  O30  1  0.30776471  0.44494728  0.07262072  1
  O  O31  1  0.18333556  0.05465026  0.57250351  1
  O  O32  1  0.63895687  0.74910053  0.22106187  1
  O  O33  1  0.86104313  0.74910053  0.72106187  1
  O  O34  1  0.36104313  0.24910053  0.77893813  1
  O  O35  1  0.13895687  0.24910053  0.27893813  1
