# generated using pymatgen
data_Ce2PrO6
_symmetry_space_group_name_H-M   'P 1'
_cell_length_a   3.91976377
_cell_length_b   5.55607424
_cell_length_c   6.79552315
_cell_angle_alpha   114.12972674
_cell_angle_beta   106.76265732
_cell_angle_gamma   90.00000000
_symmetry_Int_Tables_number   1
_chemical_formula_structural   Ce2PrO6
_chemical_formula_sum   'Ce2 Pr1 O6'
_cell_volume   128.14293015
_cell_formula_units_Z   1
loop_
 _symmetry_equiv_pos_site_id
 _symmetry_equiv_pos_as_xyz
  1  'x, y, z'
loop_
 _atom_site_type_symbol
 _atom_site_label
 _atom_site_symmetry_multiplicity
 _atom_site_fract_x
 _atom_site_fract_y
 _atom_site_fract_z
 _atom_site_occupancy
  Ce  Ce0  1  0.66772821  0.66772821  0.33545541  1
  Ce  Ce1  1  0.33227179  0.33227179  0.66454459  1
  Pr  Pr2  1  0.00000000  0.00000000  0.00000000  1
  O  O3  1  0.82860369  0.57136339  0.65720837  1
  O  O4  1  0.50000000  0.26488242  0.00000000  1
  O  O5  1  0.17139631  0.91415602  0.34279163  1
  O  O6  1  0.82860369  0.08584398  0.65720837  1
  O  O7  1  0.50000000  0.73511758  0.00000000  1
  O  O8  1  0.17139631  0.42863661  0.34279163  1
