# generated using pymatgen
data_Bi4IBr3
_symmetry_space_group_name_H-M   'P 1'
_cell_length_a   4.33154144
_cell_length_b   7.52560491
_cell_length_c   20.63349811
_cell_angle_alpha   90.00000000
_cell_angle_beta   90.00000000
_cell_angle_gamma   73.27449106
_symmetry_Int_Tables_number   1
_chemical_formula_structural   Bi4IBr3
_chemical_formula_sum   'Bi8 I2 Br6'
_cell_volume   644.14512882
_cell_formula_units_Z   2
loop_
 _symmetry_equiv_pos_site_id
 _symmetry_equiv_pos_as_xyz
  1  'x, y, z'
loop_
 _atom_site_type_symbol
 _atom_site_label
 _atom_site_symmetry_multiplicity
 _atom_site_fract_x
 _atom_site_fract_y
 _atom_site_fract_z
 _atom_site_occupancy
  Bi  Bi0  1  0.25503036  0.48993929  0.86450406  1
  Bi  Bi1  1  0.74496964  0.51006071  0.36450406  1
  Bi  Bi2  1  0.05629208  0.88741584  0.50380249  1
  Bi  Bi3  1  0.94370792  0.11258416  0.00380249  1
  Bi  Bi4  1  0.29478019  0.41043961  0.01109278  1
  Bi  Bi5  1  0.70521981  0.58956039  0.51109278  1
  Bi  Bi6  1  0.01617437  0.96765126  0.65099622  1
  Bi  Bi7  1  0.98382563  0.03234874  0.15099622  1
  I  I8  1  0.34088164  0.31823671  0.19567034  1
  I  I9  1  0.65911836  0.68176329  0.69567034  1
  Br  Br10  1  0.38131390  0.23737221  0.62461710  1
  Br  Br11  1  0.61868610  0.76262779  0.12461710  1
  Br  Br12  1  0.11709403  0.76581194  0.32592490  1
  Br  Br13  1  0.88290597  0.23418806  0.82592490  1
  Br  Br14  1  0.37586343  0.24827315  0.39829210  1
  Br  Br15  1  0.62413657  0.75172685  0.89829210  1
