# generated using pymatgen
data_Ba4CaZr5O15
_symmetry_space_group_name_H-M   'P 1'
_cell_length_a   4.23365400
_cell_length_b   5.98804036
_cell_length_c   15.26298041
_cell_angle_alpha   78.68737453
_cell_angle_beta   90.00000000
_cell_angle_gamma   90.00000000
_symmetry_Int_Tables_number   1
_chemical_formula_structural   Ba4CaZr5O15
_chemical_formula_sum   'Ba4 Ca1 Zr5 O15'
_cell_volume   379.41865054
_cell_formula_units_Z   1
loop_
 _symmetry_equiv_pos_site_id
 _symmetry_equiv_pos_as_xyz
  1  'x, y, z'
loop_
 _atom_site_type_symbol
 _atom_site_label
 _atom_site_symmetry_multiplicity
 _atom_site_fract_x
 _atom_site_fract_y
 _atom_site_fract_z
 _atom_site_occupancy
  Ba  Ba0  1  0.50000000  0.90016408  0.19967184  1
  Ba  Ba1  1  0.50000000  0.30003772  0.39992456  1
  Ba  Ba2  1  0.50000000  0.69996228  0.60007544  1
  Ba  Ba3  1  0.50000000  0.09983592  0.80032816  1
  Ca  Ca4  1  0.50000000  0.50000000  0.00000000  1
  Zr  Zr5  1  -0.00000000  0.19993709  0.60012583  1
  Zr  Zr6  1  -0.00000000  0.59937143  0.80125715  1
  Zr  Zr7  1  -0.00000000  -0.00000000  0.00000000  1
  Zr  Zr8  1  -0.00000000  0.40062857  0.19874285  1
  Zr  Zr9  1  0.00000000  0.80006291  0.39987417  1
  O  O10  1  -0.00000000  0.40004343  0.70025117  1
  O  O11  1  -0.00000000  0.79691107  0.90128148  1
  O  O12  1  -0.00000000  0.20308893  0.09871852  1
  O  O13  1  -0.00000000  0.59995657  0.29974883  1
  O  O14  1  -0.00000000  -0.00000000  0.50000000  1
  O  O15  1  0.00000000  0.89970540  0.70025117  1
  O  O16  1  -0.00000000  0.30180745  0.90128148  1
  O  O17  1  -0.00000000  0.69819255  0.09871852  1
  O  O18  1  -0.00000000  0.10029460  0.29974883  1
  O  O19  1  -0.00000000  0.50000000  0.50000000  1
  O  O20  1  0.50000000  0.20000782  0.59998437  1
  O  O21  1  0.50000000  0.59929213  0.80141574  1
  O  O22  1  0.50000000  -0.00000000  0.00000000  1
  O  O23  1  0.50000000  0.40070787  0.19858426  1
  O  O24  1  0.50000000  0.79999218  0.40001563  1
