# generated using pymatgen
data_Ba4La4Co8O23
_symmetry_space_group_name_H-M   'P 1'
_cell_length_a   7.92156057
_cell_length_b   8.74611910
_cell_length_c   8.90329082
_cell_angle_alpha   114.11398481
_cell_angle_beta   63.58517409
_cell_angle_gamma   90.00000000
_symmetry_Int_Tables_number   1
_chemical_formula_structural   Ba4La4Co8O23
_chemical_formula_sum   'Ba4 La4 Co8 O23'
_cell_volume   491.61406132
_cell_formula_units_Z   1
loop_
 _symmetry_equiv_pos_site_id
 _symmetry_equiv_pos_as_xyz
  1  'x, y, z'
loop_
 _atom_site_type_symbol
 _atom_site_label
 _atom_site_symmetry_multiplicity
 _atom_site_fract_x
 _atom_site_fract_y
 _atom_site_fract_z
 _atom_site_occupancy
  Ba  Ba0  1  0.75000000  -0.00000000  0.50000000  1
  Ba  Ba1  1  0.25000000  -0.00000000  0.50000000  1
  Ba  Ba2  1  0.49539604  0.00000000  1.00000000  1
  Ba  Ba3  1  0.00460396  -0.00000000  0.00000000  1
  La  La4  1  0.61474265  0.49979564  0.75028859  1
  La  La5  1  0.13496876  0.49979564  0.75028859  1
  La  La6  1  0.36503124  0.50020436  0.24971141  1
  La  La7  1  0.88525735  0.50020436  0.24971141  1
  Co  Co8  1  0.43929290  0.74957232  0.62141420  1
  Co  Co9  1  0.93686623  0.74594885  0.62626753  1
  Co  Co10  1  0.18805129  0.74641204  0.12389742  1
  Co  Co11  1  0.68722074  0.75233981  0.12555852  1
  Co  Co12  1  0.56313377  0.25405115  0.37373247  1
  Co  Co13  1  0.06070710  0.25042768  0.37858580  1
  Co  Co14  1  0.31194871  0.25358796  0.87610258  1
  Co  Co15  1  0.81277926  0.24766019  0.87444148  1
  O  O16  1  0.31377766  0.73066936  0.87244469  1
  O  O17  1  0.81604507  0.70882070  0.86790986  1
  O  O18  1  0.07155587  0.73040843  0.35688826  1
  O  O19  1  0.57874001  0.71038157  0.34251998  1
  O  O20  1  0.68000567  0.72870221  0.61314821  1
  O  O21  1  0.20684612  0.72870221  0.61314821  1
  O  O22  1  0.46048075  0.71178630  0.10650656  1
  O  O23  1  0.93301269  0.71178630  0.10650656  1
  O  O24  1  0.42844413  0.26959157  0.64311174  1
  O  O25  1  0.92125999  0.28961843  0.65748002  1
  O  O26  1  0.18622234  0.26933064  0.12755531  1
  O  O27  1  0.68395493  0.29117930  0.13209014  1
  O  O28  1  0.81999433  0.27129779  0.38685179  1
  O  O29  1  0.29315388  0.27129779  0.38685179  1
  O  O30  1  0.56698731  0.28821370  0.89349344  1
  O  O31  1  0.03951925  0.28821370  0.89349344  1
  O  O32  1  0.62192134  0.02322709  0.25615731  1
  O  O33  1  0.12491644  -0.00508833  0.25016712  1
  O  O34  1  0.37508356  0.00508833  0.74983288  1
  O  O35  1  0.87807866  0.97677291  0.74384269  1
  O  O36  1  0.49988689  0.48585504  0.50022623  1
  O  O37  1  0.25000000  0.50000000  -0.00000000  1
  O  O38  1  0.00011311  0.51414496  0.49977377  1
