# generated using pymatgen
data_BaLa2TiCr2O9
_symmetry_space_group_name_H-M   'P 1'
_cell_length_a   3.96736475
_cell_length_b   5.64414973
_cell_length_c   8.82844679
_cell_angle_alpha   108.64218859
_cell_angle_beta   90.00000000
_cell_angle_gamma   90.00000000
_symmetry_Int_Tables_number   1
_chemical_formula_structural   BaLa2TiCr2O9
_chemical_formula_sum   'Ba1 La2 Ti1 Cr2 O9'
_cell_volume   187.31796874
_cell_formula_units_Z   1
loop_
 _symmetry_equiv_pos_site_id
 _symmetry_equiv_pos_as_xyz
  1  'x, y, z'
loop_
 _atom_site_type_symbol
 _atom_site_label
 _atom_site_symmetry_multiplicity
 _atom_site_fract_x
 _atom_site_fract_y
 _atom_site_fract_z
 _atom_site_occupancy
  Ba  Ba0  1  -0.00000000  -0.00000000  0.00000000  1
  La  La1  1  -0.00000000  0.67193258  0.34386415  1
  La  La2  1  -0.00000000  0.32806742  0.65613585  1
  Ti  Ti3  1  0.50000000  0.50000000  0.00000000  1
  Cr  Cr4  1  0.50000000  0.16629746  0.33259392  1
  Cr  Cr5  1  0.50000000  0.83370254  0.66740608  1
  O  O6  1  0.50000000  0.50000000  0.50000000  1
  O  O7  1  0.50000000  0.17735029  0.82716017  1
  O  O8  1  0.50000000  0.82264971  0.17283983  1
  O  O9  1  0.50000000  0.64981088  0.82716017  1
  O  O10  1  0.50000000  0.35018912  0.17283983  1
  O  O11  1  0.50000000  -0.00000000  0.50000000  1
  O  O12  1  0.00000000  0.82525292  0.65050684  1
  O  O13  1  -0.00000000  0.50000000  0.00000000  1
  O  O14  1  -0.00000000  0.17474708  0.34949316  1
