# generated using pymatgen
data_Ba2YCu3(PbO4)2
_symmetry_space_group_name_H-M   'P 1'
_cell_length_a   3.87468809
_cell_length_b   3.92132551
_cell_length_c   16.54793923
_cell_angle_alpha   91.08980431
_cell_angle_beta   89.83637233
_cell_angle_gamma   90.05141857
_symmetry_Int_Tables_number   1
_chemical_formula_structural   Ba2YCu3(PbO4)2
_chemical_formula_sum   'Ba2 Y1 Cu3 Pb2 O8'
_cell_volume   251.38135828
_cell_formula_units_Z   1
loop_
 _symmetry_equiv_pos_site_id
 _symmetry_equiv_pos_as_xyz
  1  'x, y, z'
loop_
 _atom_site_type_symbol
 _atom_site_label
 _atom_site_symmetry_multiplicity
 _atom_site_fract_x
 _atom_site_fract_y
 _atom_site_fract_z
 _atom_site_occupancy
  Ba  Ba0  1  0.00172621  0.98896957  0.77669598  1
  Ba  Ba1  1  0.99827379  0.01103043  0.22330402  1
  Y  Y2  1  0.00000000  -0.00000000  -0.00000000  1
  Cu  Cu3  1  0.50027475  0.49837909  0.90202424  1
  Cu  Cu4  1  0.49972525  0.50162091  0.09797576  1
  Cu  Cu5  1  0.00000000  -0.00000000  0.50000000  1
  Pb  Pb6  1  0.50501058  0.49124686  0.60827333  1
  Pb  Pb7  1  0.49498942  0.50875314  0.39172667  1
  O  O8  1  0.50207247  0.48796578  0.74177050  1
  O  O9  1  0.49792753  0.51203422  0.25822950  1
  O  O10  1  0.00790588  0.87462327  0.60761001  1
  O  O11  1  0.99209412  0.12537673  0.39238999  1
  O  O12  1  0.00010363  0.49819333  0.91297365  1
  O  O13  1  0.49965520  0.00047714  0.08790740  1
  O  O14  1  0.99989637  0.50180667  0.08702635  1
  O  O15  1  0.50034480  0.99952286  0.91209260  1
