# generated using pymatgen
data_BaInGe
_symmetry_space_group_name_H-M   'P 1'
_cell_length_a   4.71320687
_cell_length_b   4.71320638
_cell_length_c   5.09436964
_cell_angle_alpha   89.95898425
_cell_angle_beta   89.95898422
_cell_angle_gamma   59.98332421
_symmetry_Int_Tables_number   1
_chemical_formula_structural   BaInGe
_chemical_formula_sum   'Ba1 In1 Ge1'
_cell_volume   97.98980513
_cell_formula_units_Z   1
loop_
 _symmetry_equiv_pos_site_id
 _symmetry_equiv_pos_as_xyz
  1  'x, y, z'
loop_
 _atom_site_type_symbol
 _atom_site_label
 _atom_site_symmetry_multiplicity
 _atom_site_fract_x
 _atom_site_fract_y
 _atom_site_fract_z
 _atom_site_occupancy
  Ba  Ba0  1  0.00005554  0.00005554  0.99325624  1
  In  In1  1  0.66652193  0.66652193  0.46444039  1
  Ge  Ge2  1  0.33342254  0.33342254  0.54230337  1
