# generated using pymatgen
data_Ba2La2MgTi3O12
_symmetry_space_group_name_H-M   'P 1'
_cell_length_a   5.68775256
_cell_length_b   5.68775256
_cell_length_c   9.69229625
_cell_angle_alpha   72.93720292
_cell_angle_beta   107.06279708
_cell_angle_gamma   120.00064345
_symmetry_Int_Tables_number   1
_chemical_formula_structural   Ba2La2MgTi3O12
_chemical_formula_sum   'Ba2 La2 Mg1 Ti3 O12'
_cell_volume   255.48086308
_cell_formula_units_Z   1
loop_
 _symmetry_equiv_pos_site_id
 _symmetry_equiv_pos_as_xyz
  1  'x, y, z'
loop_
 _atom_site_type_symbol
 _atom_site_label
 _atom_site_symmetry_multiplicity
 _atom_site_fract_x
 _atom_site_fract_y
 _atom_site_fract_z
 _atom_site_occupancy
  Ba  Ba0  1  0.62446382  0.37553618  0.87341025  1
  Ba  Ba1  1  0.37553618  0.62446382  0.12658975  1
  La  La2  1  0.12625101  0.87374899  0.37868777  1
  La  La3  1  0.87374899  0.12625101  0.62131223  1
  Mg  Mg4  1  0.50000000  0.50000000  0.50000000  1
  Ti  Ti5  1  -0.00000000  -0.00000000  0.00000000  1
  Ti  Ti6  1  0.75295464  0.24704536  0.25886408  1
  Ti  Ti7  1  0.24704536  0.75295464  0.74113592  1
  O  O8  1  0.10878799  0.36417683  0.38053543  1
  O  O9  1  0.36665064  0.11760095  0.13148612  1
  O  O10  1  0.89121201  0.63582317  0.61946457  1
  O  O11  1  0.63334936  0.88239905  0.86851388  1
  O  O12  1  0.36417683  0.10878799  0.61946457  1
  O  O13  1  0.63582317  0.89121201  0.38053543  1
  O  O14  1  0.11760095  0.36665064  0.86851388  1
  O  O15  1  0.88239905  0.63334936  0.13148612  1
  O  O16  1  0.36414902  0.63585098  0.61946977  1
  O  O17  1  0.63585098  0.36414902  0.38053023  1
  O  O18  1  0.11759812  0.88240188  0.86850850  1
  O  O19  1  0.88240188  0.11759812  0.13149150  1
