# generated using pymatgen
data_BaLa3Sc4HO12
_symmetry_space_group_name_H-M   'P 1'
_cell_length_a   5.78983233
_cell_length_b   5.87353279
_cell_length_c   8.29511157
_cell_angle_alpha   90.00000000
_cell_angle_beta   90.00000000
_cell_angle_gamma   90.79418372
_symmetry_Int_Tables_number   1
_chemical_formula_structural   BaLa3Sc4HO12
_chemical_formula_sum   'Ba1 La3 Sc4 H1 O12'
_cell_volume   282.06285281
_cell_formula_units_Z   1
loop_
 _symmetry_equiv_pos_site_id
 _symmetry_equiv_pos_as_xyz
  1  'x, y, z'
loop_
 _atom_site_type_symbol
 _atom_site_label
 _atom_site_symmetry_multiplicity
 _atom_site_fract_x
 _atom_site_fract_y
 _atom_site_fract_z
 _atom_site_occupancy
  Ba  Ba0  1  0.50014758  0.47789377  0.25000000  1
  La  La1  1  0.98248660  0.95190108  0.25000000  1
  La  La2  1  0.48415870  0.54611236  0.75000000  1
  La  La3  1  0.01410042  0.03287798  0.75000000  1
  Sc  Sc4  1  0.99564635  0.50379302  0.98161056  1
  Sc  Sc5  1  0.50514290  0.00573858  0.50075268  1
  Sc  Sc6  1  0.99564635  0.50379302  0.51838944  1
  Sc  Sc7  1  0.50514290  0.00573858  0.99924732  1
  H  H8  1  0.93886271  0.39614017  0.25000000  1
  O  O9  1  0.39243013  0.00395438  0.25000000  1
  O  O10  1  0.05464084  0.52135189  0.25000000  1
  O  O11  1  0.60253494  0.97893989  0.75000000  1
  O  O12  1  0.89098184  0.46288943  0.75000000  1
  O  O13  1  0.72892835  0.72643056  0.03478261  1
  O  O14  1  0.80710927  0.20778576  0.44193683  1
  O  O15  1  0.28881655  0.29140051  0.56309034  1
  O  O16  1  0.21768469  0.78582109  0.94230305  1
  O  O17  1  0.28881655  0.29140051  0.93690966  1
  O  O18  1  0.21768469  0.78582109  0.55769695  1
  O  O19  1  0.72892835  0.72643056  0.46521739  1
  O  O20  1  0.80710927  0.20778576  0.05806317  1
