# generated using pymatgen
data_Ba8CaY3(CuO2)12
_symmetry_space_group_name_H-M   'P 1'
_cell_length_a   7.72369974
_cell_length_b   12.73996258
_cell_length_c   8.66337914
_cell_angle_alpha   105.83731371
_cell_angle_beta   63.52756844
_cell_angle_gamma   90.00000000
_symmetry_Int_Tables_number   1
_chemical_formula_structural   Ba8CaY3(CuO2)12
_chemical_formula_sum   'Ba8 Ca1 Y3 Cu12 O24'
_cell_volume   726.76223196
_cell_formula_units_Z   1
loop_
 _symmetry_equiv_pos_site_id
 _symmetry_equiv_pos_as_xyz
  1  'x, y, z'
loop_
 _atom_site_type_symbol
 _atom_site_label
 _atom_site_symmetry_multiplicity
 _atom_site_fract_x
 _atom_site_fract_y
 _atom_site_fract_z
 _atom_site_occupancy
  Ba  Ba0  1  0.42391618  0.80440968  0.65216765  1
  Ba  Ba1  1  0.92370050  0.80449197  0.65259900  1
  Ba  Ba2  1  0.17390287  0.80475793  0.15219427  1
  Ba  Ba3  1  0.67473905  0.80138001  0.15052190  1
  Ba  Ba4  1  0.57629950  0.19550803  0.34740100  1
  Ba  Ba5  1  0.07608382  0.19559032  0.34783235  1
  Ba  Ba6  1  0.32609713  0.19524207  0.84780573  1
  Ba  Ba7  1  0.82526095  0.19861999  0.84947810  1
  Ca  Ca8  1  0.75000000  0.50000000  0.00000000  1
  Y  Y9  1  0.50116547  0.49998421  0.49766906  1
  Y  Y10  1  0.25000000  0.50000000  0.00000000  1
  Y  Y11  1  0.99883453  0.50001579  0.50233094  1
  Cu  Cu12  1  0.75000000  0.00000000  0.50000000  1
  Cu  Cu13  1  0.25000000  0.00000000  0.50000000  1
  Cu  Cu14  1  0.50017349  0.00000000  0.00000000  1
  Cu  Cu15  1  0.99982651  0.00000000  0.00000000  1
  Cu  Cu16  1  0.59093117  0.63652628  0.81908346  1
  Cu  Cu17  1  0.08998537  0.63652628  0.81908346  1
  Cu  Cu18  1  0.34176462  0.63648711  0.31736635  1
  Cu  Cu19  1  0.84086902  0.63648711  0.31736635  1
  Cu  Cu20  1  0.65913098  0.36351289  0.68263365  1
  Cu  Cu21  1  0.15823538  0.36351289  0.68263365  1
  Cu  Cu22  1  0.41001463  0.36347372  0.18091654  1
  Cu  Cu23  1  0.90906883  0.36347372  0.18091654  1
  O  O24  1  0.53754050  0.85122441  0.92509709  1
  O  O25  1  0.03736241  0.85122441  0.92509709  1
  O  O26  1  0.28705519  0.85124400  0.42607816  1
  O  O27  1  0.78686665  0.85124400  0.42607816  1
  O  O28  1  0.71313335  0.14875600  0.57392184  1
  O  O29  1  0.21294481  0.14875600  0.57392184  1
  O  O30  1  0.46263759  0.14877559  0.07490291  1
  O  O31  1  0.96245950  0.14877559  0.07490291  1
  O  O32  1  0.72018837  0.62009041  0.55960938  1
  O  O33  1  0.22020225  0.62009041  0.55960938  1
  O  O34  1  0.46054516  0.62509864  0.06291640  1
  O  O35  1  0.97653844  0.62509864  0.06291640  1
  O  O36  1  0.34648123  0.61890642  0.80703753  1
  O  O37  1  0.84808234  0.62398736  0.80383531  1
  O  O38  1  0.09407740  0.61876390  0.31184519  1
  O  O39  1  0.58994980  0.62380894  0.32010041  1
  O  O40  1  0.77981163  0.37990959  0.44039062  1
  O  O41  1  0.27979775  0.37990959  0.44039062  1
  O  O42  1  0.52346156  0.37490136  0.93708360  1
  O  O43  1  0.03945484  0.37490136  0.93708360  1
  O  O44  1  0.40592260  0.38123610  0.68815481  1
  O  O45  1  0.91005020  0.37619106  0.67989959  1
  O  O46  1  0.15351877  0.38109358  0.19296247  1
  O  O47  1  0.65191766  0.37601264  0.19616469  1
