# generated using pymatgen
data_Ba4CaZr5O15
_symmetry_space_group_name_H-M   'P 1'
_cell_length_a   4.23450380
_cell_length_b   9.46619444
_cell_length_c   9.46619444
_cell_angle_alpha   90.00000000
_cell_angle_beta   90.00000000
_cell_angle_gamma   90.00000000
_symmetry_Int_Tables_number   1
_chemical_formula_structural   Ba4CaZr5O15
_chemical_formula_sum   'Ba4 Ca1 Zr5 O15'
_cell_volume   379.44896142
_cell_formula_units_Z   1
loop_
 _symmetry_equiv_pos_site_id
 _symmetry_equiv_pos_as_xyz
  1  'x, y, z'
loop_
 _atom_site_type_symbol
 _atom_site_label
 _atom_site_symmetry_multiplicity
 _atom_site_fract_x
 _atom_site_fract_y
 _atom_site_fract_z
 _atom_site_occupancy
  Ba  Ba0  1  0.50000000  0.69980602  0.09989684  1
  Ba  Ba1  1  0.50000000  0.10010316  0.29980602  1
  Ba  Ba2  1  0.50000000  0.49989684  0.50019398  1
  Ba  Ba3  1  0.50000000  0.90019398  0.70010316  1
  Ca  Ca4  1  0.50000000  0.30000000  0.90000000  1
  Zr  Zr5  1  0.00000000  0.20044931  0.60130502  1
  Zr  Zr6  1  -0.00000000  0.59869498  0.80044931  1
  Zr  Zr7  1  0.00000000  0.00130502  0.99955069  1
  Zr  Zr8  1  -0.00000000  0.39955069  0.19869498  1
  Zr  Zr9  1  0.00000000  0.80000000  0.40000000  1
  O  O10  1  -0.00000000  0.39911957  0.70175924  1
  O  O11  1  0.00000000  0.80000000  0.90000000  1
  O  O12  1  0.00000000  0.20088043  0.09824076  1
  O  O13  1  -0.00000000  0.59982487  0.29983927  1
  O  O14  1  0.00000000  0.00017513  0.50016073  1
  O  O15  1  -0.00000000  0.30000000  0.40000000  1
  O  O16  1  -0.00000000  0.69983927  0.60017513  1
  O  O17  1  0.00000000  0.10175924  0.80088043  1
  O  O18  1  -0.00000000  0.49824076  0.99911957  1
  O  O19  1  0.00000000  0.90016073  0.19982487  1
  O  O20  1  0.50000000  0.20047959  0.60147116  1
  O  O21  1  0.50000000  0.59852884  0.80047959  1
  O  O22  1  0.50000000  0.00147116  0.99952041  1
  O  O23  1  0.50000000  0.39952041  0.19852884  1
  O  O24  1  0.50000000  0.80000000  0.40000000  1
