# generated using pymatgen
data_Ba2Pr2Co4O11
_symmetry_space_group_name_H-M   'P 1'
_cell_length_a   8.04340659
_cell_length_b   7.96565560
_cell_length_c   8.67104897
_cell_angle_alpha   90.00000000
_cell_angle_beta   62.36688431
_cell_angle_gamma   90.00000000
_symmetry_Int_Tables_number   1
_chemical_formula_structural   Ba2Pr2Co4O11
_chemical_formula_sum   'Ba4 Pr4 Co8 O22'
_cell_volume   492.19292666
_cell_formula_units_Z   2
loop_
 _symmetry_equiv_pos_site_id
 _symmetry_equiv_pos_as_xyz
  1  'x, y, z'
loop_
 _atom_site_type_symbol
 _atom_site_label
 _atom_site_symmetry_multiplicity
 _atom_site_fract_x
 _atom_site_fract_y
 _atom_site_fract_z
 _atom_site_occupancy
  Ba  Ba0  1  0.75000000  0.25037306  -0.00000000  1
  Ba  Ba1  1  0.25000000  0.25037306  -0.00000000  1
  Ba  Ba2  1  0.75000000  0.74962694  0.00000000  1
  Ba  Ba3  1  0.25000000  0.74962694  0.00000000  1
  Pr  Pr4  1  0.99903612  0.24769218  0.50000000  1
  Pr  Pr5  1  0.50096388  0.24769218  0.50000000  1
  Pr  Pr6  1  0.99903612  0.75230782  0.50000000  1
  Pr  Pr7  1  0.50096388  0.75230782  0.50000000  1
  Co  Co8  1  0.12327642  0.00000000  0.75344717  1
  Co  Co9  1  0.62871016  0.00000000  0.74257967  1
  Co  Co10  1  0.37672358  0.00000000  0.24655283  1
  Co  Co11  1  0.87128984  0.00000000  0.25742033  1
  Co  Co12  1  0.62634344  0.50000000  0.74731312  1
  Co  Co13  1  0.12952706  0.50000000  0.74094589  1
  Co  Co14  1  0.87365656  0.50000000  0.25268688  1
  Co  Co15  1  0.37047294  0.50000000  0.25905411  1
  O  O16  1  0.90682752  0.00000000  0.70898699  1
  O  O17  1  0.38418549  0.00000000  0.70898699  1
  O  O18  1  0.11581451  0.00000000  0.29101301  1
  O  O19  1  0.59317248  0.00000000  0.29101301  1
  O  O20  1  0.64488950  0.26393207  0.71022101  1
  O  O21  1  0.14516606  0.23266373  0.70966787  1
  O  O22  1  0.64488950  0.73606793  0.71022101  1
  O  O23  1  0.14516606  0.76733627  0.70966787  1
  O  O24  1  0.85511050  0.73606793  0.28977899  1
  O  O25  1  0.35483394  0.76733627  0.29033213  1
  O  O26  1  0.85511050  0.26393207  0.28977899  1
  O  O27  1  0.35483394  0.23266373  0.29033213  1
  O  O28  1  0.48756271  0.50000000  0.02487458  1
  O  O29  1  0.01243729  0.50000000  0.97512542  1
  O  O30  1  0.50966119  0.00000000  0.98067763  1
  O  O31  1  0.99033881  0.00000000  0.01932237  1
  O  O32  1  0.88039646  0.50000000  0.71072186  1
  O  O33  1  0.40888169  0.50000000  0.71072186  1
  O  O34  1  0.09111831  0.50000000  0.28927814  1
  O  O35  1  0.61960354  0.50000000  0.28927814  1
  O  O36  1  0.75000000  0.00000000  0.50000000  1
  O  O37  1  0.25000000  0.50000000  0.50000000  1
