# generated using pymatgen
data_CdFe4Cu10(SnSe4)5
_symmetry_space_group_name_H-M   'P 1'
_cell_length_a   5.79457549
_cell_length_b   7.01302604
_cell_length_c   25.88704763
_cell_angle_alpha   90.84193715
_cell_angle_beta   90.00000004
_cell_angle_gamma   65.59842086
_symmetry_Int_Tables_number   1
_chemical_formula_structural   CdFe4Cu10(SnSe4)5
_chemical_formula_sum   'Cd1 Fe4 Cu10 Sn5 Se20'
_cell_volume   957.88896968
_cell_formula_units_Z   1
loop_
 _symmetry_equiv_pos_site_id
 _symmetry_equiv_pos_as_xyz
  1  'x, y, z'
loop_
 _atom_site_type_symbol
 _atom_site_label
 _atom_site_symmetry_multiplicity
 _atom_site_fract_x
 _atom_site_fract_y
 _atom_site_fract_z
 _atom_site_occupancy
  Cd  Cd0  1  0.99969199  1.00000000  -0.00000000  1
  Fe  Fe1  1  0.19977757  0.59959549  0.20047233  1
  Fe  Fe2  1  0.39997578  0.19993592  0.39998048  1
  Fe  Fe3  1  0.59991170  0.80006408  0.60001952  1
  Fe  Fe4  1  0.79937306  0.40040451  0.79952767  1
  Cu  Cu5  1  0.29404895  0.40174497  0.05168194  1
  Cu  Cu6  1  0.69993680  0.60019990  0.45004695  1
  Cu  Cu7  1  0.49999204  0.00028737  0.25002713  1
  Cu  Cu8  1  0.10593501  0.79801781  0.84846012  1
  Cu  Cu9  1  0.89991486  0.20016995  0.64999155  1
  Cu  Cu10  1  0.69579393  0.59825503  0.94831806  1
  Cu  Cu11  1  0.10008481  0.79983005  0.35000845  1
  Cu  Cu12  1  0.90395282  0.20198219  0.15153988  1
  Cu  Cu13  1  0.50027940  0.99971263  0.74997287  1
  Cu  Cu14  1  0.30013670  0.39980010  0.54995305  1
  Sn  Sn15  1  0.39847063  0.20414323  0.89756388  1
  Sn  Sn16  1  0.79975769  0.39977715  0.30021806  1
  Sn  Sn17  1  0.60261386  0.79585677  0.10243612  1
  Sn  Sn18  1  0.19953484  0.60022285  0.69978194  1
  Sn  Sn19  1  0.00022705  1.00000000  0.50000000  1
  Se  Se20  1  0.50822382  0.52005342  0.87219633  1
  Se  Se21  1  0.68258321  0.12736433  0.08027439  1
  Se  Se22  1  0.90896207  0.72229094  0.27278108  1
  Se  Se23  1  0.10928194  0.32291720  0.47263238  1
  Se  Se24  1  0.30905702  0.92282427  0.67277116  1
  Se  Se25  1  0.09082014  0.33236041  0.97775979  1
  Se  Se26  1  0.27661408  0.90527669  0.18076637  1
  Se  Se27  1  0.47648972  0.50639094  0.38099017  1
  Se  Se28  1  0.67620308  0.10616907  0.58096716  1
  Se  Se29  1  0.87704370  0.70438566  0.78009550  1
  Se  Se30  1  0.42318055  0.66763959  0.02224021  1
  Se  Se31  1  0.58142936  0.29561434  0.21990450  1
  Se  Se32  1  0.78237214  0.89383093  0.41903284  1
  Se  Se33  1  0.98288065  0.49360906  0.61900983  1
  Se  Se34  1  0.18189076  0.09472331  0.81923363  1
  Se  Se35  1  0.02827723  0.47994658  0.12780367  1
  Se  Se36  1  0.23188129  0.07717573  0.32722884  1
  Se  Se37  1  0.43219915  0.67708280  0.52736762  1
  Se  Se38  1  0.63125301  0.27770906  0.72721892  1
  Se  Se39  1  0.80994754  0.87263567  0.91972561  1
