# generated using pymatgen
data_AgBiPbS3
_symmetry_space_group_name_H-M   'P 1'
_cell_length_a   4.09920483
_cell_length_b   5.79788854
_cell_length_c   7.09252534
_cell_angle_alpha   114.12522538
_cell_angle_beta   106.79693737
_cell_angle_gamma   90.00000000
_symmetry_Int_Tables_number   1
_chemical_formula_structural   AgBiPbS3
_chemical_formula_sum   'Ag1 Bi1 Pb1 S3'
_cell_volume   145.92690222
_cell_formula_units_Z   1
loop_
 _symmetry_equiv_pos_site_id
 _symmetry_equiv_pos_as_xyz
  1  'x, y, z'
loop_
 _atom_site_type_symbol
 _atom_site_label
 _atom_site_symmetry_multiplicity
 _atom_site_fract_x
 _atom_site_fract_y
 _atom_site_fract_z
 _atom_site_occupancy
  Ag  Ag0  1  0.00013965  0.00013965  0.00027930  1
  Bi  Bi1  1  0.33269491  0.33269491  0.66539081  1
  Pb  Pb2  1  0.66812342  0.66812342  0.33624585  1
  S  S3  1  0.34070118  0.84070118  0.68140336  1
  S  S4  1  0.98944999  0.48944999  0.97889999  1
  S  S5  1  0.66889085  0.16889085  0.33778070  1
