# generated using pymatgen
data_Ba3La5Tl2(Cu2O9)2
_symmetry_space_group_name_H-M   'P 1'
_cell_length_a   5.43198363
_cell_length_b   5.42915051
_cell_length_c   16.12877028
_cell_angle_alpha   90.00000000
_cell_angle_beta   80.30553083
_cell_angle_gamma   90.00000000
_symmetry_Int_Tables_number   1
_chemical_formula_structural   Ba3La5Tl2(Cu2O9)2
_chemical_formula_sum   'Ba3 La5 Tl2 Cu4 O18'
_cell_volume   468.86200369
_cell_formula_units_Z   1
loop_
 _symmetry_equiv_pos_site_id
 _symmetry_equiv_pos_as_xyz
  1  'x, y, z'
loop_
 _atom_site_type_symbol
 _atom_site_label
 _atom_site_symmetry_multiplicity
 _atom_site_fract_x
 _atom_site_fract_y
 _atom_site_fract_z
 _atom_site_occupancy
  Ba  Ba0  1  0.08321850  0.50000000  0.83356301  1
  Ba  Ba1  1  0.91640961  0.50000000  0.16718078  1
  Ba  Ba2  1  0.41752452  -0.00000000  0.16495097  1
  La  La3  1  0.20327131  0.50000000  0.59345737  1
  La  La4  1  0.70391132  -0.00000000  0.59217736  1
  La  La5  1  0.29574455  -0.00000000  0.40851090  1
  La  La6  1  0.79571404  0.50000000  0.40857191  1
  La  La7  1  0.58689055  0.00000000  0.82621891  1
  Tl  Tl8  1  0.50185902  0.50000000  0.99628196  1
  Tl  Tl9  1  0.00167141  0.00000000  0.99665718  1
  Cu  Cu10  1  0.14643254  0.00000000  0.70713492  1
  Cu  Cu11  1  0.64649516  0.50000000  0.70700968  1
  Cu  Cu12  1  0.35221130  0.50000000  0.29557739  1
  Cu  Cu13  1  0.85139784  -0.00000000  0.29720432  1
  O  O14  1  0.06873224  0.00000000  0.86253552  1
  O  O15  1  0.56871793  0.50000000  0.86256414  1
  O  O16  1  0.43593845  0.50000000  0.12812310  1
  O  O17  1  0.93557057  0.00000000  0.12885887  1
  O  O18  1  0.22078200  -0.00000000  0.55843600  1
  O  O19  1  0.72102988  0.50000000  0.55794024  1
  O  O20  1  0.27483904  0.50000000  0.45032191  1
  O  O21  1  0.77729887  -0.00000000  0.44540225  1
  O  O22  1  0.88755492  0.24255434  0.70658717  1
  O  O23  1  0.40585791  0.75744566  0.70658717  1
  O  O24  1  0.40585791  0.24255434  0.70658717  1
  O  O25  1  0.88755492  0.75744566  0.70658717  1
  O  O26  1  0.59663055  0.25048437  0.30217793  1
  O  O27  1  0.10119152  0.74951563  0.30217793  1
  O  O28  1  0.10119152  0.25048437  0.30217793  1
  O  O29  1  0.59663055  0.74951563  0.30217793  1
  O  O30  1  0.51138792  0.00000000  0.97722417  1
  O  O31  1  0.00048162  0.50000000  0.99903676  1
