# generated using pymatgen
data_Ba2NaSr2(SbO4)3
_symmetry_space_group_name_H-M   'P 1'
_cell_length_a   8.34110278
_cell_length_b   8.30646522
_cell_length_c   8.30646522
_cell_angle_alpha   90.00000000
_cell_angle_beta   90.00000000
_cell_angle_gamma   90.00000000
_symmetry_Int_Tables_number   1
_chemical_formula_structural   Ba2NaSr2(SbO4)3
_chemical_formula_sum   'Ba4 Na2 Sr4 Sb6 O24'
_cell_volume   575.51410844
_cell_formula_units_Z   2
loop_
 _symmetry_equiv_pos_site_id
 _symmetry_equiv_pos_as_xyz
  1  'x, y, z'
loop_
 _atom_site_type_symbol
 _atom_site_label
 _atom_site_symmetry_multiplicity
 _atom_site_fract_x
 _atom_site_fract_y
 _atom_site_fract_z
 _atom_site_occupancy
  Ba  Ba0  1  0.25000000  0.25061728  0.75061728  1
  Ba  Ba1  1  0.25000000  0.74938272  0.24938272  1
  Ba  Ba2  1  0.75000000  0.24938272  0.25061728  1
  Ba  Ba3  1  0.75000000  0.75061728  0.74938272  1
  Na  Na4  1  0.50000000  0.50000000  0.50000000  1
  Na  Na5  1  -0.00000000  -0.00000000  0.00000000  1
  Sr  Sr6  1  0.25000000  0.74830427  0.75169573  1
  Sr  Sr7  1  0.25000000  0.25169573  0.24830427  1
  Sr  Sr8  1  0.75000000  0.24830427  0.74830427  1
  Sr  Sr9  1  0.75000000  0.75169573  0.25169573  1
  Sb  Sb10  1  -0.00000000  0.50000000  0.50000000  1
  Sb  Sb11  1  0.50000000  0.00000000  0.00000000  1
  Sb  Sb12  1  0.49954293  -0.00000000  0.50000000  1
  Sb  Sb13  1  0.99954293  0.50000000  0.00000000  1
  Sb  Sb14  1  0.50045707  0.50000000  0.00000000  1
  Sb  Sb15  1  0.00045707  0.00000000  0.50000000  1
  O  O16  1  0.22885028  0.50000000  0.50000000  1
  O  O17  1  0.72885028  0.00000000  -0.00000000  1
  O  O18  1  0.77114972  0.50000000  0.50000000  1
  O  O19  1  0.27114972  -0.00000000  -0.00000000  1
  O  O20  1  0.50168976  0.48817833  0.77046031  1
  O  O21  1  0.50168976  0.51182167  0.22953969  1
  O  O22  1  0.00168976  0.01182167  0.27046031  1
  O  O23  1  0.00168976  0.98817833  0.72953969  1
  O  O24  1  0.49831024  0.77046031  0.51182167  1
  O  O25  1  0.49831024  0.22953969  0.48817833  1
  O  O26  1  0.99831024  0.27046031  0.98817833  1
  O  O27  1  0.99831024  0.72953969  0.01182167  1
  O  O28  1  0.50413097  0.01463446  0.74995311  1
  O  O29  1  0.50413097  0.98536554  0.25004689  1
  O  O30  1  0.00413097  0.48536554  0.24995311  1
  O  O31  1  0.00413097  0.51463446  0.75004689  1
  O  O32  1  0.49586903  0.74995311  0.98536554  1
  O  O33  1  0.49586903  0.25004689  0.01463446  1
  O  O34  1  0.99586903  0.24995311  0.51463446  1
  O  O35  1  0.99586903  0.75004689  0.48536554  1
  O  O36  1  0.25000000  0.00000000  0.50000000  1
  O  O37  1  0.75000000  0.50000000  0.00000000  1
  O  O38  1  0.25000000  0.50000000  -0.00000000  1
  O  O39  1  0.75000000  -0.00000000  0.50000000  1
