# generated using pymatgen
data_B4MoIr
_symmetry_space_group_name_H-M   'P 1'
_cell_length_a   2.95985037
_cell_length_b   2.95985037
_cell_length_c   7.48166561
_cell_angle_alpha   90.00000000
_cell_angle_beta   90.00000000
_cell_angle_gamma   120.00072309
_symmetry_Int_Tables_number   1
_chemical_formula_structural   B4MoIr
_chemical_formula_sum   'B4 Mo1 Ir1'
_cell_volume   56.76299133
_cell_formula_units_Z   1
loop_
 _symmetry_equiv_pos_site_id
 _symmetry_equiv_pos_as_xyz
  1  'x, y, z'
loop_
 _atom_site_type_symbol
 _atom_site_label
 _atom_site_symmetry_multiplicity
 _atom_site_fract_x
 _atom_site_fract_y
 _atom_site_fract_z
 _atom_site_occupancy
  B  B0  1  0.66666994  0.33333006  0.04540917  1
  B  B1  1  0.33333859  0.66666141  0.95379610  1
  B  B2  1  0.33333859  0.66666141  0.54620390  1
  B  B3  1  0.66666994  0.33333006  0.45459083  1
  Mo  Mo4  1  0.33332166  0.66667834  0.25000000  1
  Ir  Ir5  1  0.66666128  0.33333872  0.75000000  1
