# generated using pymatgen
data_Cs2BaCl4
_symmetry_space_group_name_H-M   'P 1'
_cell_length_a   8.68669824
_cell_length_b   8.68669824
_cell_length_c   8.68669824
_cell_angle_alpha   69.45127317
_cell_angle_beta   72.66294313
_cell_angle_gamma   110.54872683
_symmetry_Int_Tables_number   1
_chemical_formula_structural   Cs2BaCl4
_chemical_formula_sum   'Cs4 Ba2 Cl8'
_cell_volume   504.07163818
_cell_formula_units_Z   2
loop_
 _symmetry_equiv_pos_site_id
 _symmetry_equiv_pos_as_xyz
  1  'x, y, z'
loop_
 _atom_site_type_symbol
 _atom_site_label
 _atom_site_symmetry_multiplicity
 _atom_site_fract_x
 _atom_site_fract_y
 _atom_site_fract_z
 _atom_site_occupancy
  Cs  Cs0  1  0.85734724  0.60734724  0.75000000  1
  Cs  Cs1  1  0.64265276  0.89265276  0.25000000  1
  Cs  Cs2  1  0.75000000  0.10734724  0.64265276  1
  Cs  Cs3  1  0.25000000  0.39265276  0.85734724  1
  Ba  Ba4  1  0.37500000  0.25000000  0.37500000  1
  Ba  Ba5  1  0.12500000  0.75000000  0.12500000  1
  Cl  Cl6  1  0.84712087  0.37187655  0.15821227  1
  Cl  Cl7  1  0.46991118  0.12812345  0.02475568  1
  Cl  Cl8  1  0.65287913  0.49466686  0.47524432  1
  Cl  Cl9  1  0.03008882  0.00533314  0.34178773  1
  Cl  Cl10  1  0.47524432  0.62812345  0.03008882  1
  Cl  Cl11  1  0.34178773  0.87187655  0.65287913  1
  Cl  Cl12  1  0.15821227  0.50533314  0.46991118  1
  Cl  Cl13  1  0.02475568  0.99466686  0.84712087  1
