# generated using pymatgen
data_BaFe4Sn2O11
_symmetry_space_group_name_H-M   'P 1'
_cell_length_a   6.06210227
_cell_length_b   6.06210227
_cell_length_c   13.76946627
_cell_angle_alpha   90.00000000
_cell_angle_beta   90.00000000
_cell_angle_gamma   119.20124021
_symmetry_Int_Tables_number   1
_chemical_formula_structural   BaFe4Sn2O11
_chemical_formula_sum   'Ba2 Fe8 Sn4 O22'
_cell_volume   441.70655806
_cell_formula_units_Z   2
loop_
 _symmetry_equiv_pos_site_id
 _symmetry_equiv_pos_as_xyz
  1  'x, y, z'
loop_
 _atom_site_type_symbol
 _atom_site_label
 _atom_site_symmetry_multiplicity
 _atom_site_fract_x
 _atom_site_fract_y
 _atom_site_fract_z
 _atom_site_occupancy
  Ba  Ba0  1  0.66386789  0.33613211  0.75000000  1
  Ba  Ba1  1  0.33613211  0.66386789  0.25000000  1
  Fe  Fe2  1  0.50000000  0.50000000  0.50000000  1
  Fe  Fe3  1  0.50000000  0.50000000  -0.00000000  1
  Fe  Fe4  1  0.66408044  0.33591956  0.25000000  1
  Fe  Fe5  1  0.33591956  0.66408044  0.75000000  1
  Fe  Fe6  1  0.00214511  0.99785489  0.64880677  1
  Fe  Fe7  1  0.99785489  0.00214511  0.35119323  1
  Fe  Fe8  1  0.00214511  0.99785489  0.85119323  1
  Fe  Fe9  1  0.99785489  0.00214511  0.14880677  1
  Sn  Sn10  1  -0.00000000  0.50000000  0.50000000  1
  Sn  Sn11  1  0.50000000  0.00000000  0.50000000  1
  Sn  Sn12  1  -0.00000000  0.50000000  -0.00000000  1
  Sn  Sn13  1  0.50000000  0.00000000  -0.00000000  1
  O  O14  1  0.84822619  0.15177381  0.25000000  1
  O  O15  1  0.15177381  0.84822619  0.75000000  1
  O  O16  1  0.17688566  0.34534290  0.41862920  1
  O  O17  1  0.34534290  0.17688566  0.58137080  1
  O  O18  1  0.17688566  0.34534290  0.08137080  1
  O  O19  1  0.34534290  0.17688566  0.91862920  1
  O  O20  1  0.82311434  0.65465710  0.58137080  1
  O  O21  1  0.65465710  0.82311434  0.41862920  1
  O  O22  1  0.82311434  0.65465710  0.91862920  1
  O  O23  1  0.65465710  0.82311434  0.08137080  1
  O  O24  1  0.66480342  0.33519658  0.08419779  1
  O  O25  1  0.33519658  0.66480342  0.91580221  1
  O  O26  1  0.66480342  0.33519658  0.41580221  1
  O  O27  1  0.33519658  0.66480342  0.58419779  1
  O  O28  1  0.82683012  0.17316988  0.91666660  1
  O  O29  1  0.17316988  0.82683012  0.08333340  1
  O  O30  1  0.82683012  0.17316988  0.58333340  1
  O  O31  1  0.17316988  0.82683012  0.41666660  1
  O  O32  1  0.14747893  0.30085852  0.75000000  1
  O  O33  1  0.30085852  0.14747893  0.25000000  1
  O  O34  1  0.85252107  0.69914148  0.25000000  1
  O  O35  1  0.69914148  0.85252107  0.75000000  1
