# generated using pymatgen
data_Ba2Tm2Zn8O13
_symmetry_space_group_name_H-M   'P 1'
_cell_length_a   6.43490525
_cell_length_b   6.43075789
_cell_length_c   10.33807135
_cell_angle_alpha   89.75246419
_cell_angle_beta   90.00000000
_cell_angle_gamma   59.97866367
_symmetry_Int_Tables_number   1
_chemical_formula_structural   Ba2Tm2Zn8O13
_chemical_formula_sum   'Ba2 Tm2 Zn8 O13'
_cell_volume   370.40398710
_cell_formula_units_Z   1
loop_
 _symmetry_equiv_pos_site_id
 _symmetry_equiv_pos_as_xyz
  1  'x, y, z'
loop_
 _atom_site_type_symbol
 _atom_site_label
 _atom_site_symmetry_multiplicity
 _atom_site_fract_x
 _atom_site_fract_y
 _atom_site_fract_z
 _atom_site_occupancy
  Ba  Ba0  1  0.13987404  0.72025192  0.06361573  1
  Ba  Ba1  1  0.84511102  0.30977797  0.55693223  1
  Tm  Tm2  1  0.14351728  0.71296544  0.70368226  1
  Tm  Tm3  1  0.83199775  0.33600451  0.19006073  1
  Zn  Zn4  1  0.65375359  0.18863644  0.87936864  1
  Zn  Zn5  1  0.15760997  0.18863644  0.87936864  1
  Zn  Zn6  1  0.32998555  0.82136894  0.37570218  1
  Zn  Zn7  1  0.84864551  0.82136894  0.37570218  1
  Zn  Zn8  1  0.49915184  0.00169633  0.11832193  1
  Zn  Zn9  1  0.53370536  0.93258928  0.63509693  1
  Zn  Zn10  1  0.67626329  0.64747342  0.87346310  1
  Zn  Zn11  1  0.33835295  0.32329410  0.33960867  1
  O  O12  1  0.65256112  0.19058348  0.06937446  1
  O  O13  1  0.15685539  0.19058348  0.06937446  1
  O  O14  1  0.28640399  0.88593618  0.56616555  1
  O  O15  1  0.82765983  0.88593618  0.56616555  1
  O  O16  1  0.50749535  0.49463034  0.78225575  1
  O  O17  1  0.99787431  0.49463034  0.78225575  1
  O  O18  1  0.53197625  0.46897532  0.34571608  1
  O  O19  1  0.99904844  0.46897532  0.34571608  1
  O  O20  1  0.49976523  0.00046955  0.81851071  1
  O  O21  1  0.51003135  0.97993731  0.31597520  1
  O  O22  1  0.66876839  0.66246322  0.06347774  1
  O  O23  1  0.00640901  0.98718197  0.83775748  1
  O  O24  1  0.01708321  0.96583359  0.28773197  1
