# generated using pymatgen
data_NaTi2HO5
_symmetry_space_group_name_H-M   'P 1'
_cell_length_a   3.05256415
_cell_length_b   3.70558718
_cell_length_c   10.51778266
_cell_angle_alpha   104.94474543
_cell_angle_beta   93.06727641
_cell_angle_gamma   89.91226216
_symmetry_Int_Tables_number   1
_chemical_formula_structural   NaTi2HO5
_chemical_formula_sum   'Na1 Ti2 H1 O5'
_cell_volume   114.77414893
_cell_formula_units_Z   1
loop_
 _symmetry_equiv_pos_site_id
 _symmetry_equiv_pos_as_xyz
  1  'x, y, z'
loop_
 _atom_site_type_symbol
 _atom_site_label
 _atom_site_symmetry_multiplicity
 _atom_site_fract_x
 _atom_site_fract_y
 _atom_site_fract_z
 _atom_site_occupancy
  Na  Na0  1  0.64136670  0.39964736  0.00849781  1
  Ti  Ti1  1  0.31767851  0.66434648  0.37875194  1
  Ti  Ti2  1  0.85071336  0.32687075  0.60084107  1
  H  H3  1  0.22796144  0.79228372  0.88730532  1
  O  O4  1  0.79764005  0.58831397  0.27599687  1
  O  O5  1  0.32714784  0.20984521  0.44099066  1
  O  O6  1  0.11936496  0.88096449  0.97571859  1
  O  O7  1  0.37100396  0.40112743  0.70288154  1
  O  O8  1  0.84212319  0.78160060  0.53901622  1
