# generated using pymatgen
data_Ba2SrTa6(Bi2O9)3
_symmetry_space_group_name_H-M   'P 1'
_cell_length_a   3.88880119
_cell_length_b   11.86929457
_cell_length_c   14.26906990
_cell_angle_alpha   114.57662961
_cell_angle_beta   82.16812093
_cell_angle_gamma   90.00000000
_symmetry_Int_Tables_number   1
_chemical_formula_structural   Ba2SrTa6(Bi2O9)3
_chemical_formula_sum   'Ba2 Sr1 Ta6 Bi6 O27'
_cell_volume   592.19261125
_cell_formula_units_Z   1
loop_
 _symmetry_equiv_pos_site_id
 _symmetry_equiv_pos_as_xyz
  1  'x, y, z'
loop_
 _atom_site_type_symbol
 _atom_site_label
 _atom_site_symmetry_multiplicity
 _atom_site_fract_x
 _atom_site_fract_y
 _atom_site_fract_z
 _atom_site_occupancy
  Ba  Ba0  1  0.00000000  0.33255955  0.00000000  1
  Ba  Ba1  1  0.00000000  0.66744045  0.00000000  1
  Sr  Sr2  1  0.00000000  0.00000000  0.00000000  1
  Ta  Ta3  1  0.41199967  0.25305991  0.17600065  1
  Ta  Ta4  1  0.41072199  0.58927801  0.17855601  1
  Ta  Ta5  1  0.41199967  0.92294074  0.17600065  1
  Ta  Ta6  1  0.58927801  0.41072199  0.82144399  1
  Ta  Ta7  1  0.58800033  0.74694009  0.82399935  1
  Ta  Ta8  1  0.58800033  0.07705926  0.82399935  1
  Bi  Bi9  1  0.20153791  0.46507545  0.59692417  1
  Bi  Bi10  1  0.20097817  0.79902183  0.59804366  1
  Bi  Bi11  1  0.20153791  0.13184872  0.59692417  1
  Bi  Bi12  1  0.79902183  0.20097817  0.40195634  1
  Bi  Bi13  1  0.79846209  0.53492455  0.40307583  1
  Bi  Bi14  1  0.79846209  0.86815128  0.40307583  1
  O  O15  1  0.92618094  0.23466566  0.14763812  1
  O  O16  1  0.92444444  0.57555556  0.15111112  1
  O  O17  1  0.92618094  0.91297246  0.14763812  1
  O  O18  1  0.41807599  0.08192401  0.16384802  1
  O  O19  1  0.41693887  0.41575373  0.16612227  1
  O  O20  1  0.41693887  0.75036854  0.16612227  1
  O  O21  1  0.07555556  0.42444444  0.84888888  1
  O  O22  1  0.07381906  0.76533434  0.85236188  1
  O  O23  1  0.07381906  0.08702754  0.85236188  1
  O  O24  1  0.58306113  0.58424627  0.83387773  1
  O  O25  1  0.58192401  0.91807599  0.83615198  1
  O  O26  1  0.58306113  0.24963146  0.83387773  1
  O  O27  1  0.75017253  0.41675114  0.49965494  1
  O  O28  1  0.75030049  0.74969951  0.49939903  1
  O  O29  1  0.75017253  0.08290380  0.49965494  1
  O  O30  1  0.24969951  0.25030049  0.50060097  1
  O  O31  1  0.24982747  0.58324886  0.50034506  1
  O  O32  1  0.24982747  0.91709620  0.50034506  1
  O  O33  1  0.33786430  0.32677166  0.32427139  1
  O  O34  1  0.33699858  0.66300142  0.32600284  1
  O  O35  1  0.33786430  0.99749974  0.32427139  1
  O  O36  1  0.66300142  0.33699858  0.67399716  1
  O  O37  1  0.66213570  0.67322834  0.67572861  1
  O  O38  1  0.66213570  0.00250026  0.67572861  1
  O  O39  1  0.50000000  0.16199637  0.00000000  1
  O  O40  1  0.50000000  0.50000000  0.00000000  1
  O  O41  1  0.50000000  0.83800363  0.00000000  1
