# generated using pymatgen
data_NaNb3O8
_symmetry_space_group_name_H-M   'P 1'
_cell_length_a   7.18135808
_cell_length_b   7.35116854
_cell_length_c   7.35116854
_cell_angle_alpha   61.18448294
_cell_angle_beta   60.76123780
_cell_angle_gamma   60.76123778
_symmetry_Int_Tables_number   1
_chemical_formula_structural   NaNb3O8
_chemical_formula_sum   'Na2 Nb6 O16'
_cell_volume   279.98385999
_cell_formula_units_Z   2
loop_
 _symmetry_equiv_pos_site_id
 _symmetry_equiv_pos_as_xyz
  1  'x, y, z'
loop_
 _atom_site_type_symbol
 _atom_site_label
 _atom_site_symmetry_multiplicity
 _atom_site_fract_x
 _atom_site_fract_y
 _atom_site_fract_z
 _atom_site_occupancy
  O  O0  1  0.56142367  0.44040783  0.83694472  1
  O  O1  1  0.83877622  0.55959217  0.16305528  1
  O  O2  1  0.93857633  0.16305528  0.55959217  1
  O  O3  1  0.66122378  0.83694472  0.44040783  1
  O  O4  1  0.43857633  0.55959217  0.16305528  1
  O  O5  1  0.16122378  0.44040783  0.83694472  1
  O  O6  1  0.06142367  0.83694472  0.44040783  1
  O  O7  1  0.33877622  0.16305528  0.55959217  1
  O  O8  1  0.83537332  0.18267396  0.14657941  1
  O  O9  1  0.16462668  0.81732604  0.85342059  1
  O  O10  1  0.66462668  0.85342059  0.81732604  1
  O  O11  1  0.33537332  0.14657941  0.18267396  1
  O  O12  1  0.57822081  0.31742164  0.52613673  1
  O  O13  1  0.42177919  0.68257836  0.47386327  1
  O  O14  1  0.92177919  0.47386327  0.68257836  1
  O  O15  1  0.07822081  0.52613673  0.31742164  1
  Na  Na16  1  0.25000000  0.00000000  0.00000000  1
  Na  Na17  1  0.75000000  0.00000000  0.00000000  1
  Nb  Nb18  1  0.23652528  0.51834217  0.00860727  1
  Nb  Nb19  1  0.76347472  0.48165783  0.99139273  1
  Nb  Nb20  1  0.26347472  0.99139273  0.48165783  1
  Nb  Nb21  1  0.73652528  0.00860727  0.51834217  1
  Nb  Nb22  1  0.25000000  0.50000000  0.50000000  1
  Nb  Nb23  1  0.75000000  0.50000000  0.50000000  1
