# generated using pymatgen
data_Ca(BO2)2
_symmetry_space_group_name_H-M   'P 1'
_cell_length_a   9.08843869
_cell_length_b   9.08843869
_cell_length_c   9.08843869
_cell_angle_alpha   90.00000000
_cell_angle_beta   90.00000000
_cell_angle_gamma   90.00000000
_symmetry_Int_Tables_number   1
_chemical_formula_structural   Ca(BO2)2
_chemical_formula_sum   'Ca12 B24 O48'
_cell_volume   750.70247124
_cell_formula_units_Z   12
loop_
 _symmetry_equiv_pos_site_id
 _symmetry_equiv_pos_as_xyz
  1  'x, y, z'
loop_
 _atom_site_type_symbol
 _atom_site_label
 _atom_site_symmetry_multiplicity
 _atom_site_fract_x
 _atom_site_fract_y
 _atom_site_fract_z
 _atom_site_occupancy
  B  B0  1  0.81002143  0.84518088  0.38114065  1
  B  B1  1  0.61885935  0.18997857  0.15481912  1
  B  B2  1  0.11885935  0.31002143  0.84518088  1
  B  B3  1  0.38114065  0.68997857  0.34518088  1
  B  B4  1  0.31002143  0.84518088  0.11885935  1
  B  B5  1  0.34518088  0.38114065  0.68997857  1
  B  B6  1  0.84518088  0.11885935  0.31002143  1
  B  B7  1  0.18997857  0.15481912  0.61885935  1
  B  B8  1  0.15481912  0.61885935  0.18997857  1
  B  B9  1  0.68997857  0.34518088  0.38114065  1
  B  B10  1  0.81002143  0.65481912  0.88114065  1
  B  B11  1  0.65481912  0.88114065  0.81002143  1
  B  B12  1  0.11885935  0.18997857  0.34518088  1
  B  B13  1  0.34518088  0.11885935  0.18997857  1
  B  B14  1  0.18997857  0.34518088  0.11885935  1
  B  B15  1  0.31002143  0.65481912  0.61885935  1
  B  B16  1  0.84518088  0.38114065  0.81002143  1
  B  B17  1  0.88114065  0.81002143  0.65481912  1
  B  B18  1  0.15481912  0.88114065  0.68997857  1
  B  B19  1  0.65481912  0.61885935  0.31002143  1
  B  B20  1  0.68997857  0.15481912  0.88114065  1
  B  B21  1  0.61885935  0.31002143  0.65481912  1
  B  B22  1  0.88114065  0.68997857  0.15481912  1
  B  B23  1  0.38114065  0.81002143  0.84518088  1
  O  O24  1  0.59066357  0.28230866  0.49438543  1
  O  O25  1  0.90933643  0.71769134  0.99438543  1
  O  O26  1  0.99438543  0.90933643  0.71769134  1
  O  O27  1  0.71769134  0.99438543  0.90933643  1
  O  O28  1  0.78230866  0.00561457  0.40933643  1
  O  O29  1  0.49438543  0.59066357  0.28230866  1
  O  O30  1  0.28230866  0.49438543  0.59066357  1
  O  O31  1  0.50561457  0.09066357  0.21769134  1
  O  O32  1  0.00561457  0.40933643  0.78230866  1
  O  O33  1  0.21769134  0.50561457  0.09066357  1
  O  O34  1  0.40933643  0.78230866  0.00561457  1
  O  O35  1  0.09066357  0.21769134  0.50561457  1
  O  O36  1  0.33248627  0.26797958  0.12049139  1
  O  O37  1  0.12049139  0.33248627  0.26797958  1
  O  O38  1  0.26797958  0.12049139  0.33248627  1
  O  O39  1  0.23202042  0.87950861  0.83248627  1
  O  O40  1  0.62049139  0.16751373  0.73202042  1
  O  O41  1  0.73202042  0.62049139  0.16751373  1
  O  O42  1  0.37950861  0.66751373  0.76797958  1
  O  O43  1  0.87950861  0.83248627  0.23202042  1
  O  O44  1  0.76797958  0.37950861  0.66751373  1
  O  O45  1  0.83248627  0.23202042  0.87950861  1
  O  O46  1  0.66751373  0.76797958  0.37950861  1
  O  O47  1  0.16751373  0.73202042  0.62049139  1
  O  O48  1  0.66751373  0.73202042  0.87950861  1
  O  O49  1  0.87950861  0.66751373  0.73202042  1
  O  O50  1  0.73202042  0.87950861  0.66751373  1
  O  O51  1  0.76797958  0.12049139  0.16751373  1
  O  O52  1  0.37950861  0.83248627  0.26797958  1
  O  O53  1  0.26797958  0.37950861  0.83248627  1
  O  O54  1  0.62049139  0.33248627  0.23202042  1
  O  O55  1  0.12049139  0.16751373  0.76797958  1
  O  O56  1  0.23202042  0.62049139  0.33248627  1
  O  O57  1  0.16751373  0.76797958  0.12049139  1
  O  O58  1  0.33248627  0.23202042  0.62049139  1
  O  O59  1  0.83248627  0.26797958  0.37950861  1
  O  O60  1  0.09066357  0.28230866  0.00561457  1
  O  O61  1  0.00561457  0.09066357  0.28230866  1
  O  O62  1  0.28230866  0.00561457  0.09066357  1
  O  O63  1  0.40933643  0.71769134  0.50561457  1
  O  O64  1  0.50561457  0.40933643  0.71769134  1
  O  O65  1  0.71769134  0.50561457  0.40933643  1
  O  O66  1  0.49438543  0.90933643  0.78230866  1
  O  O67  1  0.99438543  0.59066357  0.21769134  1
  O  O68  1  0.78230866  0.49438543  0.90933643  1
  O  O69  1  0.59066357  0.21769134  0.99438543  1
  O  O70  1  0.90933643  0.78230866  0.49438543  1
  O  O71  1  0.21769134  0.99438543  0.59066357  1
  Ca  Ca72  1  0.37299360  0.12700640  0.87299360  1
  Ca  Ca73  1  0.12700640  0.87299360  0.37299360  1
  Ca  Ca74  1  0.87299360  0.37299360  0.12700640  1
  Ca  Ca75  1  0.62700640  0.62700640  0.62700640  1
  Ca  Ca76  1  0.62700640  0.87299360  0.12700640  1
  Ca  Ca77  1  0.87299360  0.12700640  0.62700640  1
  Ca  Ca78  1  0.12700640  0.62700640  0.87299360  1
  Ca  Ca79  1  0.37299360  0.37299360  0.37299360  1
  Ca  Ca80  1  0.00000000  0.50000000  0.50000000  1
  Ca  Ca81  1  0.50000000  0.50000000  0.00000000  1
  Ca  Ca82  1  0.50000000  0.00000000  0.50000000  1
  Ca  Ca83  1  0.00000000  0.00000000  0.00000000  1
