# generated using pymatgen
data_BiMo30(PbS10)4
_symmetry_space_group_name_H-M   'P 1'
_cell_length_a   9.40616857
_cell_length_b   14.64851474
_cell_length_c   11.35962375
_cell_angle_alpha   105.22769473
_cell_angle_beta   90.63683333
_cell_angle_gamma   107.94370325
_symmetry_Int_Tables_number   1
_chemical_formula_structural   BiMo30(PbS10)4
_chemical_formula_sum   'Bi1 Mo30 Pb4 S40'
_cell_volume   1429.54843656
_cell_formula_units_Z   1
loop_
 _symmetry_equiv_pos_site_id
 _symmetry_equiv_pos_as_xyz
  1  'x, y, z'
loop_
 _atom_site_type_symbol
 _atom_site_label
 _atom_site_symmetry_multiplicity
 _atom_site_fract_x
 _atom_site_fract_y
 _atom_site_fract_z
 _atom_site_occupancy
  Bi  Bi0  1  0.40000000  0.80000000  0.60000000  1
  Mo  Mo1  1  0.65192620  0.28099449  0.78700272  1
  Mo  Mo2  1  0.25200550  0.48080607  0.18720494  1
  Mo  Mo3  1  0.85226933  0.68189467  0.58614173  1
  Mo  Mo4  1  0.45188816  0.88056009  0.98727216  1
  Mo  Mo5  1  0.05172556  0.08127594  0.38701331  1
  Mo  Mo6  1  0.74853489  0.13627361  0.83537795  1
  Mo  Mo7  1  0.34899792  0.33684698  0.23625026  1
  Mo  Mo8  1  0.95063346  0.53721329  0.63583452  1
  Mo  Mo9  1  0.54829647  0.73711972  0.03671176  1
  Mo  Mo10  1  0.14747444  0.93754076  0.43677836  1
  Mo  Mo11  1  0.75641740  0.30098697  0.01795687  1
  Mo  Mo12  1  0.35515990  0.50038719  0.41679332  1
  Mo  Mo13  1  0.95679269  0.70119773  0.81765415  1
  Mo  Mo14  1  0.55611813  0.90077567  0.21883537  1
  Mo  Mo15  1  0.15545964  0.10044460  0.61728480  1
  Mo  Mo16  1  0.54799450  0.11919393  0.01279506  1
  Mo  Mo17  1  0.14807380  0.31900551  0.41299728  1
  Mo  Mo18  1  0.74827444  0.51872406  0.81298669  1
  Mo  Mo19  1  0.34811184  0.71943991  0.21272784  1
  Mo  Mo20  1  0.94773067  0.91810533  0.61385827  1
  Mo  Mo21  1  0.45100208  0.26315302  0.96374974  1
  Mo  Mo22  1  0.05146511  0.46372639  0.36462205  1
  Mo  Mo23  1  0.65252556  0.66245924  0.76322164  1
  Mo  Mo24  1  0.25170353  0.86288028  0.16328824  1
  Mo  Mo25  1  0.84936654  0.06278671  0.56416548  1
  Mo  Mo26  1  0.44484010  0.09961281  0.78320668  1
  Mo  Mo27  1  0.04358260  0.29901303  0.18204313  1
  Mo  Mo28  1  0.64454036  0.49955540  0.58271520  1
  Mo  Mo29  1  0.24388187  0.69922433  0.98116463  1
  Mo  Mo30  1  0.84320731  0.89880227  0.38234585  1
  Pb  Pb31  1  0.99975947  -0.00007691  0.00023194  1
  Pb  Pb32  1  0.59958056  0.19991315  0.39972772  1
  Pb  Pb33  1  0.20041944  0.40008685  0.80027228  1
  Pb  Pb34  1  0.80024053  0.60007691  0.19976806  1
  S  S35  1  0.10941455  0.70331377  0.64826458  1
  S  S36  1  0.30699986  0.10241982  0.44859061  1
  S  S37  1  0.90747642  0.30217774  0.84907464  1
  S  S38  1  0.50759030  0.50243297  0.24926805  1
  S  S39  1  0.70711392  0.90299499  0.04960776  1
  S  S40  1  0.49300014  0.49758018  0.75140939  1
  S  S41  1  0.69058545  0.89668623  0.55173542  1
  S  S42  1  0.29240970  0.09756703  0.95073195  1
  S  S43  1  0.89252358  0.29782226  0.35092536  1
  S  S44  1  0.09288608  0.69700501  0.15039224  1
  S  S45  1  0.02209720  0.55483806  0.85045829  1
  S  S46  1  0.22372568  0.95322702  0.64950394  1
  S  S47  1  0.82222244  0.15503840  0.05015517  1
  S  S48  1  0.42303068  0.35505996  0.45071543  1
  S  S49  1  0.62286412  0.75482858  0.25004869  1
  S  S50  1  0.84877283  0.82066644  0.76759153  1
  S  S51  1  0.04819061  0.22031036  0.56731034  1
  S  S52  1  0.64840885  0.42081654  0.96732173  1
  S  S53  1  0.24950633  0.62243848  0.36970579  1
  S  S54  1  0.44837450  0.02080650  0.16772804  1
  S  S55  1  0.82869827  0.52370786  0.43191476  1
  S  S56  1  0.02782330  0.92317872  0.23106353  1
  S  S57  1  0.62859370  0.12368970  0.63142146  1
  S  S58  1  0.22826509  0.32323483  0.03134492  1
  S  S59  1  0.42801543  0.72414606  0.82870055  1
  S  S60  1  0.57627432  0.64677298  0.55049606  1
  S  S61  1  0.77790280  0.04516194  0.34954171  1
  S  S62  1  0.37696932  0.24494004  0.74928457  1
  S  S63  1  0.97777756  0.44496160  0.14984483  1
  S  S64  1  0.17713588  0.84517142  0.94995131  1
  S  S65  1  0.75180939  0.37968964  0.63268966  1
  S  S66  1  0.95122717  0.77933356  0.43240847  1
  S  S67  1  0.55049367  0.97756152  0.83029421  1
  S  S68  1  0.15159115  0.17918346  0.23267827  1
  S  S69  1  0.35162550  0.57919350  0.03227196  1
  S  S70  1  0.77217670  0.67682128  0.96893647  1
  S  S71  1  0.97130173  0.07629214  0.76808524  1
  S  S72  1  0.57173491  0.27676517  0.16865508  1
  S  S73  1  0.17140630  0.47631030  0.56857854  1
  S  S74  1  0.37198457  0.87585394  0.37129945  1
