# generated using pymatgen
data_Cu2Te3O8
_symmetry_space_group_name_H-M   'P 1'
_cell_length_a   5.37902917
_cell_length_b   6.55085634
_cell_length_c   12.47033587
_cell_angle_alpha   99.21196863
_cell_angle_beta   90.00000000
_cell_angle_gamma   114.23997004
_symmetry_Int_Tables_number   1
_chemical_formula_structural   Cu2Te3O8
_chemical_formula_sum   'Cu4 Te6 O16'
_cell_volume   394.45484789
_cell_formula_units_Z   2
loop_
 _symmetry_equiv_pos_site_id
 _symmetry_equiv_pos_as_xyz
  1  'x, y, z'
loop_
 _atom_site_type_symbol
 _atom_site_label
 _atom_site_symmetry_multiplicity
 _atom_site_fract_x
 _atom_site_fract_y
 _atom_site_fract_z
 _atom_site_occupancy
  O  O0  1  0.68134804  0.44470685  0.95192909  1
  O  O1  1  0.23664119  0.55529315  0.54807091  1
  O  O2  1  0.31865196  0.55529315  0.04807091  1
  O  O3  1  0.76335881  0.44470685  0.45192909  1
  O  O4  1  0.40397348  0.62241232  0.81885059  1
  O  O5  1  0.78156116  0.37758768  0.68114941  1
  O  O6  1  0.59602652  0.37758768  0.18114941  1
  O  O7  1  0.21843884  0.62241232  0.31885059  1
  O  O8  1  0.97869673  0.76229294  0.85705710  1
  O  O9  1  0.21640378  0.23770706  0.64294290  1
  O  O10  1  0.00695583  0.82766003  0.14782307  1
  O  O11  1  0.17929580  0.17233997  0.35217693  1
  O  O12  1  0.99304417  0.17233997  0.85217693  1
  O  O13  1  0.82070420  0.82766003  0.64782307  1
  O  O14  1  0.78359622  0.76229294  0.35705710  1
  O  O15  1  0.02130327  0.23770706  0.14294290  1
  Cu  Cu16  1  -0.00127559  0.53354607  0.15827156  1
  Cu  Cu17  1  0.46517833  0.46645393  0.34172844  1
  Cu  Cu18  1  1.00127559  0.46645393  0.84172844  1
  Cu  Cu19  1  0.53482167  0.53354607  0.65827156  1
  Te  Te20  1  0.12914675  0.00000000  0.75000000  1
  Te  Te21  1  0.87085325  0.00000000  0.25000000  1
  Te  Te22  1  0.07840784  0.72965257  0.44537130  1
  Te  Te23  1  0.34875527  0.27034743  0.05462870  1
  Te  Te24  1  0.92159216  0.27034743  0.55462870  1
  Te  Te25  1  0.65124473  0.72965257  0.94537130  1
