# generated using pymatgen
data_Te2MoWS2
_symmetry_space_group_name_H-M   'P 1'
_cell_length_a   3.35995722
_cell_length_b   3.35996181
_cell_length_c   38.44101812
_cell_angle_alpha   90.00016723
_cell_angle_beta   90.00000000
_cell_angle_gamma   119.99996259
_symmetry_Int_Tables_number   1
_chemical_formula_structural   Te2MoWS2
_chemical_formula_sum   'Te4 Mo2 W2 S4'
_cell_volume   375.83200938
_cell_formula_units_Z   2
loop_
 _symmetry_equiv_pos_site_id
 _symmetry_equiv_pos_as_xyz
  1  'x, y, z'
loop_
 _atom_site_type_symbol
 _atom_site_label
 _atom_site_symmetry_multiplicity
 _atom_site_fract_x
 _atom_site_fract_y
 _atom_site_fract_z
 _atom_site_occupancy
  Te  Te0  1  0.33335264  0.66670629  0.70657579  1
  Te  Te1  1  0.66664366  0.33328633  0.42021876  1
  Te  Te2  1  0.66664684  0.33329267  0.51894910  1
  Te  Te3  1  0.33335664  0.66671427  0.60862626  1
  Mo  Mo4  1  0.33331165  0.66662329  0.09392818  1
  Mo  Mo5  1  0.66668883  0.33337765  0.65762897  1
  W  W6  1  0.33330757  0.66661515  0.46960515  1
  W  W7  1  0.66668999  0.33337998  0.28180258  1
  S  S8  1  0.33335427  0.66670955  0.32124439  1
  S  S9  1  0.66664611  0.33329122  0.05450000  1
  S  S10  1  0.66664680  0.33329260  0.13334472  1
  S  S11  1  0.33335501  0.66671101  0.24232410  1
