# generated using pymatgen
data_Sr3Sc2Cu2S2O5
_symmetry_space_group_name_H-M   'P 1'
_cell_length_a   4.09630215
_cell_length_b   4.09630215
_cell_length_c   13.39607479
_cell_angle_alpha   98.79455271
_cell_angle_beta   98.79455271
_cell_angle_gamma   89.99999997
_symmetry_Int_Tables_number   1
_chemical_formula_structural   Sr3Sc2Cu2S2O5
_chemical_formula_sum   'Sr3 Sc2 Cu2 S2 O5'
_cell_volume   219.46461899
_cell_formula_units_Z   1
loop_
 _symmetry_equiv_pos_site_id
 _symmetry_equiv_pos_as_xyz
  1  'x, y, z'
loop_
 _atom_site_type_symbol
 _atom_site_label
 _atom_site_symmetry_multiplicity
 _atom_site_fract_x
 _atom_site_fract_y
 _atom_site_fract_z
 _atom_site_occupancy
  O  O0  1  0.00000000  0.00000000  0.00000000  1
  O  O1  1  0.41328135  0.91328135  0.82656270  1
  O  O2  1  0.91328135  0.41328135  0.82656270  1
  O  O3  1  0.08671865  0.58671865  0.17343730  1
  O  O4  1  0.58671865  0.08671865  0.17343730  1
  S  S5  1  0.80081909  0.80081909  0.60163817  1
  S  S6  1  0.19918091  0.19918091  0.39836183  1
  Sc  Sc7  1  0.92370914  0.92370914  0.84741829  1
  Sc  Sc8  1  0.07629086  0.07629086  0.15258171  1
  Cu  Cu9  1  0.25000000  0.75000000  0.50000000  1
  Cu  Cu10  1  0.75000000  0.25000000  0.50000000  1
  Sr  Sr11  1  0.50000000  0.50000000  0.00000000  1
  Sr  Sr12  1  0.64488103  0.64488103  0.28976207  1
  Sr  Sr13  1  0.35511897  0.35511897  0.71023793  1
