# generated using pymatgen
data_VP2O7
_symmetry_space_group_name_H-M   'P 1'
_cell_length_a   4.32741229
_cell_length_b   8.08287046
_cell_length_c   8.32481847
_cell_angle_alpha   74.05416044
_cell_angle_beta   74.93525970
_cell_angle_gamma   74.47312665
_symmetry_Int_Tables_number   1
_chemical_formula_structural   VP2O7
_chemical_formula_sum   'V2 P4 O14'
_cell_volume   264.24781416
_cell_formula_units_Z   2
loop_
 _symmetry_equiv_pos_site_id
 _symmetry_equiv_pos_as_xyz
  1  'x, y, z'
loop_
 _atom_site_type_symbol
 _atom_site_label
 _atom_site_symmetry_multiplicity
 _atom_site_fract_x
 _atom_site_fract_y
 _atom_site_fract_z
 _atom_site_occupancy
  O  O0  1  0.88811689  0.24999997  0.75000014  1
  O  O1  1  0.11188189  0.74999982  0.24999959  1
  O  O2  1  0.49063457  0.22816804  0.51105674  1
  O  O3  1  0.22985996  0.27183189  0.98894316  1
  O  O4  1  0.50936659  0.77183175  0.48894266  1
  O  O5  1  0.77014069  0.72816921  0.01105596  1
  O  O6  1  0.44434261  0.99137842  0.82291240  1
  O  O7  1  0.25863273  0.50862125  0.67708852  1
  O  O8  1  0.55565617  0.00862136  0.17708854  1
  O  O9  1  0.74136605  0.49137853  0.32291121  1
  O  O10  1  0.01444545  0.17480477  0.30644259  1
  O  O11  1  0.98555571  0.82519501  0.69355802  1
  O  O12  1  0.49569200  0.32519512  0.19355696  1
  O  O13  1  0.50430916  0.67480466  0.80644244  1
  P  P14  1  0.67535087  0.31405436  0.34381997  1
  P  P15  1  0.33322585  0.18594554  0.15618091  1
  P  P16  1  0.32464791  0.68594543  0.65618097  1
  P  P17  1  0.66677480  0.81405557  0.84381941  1
  V  V18  1  0.26516408  0.24999997  0.75000026  1
  V  V19  1  0.73483709  0.74999982  0.25000035  1
