# generated using pymatgen
data_SnP2O7
_symmetry_space_group_name_H-M   'P 1'
_cell_length_a   8.35033241
_cell_length_b   8.35033241
_cell_length_c   8.35033241
_cell_angle_alpha   90.00000000
_cell_angle_beta   90.00000000
_cell_angle_gamma   90.00000000
_symmetry_Int_Tables_number   1
_chemical_formula_structural   SnP2O7
_chemical_formula_sum   'Sn4 P8 O28'
_cell_volume   582.25240714
_cell_formula_units_Z   4
loop_
 _symmetry_equiv_pos_site_id
 _symmetry_equiv_pos_as_xyz
  1  'x, y, z'
loop_
 _atom_site_type_symbol
 _atom_site_label
 _atom_site_symmetry_multiplicity
 _atom_site_fract_x
 _atom_site_fract_y
 _atom_site_fract_z
 _atom_site_occupancy
  O  O0  1  0.50000000  0.00000000  0.00000000  1
  O  O1  1  0.00000000  0.00000000  0.50000000  1
  O  O2  1  0.00000000  0.50000000  0.00000000  1
  O  O3  1  0.50000000  0.50000000  0.50000000  1
  O  O4  1  0.94812604  0.21866298  0.09399194  1
  O  O5  1  0.44812604  0.28133702  0.90600806  1
  O  O6  1  0.05187396  0.71866298  0.40600806  1
  O  O7  1  0.28133702  0.90600806  0.44812604  1
  O  O8  1  0.40600806  0.05187396  0.71866298  1
  O  O9  1  0.90600806  0.44812604  0.28133702  1
  O  O10  1  0.21866298  0.09399194  0.94812604  1
  O  O11  1  0.09399194  0.94812604  0.21866298  1
  O  O12  1  0.44812604  0.21866298  0.40600806  1
  O  O13  1  0.40600806  0.44812604  0.21866298  1
  O  O14  1  0.21866298  0.40600806  0.44812604  1
  O  O15  1  0.28133702  0.59399194  0.94812604  1
  O  O16  1  0.90600806  0.05187396  0.78133702  1
  O  O17  1  0.78133702  0.90600806  0.05187396  1
  O  O18  1  0.09399194  0.55187396  0.71866298  1
  O  O19  1  0.59399194  0.94812604  0.28133702  1
  O  O20  1  0.71866298  0.09399194  0.55187396  1
  O  O21  1  0.94812604  0.28133702  0.59399194  1
  O  O22  1  0.55187396  0.71866298  0.09399194  1
  O  O23  1  0.05187396  0.78133702  0.90600806  1
  O  O24  1  0.55187396  0.78133702  0.59399194  1
  O  O25  1  0.59399194  0.55187396  0.78133702  1
  O  O26  1  0.78133702  0.59399194  0.55187396  1
  O  O27  1  0.71866298  0.40600806  0.05187396  1
  P  P28  1  0.38996639  0.11003361  0.88996639  1
  P  P29  1  0.11003361  0.88996639  0.38996639  1
  P  P30  1  0.88996639  0.38996639  0.11003361  1
  P  P31  1  0.61003361  0.61003361  0.61003361  1
  P  P32  1  0.61003361  0.88996639  0.11003361  1
  P  P33  1  0.88996639  0.11003361  0.61003361  1
  P  P34  1  0.11003361  0.61003361  0.88996639  1
  P  P35  1  0.38996639  0.38996639  0.38996639  1
  Sn  Sn36  1  0.00000000  0.50000000  0.50000000  1
  Sn  Sn37  1  0.50000000  0.50000000  0.00000000  1
  Sn  Sn38  1  0.50000000  0.00000000  0.50000000  1
  Sn  Sn39  1  0.00000000  0.00000000  0.00000000  1
