# generated using pymatgen
data_Tm4Si2S3O7
_symmetry_space_group_name_H-M   'P 1'
_cell_length_a   10.63188949
_cell_length_b   10.63188949
_cell_length_c   10.63188949
_cell_angle_alpha   101.26762415
_cell_angle_beta   113.72229183
_cell_angle_gamma   113.72229183
_symmetry_Int_Tables_number   1
_chemical_formula_structural   Tm4Si2S3O7
_chemical_formula_sum   'Tm16 Si8 S12 O28'
_cell_volume   911.21084880
_cell_formula_units_Z   4
loop_
 _symmetry_equiv_pos_site_id
 _symmetry_equiv_pos_as_xyz
  1  'x, y, z'
loop_
 _atom_site_type_symbol
 _atom_site_label
 _atom_site_symmetry_multiplicity
 _atom_site_fract_x
 _atom_site_fract_y
 _atom_site_fract_z
 _atom_site_occupancy
  O  O0  1  0.25000000  0.84983296  0.59983296  1
  O  O1  1  0.75000000  0.59983296  0.84983296  1
  O  O2  1  0.75000000  0.15016704  0.40016704  1
  O  O3  1  0.25000000  0.40016704  0.15016704  1
  O  O4  1  0.01558376  0.82626987  0.34185363  1
  O  O5  1  0.48441624  0.82626987  0.81068611  1
  O  O6  1  0.48441624  0.65814637  0.17373013  1
  O  O7  1  0.98441624  0.81068611  0.82626987  1
  O  O8  1  0.51558376  0.34185363  0.82626987  1
  O  O9  1  0.51558376  0.17373013  0.18931389  1
  O  O10  1  0.98441624  0.17373013  0.65814637  1
  O  O11  1  0.01558376  0.18931389  0.17373013  1
  O  O12  1  0.76644926  0.91576527  0.43226167  1
  O  O13  1  0.73355074  0.16581241  0.14931600  1
  O  O14  1  0.73355074  0.56773833  0.08423473  1
  O  O15  1  0.98350359  0.14931600  0.91576527  1
  O  O16  1  0.51649641  0.43226167  0.16581241  1
  O  O17  1  0.51649641  0.08423473  0.85068400  1
  O  O18  1  0.98350359  0.83418759  0.56773833  1
  O  O19  1  0.76644926  0.85068400  0.83418759  1
  O  O20  1  0.23355074  0.08423473  0.56773833  1
  O  O21  1  0.26644926  0.83418759  0.85068400  1
  O  O22  1  0.26644926  0.43226167  0.91576527  1
  O  O23  1  0.01649641  0.85068400  0.08423473  1
  O  O24  1  0.48350359  0.56773833  0.83418759  1
  O  O25  1  0.48350359  0.91576527  0.14931600  1
  O  O26  1  0.01649641  0.16581241  0.43226167  1
  O  O27  1  0.23355074  0.14931600  0.16581241  1
  Si  Si28  1  0.37525657  0.90484265  0.78009922  1
  Si  Si29  1  0.12474343  0.90484265  0.52958608  1
  Si  Si30  1  0.12474343  0.21990078  0.09515735  1
  Si  Si31  1  0.62474343  0.52958608  0.90484265  1
  Si  Si32  1  0.87525657  0.78009922  0.90484265  1
  Si  Si33  1  0.87525657  0.09515735  0.47041392  1
  Si  Si34  1  0.62474343  0.09515735  0.21990078  1
  Si  Si35  1  0.37525657  0.47041392  0.09515735  1
  S  S36  1  0.25000000  0.12500000  0.87500000  1
  S  S37  1  0.75000000  0.87500000  0.12500000  1
  S  S38  1  0.75000000  0.37500000  0.62500000  1
  S  S39  1  0.25000000  0.62500000  0.37500000  1
  S  S40  1  0.85469018  0.50000000  0.35469018  1
  S  S41  1  0.85469018  0.35469018  0.00000000  1
  S  S42  1  0.64530982  0.64530982  0.50000000  1
  S  S43  1  0.64530982  0.00000000  0.64530982  1
  S  S44  1  0.14530982  0.50000000  0.64530982  1
  S  S45  1  0.14530982  0.64530982  0.00000000  1
  S  S46  1  0.35469018  0.35469018  0.50000000  1
  S  S47  1  0.35469018  0.00000000  0.35469018  1
  Tm  Tm48  1  0.09516112  0.04758056  0.29758056  1
  Tm  Tm49  1  0.25000000  0.29758056  0.70241944  1
  Tm  Tm50  1  0.25000000  0.95241944  0.04758056  1
  Tm  Tm51  1  0.40483888  0.70241944  0.95241944  1
  Tm  Tm52  1  0.90483888  0.95241944  0.70241944  1
  Tm  Tm53  1  0.75000000  0.70241944  0.29758056  1
  Tm  Tm54  1  0.75000000  0.04758056  0.95241944  1
  Tm  Tm55  1  0.59516112  0.29758056  0.04758056  1
  Tm  Tm56  1  0.01461423  0.65923239  0.17384662  1
  Tm  Tm57  1  0.48538577  0.65923239  0.64461815  1
  Tm  Tm58  1  0.48538577  0.82615338  0.34076761  1
  Tm  Tm59  1  0.98538577  0.64461815  0.65923239  1
  Tm  Tm60  1  0.51461423  0.17384662  0.65923239  1
  Tm  Tm61  1  0.51461423  0.34076761  0.35538185  1
  Tm  Tm62  1  0.98538577  0.34076761  0.82615338  1
  Tm  Tm63  1  0.01461423  0.35538185  0.34076761  1
