# generated using pymatgen
data_CeScGe
_symmetry_space_group_name_H-M   'P 1'
_cell_length_a   4.28058643
_cell_length_b   4.28058643
_cell_length_c   8.57498017
_cell_angle_alpha   104.45369288
_cell_angle_beta   104.45369290
_cell_angle_gamma   90.00000004
_symmetry_Int_Tables_number   1
_chemical_formula_structural   CeScGe
_chemical_formula_sum   'Ce2 Sc2 Ge2'
_cell_volume   147.00885242
_cell_formula_units_Z   2
loop_
 _symmetry_equiv_pos_site_id
 _symmetry_equiv_pos_as_xyz
  1  'x, y, z'
loop_
 _atom_site_type_symbol
 _atom_site_label
 _atom_site_symmetry_multiplicity
 _atom_site_fract_x
 _atom_site_fract_y
 _atom_site_fract_z
 _atom_site_occupancy
  Sc  Sc0  1  0.00000000  0.50000000  0.00000000  1
  Sc  Sc1  1  0.50000000  0.00000000  0.00000000  1
  Ge  Ge2  1  0.12344564  0.12344564  0.24689127  1
  Ge  Ge3  1  0.87655436  0.87655436  0.75310873  1
  Ce  Ce4  1  0.67849749  0.67849749  0.35699498  1
  Ce  Ce5  1  0.32150251  0.32150251  0.64300502  1
