# generated using pymatgen
data_Zr5Al3
_symmetry_space_group_name_H-M   'P 1'
_cell_length_a   5.39672747
_cell_length_b   8.29995184
_cell_length_c   8.29995183
_cell_angle_alpha   83.93285457
_cell_angle_beta   71.02800587
_cell_angle_gamma   71.02800585
_symmetry_Int_Tables_number   1
_chemical_formula_structural   Zr5Al3
_chemical_formula_sum   'Zr10 Al6'
_cell_volume   332.48176762
_cell_formula_units_Z   2
loop_
 _symmetry_equiv_pos_site_id
 _symmetry_equiv_pos_as_xyz
  1  'x, y, z'
loop_
 _atom_site_type_symbol
 _atom_site_label
 _atom_site_symmetry_multiplicity
 _atom_site_fract_x
 _atom_site_fract_y
 _atom_site_fract_z
 _atom_site_occupancy
  Al  Al0  1  0.25000000  0.00000000  0.00000000  1
  Al  Al1  1  0.75000000  0.00000000  0.00000000  1
  Al  Al2  1  0.16333101  0.50000000  0.17333798  1
  Al  Al3  1  0.33666899  0.82666202  0.50000000  1
  Al  Al4  1  0.66333101  0.17333798  0.50000000  1
  Al  Al5  1  0.83666899  0.50000000  0.82666202  1
  Zr  Zr6  1  0.25000000  0.50000000  0.50000000  1
  Zr  Zr7  1  0.75000000  0.50000000  0.50000000  1
  Zr  Zr8  1  0.07876239  0.14058711  0.70188811  1
  Zr  Zr9  1  0.78065050  0.29811189  0.14058711  1
  Zr  Zr10  1  0.21934950  0.70188811  0.85941289  1
  Zr  Zr11  1  0.92123761  0.85941289  0.29811189  1
  Zr  Zr12  1  0.28065050  0.14058711  0.29811189  1
  Zr  Zr13  1  0.71934950  0.85941289  0.70188811  1
  Zr  Zr14  1  0.42123761  0.29811189  0.85941289  1
  Zr  Zr15  1  0.57876239  0.70188811  0.14058711  1
