# generated using pymatgen
data_Na2TiF6
_symmetry_space_group_name_H-M   'P 1'
_cell_length_a   9.68359256
_cell_length_b   9.68359256
_cell_length_c   4.71119701
_cell_angle_alpha   90.00000000
_cell_angle_beta   90.00000000
_cell_angle_gamma   119.99999999
_symmetry_Int_Tables_number   1
_chemical_formula_structural   Na2TiF6
_chemical_formula_sum   'Na6 Ti3 F18'
_cell_volume   382.59114462
_cell_formula_units_Z   3
loop_
 _symmetry_equiv_pos_site_id
 _symmetry_equiv_pos_as_xyz
  1  'x, y, z'
loop_
 _atom_site_type_symbol
 _atom_site_label
 _atom_site_symmetry_multiplicity
 _atom_site_fract_x
 _atom_site_fract_y
 _atom_site_fract_z
 _atom_site_occupancy
  F  F0  1  0.57320148  0.42679852  0.72962224  1
  F  F1  1  0.57320148  0.14640295  0.72962224  1
  F  F2  1  0.85359705  0.42679852  0.72962224  1
  F  F3  1  0.14640295  0.57320148  0.27037776  1
  F  F4  1  0.42679852  0.85359705  0.27037776  1
  F  F5  1  0.42679852  0.57320148  0.27037776  1
  F  F6  1  0.75962540  0.24037460  0.26979529  1
  F  F7  1  0.75962540  0.51925081  0.26979529  1
  F  F8  1  0.48074919  0.24037460  0.26979529  1
  F  F9  1  0.09554808  0.90445192  0.21532143  1
  F  F10  1  0.09554808  0.19109616  0.21532143  1
  F  F11  1  0.80890384  0.90445192  0.21532143  1
  F  F12  1  0.19109616  0.09554808  0.78467857  1
  F  F13  1  0.90445192  0.80890384  0.78467857  1
  F  F14  1  0.90445192  0.09554808  0.78467857  1
  F  F15  1  0.24037460  0.75962540  0.73020471  1
  F  F16  1  0.24037460  0.48074919  0.73020471  1
  F  F17  1  0.51925081  0.75962540  0.73020471  1
  Na  Na18  1  0.34269044  0.34269044  0.00000000  1
  Na  Na19  1  0.00000000  0.65730956  0.00000000  1
  Na  Na20  1  0.65730956  0.00000000  0.00000000  1
  Na  Na21  1  0.65730956  0.65730956  0.00000000  1
  Na  Na22  1  0.00000000  0.34269044  0.00000000  1
  Na  Na23  1  0.34269044  0.00000000  0.00000000  1
  Ti  Ti24  1  0.66666667  0.33333333  0.49902791  1
  Ti  Ti25  1  0.33333333  0.66666667  0.50097209  1
  Ti  Ti26  1  0.00000000  0.00000000  0.00000000  1
