# generated using pymatgen
data_KTiP2O7
_symmetry_space_group_name_H-M   'P 1'
_cell_length_a   7.52028902
_cell_length_b   8.29585100
_cell_length_c   10.44252813
_cell_angle_alpha   90.00000000
_cell_angle_beta   90.00000000
_cell_angle_gamma   106.60063910
_symmetry_Int_Tables_number   1
_chemical_formula_structural   KTiP2O7
_chemical_formula_sum   'K4 Ti4 P8 O28'
_cell_volume   624.32597367
_cell_formula_units_Z   4
loop_
 _symmetry_equiv_pos_site_id
 _symmetry_equiv_pos_as_xyz
  1  'x, y, z'
loop_
 _atom_site_type_symbol
 _atom_site_label
 _atom_site_symmetry_multiplicity
 _atom_site_fract_x
 _atom_site_fract_y
 _atom_site_fract_z
 _atom_site_occupancy
  O  O0  1  0.15025819  0.51354823  0.40853667  1
  O  O1  1  0.84974181  0.98645177  0.90853667  1
  O  O2  1  0.84974181  0.48645177  0.59146333  1
  O  O3  1  0.15025819  0.01354823  0.09146333  1
  O  O4  1  0.07824656  0.25386387  0.26795644  1
  O  O5  1  0.92175344  0.24613613  0.76795644  1
  O  O6  1  0.92175344  0.74613613  0.73204356  1
  O  O7  1  0.07824656  0.75386387  0.23204356  1
  O  O8  1  0.99574630  0.27588628  0.00441025  1
  O  O9  1  0.00425370  0.22411372  0.50441025  1
  O  O10  1  0.00425370  0.72411372  0.99558975  1
  O  O11  1  0.99574630  0.77588628  0.49558975  1
  O  O12  1  0.33862326  0.30984242  0.43584161  1
  O  O13  1  0.66137674  0.19015758  0.93584161  1
  O  O14  1  0.66137674  0.69015758  0.56415839  1
  O  O15  1  0.33862326  0.80984242  0.06415839  1
  O  O16  1  0.45572192  0.73805150  0.28087314  1
  O  O17  1  0.54427808  0.76194850  0.78087314  1
  O  O18  1  0.54427808  0.26194850  0.71912686  1
  O  O19  1  0.45572192  0.23805150  0.21912686  1
  O  O20  1  0.36339063  0.77126372  0.57974845  1
  O  O21  1  0.63660937  0.72873628  0.07974845  1
  O  O22  1  0.63660937  0.22873628  0.42025155  1
  O  O23  1  0.36339063  0.27126372  0.92025155  1
  O  O24  1  0.32362446  0.00949756  0.38841051  1
  O  O25  1  0.67637554  0.49050244  0.88841051  1
  O  O26  1  0.67637554  0.99050244  0.61158949  1
  O  O27  1  0.32362446  0.50949756  0.11158949  1
  P  P28  1  0.13335736  0.32645028  0.40222014  1
  P  P29  1  0.86664264  0.17354972  0.90222014  1
  P  P30  1  0.86664264  0.67354972  0.59777986  1
  P  P31  1  0.13335736  0.82645028  0.09777986  1
  P  P32  1  0.44372591  0.18985573  0.36124027  1
  P  P33  1  0.55627409  0.31014427  0.86124027  1
  P  P34  1  0.55627409  0.81014427  0.63875973  1
  P  P35  1  0.44372591  0.68985573  0.13875973  1
  K  K36  1  0.81936465  0.44085320  0.17556464  1
  K  K37  1  0.18063535  0.05914680  0.67556464  1
  K  K38  1  0.18063535  0.55914680  0.82443536  1
  K  K39  1  0.81936465  0.94085320  0.32443536  1
  Ti  Ti40  1  0.23591791  0.25956095  0.10162887  1
  Ti  Ti41  1  0.76408209  0.24043905  0.60162887  1
  Ti  Ti42  1  0.76408209  0.74043905  0.89837113  1
  Ti  Ti43  1  0.23591791  0.75956095  0.39837113  1
