# generated using pymatgen
data_LiCeSn2
_symmetry_space_group_name_H-M   'P 1'
_cell_length_a   4.53258860
_cell_length_b   4.58097352
_cell_length_c   9.76164427
_cell_angle_alpha   90.00000000
_cell_angle_beta   103.42446031
_cell_angle_gamma   90.00000000
_symmetry_Int_Tables_number   1
_chemical_formula_structural   LiCeSn2
_chemical_formula_sum   'Li2 Ce2 Sn4'
_cell_volume   197.14948265
_cell_formula_units_Z   2
loop_
 _symmetry_equiv_pos_site_id
 _symmetry_equiv_pos_as_xyz
  1  'x, y, z'
loop_
 _atom_site_type_symbol
 _atom_site_label
 _atom_site_symmetry_multiplicity
 _atom_site_fract_x
 _atom_site_fract_y
 _atom_site_fract_z
 _atom_site_occupancy
  Li  Li0  1  0.67664092  0.25000000  0.35328184  1
  Li  Li1  1  0.32335908  0.75000000  0.64671816  1
  Sn  Sn2  1  0.74957788  0.75000000  0.49915576  1
  Sn  Sn3  1  0.25042212  0.25000000  0.50084424  1
  Sn  Sn4  1  0.54420117  0.25000000  0.08840235  1
  Sn  Sn5  1  0.45579883  0.75000000  0.91159765  1
  Ce  Ce6  1  0.10633556  0.75000000  0.21267112  1
  Ce  Ce7  1  0.89366444  0.25000000  0.78732888  1
