# generated using pymatgen
data_Ti3N4
_symmetry_space_group_name_H-M   'P 1'
_cell_length_a   8.53460505
_cell_length_b   8.53460490
_cell_length_c   6.33302403
_cell_angle_alpha   90.00002606
_cell_angle_beta   90.00002604
_cell_angle_gamma   120.00002868
_symmetry_Int_Tables_number   1
_chemical_formula_structural   Ti3N4
_chemical_formula_sum   'Ti12 N16'
_cell_volume   399.49237208
_cell_formula_units_Z   4
loop_
 _symmetry_equiv_pos_site_id
 _symmetry_equiv_pos_as_xyz
  1  'x, y, z'
loop_
 _atom_site_type_symbol
 _atom_site_label
 _atom_site_symmetry_multiplicity
 _atom_site_fract_x
 _atom_site_fract_y
 _atom_site_fract_z
 _atom_site_occupancy
  Ti  Ti0  1  0.91499691  0.42007766  0.19115248  1
  Ti  Ti1  1  0.57993034  0.49492325  0.19115148  1
  Ti  Ti2  1  0.50508375  0.08501009  0.19115248  1
  Ti  Ti3  1  0.42007766  0.91499691  0.69115248  1
  Ti  Ti4  1  0.49492325  0.57993034  0.69115148  1
  Ti  Ti5  1  0.08501009  0.50508375  0.69115248  1
  Ti  Ti6  1  0.74576572  0.91910971  0.97782291  1
  Ti  Ti7  1  0.08089629  0.82665901  0.97782291  1
  Ti  Ti8  1  0.17334799  0.25424128  0.97782291  1
  Ti  Ti9  1  0.91910971  0.74576572  0.47782291  1
  Ti  Ti10  1  0.82665901  0.08089629  0.47782291  1
  Ti  Ti11  1  0.25424128  0.17334799  0.47782291  1
  N  N12  1  0.00000400  0.00000400  0.96779209  1
  N  N13  1  0.00000400  0.00000400  0.46779209  1
  N  N14  1  0.66667000  0.33333600  0.12600084  1
  N  N15  1  0.33333600  0.66667000  0.62600084  1
  N  N16  1  0.33917022  0.95507350  0.96236279  1
  N  N17  1  0.04493250  0.38409972  0.96236279  1
  N  N18  1  0.61590728  0.66083578  0.96236279  1
  N  N19  1  0.95507350  0.33917022  0.46236279  1
  N  N20  1  0.38409972  0.04493250  0.46236279  1
  N  N21  1  0.66083578  0.61590728  0.46236279  1
  N  N22  1  0.68437855  0.01316360  0.22583051  1
  N  N23  1  0.98684240  0.67121795  0.22583051  1
  N  N24  1  0.32879005  0.31562945  0.22583151  1
  N  N25  1  0.01316360  0.68437855  0.72583051  1
  N  N26  1  0.67121795  0.98684240  0.72583051  1
  N  N27  1  0.31562945  0.32879005  0.72583151  1
