# generated using pymatgen
data_Na2V(PO4)2
_symmetry_space_group_name_H-M   'P 1'
_cell_length_a   5.02380811
_cell_length_b   8.35114221
_cell_length_c   8.35114221
_cell_angle_alpha   90.00000000
_cell_angle_beta   90.00000000
_cell_angle_gamma   90.00000000
_symmetry_Int_Tables_number   1
_chemical_formula_structural   Na2V(PO4)2
_chemical_formula_sum   'Na4 V2 P4 O16'
_cell_volume   350.36829618
_cell_formula_units_Z   2
loop_
 _symmetry_equiv_pos_site_id
 _symmetry_equiv_pos_as_xyz
  1  'x, y, z'
loop_
 _atom_site_type_symbol
 _atom_site_label
 _atom_site_symmetry_multiplicity
 _atom_site_fract_x
 _atom_site_fract_y
 _atom_site_fract_z
 _atom_site_occupancy
  O  O0  1  0.85537995  0.00000000  0.50000000  1
  O  O1  1  0.85537995  0.50000000  0.00000000  1
  O  O2  1  0.83819010  0.07672242  0.21395995  1
  O  O3  1  0.83819010  0.92327758  0.78604005  1
  O  O4  1  0.83819010  0.21395995  0.92327758  1
  O  O5  1  0.83819010  0.78604005  0.07672242  1
  O  O6  1  0.83819010  0.28604005  0.42327758  1
  O  O7  1  0.83819010  0.57672242  0.28604005  1
  O  O8  1  0.83819010  0.42327758  0.71395995  1
  O  O9  1  0.83819010  0.71395995  0.57672242  1
  O  O10  1  0.28326415  0.50000000  0.50000000  1
  O  O11  1  0.28326415  0.00000000  0.00000000  1
  O  O12  1  0.27340473  0.62896475  0.12896475  1
  O  O13  1  0.27340473  0.87103525  0.62896475  1
  O  O14  1  0.27340473  0.12896475  0.37103525  1
  O  O15  1  0.27340473  0.37103525  0.87103525  1
  Na  Na16  1  0.51072176  0.32405546  0.17594454  1
  Na  Na17  1  0.51072176  0.82405546  0.32405546  1
  Na  Na18  1  0.51072176  0.67594454  0.82405546  1
  Na  Na19  1  0.51072176  0.17594454  0.67594454  1
  P  P20  1  0.97452589  0.37092201  0.87092201  1
  P  P21  1  0.97452589  0.12907799  0.37092201  1
  P  P22  1  0.97452589  0.87092201  0.62907799  1
  P  P23  1  0.97452589  0.62907799  0.12907799  1
  V  V24  1  0.95829072  0.50000000  0.50000000  1
  V  V25  1  0.95829072  0.00000000  0.00000000  1
