# generated using pymatgen
data_Cr3AsN
_symmetry_space_group_name_H-M   'P 1'
_cell_length_a   5.33963389
_cell_length_b   5.33963390
_cell_length_c   5.47036927
_cell_angle_alpha   119.21253277
_cell_angle_beta   119.21253286
_cell_angle_gamma   90.00000005
_symmetry_Int_Tables_number   1
_chemical_formula_structural   Cr3AsN
_chemical_formula_sum   'Cr6 As2 N2'
_cell_volume   112.86126603
_cell_formula_units_Z   2
loop_
 _symmetry_equiv_pos_site_id
 _symmetry_equiv_pos_as_xyz
  1  'x, y, z'
loop_
 _atom_site_type_symbol
 _atom_site_label
 _atom_site_symmetry_multiplicity
 _atom_site_fract_x
 _atom_site_fract_y
 _atom_site_fract_z
 _atom_site_occupancy
  N  N0  1  0.50000000  0.50000000  0.00000000  1
  N  N1  1  0.00000000  0.00000000  0.00000000  1
  Cr  Cr2  1  0.81608027  0.31608027  0.00000000  1
  Cr  Cr3  1  0.75000000  0.75000000  0.50000000  1
  Cr  Cr4  1  0.25000000  0.25000000  0.50000000  1
  Cr  Cr5  1  0.18391973  0.68391973  0.00000000  1
  Cr  Cr6  1  0.31608027  0.18391973  0.00000000  1
  Cr  Cr7  1  0.68391973  0.81608027  0.00000000  1
  As  As8  1  0.75000000  0.25000000  0.50000000  1
  As  As9  1  0.25000000  0.75000000  0.50000000  1
