# generated using pymatgen
data_Sm3Co6Sn5
_symmetry_space_group_name_H-M   'P 1'
_cell_length_a   4.33428452
_cell_length_b   8.22098029
_cell_length_c   8.22098029
_cell_angle_alpha   73.06983961
_cell_angle_beta   74.71555521
_cell_angle_gamma   74.71555520
_symmetry_Int_Tables_number   1
_chemical_formula_structural   Sm3Co6Sn5
_chemical_formula_sum   'Sm3 Co6 Sn5'
_cell_volume   264.72391858
_cell_formula_units_Z   1
loop_
 _symmetry_equiv_pos_site_id
 _symmetry_equiv_pos_as_xyz
  1  'x, y, z'
loop_
 _atom_site_type_symbol
 _atom_site_label
 _atom_site_symmetry_multiplicity
 _atom_site_fract_x
 _atom_site_fract_y
 _atom_site_fract_z
 _atom_site_occupancy
  Co  Co0  1  0.89343755  0.38098982  0.83213508  1
  Co  Co1  1  0.10656245  0.61901018  0.16786492  1
  Co  Co2  1  0.89343755  0.83213508  0.38098982  1
  Co  Co3  1  0.50000000  0.70068746  0.29931254  1
  Co  Co4  1  0.50000000  0.29931254  0.70068746  1
  Co  Co5  1  0.10656245  0.16786492  0.61901018  1
  Sn  Sn6  1  0.67696389  0.98379313  0.66227908  1
  Sn  Sn7  1  0.32303611  0.33772092  0.01620687  1
  Sn  Sn8  1  0.67696389  0.66227908  0.98379313  1
  Sn  Sn9  1  0.00000000  0.50000000  0.50000000  1
  Sn  Sn10  1  0.32303611  0.01620687  0.33772092  1
  Sm  Sm11  1  0.68322272  0.31677728  0.31677728  1
  Sm  Sm12  1  0.31677728  0.68322272  0.68322272  1
  Sm  Sm13  1  0.00000000  0.00000000  0.00000000  1
