# generated using pymatgen
data_K(MoO3)3
_symmetry_space_group_name_H-M   'P 1'
_cell_length_a   6.52112766
_cell_length_b   7.81409208
_cell_length_c   8.59770937
_cell_angle_alpha   117.02818291
_cell_angle_beta   92.01354827
_cell_angle_gamma   90.00000006
_symmetry_Int_Tables_number   1
_chemical_formula_structural   K(MoO3)3
_chemical_formula_sum   'K2 Mo6 O18'
_cell_volume   389.95802036
_cell_formula_units_Z   2
loop_
 _symmetry_equiv_pos_site_id
 _symmetry_equiv_pos_as_xyz
  1  'x, y, z'
loop_
 _atom_site_type_symbol
 _atom_site_label
 _atom_site_symmetry_multiplicity
 _atom_site_fract_x
 _atom_site_fract_y
 _atom_site_fract_z
 _atom_site_occupancy
  O  O0  1  0.58588194  0.31766764  0.15978868  1
  O  O1  1  0.41411806  0.15787896  0.84021132  1
  O  O2  1  0.41411806  0.68233236  0.84021132  1
  O  O3  1  0.58588194  0.84212104  0.15978868  1
  O  O4  1  0.19878924  0.42712059  0.32731636  1
  O  O5  1  0.80121076  0.09980423  0.67268364  1
  O  O6  1  0.80121076  0.57287941  0.67268364  1
  O  O7  1  0.19878924  0.90019577  0.32731636  1
  O  O8  1  0.00000000  0.74197240  0.00000000  1
  O  O9  1  0.00000000  0.25802760  0.00000000  1
  O  O10  1  0.51090799  0.21672747  0.43345494  1
  O  O11  1  0.48909201  0.78327253  0.56654506  1
  O  O12  1  0.89260091  0.14786506  0.29573013  1
  O  O13  1  0.10739909  0.85213494  0.70426987  1
  O  O14  1  0.29365446  0.53668275  0.07336550  1
  O  O15  1  0.70634554  0.46331725  0.92663450  1
  O  O16  1  0.30717360  0.03734071  0.07468142  1
  O  O17  1  0.69282640  0.96265929  0.92531858  1
  K  K18  1  0.15795967  0.29881336  0.59762672  1
  K  K19  1  0.84204033  0.70118664  0.40237328  1
  Mo  Mo20  1  0.73347172  0.68334280  0.88745085  1
  Mo  Mo21  1  0.26652828  0.79589196  0.11254915  1
  Mo  Mo22  1  0.36644440  0.88149297  0.76298594  1
  Mo  Mo23  1  0.63355560  0.11850703  0.23701406  1
  Mo  Mo24  1  0.73347172  0.20410804  0.88745085  1
  Mo  Mo25  1  0.26652828  0.31665720  0.11254915  1
