# generated using pymatgen
data_Tl4CrI6
_symmetry_space_group_name_H-M   'P 1'
_cell_length_a   9.37497881
_cell_length_b   9.37497881
_cell_length_c   9.95221419
_cell_angle_alpha   90.00000000
_cell_angle_beta   90.00000000
_cell_angle_gamma   92.33929374
_symmetry_Int_Tables_number   1
_chemical_formula_structural   Tl4CrI6
_chemical_formula_sum   'Tl8 Cr2 I12'
_cell_volume   873.97342685
_cell_formula_units_Z   2
loop_
 _symmetry_equiv_pos_site_id
 _symmetry_equiv_pos_as_xyz
  1  'x, y, z'
loop_
 _atom_site_type_symbol
 _atom_site_label
 _atom_site_symmetry_multiplicity
 _atom_site_fract_x
 _atom_site_fract_y
 _atom_site_fract_z
 _atom_site_occupancy
  Cr  Cr0  1  0.50000000  0.00000000  0.00000000  1
  Cr  Cr1  1  0.00000000  0.50000000  0.50000000  1
  I  I2  1  0.81848641  0.85366966  0.00000000  1
  I  I3  1  0.18151359  0.14633034  0.00000000  1
  I  I4  1  0.27448346  0.63011399  0.50000000  1
  I  I5  1  0.72551654  0.36988601  0.50000000  1
  I  I6  1  0.63011399  0.27448346  0.00000000  1
  I  I7  1  0.36988601  0.72551654  0.00000000  1
  I  I8  1  0.85366966  0.81848641  0.50000000  1
  I  I9  1  0.14633034  0.18151359  0.50000000  1
  I  I10  1  0.50000000  0.00000000  0.27610918  1
  I  I11  1  0.00000000  0.50000000  0.22389082  1
  I  I12  1  0.50000000  0.00000000  0.72389082  1
  I  I13  1  0.00000000  0.50000000  0.77610918  1
  Tl  Tl14  1  0.34236636  0.34236636  0.75000000  1
  Tl  Tl15  1  0.65763364  0.65763364  0.75000000  1
  Tl  Tl16  1  0.65763364  0.65763364  0.25000000  1
  Tl  Tl17  1  0.34236636  0.34236636  0.25000000  1
  Tl  Tl18  1  0.14322986  0.85677014  0.75000000  1
  Tl  Tl19  1  0.85677014  0.14322986  0.75000000  1
  Tl  Tl20  1  0.85677014  0.14322986  0.25000000  1
  Tl  Tl21  1  0.14322986  0.85677014  0.25000000  1
