# generated using pymatgen
data_CuH4(ClO)2
_symmetry_space_group_name_H-M   'P 1'
_cell_length_a   3.89677282
_cell_length_b   7.45907716
_cell_length_c   8.06117197
_cell_angle_alpha   90.00000000
_cell_angle_beta   90.00000000
_cell_angle_gamma   90.00000000
_symmetry_Int_Tables_number   1
_chemical_formula_structural   CuH4(ClO)2
_chemical_formula_sum   'Cu2 H8 Cl4 O4'
_cell_volume   234.30867773
_cell_formula_units_Z   2
loop_
 _symmetry_equiv_pos_site_id
 _symmetry_equiv_pos_as_xyz
  1  'x, y, z'
loop_
 _atom_site_type_symbol
 _atom_site_label
 _atom_site_symmetry_multiplicity
 _atom_site_fract_x
 _atom_site_fract_y
 _atom_site_fract_z
 _atom_site_occupancy
  H  H0  1  0.12750638  0.08577591  0.68815590  1
  H  H1  1  0.12750638  0.41422409  0.81184410  1
  H  H2  1  0.87249362  0.91422409  0.31184410  1
  H  H3  1  0.87249362  0.58577591  0.18815590  1
  H  H4  1  0.12750638  0.41422409  0.18815590  1
  H  H5  1  0.87249362  0.91422409  0.68815590  1
  H  H6  1  0.87249362  0.58577591  0.81184410  1
  H  H7  1  0.12750638  0.08577591  0.31184410  1
  O  O8  1  0.00000000  0.00000000  0.75882881  1
  O  O9  1  0.00000000  0.50000000  0.25882881  1
  O  O10  1  0.00000000  0.50000000  0.74117119  1
  O  O11  1  0.00000000  0.00000000  0.24117119  1
  Cl  Cl12  1  0.64882309  0.74646041  0.50000000  1
  Cl  Cl13  1  0.35117691  0.24646041  0.00000000  1
  Cl  Cl14  1  0.35117691  0.25353959  0.50000000  1
  Cl  Cl15  1  0.64882309  0.75353959  0.00000000  1
  Cu  Cu16  1  0.00000000  0.50000000  0.50000000  1
  Cu  Cu17  1  0.00000000  0.00000000  0.00000000  1
