# generated using pymatgen
data_CeSe2
_symmetry_space_group_name_H-M   'P 1'
_cell_length_a   5.56666636
_cell_length_b   5.56666636
_cell_length_c   7.88724719
_cell_angle_alpha   110.66420219
_cell_angle_beta   110.66420219
_cell_angle_gamma   90.00000000
_symmetry_Int_Tables_number   1
_chemical_formula_structural   CeSe2
_chemical_formula_sum   'Ce2 Se4'
_cell_volume   211.79589759
_cell_formula_units_Z   2
loop_
 _symmetry_equiv_pos_site_id
 _symmetry_equiv_pos_as_xyz
  1  'x, y, z'
loop_
 _atom_site_type_symbol
 _atom_site_label
 _atom_site_symmetry_multiplicity
 _atom_site_fract_x
 _atom_site_fract_y
 _atom_site_fract_z
 _atom_site_occupancy
  Ce  Ce0  1  0.25000000  0.75000000  0.50000000  1
  Ce  Ce1  1  0.00000000  0.00000000  0.00000000  1
  Se  Se2  1  0.45839092  0.95839092  0.91678184  1
  Se  Se3  1  0.79160908  0.79160908  0.58321816  1
  Se  Se4  1  0.04160908  0.54160908  0.08321816  1
  Se  Se5  1  0.20839092  0.20839092  0.41678184  1
