# generated using pymatgen
data_Hf3B2Ir5
_symmetry_space_group_name_H-M   'P 1'
_cell_length_a   3.41002264
_cell_length_b   9.26302924
_cell_length_c   9.26302924
_cell_angle_alpha   90.00000000
_cell_angle_beta   90.00000000
_cell_angle_gamma   90.00000000
_symmetry_Int_Tables_number   1
_chemical_formula_structural   Hf3B2Ir5
_chemical_formula_sum   'Hf6 B4 Ir10'
_cell_volume   292.59259609
_cell_formula_units_Z   2
loop_
 _symmetry_equiv_pos_site_id
 _symmetry_equiv_pos_as_xyz
  1  'x, y, z'
loop_
 _atom_site_type_symbol
 _atom_site_label
 _atom_site_symmetry_multiplicity
 _atom_site_fract_x
 _atom_site_fract_y
 _atom_site_fract_z
 _atom_site_occupancy
  Hf  Hf0  1  0.00000000  0.67629467  0.17629467  1
  Hf  Hf1  1  0.00000000  0.17629467  0.32370533  1
  Hf  Hf2  1  -0.00000000  0.32370533  0.82370533  1
  Hf  Hf3  1  0.00000000  0.50000000  0.50000000  1
  Hf  Hf4  1  -0.00000000  0.82370533  0.67629467  1
  Hf  Hf5  1  -0.00000000  0.00000000  -0.00000000  1
  B  B6  1  0.00000000  0.88066872  0.38066872  1
  B  B7  1  0.00000000  0.38066872  0.11933128  1
  B  B8  1  -0.00000000  0.61933128  0.88066872  1
  B  B9  1  -0.00000000  0.11933128  0.61933128  1
  Ir  Ir10  1  0.50000000  0.92785019  0.22002437  1
  Ir  Ir11  1  0.50000000  0.77997563  0.92785019  1
  Ir  Ir12  1  0.50000000  0.72002437  0.42785019  1
  Ir  Ir13  1  0.50000000  0.27997563  0.57214981  1
  Ir  Ir14  1  0.50000000  0.57214981  0.72002437  1
  Ir  Ir15  1  0.50000000  0.42785019  0.27997563  1
  Ir  Ir16  1  0.50000000  0.22002437  0.07214981  1
  Ir  Ir17  1  0.50000000  0.50000000  -0.00000000  1
  Ir  Ir18  1  0.50000000  0.00000000  0.50000000  1
  Ir  Ir19  1  0.50000000  0.07214981  0.77997563  1
