# generated using pymatgen
data_CaAs2(HO2)4
_symmetry_space_group_name_H-M   'P 1'
_cell_length_a   5.77457976
_cell_length_b   7.94510010
_cell_length_c   8.75632866
_cell_angle_alpha   111.40361612
_cell_angle_beta   109.15302660
_cell_angle_gamma   92.84010362
_symmetry_Int_Tables_number   1
_chemical_formula_structural   CaAs2(HO2)4
_chemical_formula_sum   'Ca2 As4 H8 O16'
_cell_volume   346.71953868
_cell_formula_units_Z   2
loop_
 _symmetry_equiv_pos_site_id
 _symmetry_equiv_pos_as_xyz
  1  'x, y, z'
loop_
 _atom_site_type_symbol
 _atom_site_label
 _atom_site_symmetry_multiplicity
 _atom_site_fract_x
 _atom_site_fract_y
 _atom_site_fract_z
 _atom_site_occupancy
  H  H0  1  0.50000000  0.00000000  0.50000000  1
  H  H1  1  0.00000000  0.50000000  0.00000000  1
  H  H2  1  0.64884919  0.62815676  0.27159830  1
  H  H3  1  0.35115081  0.37184324  0.72840170  1
  H  H4  1  0.26985540  0.51665338  0.49816992  1
  H  H5  1  0.73014460  0.48334662  0.50183008  1
  H  H6  1  0.91495837  0.17858155  0.56824576  1
  H  H7  1  0.08504163  0.82141845  0.43175424  1
  O  O8  1  0.99912706  0.06384643  0.17124098  1
  O  O9  1  0.23001282  0.40469970  0.38219888  1
  O  O10  1  0.93136865  0.78689774  0.45528976  1
  O  O11  1  0.76998718  0.59530030  0.61780112  1
  O  O12  1  0.29283051  0.67907628  0.68518873  1
  O  O13  1  0.70716949  0.32092372  0.31481127  1
  O  O14  1  0.97323183  0.33542295  0.95933301  1
  O  O15  1  0.02676817  0.66457705  0.04066699  1
  O  O16  1  0.52850211  0.09191517  0.88047197  1
  O  O17  1  0.47149789  0.90808483  0.11952803  1
  O  O18  1  0.52121747  0.42017671  0.82237255  1
  O  O19  1  0.47878253  0.57982329  0.17762745  1
  O  O20  1  0.67089269  0.12581023  0.60570126  1
  O  O21  1  0.32910731  0.87418977  0.39429874  1
  O  O22  1  0.06863135  0.21310226  0.54471024  1
  O  O23  1  0.00087294  0.93615357  0.82875902  1
  Ca  Ca24  1  0.30903368  0.18473623  0.08234172  1
  Ca  Ca25  1  0.69096632  0.81526377  0.91765828  1
  As  As26  1  0.32834756  0.77047652  0.18399688  1
  As  As27  1  0.67165244  0.22952348  0.81600312  1
  As  As28  1  0.97772480  0.24079575  0.34290096  1
  As  As29  1  0.02227520  0.75920425  0.65709904  1
