# generated using pymatgen
data_Bi(PO3)4
_symmetry_space_group_name_H-M   'P 1'
_cell_length_a   9.84818295
_cell_length_b   13.36923172
_cell_length_c   7.32085037
_cell_angle_alpha   90.00000000
_cell_angle_beta   91.44891077
_cell_angle_gamma   90.00000000
_symmetry_Int_Tables_number   1
_chemical_formula_structural   Bi(PO3)4
_chemical_formula_sum   'Bi4 P16 O48'
_cell_volume   963.57430248
_cell_formula_units_Z   4
loop_
 _symmetry_equiv_pos_site_id
 _symmetry_equiv_pos_as_xyz
  1  'x, y, z'
loop_
 _atom_site_type_symbol
 _atom_site_label
 _atom_site_symmetry_multiplicity
 _atom_site_fract_x
 _atom_site_fract_y
 _atom_site_fract_z
 _atom_site_occupancy
  O  O0  1  0.91481136  0.34170103  0.77080081  1
  O  O1  1  0.90559548  0.10979876  0.21368375  1
  O  O2  1  0.90144184  0.85543363  0.29763561  1
  O  O3  1  0.88945737  0.70629250  0.72816487  1
  O  O4  1  0.08518864  0.65829897  0.22919919  1
  O  O5  1  0.09440452  0.89020124  0.78631625  1
  O  O6  1  0.09855816  0.14456637  0.70236439  1
  O  O7  1  0.11054263  0.29370750  0.27183513  1
  O  O8  1  0.14172420  0.48051462  0.28391049  1
  O  O9  1  0.15595070  0.68857465  0.86400008  1
  O  O10  1  0.15091911  0.86998924  0.16741512  1
  O  O11  1  0.16324399  0.37671384  0.56986454  1
  O  O12  1  0.20311502  0.33428297  0.90318798  1
  O  O13  1  0.20213535  0.08048820  0.41387198  1
  O  O14  1  0.21293703  0.51187385  0.78566187  1
  O  O15  1  0.20057023  0.11000295  0.07351781  1
  O  O16  1  0.28706297  0.01187385  0.71433813  1
  O  O17  1  0.84404930  0.31142535  0.13599992  1
  O  O18  1  0.29942977  0.61000295  0.42648219  1
  O  O19  1  0.29786465  0.58048820  0.08612802  1
  O  O20  1  0.33675601  0.87671384  0.93013546  1
  O  O21  1  0.34404930  0.18857465  0.63599992  1
  O  O22  1  0.34908089  0.36998924  0.33258488  1
  O  O23  1  0.35827580  0.98051462  0.21608951  1
  O  O24  1  0.40144184  0.64456637  0.79763561  1
  O  O25  1  0.38945737  0.79370750  0.22816487  1
  O  O26  1  0.40559548  0.39020124  0.71368375  1
  O  O27  1  0.41481136  0.15829897  0.27080081  1
  O  O28  1  0.58518864  0.84170103  0.72919919  1
  O  O29  1  0.59440452  0.60979876  0.28631625  1
  O  O30  1  0.61054263  0.20629250  0.77183513  1
  O  O31  1  0.59855816  0.35543363  0.20236439  1
  O  O32  1  0.64172420  0.01948538  0.78391049  1
  O  O33  1  0.65091911  0.63001076  0.66741512  1
  O  O34  1  0.65595070  0.81142535  0.36400008  1
  O  O35  1  0.66324399  0.12328616  0.06986454  1
  O  O36  1  0.70213535  0.41951180  0.91387198  1
  O  O37  1  0.70057023  0.38999705  0.57351781  1
  O  O38  1  0.70311502  0.16571703  0.40318798  1
  O  O39  1  0.71293703  0.98812615  0.28566187  1
  O  O40  1  0.79942977  0.88999705  0.92648219  1
  O  O41  1  0.78706297  0.48812615  0.21433813  1
  O  O42  1  0.79786465  0.91951180  0.58612802  1
  O  O43  1  0.79688498  0.66571703  0.09681202  1
  O  O44  1  0.83675601  0.62328616  0.43013546  1
  O  O45  1  0.84908089  0.13001076  0.83258488  1
  O  O46  1  0.85827580  0.51948538  0.71608951  1
  O  O47  1  0.29688498  0.83428297  0.59681202  1
  P  P48  1  0.75544949  0.10243254  0.24938686  1
  P  P49  1  0.76914921  0.88689267  0.37751235  1
  P  P50  1  0.79492711  0.40833847  0.73542488  1
  P  P51  1  0.74455051  0.60243254  0.25061314  1
  P  P52  1  0.19736958  0.37399628  0.35558675  1
  P  P53  1  0.20507289  0.59166153  0.26457512  1
  P  P54  1  0.23085079  0.11310733  0.62248765  1
  P  P55  1  0.24455051  0.89756746  0.75061314  1
  P  P56  1  0.25544949  0.39756746  0.74938686  1
  P  P57  1  0.26914921  0.61310733  0.87751235  1
  P  P58  1  0.80263042  0.62600372  0.64441325  1
  P  P59  1  0.30263042  0.87399628  0.14441325  1
  P  P60  1  0.69736958  0.12600372  0.85558675  1
  P  P61  1  0.70507289  0.90833847  0.76457512  1
  P  P62  1  0.73085079  0.38689267  0.12248765  1
  P  P63  1  0.29492711  0.09166153  0.23542488  1
  Bi  Bi64  1  0.97809205  0.77625451  0.01701589  1
  Bi  Bi65  1  0.52190795  0.27625451  0.48298411  1
  Bi  Bi66  1  0.47809205  0.72374549  0.51701589  1
  Bi  Bi67  1  0.02190795  0.22374549  0.98298411  1
