# generated using pymatgen
data_Tb2O3
_symmetry_space_group_name_H-M   'P 1'
_cell_length_a   3.53486998
_cell_length_b   7.28509994
_cell_length_c   8.71736993
_cell_angle_alpha   100.01268039
_cell_angle_beta   90.00000000
_cell_angle_gamma   104.04061084
_symmetry_Int_Tables_number   1
_chemical_formula_structural   Tb2O3
_chemical_formula_sum   'Tb6 O9'
_cell_volume   214.25573081
_cell_formula_units_Z   3
loop_
 _symmetry_equiv_pos_site_id
 _symmetry_equiv_pos_as_xyz
  1  'x, y, z'
loop_
 _atom_site_type_symbol
 _atom_site_label
 _atom_site_symmetry_multiplicity
 _atom_site_fract_x
 _atom_site_fract_y
 _atom_site_fract_z
 _atom_site_occupancy
  O  O0  1  0.50000000  0.00000000  0.00000000  1
  O  O1  1  0.52873329  0.05746657  0.65673250  1
  O  O2  1  0.47126671  0.94253343  0.34326750  1
  O  O3  1  0.20583573  0.41167146  0.62342855  1
  O  O4  1  0.79416427  0.58832854  0.37657145  1
  O  O5  1  0.17487571  0.34975142  0.97023962  1
  O  O6  1  0.12801246  0.25602492  0.28246938  1
  O  O7  1  0.87198754  0.74397508  0.71753062  1
  O  O8  1  0.82512429  0.65024858  0.02976038  1
  Tb  Tb9  1  0.03239933  0.06479866  0.81333095  1
  Tb  Tb10  1  0.96760067  0.93520134  0.18666905  1
  Tb  Tb11  1  0.30881804  0.61763609  0.86271197  1
  Tb  Tb12  1  0.69118196  0.38236391  0.13728803  1
  Tb  Tb13  1  0.36504810  0.73009620  0.51185126  1
  Tb  Tb14  1  0.63495190  0.26990380  0.48814874  1
