# generated using pymatgen
data_CeSe2
_symmetry_space_group_name_H-M   'P 1'
_cell_length_a   5.53425701
_cell_length_b   9.20900143
_cell_length_c   11.16575498
_cell_angle_alpha   109.50879205
_cell_angle_beta   89.69690372
_cell_angle_gamma   107.87615544
_symmetry_Int_Tables_number   1
_chemical_formula_structural   CeSe2
_chemical_formula_sum   'Ce6 Se12'
_cell_volume   507.49022461
_cell_formula_units_Z   6
loop_
 _symmetry_equiv_pos_site_id
 _symmetry_equiv_pos_as_xyz
  1  'x, y, z'
loop_
 _atom_site_type_symbol
 _atom_site_label
 _atom_site_symmetry_multiplicity
 _atom_site_fract_x
 _atom_site_fract_y
 _atom_site_fract_z
 _atom_site_occupancy
  Ce  Ce0  1  0.82166214  0.15548087  0.87712004  1
  Ce  Ce1  1  0.17833786  0.84451913  0.12287996  1
  Ce  Ce2  1  0.48752184  0.49108090  0.74954369  1
  Ce  Ce3  1  0.51247816  0.50891910  0.25045631  1
  Ce  Ce4  1  0.14980610  0.81283698  0.60910629  1
  Ce  Ce5  1  0.85019390  0.18716302  0.39089371  1
  Se  Se6  1  0.90126720  0.82581323  0.85975981  1
  Se  Se7  1  0.09873280  0.17418677  0.14024019  1
  Se  Se8  1  0.96499145  0.44229724  0.64618496  1
  Se  Se9  1  0.03500855  0.55770276  0.35381504  1
  Se  Se10  1  0.67552157  0.85994416  0.55979386  1
  Se  Se11  1  0.32447843  0.14005584  0.44020614  1
  Se  Se12  1  0.40288738  0.82575040  0.85887592  1
  Se  Se13  1  0.59711262  0.17424960  0.14112408  1
  Se  Se14  1  0.32358773  0.15866584  0.77381782  1
  Se  Se15  1  0.67641227  0.84133416  0.22618218  1
  Se  Se16  1  0.24500847  0.50021792  0.00038934  1
  Se  Se17  1  0.75499153  0.49978208  0.99961066  1
