# generated using pymatgen
data_LiSn(PO3)3
_symmetry_space_group_name_H-M   'P 1'
_cell_length_a   6.62323164
_cell_length_b   6.62339933
_cell_length_c   10.01616721
_cell_angle_alpha   90.00000002
_cell_angle_beta   89.99983137
_cell_angle_gamma   120.00083750
_symmetry_Int_Tables_number   1
_chemical_formula_structural   LiSn(PO3)3
_chemical_formula_sum   'Li2 Sn2 P6 O18'
_cell_volume   380.52169002
_cell_formula_units_Z   2
loop_
 _symmetry_equiv_pos_site_id
 _symmetry_equiv_pos_as_xyz
  1  'x, y, z'
loop_
 _atom_site_type_symbol
 _atom_site_label
 _atom_site_symmetry_multiplicity
 _atom_site_fract_x
 _atom_site_fract_y
 _atom_site_fract_z
 _atom_site_occupancy
  Li  Li0  1  0.66664043  0.33335861  0.00000485  1
  Li  Li1  1  0.66664043  0.33328182  0.50000485  1
  O  O2  1  0.01943759  0.79063633  0.25001553  1
  O  O3  1  0.20936294  0.98055827  0.74998263  1
  O  O4  1  0.01943759  0.22880126  0.75001553  1
  O  O5  1  0.20936294  0.22880466  0.24998263  1
  O  O6  1  0.39085185  0.36040605  0.62049956  1
  O  O7  1  0.39088949  0.36039066  0.87949269  1
  O  O8  1  0.77120415  0.98055392  0.25000185  1
  O  O9  1  0.63960306  0.60913776  0.37949442  1
  O  O10  1  0.63963196  0.60915022  0.12050959  1
  O  O11  1  0.39085185  0.03044580  0.12049956  1
  O  O12  1  0.39088949  0.03049883  0.37949269  1
  O  O13  1  0.77120415  0.79065021  0.75000185  1
  O  O14  1  0.63960306  0.03046530  0.87949442  1
  O  O15  1  0.63963196  0.03048174  0.62050959  1
  O  O16  1  0.96951668  0.60912411  0.62050674  1
  O  O17  1  0.96955940  0.60917164  0.87949373  1
  O  O18  1  0.96955940  0.36038775  0.37949373  1
  O  O19  1  0.96951668  0.36039257  0.12050674  1
  P  P20  1  0.27220439  0.24795466  0.75001493  1
  P  P21  1  0.27220439  0.02424974  0.25001493  1
  P  P22  1  0.75205648  0.72780177  0.24999034  1
  P  P23  1  0.97576783  0.72782394  0.74999314  1
  P  P24  1  0.75205648  0.02425471  0.74999034  1
  P  P25  1  0.97576783  0.24794389  0.24999314  1
  Sn  Sn26  1  0.33327376  0.66674609  0.99999999  1
  Sn  Sn27  1  0.33327376  0.66652768  0.49999999  1
