# generated using pymatgen
data_Hf8Ni21
_symmetry_space_group_name_H-M   'P 1'
_cell_length_a   6.40978858
_cell_length_b   7.98549727
_cell_length_c   8.52816396
_cell_angle_alpha   75.13001323
_cell_angle_beta   68.12599675
_cell_angle_gamma   75.46243524
_symmetry_Int_Tables_number   1
_chemical_formula_structural   Hf8Ni21
_chemical_formula_sum   'Hf8 Ni21'
_cell_volume   385.60240613
_cell_formula_units_Z   1
loop_
 _symmetry_equiv_pos_site_id
 _symmetry_equiv_pos_as_xyz
  1  'x, y, z'
loop_
 _atom_site_type_symbol
 _atom_site_label
 _atom_site_symmetry_multiplicity
 _atom_site_fract_x
 _atom_site_fract_y
 _atom_site_fract_z
 _atom_site_occupancy
  Ni  Ni0  1  0.00000000  0.50000000  0.50000000  1
  Ni  Ni1  1  0.51431211  0.11747845  0.25795820  1
  Ni  Ni2  1  0.48568789  0.88252155  0.74204180  1
  Ni  Ni3  1  0.90088828  0.21720559  0.65467629  1
  Ni  Ni4  1  0.09911172  0.78279441  0.34532371  1
  Ni  Ni5  1  0.69618430  0.25458354  0.95851841  1
  Ni  Ni6  1  0.30381570  0.74541646  0.04148159  1
  Ni  Ni7  1  0.86364373  0.28891357  0.15713724  1
  Ni  Ni8  1  0.11905821  0.05380992  0.84989647  1
  Ni  Ni9  1  0.88094179  0.94619008  0.15010353  1
  Ni  Ni10  1  0.48330142  0.20615243  0.77636521  1
  Ni  Ni11  1  0.51669858  0.79384757  0.22363479  1
  Ni  Ni12  1  0.31923968  0.24269809  0.54871497  1
  Ni  Ni13  1  0.68076032  0.75730191  0.45128503  1
  Ni  Ni14  1  0.09864287  0.25839641  0.34713267  1
  Ni  Ni15  1  0.90135713  0.74160359  0.65286733  1
  Ni  Ni16  1  0.28687094  0.39064184  0.02867727  1
  Ni  Ni17  1  0.71312906  0.60935816  0.97132273  1
  Ni  Ni18  1  0.31651126  0.59905390  0.53705429  1
  Ni  Ni19  1  0.68348874  0.40094610  0.46294571  1
  Ni  Ni20  1  0.13635627  0.71108643  0.84286276  1
  Hf  Hf21  1  0.75303364  0.06301905  0.46578829  1
  Hf  Hf22  1  0.24696636  0.93698095  0.53421171  1
  Hf  Hf23  1  0.56881210  0.53662936  0.74530877  1
  Hf  Hf24  1  0.43118790  0.46337064  0.25469123  1
  Hf  Hf25  1  0.93022081  0.59668345  0.18552457  1
  Hf  Hf26  1  0.06977919  0.40331655  0.81447543  1
  Hf  Hf27  1  0.75219195  0.93776917  0.89272345  1
  Hf  Hf28  1  0.24780805  0.06223083  0.10727655  1
