# generated using pymatgen
data_Li3Bi5(PO4)6
_symmetry_space_group_name_H-M   'P 1'
_cell_length_a   8.84558163
_cell_length_b   8.85348163
_cell_length_c   8.74772758
_cell_angle_alpha   109.74956568
_cell_angle_beta   109.27278822
_cell_angle_gamma   108.70041348
_symmetry_Int_Tables_number   1
_chemical_formula_structural   Li3Bi5(PO4)6
_chemical_formula_sum   'Li3 Bi5 P6 O24'
_cell_volume   531.78358280
_cell_formula_units_Z   1
loop_
 _symmetry_equiv_pos_site_id
 _symmetry_equiv_pos_as_xyz
  1  'x, y, z'
loop_
 _atom_site_type_symbol
 _atom_site_label
 _atom_site_symmetry_multiplicity
 _atom_site_fract_x
 _atom_site_fract_y
 _atom_site_fract_z
 _atom_site_occupancy
  Li  Li0  1  0.97369197  0.77464713  0.50511915  1
  Li  Li1  1  0.28015579  0.49173859  0.99665171  1
  Li  Li2  1  0.73115833  0.71844327  0.70064799  1
  O  O3  1  0.06667881  0.26537683  0.92336520  1
  O  O4  1  0.68915780  0.84830385  0.92117187  1
  O  O5  1  0.18694471  0.42478762  0.33654333  1
  O  O6  1  0.16141222  0.58007766  0.84118035  1
  O  O7  1  0.15881550  0.81646136  0.74176500  1
  O  O8  1  0.91829428  0.08222845  0.25771023  1
  O  O9  1  0.66557625  0.34329120  0.08678723  1
  O  O10  1  0.64626566  0.22447886  0.30289857  1
  O  O11  1  0.84786362  0.17236570  0.58800340  1
  O  O12  1  0.41798003  0.32951449  0.16491552  1
  O  O13  1  0.82282380  0.75100102  0.15977563  1
  O  O14  1  0.72801398  0.14634499  0.80025222  1
  O  O15  1  0.74958729  0.56223657  0.42263451  1
  O  O16  1  0.40773113  0.75604390  0.57096216  1
  O  O17  1  0.35173814  0.08612779  0.65504795  1
  O  O18  1  0.58851619  0.85066038  0.15896354  1
  O  O19  1  0.34220982  0.18486837  0.41933705  1
  O  O20  1  0.31180271  0.65866269  0.23502227  1
  O  O21  1  0.57509078  0.41811213  0.75540284  1
  O  O22  1  0.93581884  0.69535444  0.85473214  1
  O  O23  1  0.24199531  0.31640609  0.65715453  1
  O  O24  1  0.26969011  0.91480253  0.07900156  1
  O  O25  1  0.84853231  0.92776661  0.67634797  1
  O  O26  1  0.07437201  0.65199048  0.33959434  1
  P  P27  1  0.87614967  0.12050007  0.74840964  1
  P  P28  1  0.62268667  0.37379735  0.25294004  1
  P  P29  1  0.75256254  0.88124974  0.12125831  1
  P  P30  1  0.37888537  0.25318665  0.62506415  1
  P  P31  1  0.24404101  0.62657720  0.36864981  1
  P  P32  1  0.12777498  0.74687129  0.87417553  1
  Bi  Bi33  1  0.49081005  0.98934847  0.83377127  1
  Bi  Bi34  1  0.01244063  0.35292723  0.51365596  1
  Bi  Bi35  1  0.50112326  0.98747424  0.34298278  1
  Bi  Bi36  1  0.16130848  0.16319742  0.14401898  1
  Bi  Bi37  1  0.84029994  0.51277731  0.00193524  1
