# generated using pymatgen
data_Li2Sn(PO3)4
_symmetry_space_group_name_H-M   'P 1'
_cell_length_a   9.85164925
_cell_length_b   9.85161283
_cell_length_c   4.72747200
_cell_angle_alpha   90.00101565
_cell_angle_beta   90.00059175
_cell_angle_gamma   90.00012768
_symmetry_Int_Tables_number   1
_chemical_formula_structural   Li2Sn(PO3)4
_chemical_formula_sum   'Li4 Sn2 P8 O24'
_cell_volume   458.82306494
_cell_formula_units_Z   2
loop_
 _symmetry_equiv_pos_site_id
 _symmetry_equiv_pos_as_xyz
  1  'x, y, z'
loop_
 _atom_site_type_symbol
 _atom_site_label
 _atom_site_symmetry_multiplicity
 _atom_site_fract_x
 _atom_site_fract_y
 _atom_site_fract_z
 _atom_site_occupancy
  Li  Li0  1  0.00001950  0.50002755  0.50001331  1
  Li  Li1  1  0.49997517  0.49996977  0.50000817  1
  Li  Li2  1  0.50001983  0.00002395  0.50000320  1
  Li  Li3  1  0.99997402  0.99996966  0.50000603  1
  O  O4  1  0.03436374  0.32235728  0.23350988  1
  O  O5  1  0.03436238  0.17765108  0.76649781  1
  O  O6  1  0.14280809  0.85721634  0.84661135  1
  O  O7  1  0.14280312  0.64280616  0.15340142  1
  O  O8  1  0.17764449  0.46565405  0.76648979  1
  O  O9  1  0.17764867  0.03435652  0.23349596  1
  O  O10  1  0.32234424  0.03435920  0.76651748  1
  O  O11  1  0.32234495  0.46564275  0.23349984  1
  O  O12  1  0.35721398  0.64281021  0.84661014  1
  O  O13  1  0.35721369  0.85721340  0.15339047  1
  O  O14  1  0.46564470  0.17766370  0.23347856  1
  O  O15  1  0.46565486  0.32235713  0.76650274  1
  O  O16  1  0.53435180  0.67764514  0.23349886  1
  O  O17  1  0.53435889  0.82234060  0.76652312  1
  O  O18  1  0.64279360  0.14279366  0.84660890  1
  O  O19  1  0.64279101  0.35719540  0.15338951  1
  O  O20  1  0.67766123  0.53435665  0.76649513  1
  O  O21  1  0.67766077  0.96565211  0.23348861  1
  O  O22  1  0.82236237  0.53436041  0.23351179  1
  O  O23  1  0.82235050  0.96565023  0.76650911  1
  O  O24  1  0.85720641  0.35719955  0.84660534  1
  O  O25  1  0.85719759  0.14278835  0.15338941  1
  O  O26  1  0.96563956  0.82234751  0.23349937  1
  O  O27  1  0.96565111  0.67764533  0.76648815  1
  P  P28  1  0.03927606  0.74999316  0.00000272  1
  P  P29  1  0.24998986  0.53927932  0.00000181  1
  P  P30  1  0.24999383  0.96072113  0.99999034  1
  P  P31  1  0.46071766  0.74999395  0.99999219  1
  P  P32  1  0.53928767  0.25001594  -0.00000222  1
  P  P33  1  0.75001236  0.03928812  0.00000550  1
  P  P34  1  0.75001353  0.46072827  0.99998403  1
  P  P35  1  0.96073295  0.25000856  0.99998827  1
  Sn  Sn36  1  0.24997073  0.25000922  0.49999650  1
  Sn  Sn37  1  0.75000508  0.74996862  0.49999741  1
