# generated using pymatgen
data_LiCu5P3O13
_symmetry_space_group_name_H-M   'P 1'
_cell_length_a   6.24785731
_cell_length_b   8.24237191
_cell_length_c   9.90626012
_cell_angle_alpha   92.35063029
_cell_angle_beta   90.23161432
_cell_angle_gamma   90.35820260
_symmetry_Int_Tables_number   1
_chemical_formula_structural   LiCu5P3O13
_chemical_formula_sum   'Li2 Cu10 P6 O26'
_cell_volume   509.70035425
_cell_formula_units_Z   2
loop_
 _symmetry_equiv_pos_site_id
 _symmetry_equiv_pos_as_xyz
  1  'x, y, z'
loop_
 _atom_site_type_symbol
 _atom_site_label
 _atom_site_symmetry_multiplicity
 _atom_site_fract_x
 _atom_site_fract_y
 _atom_site_fract_z
 _atom_site_occupancy
  Li  Li0  1  0.75082598  0.56684194  0.54466927  1
  Li  Li1  1  0.24917402  0.43315806  0.45533073  1
  Cu  Cu2  1  0.49860304  0.86085088  0.21481894  1
  Cu  Cu3  1  0.25683701  0.56771150  0.10256747  1
  Cu  Cu4  1  0.99551364  0.85978355  0.21608413  1
  Cu  Cu5  1  0.00448636  0.14021645  0.78391587  1
  Cu  Cu6  1  0.50139696  0.13914912  0.78518106  1
  Cu  Cu7  1  0.74883083  0.22145692  0.45538604  1
  Cu  Cu8  1  0.74316299  0.43228850  0.89743253  1
  Cu  Cu9  1  0.25116917  0.77854308  0.54461396  1
  Cu  Cu10  1  0.25494456  0.85425894  0.92072164  1
  Cu  Cu11  1  0.74505544  0.14574106  0.07927836  1
  P  P12  1  0.25272313  0.48639984  0.76904110  1
  P  P13  1  0.24978088  0.13196580  0.50781566  1
  P  P14  1  0.74931264  0.84177476  0.88606001  1
  P  P15  1  0.25068736  0.15822524  0.11393999  1
  P  P16  1  0.74727687  0.51360016  0.23095890  1
  P  P17  1  0.75021912  0.86803420  0.49218434  1
  O  O18  1  0.75741188  0.20014691  0.88400372  1
  O  O19  1  0.54316181  0.90138000  0.81265204  1
  O  O20  1  0.75841140  0.65822832  0.87938135  1
  O  O21  1  0.74541234  0.90862385  0.03665927  1
  O  O22  1  0.74869653  0.38540561  0.11118574  1
  O  O23  1  0.95257114  0.62262263  0.21989018  1
  O  O24  1  0.25130347  0.61459439  0.88881426  1
  O  O25  1  0.24947188  0.09231519  0.66351371  1
  O  O26  1  0.75052812  0.90768481  0.33648629  1
  O  O27  1  0.05819709  0.24166975  0.47322894  1
  O  O28  1  0.04506027  0.09161087  0.18487638  1
  O  O29  1  0.25178594  0.96548843  0.43029507  1
  O  O30  1  0.55882438  0.75552861  0.52436668  1
  O  O31  1  0.24258812  0.79985309  0.11599628  1
  O  O32  1  0.54010830  0.61837123  0.22047117  1
  O  O33  1  0.24938684  0.56397514  0.62854575  1
  O  O34  1  0.94180291  0.75833025  0.52677106  1
  O  O35  1  0.74821406  0.03451157  0.56970493  1
  O  O36  1  0.24158860  0.34177168  0.12061865  1
  O  O37  1  0.04742886  0.37737737  0.78010982  1
  O  O38  1  0.95493973  0.90838913  0.81512362  1
  O  O39  1  0.75061316  0.43602486  0.37145425  1
  O  O40  1  0.45989170  0.38162877  0.77952883  1
  O  O41  1  0.25458766  0.09137615  0.96334073  1
  O  O42  1  0.45683919  0.09862000  0.18734796  1
  O  O43  1  0.44117562  0.24447139  0.47563332  1
