# generated using pymatgen
data_BiP2O7
_symmetry_space_group_name_H-M   'P 1'
_cell_length_a   7.63933223
_cell_length_b   8.85097509
_cell_length_c   10.18215580
_cell_angle_alpha   90.00000000
_cell_angle_beta   110.57449028
_cell_angle_gamma   90.00000000
_symmetry_Int_Tables_number   1
_chemical_formula_structural   BiP2O7
_chemical_formula_sum   'Bi4 P8 O28'
_cell_volume   644.55852451
_cell_formula_units_Z   4
loop_
 _symmetry_equiv_pos_site_id
 _symmetry_equiv_pos_as_xyz
  1  'x, y, z'
loop_
 _atom_site_type_symbol
 _atom_site_label
 _atom_site_symmetry_multiplicity
 _atom_site_fract_x
 _atom_site_fract_y
 _atom_site_fract_z
 _atom_site_occupancy
  O  O0  1  0.55588355  0.09143326  0.33641339  1
  O  O1  1  0.97329832  0.89610608  0.13490789  1
  O  O2  1  0.80040909  0.64059491  0.08047972  1
  O  O3  1  0.97329832  0.60389392  0.63490789  1
  O  O4  1  0.02670168  0.10389392  0.86509211  1
  O  O5  1  0.19959091  0.35940509  0.91952028  1
  O  O6  1  0.02670168  0.39610608  0.36509211  1
  O  O7  1  0.11490828  0.83742073  0.56109777  1
  O  O8  1  0.16936125  0.28895479  0.61520473  1
  O  O9  1  0.31809195  0.69089902  0.90810106  1
  O  O10  1  0.19959091  0.14059491  0.41952028  1
  O  O11  1  0.35900515  0.62763151  0.60034506  1
  O  O12  1  0.11490828  0.66257927  0.06109777  1
  O  O13  1  0.16936125  0.21104521  0.11520473  1
  O  O14  1  0.31809195  0.80910098  0.40810106  1
  O  O15  1  0.44411645  0.90856674  0.66358661  1
  O  O16  1  0.55588355  0.40856674  0.83641339  1
  O  O17  1  0.83063875  0.71104521  0.38479527  1
  O  O18  1  0.35900515  0.87236849  0.10034506  1
  O  O19  1  0.44411645  0.59143326  0.16358661  1
  O  O20  1  0.64099485  0.12763151  0.89965494  1
  O  O21  1  0.68190805  0.19089902  0.59189894  1
  O  O22  1  0.83063875  0.78895479  0.88479527  1
  O  O23  1  0.88509172  0.33742073  0.93890223  1
  O  O24  1  0.64099485  0.37236849  0.39965494  1
  O  O25  1  0.80040909  0.85940509  0.58047972  1
  O  O26  1  0.68190805  0.30910098  0.09189894  1
  O  O27  1  0.88509172  0.16257927  0.43890223  1
  P  P28  1  0.68019727  0.29517021  0.94088608  1
  P  P29  1  0.31980273  0.70482979  0.05911392  1
  P  P30  1  0.68019727  0.20482979  0.44088608  1
  P  P31  1  0.92489213  0.74504174  0.54249456  1
  P  P32  1  0.07510787  0.24504174  0.95750544  1
  P  P33  1  0.07510787  0.25495826  0.45750544  1
  P  P34  1  0.92489213  0.75495826  0.04249456  1
  P  P35  1  0.31980273  0.79517021  0.55911392  1
  Bi  Bi36  1  0.73942627  0.50560545  0.24782539  1
  Bi  Bi37  1  0.73942627  0.99439455  0.74782539  1
  Bi  Bi38  1  0.26057373  0.00560545  0.25217461  1
  Bi  Bi39  1  0.26057373  0.49439455  0.75217461  1
