# generated using pymatgen
data_Ga(MoS2)4
_symmetry_space_group_name_H-M   'P 1'
_cell_length_a   6.91410837
_cell_length_b   6.91410837
_cell_length_c   6.91410836
_cell_angle_alpha   60.72856906
_cell_angle_beta   60.72856906
_cell_angle_gamma   60.72856908
_symmetry_Int_Tables_number   1
_chemical_formula_structural   Ga(MoS2)4
_chemical_formula_sum   'Ga1 Mo4 S8'
_cell_volume   237.56127329
_cell_formula_units_Z   1
loop_
 _symmetry_equiv_pos_site_id
 _symmetry_equiv_pos_as_xyz
  1  'x, y, z'
loop_
 _atom_site_type_symbol
 _atom_site_label
 _atom_site_symmetry_multiplicity
 _atom_site_fract_x
 _atom_site_fract_y
 _atom_site_fract_z
 _atom_site_occupancy
  S  S0  1  0.59310709  0.13788463  0.13788463  1
  S  S1  1  0.13788463  0.13788463  0.59310709  1
  S  S2  1  0.13788463  0.59310709  0.13788463  1
  S  S3  1  0.13687539  0.13687539  0.13687539  1
  S  S4  1  0.09888434  0.63699136  0.63699136  1
  S  S5  1  0.63224691  0.63224691  0.63224691  1
  S  S6  1  0.63699136  0.09888434  0.63699136  1
  S  S7  1  0.63699136  0.63699136  0.09888434  1
  Ga  Ga8  1  0.99953126  0.99953126  0.99953126  1
  Mo  Mo9  1  0.39643722  0.39643722  0.81011037  1
  Mo  Mo10  1  0.39643722  0.81011037  0.39643722  1
  Mo  Mo11  1  0.40181824  0.40181824  0.40181824  1
  Mo  Mo12  1  0.81011037  0.39643722  0.39643722  1
