# generated using pymatgen
data_ThP7
_symmetry_space_group_name_H-M   'P 1'
_cell_length_a   5.63346011
_cell_length_b   10.26069161
_cell_length_c   10.45611503
_cell_angle_alpha   90.00000000
_cell_angle_beta   90.00000000
_cell_angle_gamma   90.00000000
_symmetry_Int_Tables_number   1
_chemical_formula_structural   ThP7
_chemical_formula_sum   'Th4 P28'
_cell_volume   604.39687574
_cell_formula_units_Z   4
loop_
 _symmetry_equiv_pos_site_id
 _symmetry_equiv_pos_as_xyz
  1  'x, y, z'
loop_
 _atom_site_type_symbol
 _atom_site_label
 _atom_site_symmetry_multiplicity
 _atom_site_fract_x
 _atom_site_fract_y
 _atom_site_fract_z
 _atom_site_occupancy
  P  P0  1  0.00992057  0.75892058  0.49871700  1
  P  P1  1  0.50992057  0.74107942  0.50128300  1
  P  P2  1  0.99007943  0.25892058  0.00128300  1
  P  P3  1  0.49007943  0.24107942  0.99871700  1
  P  P4  1  0.67793284  0.75416896  0.79535338  1
  P  P5  1  0.17793284  0.74583104  0.20464662  1
  P  P6  1  0.32206716  0.25416896  0.70464662  1
  P  P7  1  0.82206716  0.24583104  0.29535338  1
  P  P8  1  0.54943148  0.73178110  0.28620313  1
  P  P9  1  0.04943148  0.76821890  0.71379687  1
  P  P10  1  0.45056852  0.23178110  0.21379687  1
  P  P11  1  0.95056852  0.26821890  0.78620313  1
  P  P12  1  0.27204663  0.75905503  0.00037562  1
  P  P13  1  0.77204663  0.74094497  0.99962438  1
  P  P14  1  0.72795337  0.25905503  0.49962438  1
  P  P15  1  0.22795337  0.24094497  0.50037562  1
  P  P16  1  0.63672952  0.94145744  0.26012083  1
  P  P17  1  0.13672952  0.55854256  0.73987917  1
  P  P18  1  0.36327048  0.44145744  0.23987917  1
  P  P19  1  0.86327048  0.05854256  0.76012083  1
  P  P20  1  0.20792925  0.55076179  0.94830337  1
  P  P21  1  0.70792925  0.94923821  0.05169663  1
  P  P22  1  0.79207075  0.05076179  0.55169663  1
  P  P23  1  0.29207075  0.44923821  0.44830337  1
  P  P24  1  0.55854196  0.44858091  0.94855547  1
  P  P25  1  0.05854196  0.05141909  0.05144453  1
  P  P26  1  0.44145804  0.94858091  0.55144453  1
  P  P27  1  0.94145804  0.55141909  0.44855547  1
  Th  Th28  1  0.63716565  0.48928962  0.66921381  1
  Th  Th29  1  0.13716565  0.01071038  0.33078619  1
  Th  Th30  1  0.36283435  0.98928962  0.83078619  1
  Th  Th31  1  0.86283435  0.51071038  0.16921381  1
