# generated using pymatgen
data_NaTa3N5
_symmetry_space_group_name_H-M   'P 1'
_cell_length_a   4.03918937
_cell_length_b   5.51374154
_cell_length_c   10.42433878
_cell_angle_alpha   90.00000000
_cell_angle_beta   90.00000000
_cell_angle_gamma   111.48661677
_symmetry_Int_Tables_number   1
_chemical_formula_structural   NaTa3N5
_chemical_formula_sum   'Na2 Ta6 N10'
_cell_volume   216.02647732
_cell_formula_units_Z   2
loop_
 _symmetry_equiv_pos_site_id
 _symmetry_equiv_pos_as_xyz
  1  'x, y, z'
loop_
 _atom_site_type_symbol
 _atom_site_label
 _atom_site_symmetry_multiplicity
 _atom_site_fract_x
 _atom_site_fract_y
 _atom_site_fract_z
 _atom_site_occupancy
  Na  Na0  1  0.49608350  -0.00783300  0.75000000  1
  Na  Na1  1  0.50391650  1.00783300  0.25000000  1
  Ta  Ta2  1  0.86019663  0.72039326  0.54681932  1
  Ta  Ta3  1  0.20344187  0.40688375  0.75000000  1
  Ta  Ta4  1  0.13980337  0.27960674  0.04681932  1
  Ta  Ta5  1  0.13980337  0.27960674  0.45318068  1
  Ta  Ta6  1  0.79655813  0.59311625  0.25000000  1
  Ta  Ta7  1  0.86019663  0.72039326  0.95318068  1
  N  N8  1  0.67901801  0.35803602  0.07888688  1
  N  N9  1  0.04530466  0.09060933  0.87851569  1
  N  N10  1  0.04530466  0.09060933  0.62148431  1
  N  N11  1  0.95469534  0.90939067  0.37851569  1
  N  N12  1  0.67901801  0.35803602  0.42111312  1
  N  N13  1  0.74653341  0.49306682  0.75000000  1
  N  N14  1  0.32098199  0.64196398  0.57888688  1
  N  N15  1  0.25346659  0.50693318  0.25000000  1
  N  N16  1  0.95469534  0.90939067  0.12148431  1
  N  N17  1  0.32098199  0.64196398  0.92111312  1
