# generated using pymatgen
data_Ba2Cr7O14
_symmetry_space_group_name_H-M   'P 1'
_cell_length_a   9.95558506
_cell_length_b   9.95558506
_cell_length_c   9.95558506
_cell_angle_alpha   34.39628489
_cell_angle_beta   34.39628493
_cell_angle_gamma   34.39628486
_symmetry_Int_Tables_number   1
_chemical_formula_structural   Ba2Cr7O14
_chemical_formula_sum   'Ba2 Cr7 O14'
_cell_volume   280.87508471
_cell_formula_units_Z   1
loop_
 _symmetry_equiv_pos_site_id
 _symmetry_equiv_pos_as_xyz
  1  'x, y, z'
loop_
 _atom_site_type_symbol
 _atom_site_label
 _atom_site_symmetry_multiplicity
 _atom_site_fract_x
 _atom_site_fract_y
 _atom_site_fract_z
 _atom_site_occupancy
  O  O0  1  0.87074927  0.87074927  0.87074927  1
  O  O1  1  0.12925073  0.12925073  0.12925073  1
  O  O2  1  0.36445317  0.36445317  0.88688842  1
  O  O3  1  0.36445317  0.88688842  0.36445317  1
  O  O4  1  0.88688842  0.36445317  0.36445317  1
  O  O5  1  0.11311158  0.63554683  0.63554683  1
  O  O6  1  0.63554683  0.63554683  0.11311158  1
  O  O7  1  0.63554683  0.11311158  0.63554683  1
  O  O8  1  0.21918787  0.21918787  0.70676095  1
  O  O9  1  0.78081213  0.29323905  0.78081213  1
  O  O10  1  0.78081213  0.78081213  0.29323905  1
  O  O11  1  0.29323905  0.78081213  0.78081213  1
  O  O12  1  0.70676095  0.21918787  0.21918787  1
  O  O13  1  0.21918787  0.70676095  0.21918787  1
  Cr  Cr14  1  0.93787386  0.93787386  0.93787386  1
  Cr  Cr15  1  0.06212614  0.06212614  0.06212614  1
  Cr  Cr16  1  0.57255637  0.57255637  0.57255637  1
  Cr  Cr17  1  0.42744363  0.42744363  0.42744363  1
  Cr  Cr18  1  0.00000000  0.50000000  0.00000000  1
  Cr  Cr19  1  0.50000000  0.00000000  0.00000000  1
  Cr  Cr20  1  0.00000000  0.00000000  0.50000000  1
  Ba  Ba21  1  0.71094768  0.71094768  0.71094768  1
  Ba  Ba22  1  0.28905232  0.28905232  0.28905232  1
