# generated using pymatgen
data_LiFe5O8
_symmetry_space_group_name_H-M   'P 1'
_cell_length_a   8.48796082
_cell_length_b   8.48796082
_cell_length_c   8.48796082
_cell_angle_alpha   90.00000000
_cell_angle_beta   90.00000000
_cell_angle_gamma   90.00000000
_symmetry_Int_Tables_number   1
_chemical_formula_structural   LiFe5O8
_chemical_formula_sum   'Li4 Fe20 O32'
_cell_volume   611.51920201
_cell_formula_units_Z   4
loop_
 _symmetry_equiv_pos_site_id
 _symmetry_equiv_pos_as_xyz
  1  'x, y, z'
loop_
 _atom_site_type_symbol
 _atom_site_label
 _atom_site_symmetry_multiplicity
 _atom_site_fract_x
 _atom_site_fract_y
 _atom_site_fract_z
 _atom_site_occupancy
  Li  Li0  1  0.62499941  0.62499941  0.62499941  1
  Li  Li1  1  0.37499989  0.12500037  0.87500015  1
  Li  Li2  1  0.87500015  0.37499989  0.12500037  1
  Li  Li3  1  0.12500037  0.87500015  0.37499989  1
  O  O4  1  0.11343567  0.61343593  0.88656362  1
  O  O5  1  0.13202201  0.86613932  0.12316165  1
  O  O6  1  0.63202105  0.63386024  0.87683765  1
  O  O7  1  0.86613932  0.12316165  0.13202201  1
  O  O8  1  0.13386120  0.62316191  0.36797824  1
  O  O9  1  0.12316165  0.13202201  0.86613932  1
  O  O10  1  0.37683861  0.86797850  0.36613906  1
  O  O11  1  0.38202153  0.87316143  0.88386098  1
  O  O12  1  0.88202179  0.62683813  0.11613954  1
  O  O13  1  0.61797899  0.37316239  0.61613980  1
  O  O14  1  0.62683813  0.11613954  0.88202179  1
  O  O15  1  0.61613980  0.61797899  0.37316239  1
  O  O16  1  0.11613954  0.88202179  0.62683813  1
  O  O17  1  0.87316143  0.88386098  0.38202153  1
  O  O18  1  0.88386098  0.38202153  0.87316143  1
  O  O19  1  0.37316239  0.61613980  0.61797899  1
  O  O20  1  0.12683787  0.38386072  0.11797873  1
  O  O21  1  0.38386072  0.11797873  0.12683787  1
  O  O22  1  0.87683765  0.63202105  0.63386024  1
  O  O23  1  0.62316191  0.36797824  0.13386120  1
  O  O24  1  0.38656459  0.38656459  0.38656459  1
  O  O25  1  0.13656384  0.36343641  0.63656410  1
  O  O26  1  0.63656410  0.13656384  0.36343641  1
  O  O27  1  0.36343641  0.63656410  0.13656384  1
  O  O28  1  0.36613906  0.37683861  0.86797850  1
  O  O29  1  0.88656362  0.11343567  0.61343593  1
  O  O30  1  0.63386024  0.87683765  0.63202105  1
  O  O31  1  0.86343545  0.86343545  0.86343545  1
  O  O32  1  0.11797873  0.12683787  0.38386072  1
  O  O33  1  0.86797850  0.36613906  0.37683861  1
  O  O34  1  0.36797824  0.13386120  0.62316191  1
  O  O35  1  0.61343593  0.88656362  0.11343567  1
  Fe  Fe36  1  0.12500037  0.36718057  0.88281946  1
  Fe  Fe37  1  0.25288412  0.25288412  0.25288412  1
  Fe  Fe38  1  0.00288513  0.49711565  0.50288487  1
  Fe  Fe39  1  0.49711565  0.50288487  0.00288513  1
  Fe  Fe40  1  0.50288487  0.00288513  0.49711565  1
  Fe  Fe41  1  0.75288438  0.24711491  0.74711517  1
  Fe  Fe42  1  0.24711491  0.74711517  0.75288438  1
  Fe  Fe43  1  0.74711517  0.75288438  0.24711491  1
  Fe  Fe44  1  0.99711539  0.99711539  0.99711539  1
  Fe  Fe45  1  0.62499941  0.13281846  0.11718106  1
  Fe  Fe46  1  0.61718132  0.87500015  0.86718083  1
  Fe  Fe47  1  0.63281872  0.38281920  0.37499989  1
  Fe  Fe48  1  0.36718057  0.88281946  0.12500037  1
  Fe  Fe49  1  0.88281946  0.12500037  0.36718057  1
  Fe  Fe50  1  0.11718106  0.62499941  0.13281846  1
  Fe  Fe51  1  0.38281920  0.37499989  0.63281872  1
  Fe  Fe52  1  0.86718083  0.61718132  0.87500015  1
  Fe  Fe53  1  0.13281846  0.11718106  0.62499941  1
  Fe  Fe54  1  0.37499989  0.63281872  0.38281920  1
  Fe  Fe55  1  0.87500015  0.86718083  0.61718132  1
