# generated using pymatgen
data_LiFe(PO3)4
_symmetry_space_group_name_H-M   'P 1'
_cell_length_a   9.49401952
_cell_length_b   10.50089944
_cell_length_c   9.09949699
_cell_angle_alpha   90.00000000
_cell_angle_beta   90.00000000
_cell_angle_gamma   90.00000000
_symmetry_Int_Tables_number   1
_chemical_formula_structural   LiFe(PO3)4
_chemical_formula_sum   'Li4 Fe4 P16 O48'
_cell_volume   907.18112482
_cell_formula_units_Z   4
loop_
 _symmetry_equiv_pos_site_id
 _symmetry_equiv_pos_as_xyz
  1  'x, y, z'
loop_
 _atom_site_type_symbol
 _atom_site_label
 _atom_site_symmetry_multiplicity
 _atom_site_fract_x
 _atom_site_fract_y
 _atom_site_fract_z
 _atom_site_occupancy
  Li  Li0  1  0.00220585  0.80993574  0.10304433  1
  Li  Li1  1  0.99779418  0.19006414  0.60304398  1
  Li  Li2  1  0.50220587  0.69006408  0.39695532  1
  Li  Li3  1  0.49779416  0.30993580  0.89695606  1
  O  O4  1  0.36372436  0.98916907  0.12459097  1
  O  O5  1  0.88714389  0.05591833  0.24201697  1
  O  O6  1  0.88421869  0.29606116  0.10029311  1
  O  O7  1  0.89995144  0.71938798  0.24576880  1
  O  O8  1  0.10004859  0.28061190  0.74576955  1
  O  O9  1  0.10251754  0.72054217  0.92819274  1
  O  O10  1  0.11578134  0.70393871  0.60029276  1
  O  O11  1  0.11285614  0.94408155  0.74201661  1
  O  O12  1  0.12657193  0.37795046  0.25076508  1
  O  O13  1  0.12643652  0.13747494  0.42484063  1
  O  O14  1  0.13627565  0.48916914  0.87540942  1
  O  O15  1  0.14591919  0.13601467  0.10544083  1
  O  O16  1  0.14687334  0.87307402  0.21649509  1
  O  O17  1  0.17794310  0.46826228  0.60251991  1
  O  O18  1  0.19820021  0.58622940  0.37488908  1
  O  O19  1  0.20709500  0.57731462  0.11639413  1
  O  O20  1  0.29290502  0.07731468  0.88360626  1
  O  O21  1  0.30179981  0.08622947  0.62511021  1
  O  O22  1  0.32205691  0.96826222  0.39748048  1
  O  O23  1  0.35312667  0.37307408  0.78350420  1
  O  O24  1  0.35408083  0.63601461  0.89455846  1
  O  O25  1  0.89748249  0.27945771  0.42819310  1
  O  O26  1  0.37356350  0.63747487  0.57515977  1
  O  O27  1  0.37342808  0.87795040  0.74923421  1
  O  O28  1  0.38714388  0.44408161  0.25798378  1
  O  O29  1  0.38421868  0.20393878  0.39970653  1
  O  O30  1  0.39748247  0.22054223  0.07180655  1
  O  O31  1  0.39995142  0.78061184  0.25423084  1
  O  O32  1  0.60004861  0.21938804  0.75423049  1
  O  O33  1  0.60251756  0.77945764  0.57180729  1
  O  O34  1  0.61578135  0.79606110  0.89970728  1
  O  O35  1  0.61285615  0.55591827  0.75798342  1
  O  O36  1  0.62657195  0.12204947  0.24923457  1
  O  O37  1  0.62643654  0.36252500  0.07516012  1
  O  O38  1  0.63627567  0.01083080  0.62459062  1
  O  O39  1  0.64591920  0.36398526  0.39455881  1
  O  O40  1  0.64687336  0.62692579  0.28350455  1
  O  O41  1  0.67794312  0.03173766  0.89748013  1
  O  O42  1  0.69820022  0.91377041  0.12511056  1
  O  O43  1  0.70709501  0.92268519  0.38360661  1
  O  O44  1  0.79290503  0.42268526  0.61639378  1
  O  O45  1  0.80179982  0.41377047  0.87488983  1
  O  O46  1  0.82205693  0.53173760  0.10251916  1
  O  O47  1  0.85312669  0.12692586  0.71649584  1
  O  O48  1  0.85408085  0.86398520  0.60544158  1
  O  O49  1  0.87342810  0.62204941  0.75076582  1
  O  O50  1  0.87356351  0.86252494  0.92484027  1
  O  O51  1  0.86372438  0.51083074  0.37540978  1
  P  P52  1  0.76575805  0.51764605  0.75045552  1
  P  P53  1  0.78068769  0.39428793  0.04695835  1
  P  P54  1  0.73424200  0.01764612  0.24954487  1
  P  P55  1  0.79386170  0.38868070  0.44712139  1
  P  P56  1  0.20098703  0.38730239  0.75516311  1
  P  P57  1  0.20613833  0.61132013  0.94712104  1
  P  P58  1  0.21931234  0.60571194  0.54695910  1
  P  P59  1  0.23424198  0.48235382  0.25045588  1
  P  P60  1  0.26575803  0.98235376  0.74954451  1
  P  P61  1  0.28068767  0.10571201  0.45304130  1
  P  P62  1  0.29386168  0.11131924  0.05287826  1
  P  P63  1  0.29901299  0.88730233  0.24483618  1
  P  P64  1  0.70098704  0.11269754  0.74483693  1
  P  P65  1  0.70613835  0.88868064  0.55287900  1
  P  P66  1  0.71931236  0.89428787  0.95304094  1
  P  P67  1  0.79901301  0.61269748  0.25516346  1
  Fe  Fe68  1  0.98739766  0.78621013  0.74879877  1
  Fe  Fe69  1  0.51260239  0.28621019  0.25120163  1
  Fe  Fe70  1  0.48739764  0.71378969  0.75120127  1
  Fe  Fe71  1  0.01260237  0.21378975  0.24879912  1
