# generated using pymatgen
data_LiMn4(PO4)3
_symmetry_space_group_name_H-M   'P 1'
_cell_length_a   8.96282191
_cell_length_b   8.96282191
_cell_length_c   6.65989435
_cell_angle_alpha   72.14691939
_cell_angle_beta   107.85308068
_cell_angle_gamma   83.82818093
_symmetry_Int_Tables_number   1
_chemical_formula_structural   LiMn4(PO4)3
_chemical_formula_sum   'Li2 Mn8 P6 O24'
_cell_volume   472.57906597
_cell_formula_units_Z   2
loop_
 _symmetry_equiv_pos_site_id
 _symmetry_equiv_pos_as_xyz
  1  'x, y, z'
loop_
 _atom_site_type_symbol
 _atom_site_label
 _atom_site_symmetry_multiplicity
 _atom_site_fract_x
 _atom_site_fract_y
 _atom_site_fract_z
 _atom_site_occupancy
  Li  Li0  1  0.94926415  0.00896471  0.77307365  1
  Li  Li1  1  0.99103454  0.05073523  0.27307333  1
  O  O2  1  0.14427173  0.84243333  0.06790311  1
  O  O3  1  0.61836717  0.03477039  0.20011096  1
  O  O4  1  0.85419145  0.15601673  0.90882004  1
  O  O5  1  0.96522976  0.38163233  0.70011149  1
  O  O6  1  0.32961697  0.00414244  0.38451555  1
  O  O7  1  0.54243438  0.26937344  0.31421741  1
  O  O8  1  0.71635008  0.51936887  0.23329778  1
  O  O9  1  0.99585785  0.67038319  0.88451436  1
  O  O10  1  0.15756643  0.85572888  0.56790303  1
  O  O11  1  0.38453325  0.95724261  0.79524228  1
  O  O12  1  0.84398370  0.14580826  0.40882006  1
  O  O13  1  0.04275708  0.61546764  0.29524152  1
  O  O14  1  0.69215437  0.99036192  0.61762821  1
  O  O15  1  0.45879726  0.72103225  0.68566763  1
  O  O16  1  0.28991443  0.48384563  0.75458205  1
  O  O17  1  0.29117450  0.20044641  0.96481847  1
  O  O18  1  0.00963886  0.30784549  0.11762831  1
  O  O19  1  0.27896744  0.54120217  0.18566747  1
  O  O20  1  0.71086606  0.80236859  0.03470410  1
  O  O21  1  0.51615438  0.71008558  0.25458178  1
  O  O22  1  0.48063051  0.28365099  0.73329736  1
  O  O23  1  0.79955305  0.70882577  0.46481788  1
  O  O24  1  0.73062712  0.45756506  0.81421814  1
  O  O25  1  0.19763072  0.28913431  0.53470394  1
  P  P26  1  0.67157564  0.11235390  0.37809204  1
  P  P27  1  0.88764624  0.32842498  0.87809212  1
  P  P28  1  0.69236517  0.69053003  0.24889341  1
  P  P29  1  0.30947082  0.30763475  0.74889406  1
  P  P30  1  0.11535977  0.66977413  0.11126721  1
  P  P31  1  0.33022596  0.88464053  0.61126739  1
  Mn  Mn32  1  0.05620460  0.64395115  0.60617035  1
  Mn  Mn33  1  0.35604881  0.94379545  0.10617155  1
  Mn  Mn34  1  0.73493419  0.72322911  0.76031056  1
  Mn  Mn35  1  0.48740693  0.52858790  0.55065107  1
  Mn  Mn36  1  0.27677075  0.26506549  0.26031036  1
  Mn  Mn37  1  0.47141202  0.51259326  0.05065069  1
  Mn  Mn38  1  0.63618750  0.05711142  0.87925752  1
  Mn  Mn39  1  0.94288804  0.36381251  0.37925703  1
