# generated using pymatgen
data_Li2V(PO4)2
_symmetry_space_group_name_H-M   'P 1'
_cell_length_a   7.56212725
_cell_length_b   12.71788932
_cell_length_c   6.26493010
_cell_angle_alpha   90.00000000
_cell_angle_beta   98.13986597
_cell_angle_gamma   90.00000000
_symmetry_Int_Tables_number   1
_chemical_formula_structural   Li2V(PO4)2
_chemical_formula_sum   'Li8 V4 P8 O32'
_cell_volume   596.45503733
_cell_formula_units_Z   4
loop_
 _symmetry_equiv_pos_site_id
 _symmetry_equiv_pos_as_xyz
  1  'x, y, z'
loop_
 _atom_site_type_symbol
 _atom_site_label
 _atom_site_symmetry_multiplicity
 _atom_site_fract_x
 _atom_site_fract_y
 _atom_site_fract_z
 _atom_site_occupancy
  Li  Li0  1  0.09508317  0.76069454  0.69823101  1
  Li  Li1  1  0.09508354  0.73930571  0.19823165  1
  Li  Li2  1  0.44344186  0.88486262  0.54179041  1
  Li  Li3  1  0.55655816  0.38486280  0.95820982  1
  Li  Li4  1  0.44344089  0.61513684  0.04179082  1
  Li  Li5  1  0.55655853  0.11513702  0.45820886  1
  Li  Li6  1  0.90491685  0.26069472  0.80176922  1
  Li  Li7  1  0.90491723  0.23930510  0.30176826  1
  O  O8  1  0.30023903  0.03747333  0.45374109  1
  O  O9  1  0.02420067  0.53153212  0.22949410  1
  O  O10  1  0.09780322  0.18184357  0.66578388  1
  O  O11  1  0.09780359  0.31815624  0.16578451  1
  O  O12  1  0.20267512  0.59390426  0.66087894  1
  O  O13  1  0.22383385  0.40167996  0.56740690  1
  O  O14  1  0.28677326  0.74840343  0.98514113  1
  O  O15  1  0.30023866  0.46252649  0.95374045  1
  O  O16  1  0.20267550  0.90609598  0.16087798  1
  O  O17  1  0.22383288  0.09832064  0.06740731  1
  O  O18  1  0.28677363  0.75159603  0.48514177  1
  O  O19  1  0.02420030  0.96846734  0.72949506  1
  O  O20  1  0.37449914  0.92682263  0.83826732  1
  O  O21  1  0.37449951  0.57317761  0.33826796  1
  O  O22  1  0.47212969  0.14153542  0.79111232  1
  O  O23  1  0.47213006  0.35846440  0.29111136  1
  O  O24  1  0.52787033  0.64153524  0.70888791  1
  O  O25  1  0.52787070  0.85846501  0.20888854  1
  O  O26  1  0.97580009  0.03153230  0.27050581  1
  O  O27  1  0.62550126  0.07317779  0.16173195  1
  O  O28  1  0.69976136  0.96252631  0.54625978  1
  O  O29  1  0.71322676  0.24840361  0.51485910  1
  O  O30  1  0.77616617  0.90167978  0.93259173  1
  O  O31  1  0.79732490  0.09390444  0.83912129  1
  O  O32  1  0.69976040  0.53747393  0.04625859  1
  O  O33  1  0.71322713  0.25159621  0.01485974  1
  O  O34  1  0.77616654  0.59832046  0.43259237  1
  O  O35  1  0.79732393  0.40609616  0.33912170  1
  O  O36  1  0.90219680  0.68184418  0.83421635  1
  O  O37  1  0.90219583  0.81815606  0.33421516  1
  O  O38  1  0.97579972  0.46846752  0.77050517  1
  O  O39  1  0.62550088  0.42682203  0.66173291  1
  P  P40  1  0.17150260  0.47554871  0.73913724  1
  P  P41  1  0.17150163  0.02445111  0.23913766  1
  P  P42  1  0.36199536  0.64162198  0.53532739  1
  P  P43  1  0.36199439  0.85837827  0.03532781  1
  P  P44  1  0.63800466  0.14162137  0.96467284  1
  P  P45  1  0.63800503  0.35837845  0.46467187  1
  P  P46  1  0.82849779  0.52445093  0.26086202  1
  P  P47  1  0.82849742  0.97554932  0.76086299  1
  V  V48  1  0.22531227  0.07977820  0.75023943  1
  V  V49  1  0.22531130  0.42022162  0.25023984  1
  V  V50  1  0.77468775  0.57977802  0.74976080  1
  V  V51  1  0.77468812  0.92022144  0.24976144  1
