# generated using pymatgen
data_Zn(GaS2)2
_symmetry_space_group_name_H-M   'P 1'
_cell_length_a   7.22081049
_cell_length_b   7.22081049
_cell_length_c   7.22081049
_cell_angle_alpha   60.00000000
_cell_angle_beta   60.00000000
_cell_angle_gamma   60.00000000
_symmetry_Int_Tables_number   1
_chemical_formula_structural   Zn(GaS2)2
_chemical_formula_sum   'Zn2 Ga4 S8'
_cell_volume   266.22132625
_cell_formula_units_Z   2
loop_
 _symmetry_equiv_pos_site_id
 _symmetry_equiv_pos_as_xyz
  1  'x, y, z'
loop_
 _atom_site_type_symbol
 _atom_site_label
 _atom_site_symmetry_multiplicity
 _atom_site_fract_x
 _atom_site_fract_y
 _atom_site_fract_z
 _atom_site_occupancy
  Zn  Zn0  1  0.62500000  0.12500000  0.12500000  1
  Zn  Zn1  1  0.37500000  0.87500000  0.87500000  1
  Ga  Ga2  1  0.00000000  0.00000000  0.50000000  1
  Ga  Ga3  1  0.00000000  0.50000000  -0.00000000  1
  Ga  Ga4  1  0.00000000  0.50000000  0.50000000  1
  Ga  Ga5  1  0.50000000  0.50000000  0.50000000  1
  S  S6  1  0.75862413  0.72412761  0.25862413  1
  S  S7  1  0.75862413  0.25862413  0.72412761  1
  S  S8  1  0.75862413  0.25862413  0.25862413  1
  S  S9  1  0.22412761  0.25862413  0.25862413  1
  S  S10  1  0.24137587  0.27587239  0.74137587  1
  S  S11  1  0.24137587  0.74137587  0.27587239  1
  S  S12  1  0.24137587  0.74137587  0.74137587  1
  S  S13  1  0.77587239  0.74137587  0.74137587  1
