# generated using pymatgen
data_MoP2O7
_symmetry_space_group_name_H-M   'P 1'
_cell_length_a   6.99672257
_cell_length_b   8.25485256
_cell_length_c   9.77255089
_cell_angle_alpha   90.00000000
_cell_angle_beta   108.82189665
_cell_angle_gamma   90.00000000
_symmetry_Int_Tables_number   1
_chemical_formula_structural   MoP2O7
_chemical_formula_sum   'Mo4 P8 O28'
_cell_volume   534.24993448
_cell_formula_units_Z   4
loop_
 _symmetry_equiv_pos_site_id
 _symmetry_equiv_pos_as_xyz
  1  'x, y, z'
loop_
 _atom_site_type_symbol
 _atom_site_label
 _atom_site_symmetry_multiplicity
 _atom_site_fract_x
 _atom_site_fract_y
 _atom_site_fract_z
 _atom_site_occupancy
  Mo  Mo0  1  0.27942087  0.27358912  0.49063000  1
  Mo  Mo1  1  0.27942087  0.22641088  0.99063000  1
  Mo  Mo2  1  0.72057913  0.72641088  0.50937000  1
  Mo  Mo3  1  0.72057913  0.77358912  0.00937000  1
  P  P4  1  0.54323608  0.40945041  0.29407494  1
  P  P5  1  0.06449032  0.03638563  0.20448726  1
  P  P6  1  0.54323608  0.09054959  0.79407494  1
  P  P7  1  0.93550968  0.96361437  0.79551274  1
  P  P8  1  0.06449032  0.46361437  0.70448726  1
  P  P9  1  0.45676392  0.59054959  0.70592506  1
  P  P10  1  0.93550968  0.53638563  0.29551274  1
  P  P11  1  0.45676392  0.90945041  0.20592506  1
  O  O12  1  0.46663897  0.07255455  0.13187340  1
  O  O13  1  0.86069906  0.55271859  0.65511540  1
  O  O14  1  0.58864362  0.90652800  0.36494437  1
  O  O15  1  0.22628583  0.89478218  0.20671655  1
  O  O16  1  0.89718949  0.89880008  0.64159574  1
  O  O17  1  0.41135638  0.40652800  0.13505563  1
  O  O18  1  0.07451690  0.32765362  0.60112680  1
  O  O19  1  0.10281051  0.39879908  0.85840426  1
  O  O20  1  0.10281051  0.10119992  0.35840426  1
  O  O21  1  0.49946636  0.23077698  0.88146898  1
  O  O22  1  0.50053364  0.76922302  0.11853102  1
  O  O23  1  0.92548310  0.82765362  0.89887320  1
  O  O24  1  0.22628583  0.60521782  0.70671655  1
  O  O25  1  0.86069906  0.94728141  0.15511540  1
  O  O26  1  0.58864362  0.59347200  0.86494437  1
  O  O27  1  0.89718949  0.60119992  0.14159574  1
  O  O28  1  0.49946636  0.26922302  0.38146898  1
  O  O29  1  0.92548310  0.67234638  0.39887320  1
  O  O30  1  0.07451690  0.17234638  0.10112680  1
  O  O31  1  0.46663897  0.42744545  0.63187340  1
  O  O32  1  0.53336103  0.92744545  0.86812660  1
  O  O33  1  0.13930094  0.44728141  0.34488460  1
  O  O34  1  0.13930094  0.05271859  0.84488460  1
  O  O35  1  0.77371417  0.10521782  0.79328345  1
  O  O36  1  0.77371417  0.39478218  0.29328345  1
  O  O37  1  0.50053364  0.73077698  0.61853102  1
  O  O38  1  0.53336103  0.57255455  0.36812660  1
  O  O39  1  0.41135638  0.09347200  0.63505563  1
