# generated using pymatgen
data_LiCr(PO3)4
_symmetry_space_group_name_H-M   'P 1'
_cell_length_a   6.96368653
_cell_length_b   12.31862158
_cell_length_c   6.96368653
_cell_angle_alpha   68.65197887
_cell_angle_beta   70.63723035
_cell_angle_gamma   111.34802112
_symmetry_Int_Tables_number   1
_chemical_formula_structural   LiCr(PO3)4
_chemical_formula_sum   'Li2 Cr2 P8 O24'
_cell_volume   437.81846432
_cell_formula_units_Z   2
loop_
 _symmetry_equiv_pos_site_id
 _symmetry_equiv_pos_as_xyz
  1  'x, y, z'
loop_
 _atom_site_type_symbol
 _atom_site_label
 _atom_site_symmetry_multiplicity
 _atom_site_fract_x
 _atom_site_fract_y
 _atom_site_fract_z
 _atom_site_occupancy
  Li  Li0  1  0.91825113  0.74999964  0.91825262  1
  Li  Li1  1  0.08174803  0.25000023  0.08174819  1
  O  O2  1  0.65370431  0.59396780  0.61861076  1
  O  O3  1  0.83763922  0.10496528  0.10381165  1
  O  O4  1  0.16235993  0.89503459  0.89618917  1
  O  O5  1  0.99577802  0.85373162  0.54480309  1
  O  O6  1  0.29676213  0.65144221  0.72124975  1
  O  O7  1  0.61860884  0.90603148  0.65370561  1
  O  O8  1  0.10381084  0.39503518  0.83763977  1
  O  O9  1  0.40441694  0.90450284  0.28978139  1
  O  O10  1  0.28978124  0.59549644  0.40441710  1
  O  O11  1  0.08485438  0.46226597  0.25195641  1
  O  O12  1  0.71021792  0.40450343  0.59558227  1
  O  O13  1  0.72124995  0.84855811  0.29676192  1
  O  O14  1  0.00422113  0.14626825  0.45519773  1
  O  O15  1  0.27875073  0.15144176  0.70323840  1
  O  O16  1  0.45519643  0.35373116  0.00422184  1
  O  O17  1  0.91514478  0.53773389  0.74804440  1
  O  O18  1  0.25195571  0.03773449  0.08485539  1
  O  O19  1  0.54480273  0.64626871  0.99577753  1
  O  O20  1  0.59558374  0.09549703  0.71021749  1
  O  O21  1  0.89618831  0.60496469  0.16236104  1
  O  O22  1  0.74804445  0.96226643  0.91514441  1
  O  O23  1  0.38139032  0.09396839  0.34629521  1
  O  O24  1  0.70323703  0.34855766  0.27875107  1
  O  O25  1  0.34629485  0.40603207  0.38139005  1
  P  P26  1  0.30484586  0.03597122  0.84186786  1
  P  P27  1  0.84186797  0.46402924  0.30484587  1
  P  P28  1  0.25239042  0.97365990  0.32825329  1
  P  P29  1  0.15813119  0.53597063  0.69515494  1
  P  P30  1  0.69515482  0.96402865  0.15813245  1
  P  P31  1  0.67174576  0.47365945  0.74760952  1
  P  P32  1  0.32825340  0.52634042  0.25239129  1
  P  P33  1  0.74760874  0.02633996  0.67174609  1
  Cr  Cr34  1  0.36284950  0.25000023  0.36284921  1
  Cr  Cr35  1  0.63715118  0.74999964  0.63715111  1
