# generated using pymatgen
data_AgBiI4
_symmetry_space_group_name_H-M   'P 1'
_cell_length_a   8.98545741
_cell_length_b   8.92827131
_cell_length_c   8.98545741
_cell_angle_alpha   60.21030798
_cell_angle_beta   58.67405105
_cell_angle_gamma   60.21030995
_symmetry_Int_Tables_number   1
_chemical_formula_structural   AgBiI4
_chemical_formula_sum   'Ag2 Bi2 I8'
_cell_volume   505.98483028
_cell_formula_units_Z   2
loop_
 _symmetry_equiv_pos_site_id
 _symmetry_equiv_pos_as_xyz
  1  'x, y, z'
loop_
 _atom_site_type_symbol
 _atom_site_label
 _atom_site_symmetry_multiplicity
 _atom_site_fract_x
 _atom_site_fract_y
 _atom_site_fract_z
 _atom_site_occupancy
  Ag  Ag0  1  0.00000000  0.00000000  0.50000000  1
  Ag  Ag1  1  0.50000000  0.00000000  0.00000000  1
  Bi  Bi2  1  0.00000000  0.00000000  0.00000000  1
  Bi  Bi3  1  0.00000000  0.50000000  0.00000000  1
  I  I4  1  0.24082357  0.24255484  0.24082357  1
  I  I5  1  0.24082357  0.77579803  0.24082357  1
  I  I6  1  0.24551157  0.25476019  0.74496805  1
  I  I7  1  0.74496805  0.25476019  0.24551157  1
  I  I8  1  0.25503195  0.74523981  0.75448843  1
  I  I9  1  0.75917643  0.22420197  0.75917643  1
  I  I10  1  0.75448843  0.74523981  0.25503195  1
  I  I11  1  0.75917643  0.75744516  0.75917643  1
