# generated using pymatgen
data_Ce(NdS2)2
_symmetry_space_group_name_H-M   'P 1'
_cell_length_a   7.42281649
_cell_length_b   7.42281666
_cell_length_c   7.42281724
_cell_angle_alpha   109.51113534
_cell_angle_beta   109.51113987
_cell_angle_gamma   109.39141528
_symmetry_Int_Tables_number   1
_chemical_formula_structural   Ce(NdS2)2
_chemical_formula_sum   'Ce2 Nd4 S8'
_cell_volume   314.83550796
_cell_formula_units_Z   2
loop_
 _symmetry_equiv_pos_site_id
 _symmetry_equiv_pos_as_xyz
  1  'x, y, z'
loop_
 _atom_site_type_symbol
 _atom_site_label
 _atom_site_symmetry_multiplicity
 _atom_site_fract_x
 _atom_site_fract_y
 _atom_site_fract_z
 _atom_site_occupancy
  Ce  Ce0  1  0.62500000  0.37500000  0.25000000  1
  Ce  Ce1  1  0.87500000  0.12500000  0.75000000  1
  Nd  Nd2  1  0.12947725  0.75000000  0.87947725  1
  Nd  Nd3  1  0.25000000  0.62947725  0.37947725  1
  Nd  Nd4  1  0.37052275  0.25000000  0.62052275  1
  Nd  Nd5  1  0.75000000  0.87052275  0.12052275  1
  S  S6  1  0.00028977  0.85064699  0.50105997  1
  S  S7  1  0.99922980  0.34958702  0.49894003  1
  S  S8  1  0.14935301  0.15041298  0.14964278  1
  S  S9  1  0.35064699  0.50028977  0.00105997  1
  S  S10  1  0.65041298  0.64935301  0.64964278  1
  S  S11  1  0.49971023  0.00077020  0.85035722  1
  S  S12  1  0.50077020  0.99971023  0.35035722  1
  S  S13  1  0.84958702  0.49922980  0.99894003  1
