# generated using pymatgen
data_Li7Mn11O24
_symmetry_space_group_name_H-M   'P 1'
_cell_length_a   5.81437345
_cell_length_b   17.65887758
_cell_length_c   10.33791053
_cell_angle_alpha   29.77861605
_cell_angle_beta   55.66812774
_cell_angle_gamma   59.97164440
_symmetry_Int_Tables_number   1
_chemical_formula_structural   Li7Mn11O24
_chemical_formula_sum   'Li7 Mn11 O24'
_cell_volume   435.17325449
_cell_formula_units_Z   1
loop_
 _symmetry_equiv_pos_site_id
 _symmetry_equiv_pos_as_xyz
  1  'x, y, z'
loop_
 _atom_site_type_symbol
 _atom_site_label
 _atom_site_symmetry_multiplicity
 _atom_site_fract_x
 _atom_site_fract_y
 _atom_site_fract_z
 _atom_site_occupancy
  Li  Li0  1  0.13444544  0.03544882  0.06224679  1
  Li  Li1  1  0.12935823  0.33887916  0.11176829  1
  Li  Li2  1  0.12621455  0.67431454  0.11583643  1
  Li  Li3  1  0.87379854  0.99235431  0.88414722  1
  Li  Li4  1  0.87065530  0.32777813  0.88824485  1
  Li  Li5  1  0.86557366  0.63122643  0.93774062  1
  Li  Li6  1  0.00001338  0.83332774  0.49999141  1
  Mn  Mn7  1  0.49332364  0.16030552  0.01258071  1
  Mn  Mn8  1  0.50499096  0.99685046  0.49436648  1
  Mn  Mn9  1  -0.00008803  0.33336939  0.49997690  1
  Mn  Mn10  1  0.50907328  0.17033963  0.48234920  1
  Mn  Mn11  1  0.50669700  0.50636327  0.98739853  1
  Mn  Mn12  1  0.01321249  0.99709539  0.49458371  1
  Mn  Mn13  1  0.50008044  0.33333417  0.50002199  1
  Mn  Mn14  1  0.98676447  0.66956632  0.50541843  1
  Mn  Mn15  1  0.49096645  0.49628437  0.51766624  1
  Mn  Mn16  1  0.49998063  0.83333153  0.00002905  1
  Mn  Mn17  1  0.49501756  0.66980172  0.50565502  1
  O  O18  1  0.23009917  0.01974470  0.24206955  1
  O  O19  1  0.26357189  0.14859840  0.26159846  1
  O  O20  1  0.72337855  0.01646581  0.24552904  1
  O  O21  1  0.27392489  0.33699074  0.24809032  1
  O  O22  1  0.73092006  0.14889505  0.29126682  1
  O  O23  1  0.27595513  0.18710229  0.68816016  1
  O  O24  1  0.29122048  0.49369755  0.23388247  1
  O  O25  1  0.72398407  0.33047178  0.24766404  1
  O  O26  1  0.27600457  0.33620417  0.75233017  1
  O  O27  1  0.25592798  0.66562255  0.27515591  1
  O  O28  1  0.72404853  0.47960680  0.31179530  1
  O  O29  1  0.70879832  0.17299152  0.76607535  1
  O  O30  1  0.26904614  0.51776807  0.70874045  1
  O  O31  1  0.23176505  0.81545834  0.29375105  1
  O  O32  1  0.72605374  0.32968213  0.75192090  1
  O  O33  1  0.70143410  0.66454568  0.27642143  1
  O  O34  1  0.27660868  0.65020318  0.75447234  1
  O  O35  1  0.75131601  0.80617204  0.28871658  1
  O  O36  1  0.24866298  0.86048886  0.71128173  1
  O  O37  1  0.73642832  0.51805131  0.73841023  1
  O  O38  1  0.76989293  0.64693057  0.75791332  1
  O  O39  1  0.29855863  0.00210557  0.72362400  1
  O  O40  1  0.76825808  0.85119569  0.70624373  1
  O  O41  1  0.74406370  0.00103630  0.72486480  1
