# generated using pymatgen
data_SrMg5
_symmetry_space_group_name_H-M   'P 1'
_cell_length_a   5.79056204
_cell_length_b   5.79056232
_cell_length_c   17.26533523
_cell_angle_alpha   90.00000000
_cell_angle_beta   90.00000000
_cell_angle_gamma   119.99999841
_symmetry_Int_Tables_number   1
_chemical_formula_structural   SrMg5
_chemical_formula_sum   'Sr3 Mg15'
_cell_volume   501.35703430
_cell_formula_units_Z   3
loop_
 _symmetry_equiv_pos_site_id
 _symmetry_equiv_pos_as_xyz
  1  'x, y, z'
loop_
 _atom_site_type_symbol
 _atom_site_label
 _atom_site_symmetry_multiplicity
 _atom_site_fract_x
 _atom_site_fract_y
 _atom_site_fract_z
 _atom_site_occupancy
  Sr  Sr0  1  0.33333300  0.66666700  0.16666700  1
  Sr  Sr1  1  0.00000000  0.00000000  0.50000000  1
  Sr  Sr2  1  0.66666700  0.33333300  0.83333300  1
  Mg  Mg3  1  0.33946869  0.00613569  0.33333300  1
  Mg  Mg4  1  0.66666700  0.33333300  0.16702909  1
  Mg  Mg5  1  0.99386431  0.33333300  0.33333300  1
  Mg  Mg6  1  0.66666700  0.66053131  0.33333300  1
  Mg  Mg7  1  0.00000000  0.00000000  0.16630491  1
  Mg  Mg8  1  0.00613569  0.33946869  0.66666700  1
  Mg  Mg9  1  0.33333300  0.66666700  0.50036209  1
  Mg  Mg10  1  0.66053131  0.66666700  0.66666700  1
  Mg  Mg11  1  0.33333300  0.99386431  0.66666700  1
  Mg  Mg12  1  0.66666700  0.33333300  0.49963791  1
  Mg  Mg13  1  0.67280269  0.67280269  -0.00000000  1
  Mg  Mg14  1  0.00000000  0.00000000  0.83369509  1
  Mg  Mg15  1  0.32719731  0.00000000  -0.00000000  1
  Mg  Mg16  1  1.00000000  0.32719731  -0.00000000  1
  Mg  Mg17  1  0.33333300  0.66666700  0.83297091  1
