# generated using pymatgen
data_Ca4Sb2S
_symmetry_space_group_name_H-M   'P 1'
_cell_length_a   8.05137610
_cell_length_b   8.05137590
_cell_length_c   8.05137616
_cell_angle_alpha   110.54951236
_cell_angle_beta   110.54951040
_cell_angle_gamma   107.33552008
_symmetry_Int_Tables_number   1
_chemical_formula_structural   Ca4Sb2S
_chemical_formula_sum   'Ca8 Sb4 S2'
_cell_volume   401.36336670
_cell_formula_units_Z   2
loop_
 _symmetry_equiv_pos_site_id
 _symmetry_equiv_pos_as_xyz
  1  'x, y, z'
loop_
 _atom_site_type_symbol
 _atom_site_label
 _atom_site_symmetry_multiplicity
 _atom_site_fract_x
 _atom_site_fract_y
 _atom_site_fract_z
 _atom_site_occupancy
  Ca  Ca0  1  0.00070986  0.87244515  0.51220210  1
  Ca  Ca1  1  0.51149225  0.99929014  0.37173529  1
  Ca  Ca2  1  0.12755485  0.13975696  0.12826471  1
  Ca  Ca3  1  0.37244515  0.50070986  0.01220210  1
  Ca  Ca4  1  0.63975696  0.62755485  0.62826471  1
  Ca  Ca5  1  0.49929014  0.01149225  0.87173529  1
  Ca  Ca6  1  0.86024304  0.48850775  0.98779790  1
  Ca  Ca7  1  0.98850775  0.36024304  0.48779790  1
  S  S8  1  0.62500000  0.37500000  0.25000000  1
  S  S9  1  0.87500000  0.12500000  0.75000000  1
  Sb  Sb10  1  0.12235506  0.75000000  0.87235506  1
  Sb  Sb11  1  0.25000000  0.62235506  0.37235506  1
  Sb  Sb12  1  0.37764494  0.25000000  0.62764494  1
  Sb  Sb13  1  0.75000000  0.87764494  0.12764494  1
