# generated using pymatgen
data_Y7ReO14
_symmetry_space_group_name_H-M   'P 1'
_cell_length_a   7.57337862
_cell_length_b   15.15030056
_cell_length_c   13.08853843
_cell_angle_alpha   30.24155372
_cell_angle_beta   54.64598570
_cell_angle_gamma   60.00773632
_symmetry_Int_Tables_number   1
_chemical_formula_structural   Y7ReO14
_chemical_formula_sum   'Y14 Re2 O28'
_cell_volume   616.88073403
_cell_formula_units_Z   2
loop_
 _symmetry_equiv_pos_site_id
 _symmetry_equiv_pos_as_xyz
  1  'x, y, z'
loop_
 _atom_site_type_symbol
 _atom_site_label
 _atom_site_symmetry_multiplicity
 _atom_site_fract_x
 _atom_site_fract_y
 _atom_site_fract_z
 _atom_site_occupancy
  O  O0  1  0.13732788  0.23182134  0.13085079  1
  O  O1  1  0.13524234  0.51084949  0.12374341  1
  O  O2  1  0.13732796  0.26818658  0.59448546  1
  O  O3  1  0.41873479  0.22520450  0.35606071  1
  O  O4  1  0.13434068  0.72607634  0.13958298  1
  O  O5  1  0.59557186  0.51084949  0.12374341  1
  O  O6  1  0.13524042  0.98915341  0.14543363  1
  O  O7  1  0.40441450  0.01084659  0.85456637  1
  O  O8  1  0.20857197  0.56327159  0.54878256  1
  O  O9  1  0.43268029  0.43672841  0.45121744  1
  O  O10  1  0.58126719  0.72520741  0.19352540  1
  O  O11  1  0.86565560  0.22608318  0.40826122  1
  O  O12  1  0.13434440  0.77391682  0.59173878  1
  O  O13  1  0.41873281  0.27479259  0.80647460  1
  O  O14  1  0.79142803  0.43672841  0.45121744  1
  O  O15  1  0.56731971  0.56327159  0.54878256  1
  O  O16  1  0.59558550  0.98915341  0.14543363  1
  O  O17  1  0.86475958  0.01084659  0.85456637  1
  O  O18  1  0.40442814  0.48915051  0.87625659  1
  O  O19  1  0.20857120  0.93673263  0.67531638  1
  O  O20  1  0.43266924  0.06326737  0.32468362  1
  O  O21  1  0.86565932  0.27392366  0.86041702  1
  O  O22  1  0.86267204  0.73181342  0.40551454  1
  O  O23  1  0.58126521  0.77479550  0.64393929  1
  O  O24  1  0.79142880  0.06326737  0.32468362  1
  O  O25  1  0.56733076  0.93673263  0.67531638  1
  O  O26  1  0.86475766  0.48915051  0.87625659  1
  O  O27  1  0.86267212  0.76817866  0.86914921  1
  Re  Re28  1  0.50000000  0.50000000  0.50000000  1
  Re  Re29  1  0.50000000  0.00000000  0.50000000  1
  Y  Y30  1  0.00000000  0.00000000  0.00000000  1
  Y  Y31  1  0.00000000  0.50000000  0.00000000  1
  Y  Y32  1  0.50000000  0.00000000  0.00000000  1
  Y  Y33  1  0.49751102  0.25853513  0.97684774  1
  Y  Y34  1  0.50000000  0.50000000  0.00000000  1
  Y  Y35  1  0.49750628  0.24146373  0.49392230  1
  Y  Y36  1  0.03172324  0.25853513  0.97684774  1
  Y  Y37  1  0.50248898  0.74146487  0.02315226  1
  Y  Y38  1  0.00000000  0.00000000  0.50000000  1
  Y  Y39  1  0.50249372  0.75853627  0.50607770  1
  Y  Y40  1  0.96827676  0.74146487  0.02315226  1
  Y  Y41  1  0.03172166  0.24146373  0.49392230  1
  Y  Y42  1  0.00000000  0.50000000  0.50000000  1
  Y  Y43  1  0.96827834  0.75853627  0.50607770  1
