# generated using pymatgen
data_Na8BeAl4Si7(BrO12)2
_symmetry_space_group_name_H-M   'P 1'
_cell_length_a   15.69138535
_cell_length_b   9.04259014
_cell_length_c   9.04265141
_cell_angle_alpha   90.00012280
_cell_angle_beta   54.81068126
_cell_angle_gamma   54.81095178
_symmetry_Int_Tables_number   1
_chemical_formula_structural   Na8BeAl4Si7(BrO12)2
_chemical_formula_sum   'Na8 Be1 Al4 Si7 Br2 O24'
_cell_volume   743.52235120
_cell_formula_units_Z   1
loop_
 _symmetry_equiv_pos_site_id
 _symmetry_equiv_pos_as_xyz
  1  'x, y, z'
loop_
 _atom_site_type_symbol
 _atom_site_label
 _atom_site_symmetry_multiplicity
 _atom_site_fract_x
 _atom_site_fract_y
 _atom_site_fract_z
 _atom_site_occupancy
  Al  Al0  1  0.00003700  0.49971642  0.74797125  1
  Al  Al1  1  0.49996810  0.25202959  0.49978372  1
  Al  Al2  1  0.49996810  0.74803421  0.50028009  1
  Al  Al3  1  0.00003700  0.50020958  0.25195475  1
  Be  Be4  1  0.75000176  0.24999824  0.74999824  1
  Br  Br5  1  0.00269166  0.99730834  0.99730834  1
  Br  Br6  1  0.49732067  0.00267933  0.00267933  1
  Na  Na7  1  0.30940280  0.00586812  0.99664544  1
  Na  Na8  1  0.19066895  0.00334735  0.62449654  1
  Na  Na9  1  0.19066895  0.61531475  0.99416556  1
  Na  Na10  1  0.30940280  0.37532629  0.38454897  1
  Na  Na11  1  0.80543086  0.00879860  0.98679301  1
  Na  Na12  1  0.69448691  0.01321391  0.61980974  1
  Na  Na13  1  0.69448691  0.59781227  0.99121644  1
  Na  Na14  1  0.80543086  0.38033969  0.40234527  1
  O  O15  1  0.15431923  0.30281391  0.99167388  1
  O  O16  1  0.04456272  0.29598065  0.60123333  1
  O  O17  1  0.04456272  0.61489391  0.30964124  1
  O  O18  1  0.14893155  0.70690378  0.38922080  1
  O  O19  1  0.15431923  0.38854763  0.69968766  1
  O  O20  1  0.34570027  0.00831704  0.61141452  1
  O  O21  1  0.35106857  0.61076969  0.00477309  1
  O  O22  1  0.14893155  0.99523313  0.31291611  1
  O  O23  1  0.35106857  0.68709317  0.29308977  1
  O  O24  1  0.34570027  0.30028242  0.69718494  1
  O  O25  1  0.45543705  0.39874713  0.38508734  1
  O  O26  1  0.64689213  0.31355860  0.99658464  1
  O  O27  1  0.53383328  0.32214557  0.62562985  1
  O  O28  1  0.53383328  0.61018787  0.30670359  1
  O  O29  1  0.45543705  0.69037877  0.70403856  1
  O  O30  1  0.65481367  0.69801467  0.38817444  1
  O  O31  1  0.64689213  0.39265715  0.70963111  1
  O  O32  1  0.85310182  0.00341336  0.60735176  1
  O  O33  1  0.84518916  0.61181884  0.00763718  1
  O  O34  1  0.65481367  0.99235798  0.30219821  1
  O  O35  1  0.85310182  0.29038300  0.68644461  1
  O  O36  1  0.84518916  0.69780284  0.30198450  1
  O  O37  1  0.96615459  0.37438074  0.38981444  1
  O  O38  1  0.96615459  0.69331009  0.67787638  1
  Si  Si39  1  0.24999630  0.75000370  0.25000370  1
  Si  Si40  1  0.25000695  0.24999305  0.74999305  1
  Si  Si41  1  0.50442126  0.49229298  0.23683787  1
  Si  Si42  1  0.50442126  0.49886450  0.75431961  1
  Si  Si43  1  0.75000314  0.74999686  0.24999686  1
  Si  Si44  1  0.99556986  0.24569238  0.50770618  1
  Si  Si45  1  0.99556986  0.76316790  0.50115410  1
