# generated using pymatgen
data_TbCu(WO4)2
_symmetry_space_group_name_H-M   'P 1'
_cell_length_a   7.11871143
_cell_length_b   7.36020909
_cell_length_c   7.42404745
_cell_angle_alpha   113.84885514
_cell_angle_beta   116.01769016
_cell_angle_gamma   90.95979017
_symmetry_Int_Tables_number   1
_chemical_formula_structural   TbCu(WO4)2
_chemical_formula_sum   'Tb2 Cu2 W4 O16'
_cell_volume   310.67324715
_cell_formula_units_Z   2
loop_
 _symmetry_equiv_pos_site_id
 _symmetry_equiv_pos_as_xyz
  1  'x, y, z'
loop_
 _atom_site_type_symbol
 _atom_site_label
 _atom_site_symmetry_multiplicity
 _atom_site_fract_x
 _atom_site_fract_y
 _atom_site_fract_z
 _atom_site_occupancy
  O  O0  1  0.54962676  0.45438413  0.75743676  1
  O  O1  1  0.45037224  0.54561587  0.24256324  1
  O  O2  1  0.02872874  0.30603035  0.08378542  1
  O  O3  1  0.97127226  0.69396965  0.91621558  1
  O  O4  1  0.17178902  0.32979625  0.76929840  1
  O  O5  1  0.82820998  0.67020375  0.23070160  1
  O  O6  1  0.82041767  0.37232657  0.44765472  1
  O  O7  1  0.17958333  0.62767343  0.55234428  1
  O  O8  1  0.61756103  0.81489571  0.73503859  1
  O  O9  1  0.38243897  0.18510429  0.26496141  1
  O  O10  1  0.48254536  0.82886716  0.01327414  1
  O  O11  1  0.51745364  0.17113184  0.98672486  1
  O  O12  1  0.71260025  0.01439433  0.49447289  1
  O  O13  1  0.86832041  0.01960868  0.20235523  1
  O  O14  1  0.28740075  0.98560567  0.50552611  1
  O  O15  1  0.13168059  0.98039132  0.79764477  1
  Cu  Cu16  1  0.72902992  0.31721025  0.93745326  1
  Cu  Cu17  1  0.27097008  0.68278975  0.06254674  1
  Tb  Tb18  1  0.18027139  0.28550380  0.45450504  1
  Tb  Tb19  1  0.81972861  0.71449720  0.54549496  1
  W  W20  1  0.25281299  0.29309726  0.01985815  1
  W  W21  1  0.74718701  0.70690274  0.98013985  1
  W  W22  1  0.65044644  0.11141488  0.29373930  1
  W  W23  1  0.34955356  0.88858512  0.70625970  1
