# generated using pymatgen
data_GdAl22O34
_symmetry_space_group_name_H-M   'P 1'
_cell_length_a   11.78891780
_cell_length_b   11.78549610
_cell_length_c   23.55386261
_cell_angle_alpha   27.77131628
_cell_angle_beta   27.82743935
_cell_angle_gamma   27.72118171
_symmetry_Int_Tables_number   1
_chemical_formula_structural   GdAl22O34
_chemical_formula_sum   'Gd1 Al22 O34'
_cell_volume   627.40577741
_cell_formula_units_Z   1
loop_
 _symmetry_equiv_pos_site_id
 _symmetry_equiv_pos_as_xyz
  1  'x, y, z'
loop_
 _atom_site_type_symbol
 _atom_site_label
 _atom_site_symmetry_multiplicity
 _atom_site_fract_x
 _atom_site_fract_y
 _atom_site_fract_z
 _atom_site_occupancy
  Al  Al0  1  0.00000000  0.00000000  0.00000000  1
  Al  Al1  1  0.09705966  0.09331924  0.29557807  1
  Al  Al2  1  0.09548617  0.59108785  0.04807661  1
  Al  Al3  1  0.59355038  0.09436644  0.04763418  1
  Al  Al4  1  0.00000000  0.00000000  0.50000000  1
  Al  Al5  1  0.35057075  0.34992378  0.17403992  1
  Al  Al6  1  0.44941938  0.45273293  0.22418643  1
  Al  Al7  1  0.55179498  0.54802805  0.27378239  1
  Al  Al8  1  0.09713277  0.09397516  0.79708936  1
  Al  Al9  1  0.10146150  0.59283584  0.55014985  1
  Al  Al10  1  0.59343366  0.09289645  0.54828380  1
  Al  Al11  1  0.65137930  0.64828236  0.32386722  1
  Al  Al12  1  0.34862070  0.35171764  0.67613278  1
  Al  Al13  1  0.40656634  0.90710355  0.45171620  1
  Al  Al14  1  0.89853850  0.40716416  0.44985015  1
  Al  Al15  1  0.90286723  0.90602484  0.20291064  1
  Al  Al16  1  0.44820502  0.45197195  0.72621761  1
  Al  Al17  1  0.55058062  0.54726707  0.77581357  1
  Al  Al18  1  0.64942925  0.65007622  0.82596008  1
  Al  Al19  1  0.40644962  0.90563356  0.95236582  1
  Al  Al20  1  0.90294034  0.90668076  0.70442193  1
  Al  Al21  1  0.90451383  0.40891215  0.95192339  1
  Gd  Gd22  1  0.00000000  0.50000000  0.50000000  1
  O  O23  1  0.09303785  0.09445756  0.04846905  1
  O  O24  1  0.29456137  0.29495658  0.14869041  1
  O  O25  1  0.18591369  0.19280900  0.35988923  1
  O  O26  1  0.18900859  0.71808804  0.09681955  1
  O  O27  1  0.71814200  0.19054954  0.09495991  1
  O  O28  1  0.09031673  0.10725951  0.54555564  1
  O  O29  1  0.08545191  0.59718872  0.30520498  1
  O  O30  1  0.59564876  0.09710057  0.29809734  1
  O  O31  1  0.59827537  0.59991938  0.04741345  1
  O  O32  1  0.42359729  0.50344928  0.28611683  1
  O  O33  1  0.39262030  0.40166685  0.45585554  1
  O  O34  1  0.40576872  0.90137682  0.20131952  1
  O  O35  1  0.90566273  0.39821454  0.20076860  1
  O  O36  1  0.29892573  0.29625195  0.64781703  1
  O  O37  1  0.28017007  0.80656664  0.40670626  1
  O  O38  1  0.80844663  0.27609555  0.40569476  1
  O  O39  1  0.81155295  0.80807212  0.13997519  1
  O  O40  1  0.18844705  0.19192788  0.86002481  1
  O  O41  1  0.19155337  0.72390445  0.59430524  1
  O  O42  1  0.71982993  0.19343336  0.59329374  1
  O  O43  1  0.70107427  0.70374805  0.35218297  1
  O  O44  1  0.09433727  0.60178546  0.79923140  1
  O  O45  1  0.60737970  0.59833315  0.54414446  1
  O  O46  1  0.59423128  0.09862318  0.79868048  1
  O  O47  1  0.57640271  0.49655072  0.71388317  1
  O  O48  1  0.40435124  0.90289943  0.70190266  1
  O  O49  1  0.40172463  0.40008062  0.95258655  1
  O  O50  1  0.91454809  0.40281128  0.69479502  1
  O  O51  1  0.90968327  0.89274049  0.45444436  1
  O  O52  1  0.28185800  0.80945046  0.90504009  1
  O  O53  1  0.81099141  0.28191196  0.90318045  1
  O  O54  1  0.81408631  0.80719100  0.64011077  1
  O  O55  1  0.70543863  0.70504342  0.85130959  1
  O  O56  1  0.90696215  0.90554244  0.95153095  1
