# generated using pymatgen
data_Li7V4P9O32
_symmetry_space_group_name_H-M   'P 1'
_cell_length_a   13.91207573
_cell_length_b   13.91207573
_cell_length_c   6.41839467
_cell_angle_alpha   90.00000000
_cell_angle_beta   90.00000000
_cell_angle_gamma   90.00000000
_symmetry_Int_Tables_number   1
_chemical_formula_structural   Li7V4P9O32
_chemical_formula_sum   'Li14 V8 P18 O64'
_cell_volume   1242.25365921
_cell_formula_units_Z   2
loop_
 _symmetry_equiv_pos_site_id
 _symmetry_equiv_pos_as_xyz
  1  'x, y, z'
loop_
 _atom_site_type_symbol
 _atom_site_label
 _atom_site_symmetry_multiplicity
 _atom_site_fract_x
 _atom_site_fract_y
 _atom_site_fract_z
 _atom_site_occupancy
  Li  Li0  1  0.00000000  0.00000000  0.00000000  1
  Li  Li1  1  0.00000000  0.50000000  0.13579435  1
  Li  Li2  1  0.00000000  0.50000000  0.63579235  1
  Li  Li3  1  0.10748073  0.74307567  0.81060519  1
  Li  Li4  1  0.24307567  0.60747973  0.31060419  1
  Li  Li5  1  0.25692433  0.10748073  0.18939581  1
  Li  Li6  1  0.39252027  0.24307567  0.68939581  1
  Li  Li7  1  0.50000000  0.00000000  0.36420665  1
  Li  Li8  1  0.50000000  0.00000000  0.86420665  1
  Li  Li9  1  0.50000000  0.50000000  0.50000000  1
  Li  Li10  1  0.60747973  0.75692433  0.68939581  1
  Li  Li11  1  0.74307567  0.89251927  0.18939581  1
  Li  Li12  1  0.75692433  0.39252027  0.31060419  1
  Li  Li13  1  0.89251927  0.25692433  0.81060519  1
  O  O14  1  0.00387607  0.72761776  0.17232584  1
  O  O15  1  0.01344646  0.74254074  0.57322949  1
  O  O16  1  0.06167978  0.06340895  0.64858518  1
  O  O17  1  0.06340895  0.93832122  0.35141482  1
  O  O18  1  0.05593313  0.58341951  0.38801953  1
  O  O19  1  0.08341951  0.55593313  0.88801953  1
  O  O20  1  0.10697679  0.18804902  0.93430017  1
  O  O21  1  0.14137246  0.18075180  0.31165970  1
  O  O22  1  0.15888421  0.33690042  0.62229143  1
  O  O23  1  0.16309958  0.34111579  0.12229043  1
  O  O24  1  0.16215107  0.73016836  0.34945114  1
  O  O25  1  0.18075180  0.85862754  0.68834030  1
  O  O26  1  0.18804902  0.89302321  0.06570083  1
  O  O27  1  0.22761876  0.50387607  0.67232584  1
  O  O28  1  0.23016836  0.66215107  0.84945114  1
  O  O29  1  0.24254074  0.51344646  0.07322949  1
  O  O30  1  0.25745926  0.01344646  0.42677051  1
  O  O31  1  0.26983164  0.16215107  0.65054786  1
  O  O32  1  0.27238224  0.00387607  0.82767416  1
  O  O33  1  0.31195098  0.39302221  0.43429917  1
  O  O34  1  0.31924920  0.35862854  0.81165970  1
  O  O35  1  0.33784893  0.23016836  0.15054986  1
  O  O36  1  0.33690042  0.84111579  0.37770757  1
  O  O37  1  0.34111579  0.83689942  0.87770857  1
  O  O38  1  0.35862854  0.68075080  0.18834030  1
  O  O39  1  0.39302221  0.68804902  0.56570083  1
  O  O40  1  0.41658049  0.05593313  0.61198047  1
  O  O41  1  0.44406687  0.08341951  0.11198047  1
  O  O42  1  0.43659105  0.43832022  0.14858518  1
  O  O43  1  0.43832022  0.56340895  0.85141482  1
  O  O44  1  0.48655354  0.24254074  0.92677151  1
  O  O45  1  0.49612393  0.22761876  0.32767316  1
  O  O46  1  0.50387607  0.77238224  0.32767316  1
  O  O47  1  0.51344646  0.75745926  0.92677151  1
  O  O48  1  0.56167978  0.43659105  0.85141482  1
  O  O49  1  0.56340895  0.56167978  0.14858518  1
  O  O50  1  0.55593313  0.91658049  0.11198047  1
  O  O51  1  0.58341951  0.94406687  0.61198047  1
  O  O52  1  0.60697679  0.31195098  0.56570083  1
  O  O53  1  0.64137146  0.31924920  0.18834030  1
  O  O54  1  0.65888421  0.16309958  0.87770857  1
  O  O55  1  0.66309958  0.15888421  0.37770757  1
  O  O56  1  0.66215107  0.76983164  0.15054986  1
  O  O57  1  0.68075080  0.64137146  0.81165970  1
  O  O58  1  0.68804902  0.60697679  0.43429917  1
  O  O59  1  0.72761776  0.99612493  0.82767416  1
  O  O60  1  0.73016836  0.83784893  0.65054786  1
  O  O61  1  0.74254074  0.98655354  0.42677051  1
  O  O62  1  0.75745926  0.48655354  0.07322949  1
  O  O63  1  0.76983164  0.33784893  0.84945114  1
  O  O64  1  0.77238224  0.49612393  0.67232584  1
  O  O65  1  0.81195098  0.10697679  0.06570083  1
  O  O66  1  0.81924820  0.14137246  0.68834030  1
  O  O67  1  0.83784893  0.26983164  0.34945114  1
  O  O68  1  0.83689942  0.65888421  0.12229043  1
  O  O69  1  0.84111579  0.66309958  0.62229143  1
  O  O70  1  0.85862754  0.81924820  0.31165970  1
  O  O71  1  0.89302321  0.81195098  0.93430017  1
  O  O72  1  0.91658049  0.44406687  0.88801953  1
  O  O73  1  0.94406687  0.41658049  0.38801953  1
  O  O74  1  0.93659105  0.06167978  0.35141482  1
  O  O75  1  0.93832122  0.93659105  0.64858518  1
  O  O76  1  0.98655354  0.25745926  0.57322949  1
  O  O77  1  0.99612493  0.27238224  0.17232584  1
  P  P78  1  0.00000000  0.00000000  0.50000000  1
  P  P79  1  0.05904209  0.69207276  0.38395736  1
  P  P80  1  0.10794465  0.24708854  0.13342999  1
  P  P81  1  0.19207276  0.55904209  0.88395736  1
  P  P82  1  0.24708854  0.89205535  0.86657101  1
  P  P83  1  0.25291146  0.39205535  0.63342799  1
  P  P84  1  0.30792624  0.05904209  0.61604164  1
  P  P85  1  0.39205535  0.74708754  0.36657101  1
  P  P86  1  0.44095791  0.19207276  0.11604164  1
  P  P87  1  0.50000000  0.50000000  0.00000000  1
  P  P88  1  0.55904209  0.80792724  0.11604164  1
  P  P89  1  0.60794465  0.25291146  0.36657101  1
  P  P90  1  0.69207276  0.94095791  0.61604164  1
  P  P91  1  0.74708754  0.60794465  0.63342799  1
  P  P92  1  0.75291246  0.10794465  0.86657101  1
  P  P93  1  0.80792724  0.44095791  0.88395736  1
  P  P94  1  0.89205535  0.75291246  0.13342999  1
  P  P95  1  0.94095791  0.30792624  0.38395736  1
  V  V96  1  0.12145063  0.19559591  0.62176513  1
  V  V97  1  0.19559591  0.87854937  0.37823387  1
  V  V98  1  0.30440409  0.37854937  0.12176713  1
  V  V99  1  0.37854937  0.69559591  0.87823387  1
  V  V100  1  0.62145063  0.30440409  0.87823387  1
  V  V101  1  0.69559591  0.62145063  0.12176713  1
  V  V102  1  0.80440409  0.12145063  0.37823387  1
  V  V103  1  0.87854937  0.80440409  0.62176513  1
