# generated using pymatgen
data_U(HO2)2
_symmetry_space_group_name_H-M   'P 1'
_cell_length_a   5.91189093
_cell_length_b   6.17161868
_cell_length_c   9.88498531
_cell_angle_alpha   90.00000000
_cell_angle_beta   90.00000000
_cell_angle_gamma   90.00000000
_symmetry_Int_Tables_number   1
_chemical_formula_structural   U(HO2)2
_chemical_formula_sum   'U4 H8 O16'
_cell_volume   360.66294630
_cell_formula_units_Z   4
loop_
 _symmetry_equiv_pos_site_id
 _symmetry_equiv_pos_as_xyz
  1  'x, y, z'
loop_
 _atom_site_type_symbol
 _atom_site_label
 _atom_site_symmetry_multiplicity
 _atom_site_fract_x
 _atom_site_fract_y
 _atom_site_fract_z
 _atom_site_occupancy
  O  O0  1  0.12908986  0.46664013  0.33314409  1
  O  O1  1  0.62908986  0.03335987  0.66685591  1
  O  O2  1  0.87091014  0.96664013  0.16685591  1
  O  O3  1  0.37091014  0.53335987  0.83314409  1
  O  O4  1  0.87091014  0.53335987  0.66685591  1
  O  O5  1  0.37091014  0.96664013  0.33314409  1
  O  O6  1  0.12908986  0.03335987  0.83314409  1
  O  O7  1  0.62908986  0.46664013  0.16685591  1
  O  O8  1  0.19191253  0.29743048  0.07659447  1
  O  O9  1  0.69191253  0.20256952  0.92340553  1
  O  O10  1  0.80808747  0.79743048  0.42340553  1
  O  O11  1  0.30808747  0.70256952  0.57659447  1
  O  O12  1  0.80808747  0.70256952  0.92340553  1
  O  O13  1  0.30808747  0.79743048  0.07659447  1
  O  O14  1  0.19191253  0.20256952  0.57659447  1
  O  O15  1  0.69191253  0.29743048  0.42340553  1
  H  H16  1  0.16337904  0.33702046  0.17270570  1
  H  H17  1  0.66337904  0.16297954  0.82729430  1
  H  H18  1  0.83662096  0.83702046  0.32729430  1
  H  H19  1  0.33662096  0.66297954  0.67270570  1
  H  H20  1  0.83662096  0.66297954  0.82729430  1
  H  H21  1  0.33662096  0.83702046  0.17270570  1
  H  H22  1  0.16337904  0.16297954  0.67270570  1
  H  H23  1  0.66337904  0.33702046  0.32729430  1
  U  U24  1  0.00000000  0.00000000  0.00000000  1
  U  U25  1  0.50000000  0.50000000  0.00000000  1
  U  U26  1  0.00000000  0.50000000  0.50000000  1
  U  U27  1  0.50000000  0.00000000  0.50000000  1
