# generated using pymatgen
data_Sr2Mg
_symmetry_space_group_name_H-M   'P 1'
_cell_length_a   14.48287198
_cell_length_b   4.25591430
_cell_length_c   8.76678869
_cell_angle_alpha   90.00000000
_cell_angle_beta   101.36766654
_cell_angle_gamma   90.00000000
_symmetry_Int_Tables_number   1
_chemical_formula_structural   Sr2Mg
_chemical_formula_sum   'Sr8 Mg4'
_cell_volume   529.76551226
_cell_formula_units_Z   4
loop_
 _symmetry_equiv_pos_site_id
 _symmetry_equiv_pos_as_xyz
  1  'x, y, z'
loop_
 _atom_site_type_symbol
 _atom_site_label
 _atom_site_symmetry_multiplicity
 _atom_site_fract_x
 _atom_site_fract_y
 _atom_site_fract_z
 _atom_site_occupancy
  Sr  Sr0  1  0.99333671  -0.00000000  0.02865660  1
  Sr  Sr1  1  0.16445797  0.50000000  0.36630567  1
  Sr  Sr2  1  0.36653518  0.00000000  0.65556003  1
  Sr  Sr3  1  0.20970293  0.50000000  0.91480111  1
  Sr  Sr4  1  0.49333671  0.50000000  0.02865660  1
  Sr  Sr5  1  0.66445797  -0.00000000  0.36630567  1
  Sr  Sr6  1  0.86653518  0.50000000  0.65556003  1
  Sr  Sr7  1  0.70970293  -0.00000000  0.91480111  1
  Mg  Mg8  1  0.37701372  -0.00000000  0.25706586  1
  Mg  Mg9  1  0.05562050  0.00000000  0.61094373  1
  Mg  Mg10  1  0.87701372  0.50000000  0.25706586  1
  Mg  Mg11  1  0.55562050  0.50000000  0.61094373  1
