# generated using pymatgen
data_MnSO3
_symmetry_space_group_name_H-M   'P 1'
_cell_length_a   5.49630595
_cell_length_b   8.42641860
_cell_length_c   12.44106781
_cell_angle_alpha   90.00000000
_cell_angle_beta   90.00000000
_cell_angle_gamma   100.31574976
_symmetry_Int_Tables_number   1
_chemical_formula_structural   MnSO3
_chemical_formula_sum   'Mn8 S8 O24'
_cell_volume   566.88404036
_cell_formula_units_Z   8
loop_
 _symmetry_equiv_pos_site_id
 _symmetry_equiv_pos_as_xyz
  1  'x, y, z'
loop_
 _atom_site_type_symbol
 _atom_site_label
 _atom_site_symmetry_multiplicity
 _atom_site_fract_x
 _atom_site_fract_y
 _atom_site_fract_z
 _atom_site_occupancy
  O  O0  1  0.73365521  0.00401521  0.26078428  1
  O  O1  1  0.26634479  0.49598479  0.76078428  1
  O  O2  1  0.26634479  0.99598479  0.73921572  1
  O  O3  1  0.73365521  0.50401521  0.23921572  1
  O  O4  1  0.32949513  0.37158483  0.98459276  1
  O  O5  1  0.67050487  0.12841517  0.48459276  1
  O  O6  1  0.67050487  0.62841517  0.01540724  1
  O  O7  1  0.32949513  0.87158483  0.51540724  1
  O  O8  1  0.90468930  0.33730094  0.92118491  1
  O  O9  1  0.09531070  0.16269906  0.42118491  1
  O  O10  1  0.09531070  0.66269906  0.07881509  1
  O  O11  1  0.90468930  0.83730094  0.57881509  1
  O  O12  1  0.71863782  0.07620114  0.75970562  1
  O  O13  1  0.28136218  0.42379886  0.25970562  1
  O  O14  1  0.28136218  0.92379886  0.24029438  1
  O  O15  1  0.71863782  0.57620114  0.74029438  1
  O  O16  1  0.02581232  0.75613439  0.90355137  1
  O  O17  1  0.97418768  0.74386561  0.40355137  1
  O  O18  1  0.97418768  0.24386561  0.09644863  1
  O  O19  1  0.02581232  0.25613439  0.59644863  1
  O  O20  1  0.52603322  0.83397916  0.84041661  1
  O  O21  1  0.47396678  0.66602084  0.34041661  1
  O  O22  1  0.47396678  0.16602084  0.15958339  1
  O  O23  1  0.52603322  0.33397916  0.65958339  1
  S  S24  1  0.47901997  0.50926886  0.67577255  1
  S  S25  1  0.52098003  0.99073114  0.17577255  1
  S  S26  1  0.52098003  0.49073114  0.32422745  1
  S  S27  1  0.47901997  0.00926886  0.82422745  1
  S  S28  1  0.08647606  0.74538305  0.51857626  1
  S  S29  1  0.91352394  0.75461695  0.01857626  1
  S  S30  1  0.91352394  0.25461695  0.48142374  1
  S  S31  1  0.08647606  0.24538305  0.98142374  1
  Mn  Mn32  1  0.33274578  0.61672888  0.92043363  1
  Mn  Mn33  1  0.66725422  0.88327112  0.42043363  1
  Mn  Mn34  1  0.66725422  0.38327112  0.07956637  1
  Mn  Mn35  1  0.33274578  0.11672888  0.57956637  1
  Mn  Mn36  1  0.11570920  0.15822300  0.24595960  1
  Mn  Mn37  1  0.88429080  0.34177700  0.74595960  1
  Mn  Mn38  1  0.88429080  0.84177700  0.75404040  1
  Mn  Mn39  1  0.11570920  0.65822300  0.25404040  1
