# generated using pymatgen
data_Cu29(Ag6As7)2
_symmetry_space_group_name_H-M   'P 1'
_cell_length_a   11.86992593
_cell_length_b   11.86673766
_cell_length_c   11.84539848
_cell_angle_alpha   90.14384273
_cell_angle_beta   90.03728748
_cell_angle_gamma   90.00195565
_symmetry_Int_Tables_number   1
_chemical_formula_structural   Cu29(Ag6As7)2
_chemical_formula_sum   'Cu58 Ag24 As28'
_cell_volume   1668.50520002
_cell_formula_units_Z   2
loop_
 _symmetry_equiv_pos_site_id
 _symmetry_equiv_pos_as_xyz
  1  'x, y, z'
loop_
 _atom_site_type_symbol
 _atom_site_label
 _atom_site_symmetry_multiplicity
 _atom_site_fract_x
 _atom_site_fract_y
 _atom_site_fract_z
 _atom_site_occupancy
  Ag  Ag0  1  0.00264015  0.99830234  0.82159434  1
  Ag  Ag1  1  0.99826528  0.82142023  0.00266825  1
  Ag  Ag2  1  0.00412344  0.68052363  0.49555522  1
  Ag  Ag3  1  0.17847209  0.99788836  0.99860482  1
  Ag  Ag4  1  0.18232128  0.50161920  0.49821705  1
  Ag  Ag5  1  0.32005967  0.49943494  0.00030769  1
  Ag  Ag6  1  0.31826664  0.00376208  0.50476848  1
  Ag  Ag7  1  0.49966029  0.49974820  0.82031549  1
  Ag  Ag8  1  0.49796355  0.82347610  0.50138236  1
  Ag  Ag9  1  0.49811374  0.18122967  0.50177632  1
  Ag  Ag10  1  0.49963559  0.50021305  0.17959969  1
  Ag  Ag11  1  0.49929605  0.67796795  0.00039091  1
  Ag  Ag12  1  0.49822603  0.00105135  0.32386591  1
  Ag  Ag13  1  0.49890707  0.32065134  1.00041248  1
  Ag  Ag14  1  0.49461259  0.00347851  0.68062822  1
  Ag  Ag15  1  0.67754967  0.49899911  0.99893109  1
  Ag  Ag16  1  0.67522127  0.00129859  0.50119996  1
  Ag  Ag17  1  0.82496658  0.50166505  0.49844269  1
  Ag  Ag18  1  0.82319547  0.00116668  0.99900594  1
  Ag  Ag19  1  0.00157851  0.17659609  0.99980909  1
  Ag  Ag20  1  0.00176669  0.32306342  0.49838105  1
  Ag  Ag21  1  0.00477990  0.50351013  0.31930429  1
  Ag  Ag22  1  0.00155624  0.50118006  0.67597715  1
  Ag  Ag23  1  0.99913574  0.99849545  0.17860055  1
  As  As24  1  0.00115858  0.99963459  0.49995848  1
  As  As25  1  0.99156940  0.23987076  0.75788022  1
  As  As26  1  0.99889293  0.74971711  0.25013868  1
  As  As27  1  0.01042323  0.75967174  0.75989271  1
  As  As28  1  0.24319788  0.24119588  0.00982383  1
  As  As29  1  0.23955837  0.00897807  0.24200629  1
  As  As30  1  0.25142865  0.99807665  0.74855974  1
  As  As31  1  0.23946033  0.75807543  0.99077378  1
  As  As32  1  0.25753194  0.24147935  0.50988572  1
  As  As33  1  0.24076505  0.50842276  0.25796360  1
  As  As34  1  0.25061406  0.49673394  0.74951630  1
  As  As35  1  0.24105986  0.74247306  0.49021098  1
  As  As36  1  0.50043307  0.50032602  0.50006732  1
  As  As37  1  0.49731142  -0.00044830  0.99986429  1
  As  As38  1  0.50103244  0.25072859  0.24802396  1
  As  As39  1  0.49045130  0.24140741  0.74264074  1
  As  As40  1  0.49640930  0.75001714  0.25081278  1
  As  As41  1  0.50086803  0.75205609  0.75042999  1
  As  As42  1  0.75127440  0.24996449  0.49736478  1
  As  As43  1  0.75110140  0.49816814  0.24854205  1
  As  As44  1  0.75011241  0.50111512  0.75170036  1
  As  As45  1  0.75045692  0.75183479  0.50255827  1
  As  As46  1  0.75822833  0.24162929  0.98823480  1
  As  As47  1  0.75925470  0.98987085  0.24034997  1
  As  As48  1  0.75947081  0.01064740  0.75979442  1
  As  As49  1  0.75955837  0.75982112  0.01101733  1
  As  As50  1  0.01131364  0.24169250  0.24146297  1
  As  As51  1  0.00116054  0.49980268  0.00006971  1
  Cu  Cu52  1  0.11904888  0.12032865  0.37950878  1
  Cu  Cu53  1  0.12026310  0.37835472  0.12124320  1
  Cu  Cu54  1  0.12506047  0.11673446  0.61968025  1
  Cu  Cu55  1  0.11661401  0.61915851  0.12558054  1
  Cu  Cu56  1  0.11892622  0.37961039  0.88086757  1
  Cu  Cu57  1  0.11636245  0.87479931  0.38062488  1
  Cu  Cu58  1  0.11906057  0.62137634  0.88011531  1
  Cu  Cu59  1  0.11933462  0.88217368  0.62492077  1
  Cu  Cu60  1  0.17257432  0.32912457  0.33858968  1
  Cu  Cu61  1  0.15965998  0.32719174  0.67089469  1
  Cu  Cu62  1  0.16910667  0.66852531  0.66785721  1
  Cu  Cu63  1  0.17100860  0.16744557  0.83030662  1
  Cu  Cu64  1  0.16842509  0.82938960  0.17062614  1
  Cu  Cu65  1  0.32661261  0.67034504  0.15994593  1
  Cu  Cu66  1  0.33187864  0.66754954  0.83175021  1
  Cu  Cu67  1  0.32720299  0.82817945  0.66203645  1
  Cu  Cu68  1  0.33130076  0.16870508  0.33244129  1
  Cu  Cu69  1  0.32882796  0.33894643  0.17171479  1
  Cu  Cu70  1  0.32905407  0.32713050  0.84034107  1
  Cu  Cu71  1  0.32704235  0.84154343  0.33024598  1
  Cu  Cu72  1  0.38077157  0.38154634  0.38088724  1
  Cu  Cu73  1  0.37881934  0.37690741  0.62177132  1
  Cu  Cu74  1  0.37667621  0.62207705  0.37827543  1
  Cu  Cu75  1  0.38131584  0.62068697  0.61838629  1
  Cu  Cu76  1  0.37744110  0.12080860  0.12059106  1
  Cu  Cu77  1  0.38047124  0.11685443  0.87483551  1
  Cu  Cu78  1  0.37938689  0.88088758  0.11950505  1
  Cu  Cu79  1  0.37308598  0.88114425  0.87845110  1
  Cu  Cu80  1  0.61883167  0.11814679  0.11767153  1
  Cu  Cu81  1  0.62009432  0.11930048  0.88094272  1
  Cu  Cu82  1  0.62076821  0.88099510  0.11926504  1
  Cu  Cu83  1  0.61909250  0.88209964  0.88258464  1
  Cu  Cu84  1  0.62298579  0.37875611  0.37774526  1
  Cu  Cu85  1  0.61909423  0.38087962  0.61956528  1
  Cu  Cu86  1  0.62003364  0.61922781  0.38107362  1
  Cu  Cu87  1  0.62263220  0.62277982  0.62207767  1
  Cu  Cu88  1  0.67166787  0.15941224  0.32699375  1
  Cu  Cu89  1  0.67255704  0.32738114  0.15868442  1
  Cu  Cu90  1  0.66787593  0.16889789  0.66827243  1
  Cu  Cu91  1  0.66029469  0.32906982  0.82857149  1
  Cu  Cu92  1  0.66728252  0.66789467  0.16831954  1
  Cu  Cu93  1  0.66709171  0.83242724  0.33260469  1
  Cu  Cu94  1  0.67175538  0.67285393  0.84099864  1
  Cu  Cu95  1  0.67119571  0.84226307  0.67280865  1
  Cu  Cu96  1  0.83163401  0.16959030  0.16815619  1
  Cu  Cu97  1  0.83048460  0.83063452  0.83077526  1
  Cu  Cu98  1  0.84202739  0.32855472  0.32709194  1
  Cu  Cu99  1  0.83303103  0.33256396  0.66715399  1
  Cu  Cu100  1  0.83129193  0.66958191  0.33102551  1
  Cu  Cu101  1  0.84174528  0.67184813  0.67186957  1
  Cu  Cu102  1  0.88183083  0.11833594  0.38072992  1
  Cu  Cu103  1  0.88056759  0.11891642  0.62095202  1
  Cu  Cu104  1  0.88172813  0.38060010  0.11710450  1
  Cu  Cu105  1  0.87923510  0.37796731  0.88008837  1
  Cu  Cu106  1  0.88246104  0.62526043  0.11920939  1
  Cu  Cu107  1  0.88230844  0.88087247  0.37499430  1
  Cu  Cu108  1  0.88149582  0.61891165  0.88198284  1
  Cu  Cu109  1  0.88116199  0.88274759  0.61940936  1
