# generated using pymatgen
data_Cu2H2CO5
_symmetry_space_group_name_H-M   'P 1'
_cell_length_a   3.33239612
_cell_length_b   9.92325925
_cell_length_c   12.04485391
_cell_angle_alpha   90.00000000
_cell_angle_beta   90.00000000
_cell_angle_gamma   103.14699246
_symmetry_Int_Tables_number   1
_chemical_formula_structural   Cu2H2CO5
_chemical_formula_sum   'Cu8 H8 C4 O20'
_cell_volume   387.86241012
_cell_formula_units_Z   4
loop_
 _symmetry_equiv_pos_site_id
 _symmetry_equiv_pos_as_xyz
  1  'x, y, z'
loop_
 _atom_site_type_symbol
 _atom_site_label
 _atom_site_symmetry_multiplicity
 _atom_site_fract_x
 _atom_site_fract_y
 _atom_site_fract_z
 _atom_site_occupancy
  Cu  Cu0  1  0.89189480  0.49497355  0.28872581  1
  Cu  Cu1  1  0.10810520  0.00502645  0.78872581  1
  Cu  Cu2  1  0.10810520  0.50502645  0.71127419  1
  Cu  Cu3  1  0.89189480  0.99497355  0.21127419  1
  Cu  Cu4  1  0.37657559  0.22793576  0.39022981  1
  Cu  Cu5  1  0.62342441  0.27206424  0.89022981  1
  Cu  Cu6  1  0.62342441  0.77206424  0.60977019  1
  Cu  Cu7  1  0.37657559  0.72793576  0.10977019  1
  O  O8  1  0.30446443  0.13449134  0.12579032  1
  O  O9  1  0.69553557  0.36550866  0.62579032  1
  O  O10  1  0.69553557  0.86550866  0.87420968  1
  O  O11  1  0.30446443  0.63449134  0.37420968  1
  O  O12  1  0.45857635  0.32575392  0.23269563  1
  O  O13  1  0.54142365  0.17424608  0.73269563  1
  O  O14  1  0.54142365  0.67424608  0.76730437  1
  O  O15  1  0.45857635  0.82575392  0.26730437  1
  O  O16  1  0.64429309  0.33762684  0.05361425  1
  O  O17  1  0.35570691  0.16237316  0.55361425  1
  O  O18  1  0.35570691  0.66237316  0.94638575  1
  O  O19  1  0.64429309  0.83762684  0.44638575  1
  O  O20  1  0.88521860  0.09268181  0.34820407  1
  O  O21  1  0.11478140  0.40731819  0.84820407  1
  O  O22  1  0.11478140  0.90731819  0.65179593  1
  O  O23  1  0.88521860  0.59268181  0.15179593  1
  O  O24  1  0.87556790  0.36902845  0.41183531  1
  O  O25  1  0.12443210  0.13097155  0.91183531  1
  O  O26  1  0.12443210  0.63097155  0.58816469  1
  O  O27  1  0.87556790  0.86902845  0.08816469  1
  C  C28  1  0.46795661  0.26558093  0.13629725  1
  C  C29  1  0.53204339  0.23441907  0.63629725  1
  C  C30  1  0.53204339  0.73441907  0.86370275  1
  C  C31  1  0.46795661  0.76558093  0.36370275  1
  H  H32  1  0.81387524  0.01475029  0.40178572  1
  H  H33  1  0.18612476  0.48524971  0.90178572  1
  H  H34  1  0.18612476  0.98524971  0.59821428  1
  H  H35  1  0.81387524  0.51475029  0.09821428  1
  H  H36  1  0.84610619  0.39790732  0.48980411  1
  H  H37  1  0.15389381  0.10209268  0.98980411  1
  H  H38  1  0.15389381  0.60209268  0.51019589  1
  H  H39  1  0.84610619  0.89790732  0.01019589  1
