# generated using pymatgen
data_Ca3CuIrO6
_symmetry_space_group_name_H-M   'P 1'
_cell_length_a   6.51087737
_cell_length_b   6.53867710
_cell_length_c   6.53867666
_cell_angle_alpha   91.18981501
_cell_angle_beta   90.02758197
_cell_angle_gamma   90.02758559
_symmetry_Int_Tables_number   1
_chemical_formula_structural   Ca3CuIrO6
_chemical_formula_sum   'Ca6 Cu2 Ir2 O12'
_cell_volume   278.30788943
_cell_formula_units_Z   2
loop_
 _symmetry_equiv_pos_site_id
 _symmetry_equiv_pos_as_xyz
  1  'x, y, z'
loop_
 _atom_site_type_symbol
 _atom_site_label
 _atom_site_symmetry_multiplicity
 _atom_site_fract_x
 _atom_site_fract_y
 _atom_site_fract_z
 _atom_site_occupancy
  Ca  Ca0  1  0.75000000  0.59657901  0.40342099  1
  Ca  Ca1  1  0.25000000  0.40342099  0.59657901  1
  Ca  Ca2  1  0.61769164  0.74007169  0.88973704  1
  Ca  Ca3  1  0.88230836  0.11026296  0.25992831  1
  Ca  Ca4  1  0.38230836  0.25992831  0.11026296  1
  Ca  Ca5  1  0.11769164  0.88973704  0.74007169  1
  Ir  Ir6  1  0.00000000  0.50000000  0.00000000  1
  Ir  Ir7  1  0.50000000  0.00000000  0.50000000  1
  Cu  Cu8  1  0.25000000  0.80826105  0.19173895  1
  Cu  Cu9  1  0.75000000  0.19173895  0.80826105  1
  O  O10  1  0.54400241  0.90384057  0.20654684  1
  O  O11  1  0.95599759  0.79345316  0.09615943  1
  O  O12  1  0.45599759  0.09615943  0.79345316  1
  O  O13  1  0.04400241  0.20654684  0.90384057  1
  O  O14  1  0.20702906  0.03344118  0.40128836  1
  O  O15  1  0.29297094  0.59871164  0.96655882  1
  O  O16  1  0.79297094  0.96655882  0.59871164  1
  O  O17  1  0.70702906  0.40128836  0.03344118  1
  O  O18  1  0.43417688  0.70916071  0.57433005  1
  O  O19  1  0.06582312  0.42566995  0.29083929  1
  O  O20  1  0.56582312  0.29083929  0.42566995  1
  O  O21  1  0.93417688  0.57433005  0.70916071  1
