# generated using pymatgen
data_LiMn4(PO4)3
_symmetry_space_group_name_H-M   'P 1'
_cell_length_a   6.44910620
_cell_length_b   16.95837606
_cell_length_c   9.94312994
_cell_angle_alpha   90.00000000
_cell_angle_beta   90.00000000
_cell_angle_gamma   90.00000000
_symmetry_Int_Tables_number   1
_chemical_formula_structural   LiMn4(PO4)3
_chemical_formula_sum   'Li4 Mn16 P12 O48'
_cell_volume   1087.44400998
_cell_formula_units_Z   4
loop_
 _symmetry_equiv_pos_site_id
 _symmetry_equiv_pos_as_xyz
  1  'x, y, z'
loop_
 _atom_site_type_symbol
 _atom_site_label
 _atom_site_symmetry_multiplicity
 _atom_site_fract_x
 _atom_site_fract_y
 _atom_site_fract_z
 _atom_site_occupancy
  Li  Li0  1  0.00000000  0.40236292  0.27931261  1
  Li  Li1  1  0.00000000  0.59763708  0.72068839  1
  Li  Li2  1  0.50000000  0.09763708  0.77931161  1
  Li  Li3  1  0.50000000  0.90236292  0.22068739  1
  O  O4  1  0.00000000  0.32038187  0.89602906  1
  O  O5  1  0.80810790  0.37316078  0.10591048  1
  O  O6  1  0.80883923  0.91654186  0.83204789  1
  O  O7  1  0.80883923  0.08345814  0.16795211  1
  O  O8  1  0.80569208  0.67406248  0.59650837  1
  O  O9  1  0.80569208  0.32593752  0.40349263  1
  O  O10  1  0.69430892  0.82593752  0.09650737  1
  O  O11  1  0.50000000  0.54936773  0.66337274  1
  O  O12  1  0.69116077  0.58345814  0.33204789  1
  O  O13  1  0.69116077  0.41654186  0.66795211  1
  O  O14  1  0.69189310  0.87316078  0.39409052  1
  O  O15  1  0.69189310  0.12683922  0.60591048  1
  O  O16  1  0.50000000  0.82038187  0.60397194  1
  O  O17  1  0.50000000  0.77874353  0.88297852  1
  O  O18  1  0.50000000  0.74251419  0.38510434  1
  O  O19  1  0.50000000  0.69732331  0.09642889  1
  O  O20  1  0.00000000  0.02702602  0.37434452  1
  O  O21  1  0.00000000  0.04936773  0.83662826  1
  O  O22  1  0.00000000  0.19732331  0.40357111  1
  O  O23  1  0.00000000  0.24251419  0.11489566  1
  O  O24  1  0.00000000  0.27874353  0.61702148  1
  O  O25  1  0.80810790  0.62683922  0.89409052  1
  O  O26  1  0.00000000  0.67961813  0.10397194  1
  O  O27  1  0.00000000  0.72125647  0.38297852  1
  O  O28  1  0.00000000  0.75748581  0.88510434  1
  O  O29  1  0.00000000  0.80267669  0.59642889  1
  O  O30  1  0.00000000  0.95063227  0.16337174  1
  O  O31  1  0.00000000  0.97297298  0.62565548  1
  O  O32  1  0.19189310  0.37316078  0.10591048  1
  O  O33  1  0.19189310  0.62683922  0.89409052  1
  O  O34  1  0.19116177  0.08345814  0.16795211  1
  O  O35  1  0.19116177  0.91654186  0.83204789  1
  O  O36  1  0.19430892  0.32593752  0.40349263  1
  O  O37  1  0.19430892  0.67406248  0.59650837  1
  O  O38  1  0.30569108  0.17406248  0.90349263  1
  O  O39  1  0.30569108  0.82593752  0.09650737  1
  O  O40  1  0.30883823  0.41654186  0.66795211  1
  O  O41  1  0.30883823  0.58345814  0.33204789  1
  O  O42  1  0.30810790  0.12683922  0.60591048  1
  O  O43  1  0.30810790  0.87316078  0.39409052  1
  O  O44  1  0.50000000  0.17961813  0.39602806  1
  O  O45  1  0.50000000  0.22125647  0.11702148  1
  O  O46  1  0.50000000  0.25748581  0.61489566  1
  O  O47  1  0.50000000  0.30267669  0.90357111  1
  O  O48  1  0.50000000  0.45063227  0.33662826  1
  O  O49  1  0.50000000  0.47297298  0.87434352  1
  O  O50  1  0.50000000  0.52702602  0.12565548  1
  O  O51  1  0.69430892  0.17406248  0.90349263  1
  P  P52  1  0.50000000  0.82942093  0.44771437  1
  P  P53  1  0.50000000  0.78476166  0.03897822  1
  P  P54  1  0.50000000  0.53471645  0.28146491  1
  P  P55  1  0.50000000  0.46528355  0.71853609  1
  P  P56  1  0.50000000  0.21523834  0.96102178  1
  P  P57  1  0.50000000  0.17057907  0.55228563  1
  P  P58  1  0.00000000  0.96528355  0.78146491  1
  P  P59  1  0.00000000  0.71523834  0.53897822  1
  P  P60  1  0.00000000  0.67057907  0.94771437  1
  P  P61  1  0.00000000  0.32942093  0.05228563  1
  P  P62  1  0.00000000  0.28476166  0.46102178  1
  P  P63  1  0.00000000  0.03471645  0.21853509  1
  Mn  Mn64  1  0.00000000  0.13406962  0.98184242  1
  Mn  Mn65  1  0.00000000  0.86593038  0.01815758  1
  Mn  Mn66  1  0.00000000  0.90551712  0.44445791  1
  Mn  Mn67  1  0.00000000  0.09448288  0.55554209  1
  Mn  Mn68  1  0.24774840  0.30447724  0.75306981  1
  Mn  Mn69  1  0.24774840  0.69552276  0.24693019  1
  Mn  Mn70  1  0.25225260  0.19552276  0.25306981  1
  Mn  Mn71  1  0.25225260  0.80447724  0.74693019  1
  Mn  Mn72  1  0.50000000  0.36593038  0.48184242  1
  Mn  Mn73  1  0.50000000  0.40551712  0.05554209  1
  Mn  Mn74  1  0.50000000  0.59448288  0.94445791  1
  Mn  Mn75  1  0.50000000  0.63406962  0.51815758  1
  Mn  Mn76  1  0.74774840  0.19552276  0.25306981  1
  Mn  Mn77  1  0.74774840  0.80447724  0.74693019  1
  Mn  Mn78  1  0.75225160  0.30447724  0.75306981  1
  Mn  Mn79  1  0.75225160  0.69552276  0.24693019  1
