# generated using pymatgen
data_Li5Nb6O18
_symmetry_space_group_name_H-M   'P 1'
_cell_length_a   11.21764728
_cell_length_b   16.81108255
_cell_length_c   14.15895133
_cell_angle_alpha   32.67592361
_cell_angle_beta   32.72349865
_cell_angle_gamma   55.81731438
_symmetry_Int_Tables_number   1
_chemical_formula_structural   Li5Nb6O18
_chemical_formula_sum   'Li10 Nb12 O36'
_cell_volume   674.28631441
_cell_formula_units_Z   2
loop_
 _symmetry_equiv_pos_site_id
 _symmetry_equiv_pos_as_xyz
  1  'x, y, z'
loop_
 _atom_site_type_symbol
 _atom_site_label
 _atom_site_symmetry_multiplicity
 _atom_site_fract_x
 _atom_site_fract_y
 _atom_site_fract_z
 _atom_site_occupancy
  Li  Li0  1  0.49381604  0.99820018  0.30265357  1
  Li  Li1  1  0.50588100  0.33782329  0.28853352  1
  Li  Li2  1  0.99662360  0.33050307  0.79884363  1
  Li  Li3  1  0.49699742  0.00151741  0.79754056  1
  Li  Li4  1  0.49977919  0.66963796  0.29291399  1
  Li  Li5  1  0.00256322  0.66298518  0.79784249  1
  Li  Li6  1  0.00428713  0.33373816  0.29123517  1
  Li  Li7  1  0.50543376  0.33762198  0.78996428  1
  Li  Li8  1  0.00140961  0.66237091  0.29920166  1
  Li  Li9  1  0.50024877  0.66590886  0.79653023  1
  Nb  Nb10  1  -0.00049483  0.00133159  0.01523461  1
  Nb  Nb11  1  -0.00170455  0.32248080  0.02510010  1
  Nb  Nb12  1  0.48239829  1.00071023  0.02434953  1
  Nb  Nb13  1  0.99760713  -0.00072658  0.51892822  1
  Nb  Nb14  1  0.50006431  0.33383890  0.01065135  1
  Nb  Nb15  1  0.99755565  0.32523213  0.52532006  1
  Nb  Nb16  1  0.48041955  0.99785202  0.52832528  1
  Nb  Nb17  1  0.50947021  0.67304331  0.00319658  1
  Nb  Nb18  1  0.00043187  0.66742432  0.51032098  1
  Nb  Nb19  1  0.50183755  0.33515408  0.51093036  1
  Nb  Nb20  1  0.99898949  0.66470693  0.01611424  1
  Nb  Nb21  1  0.51116835  0.67361579  0.49978467  1
  O  O22  1  0.12688596  0.20509086  0.12663881  1
  O  O23  1  0.31983936  0.12984236  0.23600160  1
  O  O24  1  0.12052534  0.53717494  0.12866387  1
  O  O25  1  0.19004973  0.27162240  0.34379042  1
  O  O26  1  0.61667366  0.20336879  0.12931061  1
  O  O27  1  0.30968723  0.45862156  0.24898364  1
  O  O28  1  0.12719028  0.87172922  0.12235564  1
  O  O29  1  0.30855087  0.08592458  0.62437151  1
  O  O30  1  0.18292425  0.58275082  0.37226692  1
  O  O31  1  0.20061708  0.21490631  0.73101209  1
  O  O32  1  0.81330051  0.14751382  0.21563448  1
  O  O33  1  0.62702932  0.53833017  0.12206803  1
  O  O34  1  0.31508452  0.79945805  0.23330049  1
  O  O35  1  0.68512689  0.25141557  0.36916278  1
  O  O36  1  0.31125138  0.41611041  0.62333016  1
  O  O37  1  0.17855391  0.91368283  0.38305260  1
  O  O38  1  0.40015970  0.12563586  0.85008146  1
  O  O39  1  0.19036389  0.54090870  0.74328990  1
  O  O40  1  0.82469295  0.46616443  0.22781640  1
  O  O41  1  0.58784213  0.85074711  0.16287524  1
  O  O42  1  0.81043861  0.08176354  0.62695028  1
  O  O43  1  0.68562257  0.58642352  0.36828950  1
  O  O44  1  0.30807096  0.74891486  0.62308514  1
  O  O45  1  0.68997670  0.20691083  0.74648304  1
  O  O46  1  0.37825445  0.45494820  0.86664869  1
  O  O47  1  0.21457454  0.87668069  0.72239545  1
  O  O48  1  0.81732140  0.79343869  0.24523848  1
  O  O49  1  0.80382895  0.41521705  0.62417749  1
  O  O50  1  0.68961762  0.91953377  0.37016266  1
  O  O51  1  0.86868511  0.12048729  0.88524145  1
  O  O52  1  0.70412499  0.54816154  0.72316665  1
  O  O53  1  0.38064856  0.79224180  0.86787606  1
  O  O54  1  0.78135132  0.72816871  0.65921076  1
  O  O55  1  0.88252759  0.45706025  0.86644775  1
  O  O56  1  0.68740548  0.87759794  0.74877200  1
  O  O57  1  0.87641940  0.78648200  0.87513286  1
