# generated using pymatgen
data_Li2Mn(PO3)4
_symmetry_space_group_name_H-M   'P 1'
_cell_length_a   9.43284084
_cell_length_b   9.43338384
_cell_length_c   4.67593991
_cell_angle_alpha   90.00528491
_cell_angle_beta   90.00774536
_cell_angle_gamma   90.00073921
_symmetry_Int_Tables_number   1
_chemical_formula_structural   Li2Mn(PO3)4
_chemical_formula_sum   'Li4 Mn2 P8 O24'
_cell_volume   416.08199976
_cell_formula_units_Z   2
loop_
 _symmetry_equiv_pos_site_id
 _symmetry_equiv_pos_as_xyz
  1  'x, y, z'
loop_
 _atom_site_type_symbol
 _atom_site_label
 _atom_site_symmetry_multiplicity
 _atom_site_fract_x
 _atom_site_fract_y
 _atom_site_fract_z
 _atom_site_occupancy
  Li  Li0  1  0.00000174  0.00000531  0.49997300  1
  Li  Li1  1  0.00000729  0.49998896  0.49998907  1
  Li  Li2  1  0.49999886  0.00001089  0.49997556  1
  Li  Li3  1  0.50000090  0.50000459  0.49997858  1
  O  O4  1  0.32126770  0.04753059  0.75745407  1
  O  O5  1  0.95244672  0.67878805  0.75747813  1
  O  O6  1  0.04753830  0.17877012  0.75751649  1
  O  O7  1  0.04756192  0.32124120  0.24258237  1
  O  O8  1  0.13671459  0.63671218  0.14889819  1
  O  O9  1  0.13669355  0.86329193  0.85107851  1
  O  O10  1  0.17880861  0.04754368  0.24247377  1
  O  O11  1  0.17876735  0.45246457  0.75744472  1
  O  O12  1  0.32124153  0.45246424  0.24249263  1
  O  O13  1  0.95245487  0.82125523  0.24249049  1
  O  O14  1  0.36333486  0.86333318  0.14889684  1
  O  O15  1  0.36328539  0.63668673  0.85108808  1
  O  O16  1  0.45245830  0.32119436  0.75751328  1
  O  O17  1  0.45244834  0.17870911  0.24263009  1
  O  O18  1  0.54754093  0.82126115  0.75745294  1
  O  O19  1  0.86328769  0.36328517  0.85108820  1
  O  O20  1  0.63671363  0.36329371  0.14894942  1
  O  O21  1  0.63666848  0.13668777  0.85110064  1
  O  O22  1  0.67872471  0.95248786  0.24252548  1
  O  O23  1  0.67872735  0.54754240  0.75745476  1
  O  O24  1  0.82121082  0.95246978  0.75750286  1
  O  O25  1  0.82123359  0.54751837  0.24251838  1
  O  O26  1  0.86331727  0.13673173  0.14895544  1
  O  O27  1  0.54755160  0.67880086  0.24247662  1
  P  P28  1  0.97158611  0.24998708  1.00003381  1
  P  P29  1  0.74996460  0.02840548  1.00004927  1
  P  P30  1  0.02839772  0.75003075  0.99999510  1
  P  P31  1  0.25002213  0.52842305  0.00002266  1
  P  P32  1  0.25002554  0.97160334  0.99998592  1
  P  P33  1  0.74999379  0.47156618  0.00005058  1
  P  P34  1  0.52843492  0.24996046  1.00004267  1
  P  P35  1  0.47160859  0.75003502  0.99998819  1
  Mn  Mn36  1  0.25004918  0.24997978  0.49988798  1
  Mn  Mn37  1  0.74996853  0.74999210  0.49997219  1
