# generated using pymatgen
data_MgAl6O10
_symmetry_space_group_name_H-M   'P 1'
_cell_length_a   5.70775637
_cell_length_b   5.73033012
_cell_length_c   28.45416302
_cell_angle_alpha   59.77040406
_cell_angle_beta   59.71604581
_cell_angle_gamma   59.86616332
_symmetry_Int_Tables_number   1
_chemical_formula_structural   MgAl6O10
_chemical_formula_sum   'Mg4 Al24 O40'
_cell_volume   654.84936669
_cell_formula_units_Z   4
loop_
 _symmetry_equiv_pos_site_id
 _symmetry_equiv_pos_as_xyz
  1  'x, y, z'
loop_
 _atom_site_type_symbol
 _atom_site_label
 _atom_site_symmetry_multiplicity
 _atom_site_fract_x
 _atom_site_fract_y
 _atom_site_fract_z
 _atom_site_occupancy
  Al  Al0  1  0.11400425  0.11408097  0.03157186  1
  Al  Al1  1  0.01087953  0.50340481  0.09647457  1
  Al  Al2  1  0.50126435  0.01536447  0.09602578  1
  Al  Al3  1  0.13919323  0.12200762  0.22335723  1
  Al  Al4  1  0.50130762  0.50318608  0.09602631  1
  Al  Al5  1  0.50585565  0.00542592  0.29724306  1
  Al  Al6  1  0.47361765  0.50728745  0.20237330  1
  Al  Al7  1  0.50589196  0.50241339  0.29725366  1
  Al  Al8  1  0.86040711  0.88062989  0.17568093  1
  Al  Al9  1  0.52596246  0.49789371  0.39563448  1
  Al  Al10  1  0.50457525  0.50211134  0.49722938  1
  Al  Al11  1  0.00413908  0.49445986  0.70138003  1
  Al  Al12  1  0.87070869  0.88686515  0.37110974  1
  Al  Al13  1  0.50398636  0.50280771  0.59807370  1
  Al  Al14  1  0.50462949  0.00700346  0.49721239  1
  Al  Al15  1  0.01060026  0.50185685  0.49711683  1
  Al  Al16  1  0.49506428  0.49424342  0.70137660  1
  Al  Al17  1  0.98643106  0.48948039  0.90695247  1
  Al  Al18  1  0.48853830  0.98798280  0.90678786  1
  Al  Al19  1  0.48873222  0.48895628  0.80667416  1
  Al  Al20  1  0.49511602  0.00379320  0.70136951  1
  Al  Al21  1  0.48855170  0.48969451  0.90678629  1
  Al  Al22  1  0.86820018  0.86899520  0.77876894  1
  Al  Al23  1  0.87699187  0.87961074  0.97279248  1
  Mg  Mg24  1  0.14918605  0.13508538  0.41612103  1
  Mg  Mg25  1  0.12833559  0.12565310  0.62406167  1
  Mg  Mg26  1  0.11125350  0.10984015  0.83382029  1
  Mg  Mg27  1  0.87896103  0.87919829  0.57251544  1
  O  O28  1  0.24097306  0.24256249  0.05605194  1
  O  O29  1  0.25979596  0.26333174  0.14271003  1
  O  O30  1  0.24100781  0.73619805  0.05605306  1
  O  O31  1  0.73482437  0.24254733  0.05600658  1
  O  O32  1  0.29283958  0.24277399  0.24328503  1
  O  O33  1  0.27016339  0.74719433  0.14709589  1
  O  O34  1  0.74338985  0.74903448  0.05171576  1
  O  O35  1  0.74285178  0.28595940  0.14525339  1
  O  O36  1  0.30004104  0.26289512  0.33482329  1
  O  O37  1  0.29280255  0.74795061  0.24329856  1
  O  O38  1  0.74941771  0.26205815  0.24529327  1
  O  O39  1  0.74284420  0.74498620  0.14525791  1
  O  O40  1  0.26127549  0.26074421  0.45335897  1
  O  O41  1  0.26787318  0.74581520  0.34809915  1
  O  O42  1  0.72611836  0.75785310  0.25163684  1
  O  O43  1  0.26127505  0.71109537  0.45336070  1
  O  O44  1  0.71581380  0.26330606  0.35221576  1
  O  O45  1  0.26731064  0.26080453  0.54218568  1
  O  O46  1  0.72054186  0.25846267  0.45248199  1
  O  O47  1  0.71584046  0.75973194  0.35221369  1
  O  O48  1  0.25937560  0.25912410  0.65496879  1
  O  O49  1  0.29363085  0.73466331  0.54738058  1
  O  O50  1  0.74837438  0.74364930  0.45283819  1
  O  O51  1  0.73626629  0.29231862  0.54749339  1
  O  O52  1  0.25666407  0.25623834  0.74616928  1
  O  O53  1  0.25936801  0.70661668  0.65496635  1
  O  O54  1  0.73626884  0.73387442  0.54748918  1
  O  O55  1  0.70810643  0.25851283  0.65496718  1
  O  O56  1  0.26156732  0.26274638  0.85549349  1
  O  O57  1  0.26491137  0.73881426  0.75148883  1
  O  O58  1  0.72950887  0.72927279  0.66237596  1
  O  O59  1  0.24727792  0.24813415  0.95131295  1
  O  O60  1  0.73867512  0.26503493  0.75151692  1
  O  O61  1  0.26159860  0.69829115  0.85549504  1
  O  O62  1  0.69852140  0.26211943  0.85546523  1
  O  O63  1  0.73868778  0.73872299  0.75151377  1
  O  O64  1  0.26006162  0.76265010  0.94296204  1
  O  O65  1  0.73971127  0.74082067  0.85575275  1
  O  O66  1  0.76101062  0.26140614  0.94308309  1
  O  O67  1  0.76102876  0.76235227  0.94307949  1
