# generated using pymatgen
data_SrMg2
_symmetry_space_group_name_H-M   'P 1'
_cell_length_a   12.58511480
_cell_length_b   3.57743656
_cell_length_c   8.99264825
_cell_angle_alpha   90.00000000
_cell_angle_beta   110.02618744
_cell_angle_gamma   90.00000000
_symmetry_Int_Tables_number   1
_chemical_formula_structural   SrMg2
_chemical_formula_sum   'Sr4 Mg8'
_cell_volume   380.39101189
_cell_formula_units_Z   4
loop_
 _symmetry_equiv_pos_site_id
 _symmetry_equiv_pos_as_xyz
  1  'x, y, z'
loop_
 _atom_site_type_symbol
 _atom_site_label
 _atom_site_symmetry_multiplicity
 _atom_site_fract_x
 _atom_site_fract_y
 _atom_site_fract_z
 _atom_site_occupancy
  Sr  Sr0  1  0.15510662  0.00000000  0.62534163  1
  Sr  Sr1  1  0.34489338  0.50000000  0.37465837  1
  Sr  Sr2  1  0.65510662  0.50000000  0.62534163  1
  Sr  Sr3  1  0.84489338  -0.00000000  0.37465837  1
  Mg  Mg4  1  0.35498135  0.50000000  0.97793067  1
  Mg  Mg5  1  0.45819561  -0.00000000  0.76745348  1
  Mg  Mg6  1  0.04180439  0.50000000  0.23254652  1
  Mg  Mg7  1  0.14501865  0.00000000  0.02206933  1
  Mg  Mg8  1  0.85498135  0.00000000  0.97793067  1
  Mg  Mg9  1  0.95819561  0.50000000  0.76745348  1
  Mg  Mg10  1  0.54180439  0.00000000  0.23254652  1
  Mg  Mg11  1  0.64501865  0.50000000  0.02206933  1
