# generated using pymatgen
data_Li4CrP2O9
_symmetry_space_group_name_H-M   'P 1'
_cell_length_a   6.76949460
_cell_length_b   7.99690922
_cell_length_c   7.08165614
_cell_angle_alpha   89.77679770
_cell_angle_beta   90.00000000
_cell_angle_gamma   64.95961704
_symmetry_Int_Tables_number   1
_chemical_formula_structural   Li4CrP2O9
_chemical_formula_sum   'Li8 Cr2 P4 O18'
_cell_volume   347.32982500
_cell_formula_units_Z   2
loop_
 _symmetry_equiv_pos_site_id
 _symmetry_equiv_pos_as_xyz
  1  'x, y, z'
loop_
 _atom_site_type_symbol
 _atom_site_label
 _atom_site_symmetry_multiplicity
 _atom_site_fract_x
 _atom_site_fract_y
 _atom_site_fract_z
 _atom_site_occupancy
  Li  Li0  1  0.09789461  0.80421178  0.23839556  1
  Li  Li1  1  0.75404688  0.00000000  0.00000000  1
  Li  Li2  1  0.24595312  0.00000000  0.00000000  1
  Li  Li3  1  0.62491109  0.75017783  0.69625499  1
  Li  Li4  1  0.99999900  0.50000000  0.50000000  1
  Li  Li5  1  0.50000000  0.50000000  0.50000000  1
  Li  Li6  1  0.37508891  0.24982317  0.30374401  1
  Li  Li7  1  0.90210539  0.19578722  0.76160444  1
  O  O8  1  0.43829431  0.74047111  0.12451168  1
  O  O9  1  0.49740959  0.00518182  0.23630535  1
  O  O10  1  0.03520392  0.92959216  0.81151162  1
  O  O11  1  0.12945714  0.74108673  0.48972144  1
  O  O12  1  0.98896449  0.63437701  0.76086298  1
  O  O13  1  0.82123359  0.74047111  0.12451168  1
  O  O14  1  0.96479608  0.07040684  0.18848838  1
  O  O15  1  0.37665850  0.63437701  0.76086298  1
  O  O16  1  0.50259141  0.99481718  0.76369565  1
  O  O17  1  0.23791053  0.52417995  0.08210430  1
  O  O18  1  0.76208947  0.47582005  0.91789470  1
  O  O19  1  0.01103651  0.36562199  0.23913602  1
  O  O20  1  0.62334150  0.36562199  0.23913602  1
  O  O21  1  0.34673338  0.30653423  0.56795964  1
  O  O22  1  0.17876641  0.25952789  0.87548832  1
  O  O23  1  0.56170669  0.25952789  0.87548832  1
  O  O24  1  0.87054186  0.25891427  0.51027756  1
  O  O25  1  0.65326662  0.69346577  0.43204136  1
  P  P26  1  0.12713113  0.74573975  0.70440996  1
  P  P27  1  0.87286887  0.25426125  0.29559004  1
  P  P28  1  0.60236264  0.79527373  0.24185837  1
  P  P29  1  0.39763736  0.20472627  0.75814163  1
  Cr  Cr30  1  0.50000000  0.50000000  0.99999900  1
  Cr  Cr31  1  0.00000000  0.50000000  0.99999900  1
