# generated using pymatgen
data_Cs(MoO3)3
_symmetry_space_group_name_H-M   'P 1'
_cell_length_a   6.55514652
_cell_length_b   7.82810071
_cell_length_c   9.28858574
_cell_angle_alpha   114.92192080
_cell_angle_beta   93.57083019
_cell_angle_gamma   89.99999998
_symmetry_Int_Tables_number   1
_chemical_formula_structural   Cs(MoO3)3
_chemical_formula_sum   'Cs2 Mo6 O18'
_cell_volume   431.23398502
_cell_formula_units_Z   2
loop_
 _symmetry_equiv_pos_site_id
 _symmetry_equiv_pos_as_xyz
  1  'x, y, z'
loop_
 _atom_site_type_symbol
 _atom_site_label
 _atom_site_symmetry_multiplicity
 _atom_site_fract_x
 _atom_site_fract_y
 _atom_site_fract_z
 _atom_site_occupancy
  O  O0  1  0.58990145  0.30969468  0.14493786  1
  O  O1  1  0.41009855  0.16475681  0.85506214  1
  O  O2  1  0.41009855  0.69030532  0.85506214  1
  O  O3  1  0.58990145  0.83524319  0.14493786  1
  O  O4  1  0.21532158  0.41404354  0.29810705  1
  O  O5  1  0.78467842  0.11593649  0.70189295  1
  O  O6  1  0.78467842  0.58595646  0.70189295  1
  O  O7  1  0.21532158  0.88406351  0.29810705  1
  O  O8  1  0.00000000  0.74227059  0.00000000  1
  O  O9  1  0.00000000  0.25772941  0.00000000  1
  O  O10  1  0.53303274  0.19829613  0.39659226  1
  O  O11  1  0.46696726  0.80170387  0.60340774  1
  O  O12  1  0.90167872  0.13248522  0.26497043  1
  O  O13  1  0.09832128  0.86751478  0.73502957  1
  O  O14  1  0.29505798  0.53260172  0.06520344  1
  O  O15  1  0.70494202  0.46739828  0.93479656  1
  O  O16  1  0.30988859  0.03420605  0.06841210  1
  O  O17  1  0.69011141  0.96579395  0.93158790  1
  Mo  Mo18  1  0.26961858  0.31125034  0.10134364  1
  Mo  Mo19  1  0.73038142  0.20990670  0.89865636  1
  Mo  Mo20  1  0.73038142  0.68874966  0.89865636  1
  Mo  Mo21  1  0.26961858  0.79009330  0.10134364  1
  Mo  Mo22  1  0.35893622  0.89281036  0.78562073  1
  Mo  Mo23  1  0.64106378  0.10718964  0.21437927  1
  Cs  Cs24  1  0.82450562  0.70203528  0.40407057  1
  Cs  Cs25  1  0.17549438  0.29796472  0.59592943  1
