# generated using pymatgen
data_Ti2Cu9(B3O11)2
_symmetry_space_group_name_H-M   'P 1'
_cell_length_a   7.46506812
_cell_length_b   10.71041191
_cell_length_c   11.81833070
_cell_angle_alpha   103.86401374
_cell_angle_beta   98.63688616
_cell_angle_gamma   91.02969949
_symmetry_Int_Tables_number   1
_chemical_formula_structural   Ti2Cu9(B3O11)2
_chemical_formula_sum   'Ti4 Cu18 B12 O44'
_cell_volume   905.55664826
_cell_formula_units_Z   2
loop_
 _symmetry_equiv_pos_site_id
 _symmetry_equiv_pos_as_xyz
  1  'x, y, z'
loop_
 _atom_site_type_symbol
 _atom_site_label
 _atom_site_symmetry_multiplicity
 _atom_site_fract_x
 _atom_site_fract_y
 _atom_site_fract_z
 _atom_site_occupancy
  Ti  Ti0  1  0.88454595  0.91475737  0.06761450  1
  Ti  Ti1  1  0.61052276  0.09952678  0.95171777  1
  Ti  Ti2  1  0.38947724  0.90047322  0.04828223  1
  Ti  Ti3  1  0.11545405  0.08524263  0.93238550  1
  Cu  Cu4  1  0.94644725  0.21330303  0.69706976  1
  Cu  Cu5  1  0.43306118  0.21780151  0.71155083  1
  Cu  Cu6  1  0.07742261  0.76502185  0.87270428  1
  Cu  Cu7  1  0.86879895  0.50399900  0.61133869  1
  Cu  Cu8  1  0.18396105  0.35767945  0.98122526  1
  Cu  Cu9  1  0.38155507  0.50086640  0.61205855  1
  Cu  Cu10  1  0.05355275  0.78669697  0.30293024  1
  Cu  Cu11  1  0.24297804  0.00222112  0.51046137  1
  Cu  Cu12  1  0.13120105  0.49600100  0.38866131  1
  Cu  Cu13  1  0.56693882  0.78219849  0.28844917  1
  Cu  Cu14  1  0.32911140  0.63201783  0.01030346  1
  Cu  Cu15  1  0.92257739  0.23497815  0.12729572  1
  Cu  Cu16  1  0.67088860  0.36798217  0.98969654  1
  Cu  Cu17  1  0.75702196  0.99777888  0.48953863  1
  Cu  Cu18  1  0.36953314  0.23250511  0.20371490  1
  Cu  Cu19  1  0.63046686  0.76749489  0.79628510  1
  Cu  Cu20  1  0.81603895  0.64232055  0.01877474  1
  Cu  Cu21  1  0.61844493  0.49913360  0.38794145  1
  B  B22  1  0.18150938  0.25951525  0.48054269  1
  B  B23  1  0.48787820  0.93476155  0.69644012  1
  B  B24  1  0.03625660  0.07282980  0.31365031  1
  B  B25  1  0.32853777  0.74441339  0.53239645  1
  B  B26  1  0.56868063  0.49618242  0.79447934  1
  B  B27  1  0.43131937  0.50381758  0.20552066  1
  B  B28  1  0.94259606  0.50391273  0.20616056  1
  B  B29  1  0.96374340  0.92717020  0.68634969  1
  B  B30  1  0.67146223  0.25558661  0.46760355  1
  B  B31  1  0.51212180  0.06523845  0.30355988  1
  B  B32  1  0.81849062  0.74048475  0.51945731  1
  B  B33  1  0.05740394  0.49608727  0.79383944  1
  O  O34  1  0.93372199  0.05336063  0.20518674  1
  O  O35  1  0.90659299  0.80122469  0.63131906  1
  O  O36  1  0.07805720  0.97330141  0.36590044  1
  O  O37  1  0.44671016  0.39815089  0.72592126  1
  O  O38  1  0.80931360  0.60850161  0.49494099  1
  O  O39  1  0.65974800  0.24451968  0.08501575  1
  O  O40  1  0.19068640  0.39149839  0.50505901  1
  O  O41  1  0.95752019  0.39526010  0.25153189  1
  O  O42  1  0.25173138  0.18909820  0.55837012  1
  O  O43  1  0.83200265  0.76038731  0.91838660  1
  O  O44  1  0.36653929  0.05468794  0.96123062  1
  O  O45  1  0.92194280  0.02669859  0.63409956  1
  O  O46  1  0.44824611  0.80509828  0.63657756  1
  O  O47  1  0.23665314  0.81657569  0.46416057  1
  O  O48  1  0.74826862  0.81090180  0.44162988  1
  O  O49  1  0.42645258  0.77841767  0.13941343  1
  O  O50  1  0.55328984  0.60184911  0.27407874  1
  O  O51  1  0.04247981  0.60473990  0.74846811  1
  O  O52  1  0.87823119  0.07921190  0.98173842  1
  O  O53  1  0.12176881  0.92078810  0.01826158  1
  O  O54  1  0.84049131  0.50527020  0.10091801  1
  O  O55  1  0.05307991  0.60507151  0.28150385  1
  O  O56  1  0.94692009  0.39492849  0.71849615  1
  O  O57  1  0.58692553  0.96825401  0.34677805  1
  O  O58  1  0.91306217  0.78608036  0.14974809  1
  O  O59  1  0.58183351  0.58987736  0.73161768  1
  O  O60  1  0.76334686  0.18342431  0.53583943  1
  O  O61  1  0.60788397  0.95116142  0.79920176  1
  O  O62  1  0.68451327  0.38719787  0.49479183  1
  O  O63  1  0.09340701  0.19877531  0.36868094  1
  O  O64  1  0.16799735  0.23961269  0.08161340  1
  O  O65  1  0.41816649  0.41012264  0.26838232  1
  O  O66  1  0.65312899  0.50489959  0.90605399  1
  O  O67  1  0.34687101  0.49510041  0.09394601  1
  O  O68  1  0.55175389  0.19490172  0.36342244  1
  O  O69  1  0.31548673  0.61280213  0.50520817  1
  O  O70  1  0.39211603  0.04883858  0.20079824  1
  O  O71  1  0.06627801  0.94663937  0.79481326  1
  O  O72  1  0.57354742  0.22158233  0.86058657  1
  O  O73  1  0.34025200  0.75548032  0.91498425  1
  O  O74  1  0.63346071  0.94531206  0.03876938  1
  O  O75  1  0.08693783  0.21391964  0.85025191  1
  O  O76  1  0.15950869  0.49472980  0.89908199  1
  O  O77  1  0.41307447  0.03174599  0.65322195  1
