# generated using pymatgen
data_Li7Fe4P9O32
_symmetry_space_group_name_H-M   'P 1'
_cell_length_a   13.85717719
_cell_length_b   13.85717719
_cell_length_c   6.38794760
_cell_angle_alpha   90.00000000
_cell_angle_beta   90.00000000
_cell_angle_gamma   90.00000000
_symmetry_Int_Tables_number   1
_chemical_formula_structural   Li7Fe4P9O32
_chemical_formula_sum   'Li14 Fe8 P18 O64'
_cell_volume   1226.62238369
_cell_formula_units_Z   2
loop_
 _symmetry_equiv_pos_site_id
 _symmetry_equiv_pos_as_xyz
  1  'x, y, z'
loop_
 _atom_site_type_symbol
 _atom_site_label
 _atom_site_symmetry_multiplicity
 _atom_site_fract_x
 _atom_site_fract_y
 _atom_site_fract_z
 _atom_site_occupancy
  Fe  Fe0  1  0.12109548  0.19676838  0.62358100  1
  Fe  Fe1  1  0.19676838  0.87890452  0.37641900  1
  Fe  Fe2  1  0.30323162  0.37890452  0.12358100  1
  Fe  Fe3  1  0.37890452  0.69676838  0.87641900  1
  Fe  Fe4  1  0.62109548  0.30323162  0.87641900  1
  Fe  Fe5  1  0.69676838  0.62109548  0.12358100  1
  Fe  Fe6  1  0.80323162  0.12109548  0.37641900  1
  Fe  Fe7  1  0.87890452  0.80323162  0.62358100  1
  Li  Li8  1  0.00000000  0.00000000  0.00000000  1
  Li  Li9  1  0.00000000  0.50000000  0.13386848  1
  Li  Li10  1  0.00000000  0.50000000  0.63386848  1
  Li  Li11  1  0.10648069  0.74464178  0.81202112  1
  Li  Li12  1  0.24464178  0.60648069  0.31202112  1
  Li  Li13  1  0.25535822  0.10648069  0.18797888  1
  Li  Li14  1  0.39351931  0.24464178  0.68797888  1
  Li  Li15  1  0.50000000  0.00000000  0.36613152  1
  Li  Li16  1  0.50000000  0.00000000  0.86613152  1
  Li  Li17  1  0.50000000  0.50000000  0.50000000  1
  Li  Li18  1  0.60648069  0.75535822  0.68797888  1
  Li  Li19  1  0.74464178  0.89351931  0.18797888  1
  Li  Li20  1  0.75535822  0.39351931  0.31202112  1
  Li  Li21  1  0.89351931  0.25535822  0.81202112  1
  O  O22  1  0.00554686  0.72869553  0.17040502  1
  O  O23  1  0.01307240  0.74212546  0.57311618  1
  O  O24  1  0.05662262  0.58303496  0.38556645  1
  O  O25  1  0.06046167  0.06500058  0.64916138  1
  O  O26  1  0.06500058  0.93953833  0.35083862  1
  O  O27  1  0.08303496  0.55662262  0.88556645  1
  O  O28  1  0.10648065  0.18798242  0.93238097  1
  O  O29  1  0.13995671  0.17998525  0.31230723  1
  O  O30  1  0.15818134  0.33811879  0.62438047  1
  O  O31  1  0.16188121  0.34181866  0.12438047  1
  O  O32  1  0.16375020  0.73044185  0.35256073  1
  O  O33  1  0.17998525  0.86004329  0.68769277  1
  O  O34  1  0.18798242  0.89351935  0.06761903  1
  O  O35  1  0.22869553  0.50554686  0.67040502  1
  O  O36  1  0.23044185  0.66375020  0.85256073  1
  O  O37  1  0.24212546  0.51307240  0.07311618  1
  O  O38  1  0.25787454  0.01307240  0.42688382  1
  O  O39  1  0.26955815  0.16375020  0.64743927  1
  O  O40  1  0.27130447  0.00554686  0.82959498  1
  O  O41  1  0.31201758  0.39351935  0.43238097  1
  O  O42  1  0.32001475  0.36004329  0.81230723  1
  O  O43  1  0.33624980  0.23044185  0.14743927  1
  O  O44  1  0.33811879  0.84181866  0.37561953  1
  O  O45  1  0.34181866  0.83811879  0.87561953  1
  O  O46  1  0.36004329  0.67998525  0.18769277  1
  O  O47  1  0.39351935  0.68798242  0.56761903  1
  O  O48  1  0.41696504  0.05662262  0.61443355  1
  O  O49  1  0.43499942  0.43953833  0.14916138  1
  O  O50  1  0.43953833  0.56500058  0.85083862  1
  O  O51  1  0.44337738  0.08303496  0.11443355  1
  O  O52  1  0.48692760  0.24212546  0.92688382  1
  O  O53  1  0.49445314  0.22869553  0.32959498  1
  O  O54  1  0.50554686  0.77130447  0.32959498  1
  O  O55  1  0.51307240  0.75787454  0.92688382  1
  O  O56  1  0.55662262  0.91696504  0.11443355  1
  O  O57  1  0.56046167  0.43499942  0.85083862  1
  O  O58  1  0.56500058  0.56046167  0.14916138  1
  O  O59  1  0.58303496  0.94337738  0.61443355  1
  O  O60  1  0.60648065  0.31201758  0.56761903  1
  O  O61  1  0.63995671  0.32001475  0.18769277  1
  O  O62  1  0.65818134  0.16188121  0.87561953  1
  O  O63  1  0.66188121  0.15818134  0.37561953  1
  O  O64  1  0.66375020  0.76955815  0.14743927  1
  O  O65  1  0.67998525  0.63995671  0.81230723  1
  O  O66  1  0.68798242  0.60648065  0.43238097  1
  O  O67  1  0.72869553  0.99445314  0.82959498  1
  O  O68  1  0.73044185  0.83624980  0.64743927  1
  O  O69  1  0.74212546  0.98692760  0.42688382  1
  O  O70  1  0.75787454  0.48692760  0.07311618  1
  O  O71  1  0.76955815  0.33624980  0.85256073  1
  O  O72  1  0.77130447  0.49445314  0.67040502  1
  O  O73  1  0.81201758  0.10648065  0.06761903  1
  O  O74  1  0.82001475  0.13995671  0.68769277  1
  O  O75  1  0.83624980  0.26955815  0.35256073  1
  O  O76  1  0.83811879  0.65818134  0.12438047  1
  O  O77  1  0.84181866  0.66188121  0.62438047  1
  O  O78  1  0.86004329  0.82001475  0.31230723  1
  O  O79  1  0.89351935  0.81201758  0.93238097  1
  O  O80  1  0.91696504  0.44337738  0.88556645  1
  O  O81  1  0.93499942  0.06046167  0.35083862  1
  O  O82  1  0.93953833  0.93499942  0.64916138  1
  O  O83  1  0.94337738  0.41696504  0.38556645  1
  O  O84  1  0.98692760  0.25787454  0.57311618  1
  O  O85  1  0.99445314  0.27130447  0.17040502  1
  P  P86  1  0.00000000  0.00000000  0.50000000  1
  P  P87  1  0.05999497  0.69206016  0.38335918  1
  P  P88  1  0.10733638  0.24690072  0.13353999  1
  P  P89  1  0.19206016  0.55999497  0.88335918  1
  P  P90  1  0.24690072  0.89266362  0.86646001  1
  P  P91  1  0.25309928  0.39266362  0.63353999  1
  P  P92  1  0.30793984  0.05999497  0.61664082  1
  P  P93  1  0.39266362  0.74690072  0.36646001  1
  P  P94  1  0.44000503  0.19206016  0.11664082  1
  P  P95  1  0.50000000  0.50000000  0.00000000  1
  P  P96  1  0.55999497  0.80793984  0.11664082  1
  P  P97  1  0.60733638  0.25309928  0.36646001  1
  P  P98  1  0.69206016  0.94000503  0.61664082  1
  P  P99  1  0.74690072  0.60733638  0.63353999  1
  P  P100  1  0.75309928  0.10733638  0.86646001  1
  P  P101  1  0.80793984  0.44000503  0.88335918  1
  P  P102  1  0.89266362  0.75309928  0.13353999  1
  P  P103  1  0.94000503  0.30793984  0.38335918  1
