# generated using pymatgen
data_LiCr(PO3)3
_symmetry_space_group_name_H-M   'P 1'
_cell_length_a   6.63450876
_cell_length_b   6.60615808
_cell_length_c   9.83899539
_cell_angle_alpha   90.00000017
_cell_angle_beta   91.65507754
_cell_angle_gamma   119.85874814
_symmetry_Int_Tables_number   1
_chemical_formula_structural   LiCr(PO3)3
_chemical_formula_sum   'Li2 Cr2 P6 O18'
_cell_volume   373.77869350
_cell_formula_units_Z   2
loop_
 _symmetry_equiv_pos_site_id
 _symmetry_equiv_pos_as_xyz
  1  'x, y, z'
loop_
 _atom_site_type_symbol
 _atom_site_label
 _atom_site_symmetry_multiplicity
 _atom_site_fract_x
 _atom_site_fract_y
 _atom_site_fract_z
 _atom_site_occupancy
  Cr  Cr0  1  0.33389057  0.66752071  0.49747934  1
  Cr  Cr1  1  0.33389057  0.66636886  0.99747934  1
  Li  Li2  1  0.67448270  0.44812937  0.52748709  1
  Li  Li3  1  0.67448270  0.22635333  0.02748709  1
  O  O4  1  0.07719699  0.66769289  0.87638438  1
  O  O5  1  0.07719699  0.40950310  0.37638438  1
  O  O6  1  0.33073824  0.93048094  0.37802147  1
  O  O7  1  0.37409346  0.95787973  0.11749957  1
  O  O8  1  0.58668236  0.92560109  0.62053577  1
  O  O9  1  0.23118778  0.19305517  0.23835328  1
  O  O10  1  0.33073824  0.40025629  0.87802147  1
  O  O11  1  0.37409346  0.41621373  0.61749957  1
  O  O12  1  0.23118778  0.03813261  0.73835328  1
  O  O13  1  0.58668236  0.66108127  0.12053577  1
  O  O14  1  0.63308963  0.60027152  0.37483092  1
  O  O15  1  0.80632698  0.80047358  0.79045012  1
  O  O16  1  0.63308963  0.03281811  0.87483092  1
  O  O17  1  0.97503733  0.75791502  0.21441673  1
  O  O18  1  0.97942286  0.64499215  0.61960583  1
  O  O19  1  0.80632698  0.00585340  0.29045012  1
  O  O20  1  0.97942286  0.33443071  0.11960583  1
  O  O21  1  0.97503733  0.21712131  0.71441673  1
  P  P22  1  0.02510555  0.77044143  0.75394929  1
  P  P23  1  0.24184157  0.95615319  0.24100226  1
  P  P24  1  0.02510555  0.25466312  0.25394929  1
  P  P25  1  0.24184157  0.28568938  0.74100226  1
  P  P26  1  0.73090598  0.99094218  0.74998095  1
  P  P27  1  0.73090598  0.73996380  0.24998095  1
