# generated using pymatgen
data_K2Cu3Ge5O14
_symmetry_space_group_name_H-M   'P 1'
_cell_length_a   6.35390758
_cell_length_b   7.28245641
_cell_length_c   7.97645731
_cell_angle_alpha   80.93016453
_cell_angle_beta   70.90255606
_cell_angle_gamma   79.37315783
_symmetry_Int_Tables_number   1
_chemical_formula_structural   K2Cu3Ge5O14
_chemical_formula_sum   'K2 Cu3 Ge5 O14'
_cell_volume   340.90555753
_cell_formula_units_Z   1
loop_
 _symmetry_equiv_pos_site_id
 _symmetry_equiv_pos_as_xyz
  1  'x, y, z'
loop_
 _atom_site_type_symbol
 _atom_site_label
 _atom_site_symmetry_multiplicity
 _atom_site_fract_x
 _atom_site_fract_y
 _atom_site_fract_z
 _atom_site_occupancy
  K  K0  1  0.72249241  0.48595530  0.16083907  1
  K  K1  1  0.27750759  0.51404470  0.83916093  1
  Cu  Cu2  1  0.34423869  0.02812586  0.67071267  1
  Cu  Cu3  1  0.00000000  0.00000000  0.00000000  1
  Cu  Cu4  1  0.65576131  0.97187414  0.32928733  1
  Ge  Ge5  1  0.17173142  0.73054468  0.30407577  1
  Ge  Ge6  1  0.82826858  0.26945532  0.69592423  1
  Ge  Ge7  1  0.78950909  0.73777231  0.68541632  1
  Ge  Ge8  1  0.21049091  0.26222769  0.31458368  1
  Ge  Ge9  1  0.50000000  0.00000000  0.00000000  1
  O  O10  1  0.92104673  0.27626683  0.45551109  1
  O  O11  1  0.42566824  0.82612418  0.21884708  1
  O  O12  1  0.26723048  0.49811301  0.23670087  1
  O  O13  1  0.23178347  0.17714860  0.11471494  1
  O  O14  1  0.60036985  0.83807108  0.56522447  1
  O  O15  1  0.05564820  0.18283959  0.78144718  1
  O  O16  1  0.39963015  0.16192892  0.43477553  1
  O  O17  1  0.07895327  0.72373317  0.54448891  1
  O  O18  1  0.94435180  0.81716041  0.21855282  1
  O  O19  1  0.76821653  0.82285140  0.88528506  1
  O  O20  1  0.57433176  0.17387582  0.78115292  1
  O  O21  1  0.73276952  0.50188699  0.76329913  1
  O  O22  1  0.68430978  0.10191689  0.09361169  1
  O  O23  1  0.31569022  0.89808311  0.90638831  1
