# generated using pymatgen
data_TlCO2
_symmetry_space_group_name_H-M   'P 1'
_cell_length_a   6.00621334
_cell_length_b   6.81176623
_cell_length_c   6.94169128
_cell_angle_alpha   99.47571102
_cell_angle_beta   90.00000000
_cell_angle_gamma   90.00000000
_symmetry_Int_Tables_number   1
_chemical_formula_structural   TlCO2
_chemical_formula_sum   'Tl4 C4 O8'
_cell_volume   280.12975814
_cell_formula_units_Z   4
loop_
 _symmetry_equiv_pos_site_id
 _symmetry_equiv_pos_as_xyz
  1  'x, y, z'
loop_
 _atom_site_type_symbol
 _atom_site_label
 _atom_site_symmetry_multiplicity
 _atom_site_fract_x
 _atom_site_fract_y
 _atom_site_fract_z
 _atom_site_occupancy
  Tl  Tl0  1  0.44642933  0.19576706  0.81541857  1
  Tl  Tl1  1  0.05357067  0.19576706  0.31541857  1
  Tl  Tl2  1  0.94642933  0.80423294  0.68458143  1
  Tl  Tl3  1  0.55357067  0.80423294  0.18458143  1
  C  C4  1  0.59206719  0.42934356  0.44641314  1
  C  C5  1  0.09206719  0.57065644  0.05358686  1
  C  C6  1  0.40793281  0.57065644  0.55358686  1
  C  C7  1  0.90793281  0.42934356  0.94641314  1
  O  O8  1  0.75094809  0.51114980  0.36696145  1
  O  O9  1  0.92723460  0.24405742  0.94657250  1
  O  O10  1  0.24905191  0.48885020  0.63303855  1
  O  O11  1  0.25094809  0.48885020  0.13303855  1
  O  O12  1  0.42723460  0.75594258  0.55342750  1
  O  O13  1  0.07276540  0.75594258  0.05342750  1
  O  O14  1  0.74905191  0.51114980  0.86696145  1
  O  O15  1  0.57276540  0.24405742  0.44657250  1
