# generated using pymatgen
data_Cs2NaMnF6
_symmetry_space_group_name_H-M   'P 1'
_cell_length_a   11.04863746
_cell_length_b   11.04863757
_cell_length_c   11.04863719
_cell_angle_alpha   33.53787660
_cell_angle_beta   33.53787583
_cell_angle_gamma   33.53787661
_symmetry_Int_Tables_number   1
_chemical_formula_structural   Cs2NaMnF6
_chemical_formula_sum   'Cs4 Na2 Mn2 F12'
_cell_volume   366.69172177
_cell_formula_units_Z   2
loop_
 _symmetry_equiv_pos_site_id
 _symmetry_equiv_pos_as_xyz
  1  'x, y, z'
loop_
 _atom_site_type_symbol
 _atom_site_label
 _atom_site_symmetry_multiplicity
 _atom_site_fract_x
 _atom_site_fract_y
 _atom_site_fract_z
 _atom_site_occupancy
  Cs  Cs0  1  0.12681194  0.12681194  0.12681194  1
  Cs  Cs1  1  0.87318806  0.87318806  0.87318806  1
  Cs  Cs2  1  0.28442151  0.28442151  0.28442151  1
  Cs  Cs3  1  0.71557849  0.71557849  0.71557849  1
  Na  Na4  1  0.59638814  0.59638814  0.59638814  1
  Na  Na5  1  0.40361186  0.40361186  0.40361186  1
  Mn  Mn6  1  0.50000000  0.50000000  0.50000000  1
  Mn  Mn7  1  0.00000000  0.00000000  0.00000000  1
  F  F8  1  0.18673941  0.18673941  0.73673040  1
  F  F9  1  0.18673941  0.73673040  0.18673941  1
  F  F10  1  0.73673040  0.18673941  0.18673941  1
  F  F11  1  0.26326960  0.81326059  0.81326059  1
  F  F12  1  0.81326059  0.81326059  0.26326960  1
  F  F13  1  0.81326059  0.26326960  0.81326059  1
  F  F14  1  0.39554823  0.39554823  0.82171932  1
  F  F15  1  0.39554823  0.82171932  0.39554823  1
  F  F16  1  0.60445177  0.17828068  0.60445177  1
  F  F17  1  0.60445177  0.60445177  0.17828068  1
  F  F18  1  0.17828068  0.60445177  0.60445177  1
  F  F19  1  0.82171932  0.39554823  0.39554823  1
