# generated using pymatgen
data_Dy3ReO7
_symmetry_space_group_name_H-M   'P 1'
_cell_length_a   6.44465968
_cell_length_b   6.44465850
_cell_length_c   7.43879505
_cell_angle_alpha   90.00000000
_cell_angle_beta   90.00000000
_cell_angle_gamma   109.19727117
_symmetry_Int_Tables_number   1
_chemical_formula_structural   Dy3ReO7
_chemical_formula_sum   'Dy6 Re2 O14'
_cell_volume   291.77952034
_cell_formula_units_Z   2
loop_
 _symmetry_equiv_pos_site_id
 _symmetry_equiv_pos_as_xyz
  1  'x, y, z'
loop_
 _atom_site_type_symbol
 _atom_site_label
 _atom_site_symmetry_multiplicity
 _atom_site_fract_x
 _atom_site_fract_y
 _atom_site_fract_z
 _atom_site_occupancy
  Dy  Dy0  1  0.99984475  0.46653780  0.50027581  1
  Dy  Dy1  1  0.49632310  0.49632310  0.75000000  1
  Dy  Dy2  1  0.00015525  0.53346220  0.00027581  1
  Dy  Dy3  1  0.46653780  0.99984475  0.99972419  1
  Dy  Dy4  1  0.53346220  0.00015525  0.49972419  1
  Dy  Dy5  1  0.50367690  0.50367690  0.25000000  1
  Re  Re6  1  0.99980493  0.99980493  0.75000000  1
  Re  Re7  1  0.00019507  0.00019507  0.25000000  1
  O  O8  1  0.07268167  0.32079205  0.22101977  1
  O  O9  1  0.93167664  0.06832336  0.50000000  1
  O  O10  1  0.07557180  0.32211589  0.77919488  1
  O  O11  1  0.92442820  0.67788411  0.27919488  1
  O  O12  1  0.63671849  0.36328151  0.50000000  1
  O  O13  1  0.67788411  0.92442820  0.22080512  1
  O  O14  1  0.32079205  0.07268167  0.27898023  1
  O  O15  1  0.32211589  0.07557180  0.72080512  1
  O  O16  1  0.67920795  0.92731833  0.77898023  1
  O  O17  1  0.92731833  0.67920795  0.72101977  1
  O  O18  1  0.63086631  0.36913369  -0.00000000  1
  O  O19  1  0.36328151  0.63671849  -0.00000000  1
  O  O20  1  0.36913369  0.63086631  0.50000000  1
  O  O21  1  0.06832336  0.93167664  0.00000000  1
