# generated using pymatgen
data_KCoO2
_symmetry_space_group_name_H-M   'P 1'
_cell_length_a   5.43140104
_cell_length_b   5.43138410
_cell_length_c   5.43138202
_cell_angle_alpha   98.86710074
_cell_angle_beta   115.01963542
_cell_angle_gamma   115.01971703
_symmetry_Int_Tables_number   1
_chemical_formula_structural   KCoO2
_chemical_formula_sum   'K2 Co2 O4'
_cell_volume   120.26107509
_cell_formula_units_Z   2
loop_
 _symmetry_equiv_pos_site_id
 _symmetry_equiv_pos_as_xyz
  1  'x, y, z'
loop_
 _atom_site_type_symbol
 _atom_site_label
 _atom_site_symmetry_multiplicity
 _atom_site_fract_x
 _atom_site_fract_y
 _atom_site_fract_z
 _atom_site_occupancy
  K  K0  1  0.49999993  0.24999916  0.74999969  1
  K  K1  1  0.00000255  0.49999892  0.49999787  1
  Co  Co2  1  0.50000007  0.75000070  0.25000040  1
  Co  Co3  1  1.00000004  0.00000056  0.00000055  1
  O  O4  1  0.85458300  0.82759974  0.22130221  1
  O  O5  1  0.14541499  0.36671871  0.97301550  1
  O  O6  1  0.39370211  0.02698490  0.17240227  1
  O  O7  1  0.60629831  0.77869830  0.63328252  1
