# generated using pymatgen
data_Rb2Li14Tb3O14
_symmetry_space_group_name_H-M   'P 1'
_cell_length_a   7.48233871
_cell_length_b   8.19105298
_cell_length_c   8.61871572
_cell_angle_alpha   118.37170984
_cell_angle_beta   115.72645279
_cell_angle_gamma   90.00000324
_symmetry_Int_Tables_number   1
_chemical_formula_structural   Rb2Li14Tb3O14
_chemical_formula_sum   'Rb2 Li14 Tb3 O14'
_cell_volume   404.28208815
_cell_formula_units_Z   1
loop_
 _symmetry_equiv_pos_site_id
 _symmetry_equiv_pos_as_xyz
  1  'x, y, z'
loop_
 _atom_site_type_symbol
 _atom_site_label
 _atom_site_symmetry_multiplicity
 _atom_site_fract_x
 _atom_site_fract_y
 _atom_site_fract_z
 _atom_site_occupancy
  Tb  Tb0  1  0.00000000  0.00000000  0.00000000  1
  Tb  Tb1  1  0.27043598  0.27043598  0.54087196  1
  Tb  Tb2  1  0.72956402  0.72956402  0.45912804  1
  Rb  Rb3  1  0.23481026  0.50000000  0.00000000  1
  Rb  Rb4  1  0.76518974  0.50000000  1.00000000  1
  Li  Li5  1  0.59258612  0.71125207  0.73271990  1
  Li  Li6  1  0.85986622  0.97853218  0.26728010  1
  Li  Li7  1  0.40741388  0.28874793  0.26728010  1
  Li  Li8  1  0.14013378  0.71125207  0.73271990  1
  Li  Li9  1  0.40741388  0.97853218  0.26728010  1
  Li  Li10  1  0.59258612  0.02146782  0.73271990  1
  Li  Li11  1  0.76845863  0.12229589  0.53691725  1
  Li  Li12  1  0.50000000  0.15451812  0.00000000  1
  Li  Li13  1  0.23154137  0.58537864  0.46308275  1
  Li  Li14  1  0.14013378  0.02146782  0.73271990  1
  Li  Li15  1  0.76845863  0.41462136  0.53691725  1
  Li  Li16  1  0.50000000  0.84548188  1.00000000  1
  Li  Li17  1  0.23154137  0.87770411  0.46308275  1
  Li  Li18  1  0.85986622  0.28874793  0.26728010  1
  O  O19  1  0.94994137  0.24836080  0.49672161  1
  O  O20  1  0.70202562  0.00000000  0.00000000  1
  O  O21  1  0.05005863  0.75163920  0.50327839  1
  O  O22  1  0.62747365  0.84796733  0.25494729  1
  O  O23  1  0.37252635  0.15203267  0.74505271  1
  O  O24  1  0.13127781  0.31566308  0.26255562  1
  O  O25  1  0.45321976  0.75163920  0.50327839  1
  O  O26  1  0.86872219  0.68433692  0.73744438  1
  O  O27  1  0.54678024  0.24836080  0.49672161  1
  O  O28  1  0.86872219  0.05310746  0.73744438  1
  O  O29  1  0.62747365  0.40697996  0.25494729  1
  O  O30  1  0.13127781  0.94689254  0.26255562  1
  O  O31  1  0.29797438  1.00000000  1.00000000  1
  O  O32  1  0.37252635  0.59302004  0.74505271  1
