# generated using pymatgen
data_BaF2
_symmetry_space_group_name_H-M   'P 1'
_cell_length_a   4.11046093
_cell_length_b   6.79956322
_cell_length_c   8.04557665
_cell_angle_alpha   90.00000000
_cell_angle_beta   90.00000000
_cell_angle_gamma   90.00000000
_symmetry_Int_Tables_number   1
_chemical_formula_structural   BaF2
_chemical_formula_sum   'Ba4 F8'
_cell_volume   224.86854889
_cell_formula_units_Z   4
loop_
 _symmetry_equiv_pos_site_id
 _symmetry_equiv_pos_as_xyz
  1  'x, y, z'
loop_
 _atom_site_type_symbol
 _atom_site_label
 _atom_site_symmetry_multiplicity
 _atom_site_fract_x
 _atom_site_fract_y
 _atom_site_fract_z
 _atom_site_occupancy
  Ba  Ba0  1  0.75000000  0.74949754  0.61384337  1
  Ba  Ba1  1  0.25000000  0.75050246  0.11384337  1
  Ba  Ba2  1  0.25000000  0.25050246  0.38615663  1
  Ba  Ba3  1  0.75000000  0.24949754  0.88615663  1
  F  F4  1  0.25000000  0.52755743  0.83267135  1
  F  F5  1  0.25000000  0.14272809  0.07061118  1
  F  F6  1  0.75000000  0.47244257  0.16732865  1
  F  F7  1  0.75000000  0.85727191  0.92938882  1
  F  F8  1  0.75000000  0.97244257  0.33267135  1
  F  F9  1  0.75000000  0.35727191  0.57061118  1
  F  F10  1  0.25000000  0.64272809  0.42938882  1
  F  F11  1  0.25000000  0.02755743  0.66732865  1
