# generated using pymatgen
data_LiBeH8CNOF4
_symmetry_space_group_name_H-M   'P 1'
_cell_length_a   4.92041148
_cell_length_b   10.13216969
_cell_length_c   12.67915490
_cell_angle_alpha   100.51209638
_cell_angle_beta   90.00000000
_cell_angle_gamma   90.00000000
_symmetry_Int_Tables_number   1
_chemical_formula_structural   LiBeH8CNOF4
_chemical_formula_sum   'Li4 Be4 H32 C4 N4 O4 F16'
_cell_volume   621.50310738
_cell_formula_units_Z   4
loop_
 _symmetry_equiv_pos_site_id
 _symmetry_equiv_pos_as_xyz
  1  'x, y, z'
loop_
 _atom_site_type_symbol
 _atom_site_label
 _atom_site_symmetry_multiplicity
 _atom_site_fract_x
 _atom_site_fract_y
 _atom_site_fract_z
 _atom_site_occupancy
  Li  Li0  1  0.68485994  0.14690185  0.49585952  1
  Li  Li1  1  0.31514006  0.85309815  0.50414048  1
  Li  Li2  1  0.18485994  0.35309815  0.50414048  1
  Li  Li3  1  0.81514006  0.64690185  0.49585952  1
  Be  Be4  1  0.80736894  0.87308074  0.36813783  1
  Be  Be5  1  0.30736894  0.62691926  0.63186217  1
  Be  Be6  1  0.19263106  0.12691926  0.63186217  1
  Be  Be7  1  0.69263106  0.37308074  0.36813783  1
  H  H8  1  0.24375425  0.07618011  0.09987515  1
  H  H9  1  0.06441039  0.94823299  0.15158488  1
  H  H10  1  0.75624575  0.92381989  0.90012485  1
  H  H11  1  0.61474831  0.83166628  0.71738567  1
  H  H12  1  0.42773599  0.95623884  0.15971301  1
  H  H13  1  0.04398368  0.16115861  0.27621088  1
  H  H14  1  0.22173996  0.04529702  0.32883815  1
  H  H15  1  0.09975935  0.75051538  0.98633848  1
  H  H16  1  0.57226401  0.04376116  0.84028699  1
  H  H17  1  0.11474831  0.66833372  0.28261433  1
  H  H18  1  0.54398368  0.33884139  0.72378912  1
  H  H19  1  0.72173996  0.45470298  0.67116185  1
  H  H20  1  0.26334105  0.74242157  0.87676585  1
  H  H21  1  0.74375425  0.42381989  0.90012485  1
  H  H22  1  0.45601632  0.66115861  0.27621088  1
  H  H23  1  0.43558961  0.44823299  0.15158488  1
  H  H24  1  0.73665895  0.25757843  0.12323415  1
  H  H25  1  0.07226401  0.45623884  0.15971301  1
  H  H26  1  0.88525169  0.33166628  0.71738567  1
  H  H27  1  0.40024065  0.25051538  0.98633848  1
  H  H28  1  0.25624575  0.57618011  0.09987515  1
  H  H29  1  0.56441039  0.55176701  0.84841512  1
  H  H30  1  0.76334105  0.75757843  0.12323415  1
  H  H31  1  0.95601632  0.83884139  0.72378912  1
  H  H32  1  0.77826004  0.95470298  0.67116185  1
  H  H33  1  0.27826004  0.54529702  0.32883815  1
  H  H34  1  0.93558961  0.05176701  0.84841512  1
  H  H35  1  0.59975935  0.74948462  0.01366152  1
  H  H36  1  0.23665895  0.24242157  0.87676585  1
  H  H37  1  0.90024065  0.24948462  0.01366152  1
  H  H38  1  0.38525169  0.16833372  0.28261433  1
  H  H39  1  0.92773599  0.54376116  0.84028699  1
  C  C40  1  0.24067616  0.01503901  0.16261894  1
  C  C41  1  0.75932384  0.98496099  0.83738106  1
  C  C42  1  0.25932384  0.51503901  0.16261894  1
  C  C43  1  0.74067616  0.48496099  0.83738106  1
  N  N44  1  0.27873500  0.60384358  0.26976593  1
  N  N45  1  0.72126500  0.39615642  0.73023407  1
  N  N46  1  0.22126500  0.10384358  0.26976593  1
  N  N47  1  0.77873500  0.89615642  0.73023407  1
  O  O48  1  0.28526971  0.74977798  0.95482684  1
  O  O49  1  0.71473029  0.25022202  0.04517316  1
  O  O50  1  0.21473029  0.24977798  0.95482684  1
  O  O51  1  0.78526971  0.75022202  0.04517316  1
  F  F52  1  0.30617762  0.98451784  0.62954704  1
  F  F53  1  0.25664913  0.23002625  0.73787111  1
  F  F54  1  0.74335087  0.76997375  0.26212889  1
  F  F55  1  0.31678856  0.18699798  0.53533747  1
  F  F56  1  0.24335087  0.73002625  0.73787111  1
  F  F57  1  0.37549401  0.38205945  0.38168155  1
  F  F58  1  0.81678856  0.31300202  0.46466253  1
  F  F59  1  0.12450599  0.88205945  0.38168155  1
  F  F60  1  0.69382238  0.01548216  0.37045296  1
  F  F61  1  0.62450599  0.61794055  0.61831845  1
  F  F62  1  0.87549401  0.11794055  0.61831845  1
  F  F63  1  0.75664913  0.26997375  0.26212889  1
  F  F64  1  0.68321144  0.81300202  0.46466253  1
  F  F65  1  0.19382238  0.48451784  0.62954704  1
  F  F66  1  0.18321144  0.68699798  0.53533747  1
  F  F67  1  0.80617762  0.51548216  0.37045296  1
