# generated using pymatgen
data_K2Se(SO3)2
_symmetry_space_group_name_H-M   'P 1'
_cell_length_a   6.04970174
_cell_length_b   9.73691113
_cell_length_c   15.26240903
_cell_angle_alpha   105.51213810
_cell_angle_beta   90.00000000
_cell_angle_gamma   90.00000000
_symmetry_Int_Tables_number   1
_chemical_formula_structural   K2Se(SO3)2
_chemical_formula_sum   'K8 Se4 S8 O24'
_cell_volume   866.28989584
_cell_formula_units_Z   4
loop_
 _symmetry_equiv_pos_site_id
 _symmetry_equiv_pos_as_xyz
  1  'x, y, z'
loop_
 _atom_site_type_symbol
 _atom_site_label
 _atom_site_symmetry_multiplicity
 _atom_site_fract_x
 _atom_site_fract_y
 _atom_site_fract_z
 _atom_site_occupancy
  K  K0  1  0.27889508  0.87388002  0.32015741  1
  K  K1  1  0.77889508  0.62611998  0.17984259  1
  K  K2  1  0.26493567  0.30811165  0.53189682  1
  K  K3  1  0.73506433  0.69188835  0.46810318  1
  K  K4  1  0.72110492  0.12611998  0.67984259  1
  K  K5  1  0.76493567  0.19188835  0.96810318  1
  K  K6  1  0.22110492  0.37388002  0.82015741  1
  K  K7  1  0.23506433  0.80811165  0.03189682  1
  Se  Se8  1  0.33109452  0.82975343  0.70296473  1
  Se  Se9  1  0.66890548  0.17024657  0.29703527  1
  Se  Se10  1  0.83109452  0.67024657  0.79703527  1
  Se  Se11  1  0.16890548  0.32975343  0.20296473  1
  S  S12  1  0.71036950  0.57029118  0.90966035  1
  S  S13  1  0.26021801  0.01944876  0.82733798  1
  S  S14  1  0.21036950  0.92970882  0.59033965  1
  S  S15  1  0.73978199  0.98055124  0.17266202  1
  S  S16  1  0.78963050  0.07029118  0.40966035  1
  S  S17  1  0.23978199  0.51944876  0.32733798  1
  S  S18  1  0.28963050  0.42970882  0.09033965  1
  S  S19  1  0.76021801  0.48055124  0.67266202  1
  O  O20  1  0.23481350  0.45318783  0.40276290  1
  O  O21  1  0.04399136  0.08033005  0.81344406  1
  O  O22  1  0.55714003  0.87860803  0.17008386  1
  O  O23  1  0.72806546  0.91866818  0.37948474  1
  O  O24  1  0.66533213  0.15448223  0.48842994  1
  O  O25  1  0.45600864  0.58033005  0.31344406  1
  O  O26  1  0.77193454  0.41866818  0.87948474  1
  O  O27  1  0.73481350  0.04681217  0.09723710  1
  O  O28  1  0.27193454  0.08133182  0.62051526  1
  O  O29  1  0.47014078  0.59233451  0.91821195  1
  O  O30  1  0.54399136  0.41966995  0.68655594  1
  O  O31  1  0.05714003  0.62139197  0.32991614  1
  O  O32  1  0.16533213  0.34551777  0.01157006  1
  O  O33  1  0.95600864  0.91966995  0.18655594  1
  O  O34  1  0.26518650  0.95318783  0.90276290  1
  O  O35  1  0.97014078  0.90766549  0.58178805  1
  O  O36  1  0.02985922  0.09233451  0.41821195  1
  O  O37  1  0.76518650  0.54681217  0.59723710  1
  O  O38  1  0.52985922  0.40766549  0.08178805  1
  O  O39  1  0.94285997  0.37860803  0.67008386  1
  O  O40  1  0.22806546  0.58133182  0.12051526  1
  O  O41  1  0.83466787  0.65448223  0.98842994  1
  O  O42  1  0.33466787  0.84551777  0.51157006  1
  O  O43  1  0.44285997  0.12139197  0.82991614  1
