# generated using pymatgen
data_Ba2V(CuS2)3
_symmetry_space_group_name_H-M   'P 1'
_cell_length_a   8.83402214
_cell_length_b   8.83402169
_cell_length_c   9.02220847
_cell_angle_alpha   103.41801710
_cell_angle_beta   105.90638044
_cell_angle_gamma   118.88795397
_symmetry_Int_Tables_number   1
_chemical_formula_structural   Ba2V(CuS2)3
_chemical_formula_sum   'Ba4 V2 Cu6 S12'
_cell_volume   534.46447993
_cell_formula_units_Z   2
loop_
 _symmetry_equiv_pos_site_id
 _symmetry_equiv_pos_as_xyz
  1  'x, y, z'
loop_
 _atom_site_type_symbol
 _atom_site_label
 _atom_site_symmetry_multiplicity
 _atom_site_fract_x
 _atom_site_fract_y
 _atom_site_fract_z
 _atom_site_occupancy
  Ba  Ba0  1  0.15932246  0.85485019  0.94443263  1
  Ba  Ba1  1  0.41041756  0.21488983  0.55556737  1
  Ba  Ba2  1  0.84067754  0.14514981  0.05556737  1
  Ba  Ba3  1  0.58958244  0.78511017  0.44443263  1
  V  V4  1  0.11138260  0.36138260  0.75000000  1
  V  V5  1  0.88861740  0.63861740  0.25000000  1
  Cu  Cu6  1  0.83873168  0.32318400  0.49238290  1
  Cu  Cu7  1  0.66919890  0.65365122  0.99238290  1
  Cu  Cu8  1  0.58409833  0.33409833  0.25000000  1
  Cu  Cu9  1  0.41590167  0.66590167  0.75000000  1
  Cu  Cu10  1  0.16126832  0.67681600  0.50761710  1
  Cu  Cu11  1  0.33080110  0.34634878  0.00761710  1
  S  S12  1  0.36653525  0.61581550  0.98204084  1
  S  S13  1  0.69769524  0.69544994  0.76212347  1
  S  S14  1  0.63346475  0.38418450  0.01795916  1
  S  S15  1  0.13855338  0.65196497  0.24342509  1
  S  S16  1  0.30230476  0.30455006  0.23787653  1
  S  S17  1  0.56667352  0.06442822  0.26212347  1
  S  S18  1  0.86144662  0.34803503  0.75657491  1
  S  S19  1  0.13377466  0.38449441  0.51795916  1
  S  S20  1  0.09146012  0.10487171  0.74342509  1
  S  S21  1  0.43332648  0.93557178  0.73787653  1
  S  S22  1  0.86622534  0.61550559  0.48204084  1
  S  S23  1  0.90853988  0.89512829  0.25657491  1
