# generated using pymatgen
data_Na2Cu2Si4O11
_symmetry_space_group_name_H-M   'P 1'
_cell_length_a   5.24657710
_cell_length_b   6.36548666
_cell_length_c   8.35920410
_cell_angle_alpha   96.67135259
_cell_angle_beta   96.76773235
_cell_angle_gamma   100.79732383
_symmetry_Int_Tables_number   1
_chemical_formula_structural   Na2Cu2Si4O11
_chemical_formula_sum   'Na2 Si4 Cu2 O11'
_cell_volume   269.57022051
_cell_formula_units_Z   1
loop_
 _symmetry_equiv_pos_site_id
 _symmetry_equiv_pos_as_xyz
  1  'x, y, z'
loop_
 _atom_site_type_symbol
 _atom_site_label
 _atom_site_symmetry_multiplicity
 _atom_site_fract_x
 _atom_site_fract_y
 _atom_site_fract_z
 _atom_site_occupancy
  Na  Na0  1  0.86851480  0.35221154  0.19547696  1
  Na  Na1  1  0.13149093  0.64778422  0.80452372  1
  Si  Si2  1  0.40589627  0.65597394  0.18964417  1
  Si  Si3  1  0.01550776  0.13480737  0.67908062  1
  Si  Si4  1  0.59410596  0.34401946  0.81035313  1
  Cu  Cu5  1  0.29653982  0.11136493  0.07113730  1
  Si  Si6  1  0.98449647  0.86519363  0.32091714  1
  Cu  Cu7  1  0.70344170  0.88865582  0.92887230  1
  O  O8  1  0.29159474  0.32170317  0.71489805  1
  O  O9  1  0.70840941  0.67829258  0.28510176  1
  O  O10  1  0.59534589  0.17381240  0.94596101  1
  O  O11  1  0.40465249  0.82618931  0.05404041  1
  O  O12  1  0.00297849  0.97707024  0.81662245  1
  O  O13  1  0.99701680  0.02292372  0.18337411  1
  O  O14  1  0.22135674  0.72768260  0.32742213  1
  O  O15  1  0.72284213  0.58780814  0.88993701  1
  O  O16  1  0.77864768  0.27231227  0.67257820  1
  O  O17  1  1.00000434  0.00000247  0.49999898  1
  O  O18  1  0.27715760  0.41219218  0.11006055  1
