# generated using pymatgen
data_Cs2CoS2
_symmetry_space_group_name_H-M   'P 1'
_cell_length_a   6.25323057
_cell_length_b   7.39302237
_cell_length_c   8.47356046
_cell_angle_alpha   115.86528695
_cell_angle_beta   111.64854051
_cell_angle_gamma   89.99598591
_symmetry_Int_Tables_number   1
_chemical_formula_structural   Cs2CoS2
_chemical_formula_sum   'Cs4 Co2 S4'
_cell_volume   321.51076877
_cell_formula_units_Z   2
loop_
 _symmetry_equiv_pos_site_id
 _symmetry_equiv_pos_as_xyz
  1  'x, y, z'
loop_
 _atom_site_type_symbol
 _atom_site_label
 _atom_site_symmetry_multiplicity
 _atom_site_fract_x
 _atom_site_fract_y
 _atom_site_fract_z
 _atom_site_occupancy
  Cs  Cs0  1  0.14776763  0.47888784  0.29549631  1
  Cs  Cs1  1  0.85223237  0.52111216  0.70450369  1
  Cs  Cs2  1  0.35223013  0.18334688  0.70448280  1
  Cs  Cs3  1  0.64776987  0.81665312  0.29551720  1
  Co  Co4  1  0.75001788  -0.00000270  0.99999494  1
  Co  Co5  1  0.24998212  1.00000270  0.00000506  1
  S  S6  1  0.41103801  0.74958975  0.82203374  1
  S  S7  1  0.58896199  0.25041025  0.17796626  1
  S  S8  1  0.91100209  0.07242130  0.82200259  1
  S  S9  1  0.08899791  0.92757870  0.17799741  1
