# generated using pymatgen
data_MgTi
_symmetry_space_group_name_H-M   'P 1'
_cell_length_a   6.01551164
_cell_length_b   4.77778290
_cell_length_c   8.32334068
_cell_angle_alpha   90.00000000
_cell_angle_beta   100.41020635
_cell_angle_gamma   90.00000000
_symmetry_Int_Tables_number   1
_chemical_formula_structural   MgTi
_chemical_formula_sum   'Mg6 Ti6'
_cell_volume   235.28182043
_cell_formula_units_Z   6
loop_
 _symmetry_equiv_pos_site_id
 _symmetry_equiv_pos_as_xyz
  1  'x, y, z'
loop_
 _atom_site_type_symbol
 _atom_site_label
 _atom_site_symmetry_multiplicity
 _atom_site_fract_x
 _atom_site_fract_y
 _atom_site_fract_z
 _atom_site_occupancy
  Mg  Mg0  1  0.53180911  0.75000000  0.61210081  1
  Mg  Mg1  1  0.02341011  0.75000000  0.60892257  1
  Mg  Mg2  1  0.46819089  0.25000000  0.38789919  1
  Mg  Mg3  1  0.97658989  0.25000000  0.39107743  1
  Mg  Mg4  1  0.68882894  0.75000000  0.26718187  1
  Mg  Mg5  1  0.31117106  0.25000000  0.73281813  1
  Ti  Ti6  1  0.18399020  0.75000000  0.24127104  1
  Ti  Ti7  1  0.13095460  0.25000000  0.04752591  1
  Ti  Ti8  1  0.65027962  0.25000000  0.04836253  1
  Ti  Ti9  1  0.34972038  0.75000000  0.95163747  1
  Ti  Ti10  1  0.86904540  0.75000000  0.95247409  1
  Ti  Ti11  1  0.81600980  0.25000000  0.75872896  1
