# generated using pymatgen
data_Na2USiO6
_symmetry_space_group_name_H-M   'P 1'
_cell_length_a   11.50154904
_cell_length_b   11.50154884
_cell_length_c   11.50154902
_cell_angle_alpha   105.09239605
_cell_angle_beta   111.70401591
_cell_angle_gamma   111.70400881
_symmetry_Int_Tables_number   1
_chemical_formula_structural   Na2USiO6
_chemical_formula_sum   'Na16 U8 Si8 O48'
_cell_volume   1166.16401266
_cell_formula_units_Z   8
loop_
 _symmetry_equiv_pos_site_id
 _symmetry_equiv_pos_as_xyz
  1  'x, y, z'
loop_
 _atom_site_type_symbol
 _atom_site_label
 _atom_site_symmetry_multiplicity
 _atom_site_fract_x
 _atom_site_fract_y
 _atom_site_fract_z
 _atom_site_occupancy
  Na  Na0  1  0.64053039  0.07026520  0.82026520  1
  Na  Na1  1  0.75000000  0.62500000  0.87500000  1
  Na  Na2  1  0.35946961  0.92973480  0.17973480  1
  Na  Na3  1  0.85946961  0.67973480  0.42973480  1
  Na  Na4  1  0.25000000  0.17973480  0.32026520  1
  Na  Na5  1  0.25000000  0.57026520  0.92973480  1
  Na  Na6  1  0.25000000  0.62500000  0.37500000  1
  Na  Na7  1  0.25000000  0.37500000  0.12500000  1
  Na  Na8  1  0.25000000  0.12500000  0.87500000  1
  Na  Na9  1  0.14053039  0.32026520  0.57026520  1
  Na  Na10  1  0.75000000  0.42973480  0.07026520  1
  Na  Na11  1  0.25000000  0.87500000  0.62500000  1
  Na  Na12  1  0.75000000  0.82026520  0.67973480  1
  Na  Na13  1  0.75000000  0.37500000  0.62500000  1
  Na  Na14  1  0.75000000  0.87500000  0.12500000  1
  Na  Na15  1  0.75000000  0.12500000  0.37500000  1
  U  U16  1  0.50000000  0.00000000  0.50000000  1
  U  U17  1  0.00000000  0.00000000  0.50000000  1
  U  U18  1  0.50000000  0.50000000  0.50000000  1
  U  U19  1  0.00000000  0.00000000  0.00000000  1
  U  U20  1  0.00000000  0.50000000  0.00000000  1
  U  U21  1  0.00000000  0.50000000  0.50000000  1
  U  U22  1  0.50000000  0.50000000  0.00000000  1
  U  U23  1  0.50000000  0.00000000  0.00000000  1
  Si  Si24  1  0.90824869  0.25000000  0.15824869  1
  Si  Si25  1  0.40824869  0.25000000  0.65824869  1
  Si  Si26  1  0.09175131  0.75000000  0.84175131  1
  Si  Si27  1  0.90824869  0.15824869  0.75000000  1
  Si  Si28  1  0.09175131  0.84175131  0.25000000  1
  Si  Si29  1  0.59175131  0.34175131  0.25000000  1
  Si  Si30  1  0.40824869  0.65824869  0.75000000  1
  Si  Si31  1  0.59175131  0.75000000  0.34175131  1
  O  O32  1  0.95895678  0.32264323  0.32502859  1
  O  O33  1  0.43549220  0.86821490  0.56502650  1
  O  O34  1  0.49761464  0.36368645  0.32264323  1
  O  O35  1  0.50238536  0.36607181  0.82502859  1
  O  O36  1  0.76826121  0.44170414  0.37085767  1
  O  O37  1  0.99761464  0.67497141  0.13392819  1
  O  O38  1  0.54104322  0.17497141  0.17735677  1
  O  O39  1  0.54104322  0.86607181  0.36368645  1
  O  O40  1  0.26826121  0.89740254  0.32655707  1
  O  O41  1  0.92915353  0.37085767  0.10259746  1
  O  O42  1  0.04104322  0.67735677  0.67497141  1
  O  O43  1  0.93549220  0.37046570  0.56727729  1
  O  O44  1  0.23173879  0.17344293  0.60259746  1
  O  O45  1  0.06450780  0.62953430  0.43272271  1
  O  O46  1  0.73173879  0.10259746  0.67344293  1
  O  O47  1  0.69681160  0.56502650  0.62953430  1
  O  O48  1  0.73173879  0.12914233  0.05829586  1
  O  O49  1  0.23173879  0.55829586  0.62914233  1
  O  O50  1  0.42915353  0.60259746  0.87085767  1
  O  O51  1  0.49761464  0.63392819  0.17497141  1
  O  O52  1  0.06450780  0.93497350  0.63178510  1
  O  O53  1  0.45895678  0.82502859  0.82264323  1
  O  O54  1  0.76826121  0.82655707  0.39740254  1
  O  O55  1  0.45895678  0.13392819  0.63631355  1
  O  O56  1  0.30318840  0.36821490  0.93272271  1
  O  O57  1  0.80318840  0.87046570  0.93497350  1
  O  O58  1  0.00238536  0.32502859  0.86607181  1
  O  O59  1  0.04104322  0.86368645  0.36607181  1
  O  O60  1  0.80318840  0.43272271  0.86821490  1
  O  O61  1  0.43549220  0.06727729  0.87046570  1
  O  O62  1  0.95895678  0.13631355  0.63392819  1
  O  O63  1  0.19681160  0.12953430  0.06502650  1
  O  O64  1  0.42915353  0.32655707  0.55829586  1
  O  O65  1  0.50238536  0.63631355  0.67735677  1
  O  O66  1  0.19681160  0.56727729  0.13178510  1
  O  O67  1  0.69681160  0.63178510  0.06727729  1
  O  O68  1  0.57084647  0.39740254  0.12914233  1
  O  O69  1  0.00238536  0.17735677  0.13631355  1
  O  O70  1  0.56450780  0.93272271  0.12953430  1
  O  O71  1  0.56450780  0.13178510  0.43497350  1
  O  O72  1  0.99761464  0.82264323  0.86368645  1
  O  O73  1  0.92915353  0.05829586  0.82655707  1
  O  O74  1  0.57084647  0.67344293  0.44170414  1
  O  O75  1  0.26826121  0.87085767  0.94170414  1
  O  O76  1  0.30318840  0.43497350  0.37046570  1
  O  O77  1  0.07084647  0.94170414  0.17344293  1
  O  O78  1  0.93549220  0.06502650  0.36821490  1
  O  O79  1  0.07084647  0.62914233  0.89740254  1
