# generated using pymatgen
data_Na2Zr(WO4)3
_symmetry_space_group_name_H-M   'P 1'
_cell_length_a   5.11111059
_cell_length_b   5.11111105
_cell_length_c   19.51015413
_cell_angle_alpha   97.52656825
_cell_angle_beta   97.52656900
_cell_angle_gamma   89.99999435
_symmetry_Int_Tables_number   1
_chemical_formula_structural   Na2Zr(WO4)3
_chemical_formula_sum   'Na4 Zr2 W6 O24'
_cell_volume   500.85166685
_cell_formula_units_Z   2
loop_
 _symmetry_equiv_pos_site_id
 _symmetry_equiv_pos_as_xyz
  1  'x, y, z'
loop_
 _atom_site_type_symbol
 _atom_site_label
 _atom_site_symmetry_multiplicity
 _atom_site_fract_x
 _atom_site_fract_y
 _atom_site_fract_z
 _atom_site_occupancy
  Na  Na0  1  0.51430314  0.51430314  0.02860628  1
  Na  Na1  1  0.32316776  0.32316776  0.64633551  1
  Na  Na2  1  0.07316776  0.57316776  0.14633551  1
  Na  Na3  1  0.26430314  0.76430314  0.52860628  1
  Zr  Zr4  1  0.67773471  0.67773471  0.35547043  1
  Zr  Zr5  1  0.42773471  0.92773471  0.85547043  1
  W  W6  1  0.59542224  0.09542224  0.19084548  1
  W  W7  1  0.84542224  0.84542224  0.69084548  1
  W  W8  1  0.90123348  0.40123348  0.80246595  1
  W  W9  1  0.99536461  0.99536461  0.99072923  1
  W  W10  1  0.15123348  0.15123348  0.30246595  1
  W  W11  1  0.74536461  0.24536461  0.49072923  1
  O  O12  1  0.84257239  0.38239730  0.28930169  1
  O  O13  1  0.69593839  0.11923476  0.94076829  1
  O  O14  1  0.30238176  0.29274662  0.22283369  1
  O  O15  1  0.68008706  0.55238176  0.72283369  1
  O  O16  1  0.57153353  0.94593839  0.44076829  1
  O  O17  1  0.57909695  0.94703883  0.63307030  1
  O  O18  1  0.69703883  0.30397435  0.13307030  1
  O  O19  1  0.86923476  0.49482990  0.44076829  1
  O  O20  1  0.52336454  0.40640029  0.54456703  1
  O  O21  1  0.88816675  0.77336454  0.04456703  1
  O  O22  1  0.92045192  0.93008706  0.22283369  1
  O  O23  1  0.04274662  0.17045192  0.72283369  1
  O  O24  1  0.35615163  0.41080604  0.36263205  1
  O  O25  1  0.70182601  0.60615163  0.86263205  1
  O  O26  1  0.05397435  0.68603246  0.63307030  1
  O  O27  1  0.43603246  0.82909695  0.13307030  1
  O  O28  1  0.15640029  0.27120249  0.04456703  1
  O  O29  1  0.65690340  0.09257239  0.78930169  1
  O  O30  1  0.13239730  0.69672931  0.78930169  1
  O  O31  1  0.02120249  0.13816675  0.54456703  1
  O  O32  1  0.44672931  0.90690340  0.28930169  1
  O  O33  1  0.16080604  0.25648042  0.86263205  1
  O  O34  1  0.00648042  0.95182601  0.36263205  1
  O  O35  1  0.24482990  0.82153353  0.94076829  1
