# generated using pymatgen
data_CuBi(WO4)2
_symmetry_space_group_name_H-M   'P 1'
_cell_length_a   5.14835352
_cell_length_b   6.23470268
_cell_length_c   6.12172410
_cell_angle_alpha   108.80063130
_cell_angle_beta   113.44919252
_cell_angle_gamma   91.71054947
_symmetry_Int_Tables_number   1
_chemical_formula_structural   CuBi(WO4)2
_chemical_formula_sum   'Cu1 Bi1 W2 O8'
_cell_volume   167.80020379
_cell_formula_units_Z   1
loop_
 _symmetry_equiv_pos_site_id
 _symmetry_equiv_pos_as_xyz
  1  'x, y, z'
loop_
 _atom_site_type_symbol
 _atom_site_label
 _atom_site_symmetry_multiplicity
 _atom_site_fract_x
 _atom_site_fract_y
 _atom_site_fract_z
 _atom_site_occupancy
  Cu  Cu0  1  0.14444710  0.21538866  0.10197594  1
  Bi  Bi1  1  0.63656752  0.70995143  0.09798728  1
  W  W2  1  0.88748054  0.37445453  0.58246854  1
  W  W3  1  0.38996768  0.04762139  0.61467056  1
  O  O4  1  0.66964774  0.37424873  0.78889513  1
  O  O5  1  0.17554258  0.19038760  0.80230041  1
  O  O6  1  0.64524331  0.48463230  0.35027870  1
  O  O7  1  0.13475945  0.78860287  0.36909128  1
  O  O8  1  0.13681658  0.63665760  0.82590921  1
  O  O9  1  0.60979085  0.04559865  0.40943903  1
  O  O10  1  0.10494558  0.23547975  0.39676123  1
  O  O11  1  0.62599107  0.93287549  0.84442370  1
