# generated using pymatgen
data_YbCu2(MoO4)3
_symmetry_space_group_name_H-M   'P 1'
_cell_length_a   5.12113460
_cell_length_b   8.82135886
_cell_length_c   11.15540980
_cell_angle_alpha   90.00000000
_cell_angle_beta   90.00000000
_cell_angle_gamma   93.64298951
_symmetry_Int_Tables_number   1
_chemical_formula_structural   YbCu2(MoO4)3
_chemical_formula_sum   'Yb2 Cu4 Mo6 O24'
_cell_volume   502.93140773
_cell_formula_units_Z   2
loop_
 _symmetry_equiv_pos_site_id
 _symmetry_equiv_pos_as_xyz
  1  'x, y, z'
loop_
 _atom_site_type_symbol
 _atom_site_label
 _atom_site_symmetry_multiplicity
 _atom_site_fract_x
 _atom_site_fract_y
 _atom_site_fract_z
 _atom_site_occupancy
  Yb  Yb0  1  0.70365440  0.04933584  0.75000000  1
  Yb  Yb1  1  0.29634560  0.95066416  0.25000000  1
  Cu  Cu2  1  0.73650159  0.44499306  0.57868502  1
  Cu  Cu3  1  0.73650159  0.44499306  0.92131498  1
  Cu  Cu4  1  0.26349841  0.55500694  0.07868502  1
  Cu  Cu5  1  0.26349841  0.55500694  0.42131498  1
  Mo  Mo6  1  0.81857199  0.80167134  0.02631978  1
  Mo  Mo7  1  0.27724650  0.61200319  0.75000000  1
  Mo  Mo8  1  0.72275350  0.38799681  0.25000000  1
  Mo  Mo9  1  0.18142801  0.19832866  0.52631978  1
  Mo  Mo10  1  0.18142801  0.19832866  0.97368022  1
  Mo  Mo11  1  0.81857199  0.80167134  0.47368022  1
  O  O12  1  0.42029827  0.79680253  0.75000000  1
  O  O13  1  0.89185861  0.24934954  0.61274474  1
  O  O14  1  0.57970173  0.20319747  0.25000000  1
  O  O15  1  0.06747611  0.57870046  0.88236145  1
  O  O16  1  0.40949996  0.36388219  0.48686588  1
  O  O17  1  0.93252389  0.42129954  0.11763855  1
  O  O18  1  0.62722094  0.90724208  0.37956140  1
  O  O19  1  0.89467148  0.91009867  0.89606923  1
  O  O20  1  0.10814139  0.75065046  0.38725526  1
  O  O21  1  0.59050004  0.63611781  0.51313412  1
  O  O22  1  0.37277906  0.09275792  0.87956140  1
  O  O23  1  0.46368909  0.52351867  0.25000000  1
  O  O24  1  0.37277906  0.09275792  0.62043860  1
  O  O25  1  0.10532852  0.08990133  0.10393077  1
  O  O26  1  0.93252389  0.42129954  0.38236145  1
  O  O27  1  0.59050004  0.63611781  0.98686588  1
  O  O28  1  0.62722094  0.90724208  0.12043860  1
  O  O29  1  0.10814139  0.75065046  0.11274474  1
  O  O30  1  0.40949996  0.36388219  0.01313412  1
  O  O31  1  0.89467148  0.91009867  0.60393077  1
  O  O32  1  0.53631091  0.47648133  0.75000000  1
  O  O33  1  0.06747611  0.57870046  0.61763855  1
  O  O34  1  0.10532852  0.08990133  0.39606923  1
  O  O35  1  0.89185861  0.24934954  0.88725526  1
