# generated using pymatgen
data_TmMnO3
_symmetry_space_group_name_H-M   'P 1'
_cell_length_a   5.27079252
_cell_length_b   5.81241857
_cell_length_c   7.45387128
_cell_angle_alpha   90.00000000
_cell_angle_beta   90.00000000
_cell_angle_gamma   90.00000000
_symmetry_Int_Tables_number   1
_chemical_formula_structural   TmMnO3
_chemical_formula_sum   'Tm4 Mn4 O12'
_cell_volume   228.35719053
_cell_formula_units_Z   4
loop_
 _symmetry_equiv_pos_site_id
 _symmetry_equiv_pos_as_xyz
  1  'x, y, z'
loop_
 _atom_site_type_symbol
 _atom_site_label
 _atom_site_symmetry_multiplicity
 _atom_site_fract_x
 _atom_site_fract_y
 _atom_site_fract_z
 _atom_site_occupancy
  Tm  Tm0  1  0.47991545  0.41630947  0.75000000  1
  Tm  Tm1  1  0.52008455  0.58369053  0.25000000  1
  Tm  Tm2  1  0.02008455  0.91630947  0.75000000  1
  Tm  Tm3  1  0.97991545  0.08369053  0.25000000  1
  Mn  Mn4  1  0.50000000  0.00000000  0.50000000  1
  Mn  Mn5  1  0.50000000  0.00000000  0.00000000  1
  Mn  Mn6  1  0.00000000  0.50000000  0.50000000  1
  Mn  Mn7  1  0.00000000  0.50000000  0.00000000  1
  O  O8  1  0.69763640  0.32697056  0.44000362  1
  O  O9  1  0.87372916  0.54676295  0.75000000  1
  O  O10  1  0.80236360  0.82697056  0.05999638  1
  O  O11  1  0.12627084  0.45323705  0.25000000  1
  O  O12  1  0.19763640  0.17302944  0.55999638  1
  O  O13  1  0.62627084  0.04676295  0.75000000  1
  O  O14  1  0.69763640  0.32697056  0.05999638  1
  O  O15  1  0.30236360  0.67302944  0.55999638  1
  O  O16  1  0.37372916  0.95323705  0.25000000  1
  O  O17  1  0.80236360  0.82697056  0.44000362  1
  O  O18  1  0.19763640  0.17302944  0.94000362  1
  O  O19  1  0.30236360  0.67302944  0.94000362  1
