# generated using pymatgen
data_Mg2Ti
_symmetry_space_group_name_H-M   'P 1'
_cell_length_a   8.34435214
_cell_length_b   4.85453904
_cell_length_c   12.43112899
_cell_angle_alpha   90.00000000
_cell_angle_beta   100.90970218
_cell_angle_gamma   90.00000000
_symmetry_Int_Tables_number   1
_chemical_formula_structural   Mg2Ti
_chemical_formula_sum   'Mg16 Ti8'
_cell_volume   494.45896333
_cell_formula_units_Z   8
loop_
 _symmetry_equiv_pos_site_id
 _symmetry_equiv_pos_as_xyz
  1  'x, y, z'
loop_
 _atom_site_type_symbol
 _atom_site_label
 _atom_site_symmetry_multiplicity
 _atom_site_fract_x
 _atom_site_fract_y
 _atom_site_fract_z
 _atom_site_occupancy
  Mg  Mg0  1  0.71781554  0.75000000  0.39988376  1
  Mg  Mg1  1  0.71380641  0.75000000  0.15351627  1
  Mg  Mg2  1  0.94127892  0.25000000  0.42775394  1
  Mg  Mg3  1  0.94357590  0.25000000  0.17993267  1
  Mg  Mg4  1  0.93590993  0.25000000  0.68126284  1
  Mg  Mg5  1  0.94005042  0.25000000  0.93036660  1
  Mg  Mg6  1  0.05872108  0.75000000  0.57224606  1
  Mg  Mg7  1  0.06409007  0.75000000  0.31873716  1
  Mg  Mg8  1  0.05642410  0.75000000  0.82006733  1
  Mg  Mg9  1  0.05994958  0.75000000  0.06963340  1
  Mg  Mg10  1  0.28619359  0.25000000  0.84648373  1
  Mg  Mg11  1  0.28218446  0.25000000  0.60011624  1
  Mg  Mg12  1  0.38862285  0.75000000  0.98773415  1
  Mg  Mg13  1  0.38965589  0.75000000  0.48533163  1
  Mg  Mg14  1  0.61137715  0.25000000  0.01226585  1
  Mg  Mg15  1  0.61034411  0.25000000  0.51466837  1
  Ti  Ti16  1  0.71065463  0.75000000  0.88182101  1
  Ti  Ti17  1  0.71007069  0.75000000  0.67138942  1
  Ti  Ti18  1  0.28934537  0.25000000  0.11817899  1
  Ti  Ti19  1  0.28992931  0.25000000  0.32861058  1
  Ti  Ti20  1  0.42213707  0.75000000  0.74015109  1
  Ti  Ti21  1  0.38711163  0.75000000  0.23665133  1
  Ti  Ti22  1  0.57786293  0.25000000  0.25984891  1
  Ti  Ti23  1  0.61288837  0.25000000  0.76334867  1
