# generated using pymatgen
data_Fe5(SiO4)3
_symmetry_space_group_name_H-M   'P 1'
_cell_length_a   10.28442496
_cell_length_b   10.28442502
_cell_length_c   10.28442498
_cell_angle_alpha   109.47121849
_cell_angle_beta   109.47121866
_cell_angle_gamma   109.47121965
_symmetry_Int_Tables_number   1
_chemical_formula_structural   Fe5(SiO4)3
_chemical_formula_sum   'Fe20 Si12 O48'
_cell_volume   837.37151115
_cell_formula_units_Z   4
loop_
 _symmetry_equiv_pos_site_id
 _symmetry_equiv_pos_as_xyz
  1  'x, y, z'
loop_
 _atom_site_type_symbol
 _atom_site_label
 _atom_site_symmetry_multiplicity
 _atom_site_fract_x
 _atom_site_fract_y
 _atom_site_fract_z
 _atom_site_occupancy
  Fe  Fe0  1  0.00000000  0.00000000  0.50000000  1
  Fe  Fe1  1  0.50000000  0.50000000  0.50000000  1
  Fe  Fe2  1  0.12500000  0.37500000  0.75000000  1
  Fe  Fe3  1  0.00000000  0.00000000  0.00000000  1
  Fe  Fe4  1  0.00000000  0.50000000  0.00000000  1
  Fe  Fe5  1  0.25000000  0.87500000  0.62500000  1
  Fe  Fe6  1  0.50000000  0.00000000  0.00000000  1
  Fe  Fe7  1  0.87500000  0.75000000  0.62500000  1
  Fe  Fe8  1  0.75000000  0.62500000  0.87500000  1
  Fe  Fe9  1  0.50000000  0.00000000  0.50000000  1
  Fe  Fe10  1  0.50000000  0.50000000  0.00000000  1
  Fe  Fe11  1  0.87500000  0.62500000  0.25000000  1
  Fe  Fe12  1  0.62500000  0.25000000  0.87500000  1
  Fe  Fe13  1  0.25000000  0.37500000  0.12500000  1
  Fe  Fe14  1  0.62500000  0.87500000  0.75000000  1
  Fe  Fe15  1  0.75000000  0.12500000  0.37500000  1
  Fe  Fe16  1  0.00000000  0.50000000  0.50000000  1
  Fe  Fe17  1  0.37500000  0.75000000  0.12500000  1
  Fe  Fe18  1  0.37500000  0.12500000  0.25000000  1
  Fe  Fe19  1  0.12500000  0.25000000  0.37500000  1
  Si  Si20  1  0.12500000  0.75000000  0.87500000  1
  Si  Si21  1  0.87500000  0.12500000  0.75000000  1
  Si  Si22  1  0.62500000  0.75000000  0.37500000  1
  Si  Si23  1  0.75000000  0.37500000  0.62500000  1
  Si  Si24  1  0.25000000  0.62500000  0.37500000  1
  Si  Si25  1  0.37500000  0.62500000  0.75000000  1
  Si  Si26  1  0.37500000  0.25000000  0.62500000  1
  Si  Si27  1  0.75000000  0.87500000  0.12500000  1
  Si  Si28  1  0.87500000  0.25000000  0.12500000  1
  Si  Si29  1  0.25000000  0.12500000  0.87500000  1
  Si  Si30  1  0.12500000  0.87500000  0.25000000  1
  Si  Si31  1  0.62500000  0.37500000  0.25000000  1
  O  O32  1  0.71049937  0.51773765  0.62201616  1
  O  O33  1  0.28950063  0.48226235  0.37798384  1
  O  O34  1  0.80723827  0.51773765  0.39572148  1
  O  O35  1  0.80723827  0.78950063  0.41151679  1
  O  O36  1  0.21049937  0.58848321  0.19276173  1
  O  O37  1  0.58848321  0.89572148  0.37798384  1
  O  O38  1  0.30723827  0.89572148  0.01773765  1
  O  O39  1  0.19276173  0.21049937  0.58848321  1
  O  O40  1  0.89572148  0.37798384  0.58848321  1
  O  O41  1  0.48226235  0.37798384  0.28950063  1
  O  O42  1  0.08848321  0.87798384  0.39572148  1
  O  O43  1  0.01773765  0.21049937  0.12201616  1
  O  O44  1  0.21049937  0.12201616  0.01773765  1
  O  O45  1  0.08848321  0.71049937  0.69276173  1
  O  O46  1  0.01773765  0.30723827  0.89572148  1
  O  O47  1  0.58848321  0.19276173  0.21049937  1
  O  O48  1  0.51773765  0.39572148  0.80723827  1
  O  O49  1  0.62201616  0.71049937  0.51773765  1
  O  O50  1  0.87798384  0.98226235  0.78950063  1
  O  O51  1  0.91151679  0.12201616  0.60427852  1
  O  O52  1  0.60427852  0.91151679  0.12201616  1
  O  O53  1  0.62201616  0.41151679  0.10427852  1
  O  O54  1  0.78950063  0.87798384  0.98226235  1
  O  O55  1  0.41151679  0.80723827  0.78950063  1
  O  O56  1  0.37798384  0.28950063  0.48226235  1
  O  O57  1  0.39572148  0.08848321  0.87798384  1
  O  O58  1  0.98226235  0.69276173  0.10427852  1
  O  O59  1  0.28950063  0.30723827  0.91151679  1
  O  O60  1  0.48226235  0.60427852  0.19276173  1
  O  O61  1  0.19276173  0.48226235  0.60427852  1
  O  O62  1  0.10427852  0.98226235  0.69276173  1
  O  O63  1  0.69276173  0.08848321  0.71049937  1
  O  O64  1  0.89572148  0.01773765  0.30723827  1
  O  O65  1  0.91151679  0.28950063  0.30723827  1
  O  O66  1  0.10427852  0.62201616  0.41151679  1
  O  O67  1  0.41151679  0.10427852  0.62201616  1
  O  O68  1  0.78950063  0.41151679  0.80723827  1
  O  O69  1  0.37798384  0.58848321  0.89572148  1
  O  O70  1  0.71049937  0.69276173  0.08848321  1
  O  O71  1  0.87798384  0.39572148  0.08848321  1
  O  O72  1  0.39572148  0.80723827  0.51773765  1
  O  O73  1  0.12201616  0.60427852  0.91151679  1
  O  O74  1  0.30723827  0.91151679  0.28950063  1
  O  O75  1  0.69276173  0.10427852  0.98226235  1
  O  O76  1  0.98226235  0.78950063  0.87798384  1
  O  O77  1  0.60427852  0.19276173  0.48226235  1
  O  O78  1  0.12201616  0.01773765  0.21049937  1
  O  O79  1  0.51773765  0.62201616  0.71049937  1
