# generated using pymatgen
data_LaH24C3N3(Cl2O)3
_symmetry_space_group_name_H-M   'P 1'
_cell_length_a   8.72138362
_cell_length_b   11.73312702
_cell_length_c   17.86837301
_cell_angle_alpha   90.00000000
_cell_angle_beta   90.00000000
_cell_angle_gamma   90.00000000
_symmetry_Int_Tables_number   1
_chemical_formula_structural   LaH24C3N3(Cl2O)3
_chemical_formula_sum   'La4 H96 C12 N12 Cl24 O12'
_cell_volume   1828.45456081
_cell_formula_units_Z   4
loop_
 _symmetry_equiv_pos_site_id
 _symmetry_equiv_pos_as_xyz
  1  'x, y, z'
loop_
 _atom_site_type_symbol
 _atom_site_label
 _atom_site_symmetry_multiplicity
 _atom_site_fract_x
 _atom_site_fract_y
 _atom_site_fract_z
 _atom_site_occupancy
  La  La0  1  0.25000000  0.90526277  0.98234000  1
  La  La1  1  0.25000000  0.59473723  0.48234000  1
  La  La2  1  0.75000000  0.40526277  0.51766000  1
  La  La3  1  0.75000000  0.09473723  0.01766000  1
  H  H4  1  0.84057132  0.13273421  0.19424674  1
  H  H5  1  0.35278222  0.45739192  0.17363487  1
  H  H6  1  0.84632986  0.79294728  0.53358487  1
  H  H7  1  0.85277804  0.99651162  0.55776815  1
  H  H8  1  0.35277804  0.00348838  0.44223185  1
  H  H9  1  0.25000000  0.32549476  0.88739247  1
  H  H10  1  0.15496357  0.03417458  0.22292549  1
  H  H11  1  0.25000000  0.43574614  0.30053947  1
  H  H12  1  0.84503643  0.96582542  0.77707451  1
  H  H13  1  0.34632986  0.20705272  0.46641513  1
  H  H14  1  0.15836660  0.13307475  0.06841626  1
  H  H15  1  0.84163340  0.86692525  0.93158374  1
  H  H16  1  0.15526210  0.31608651  0.27409785  1
  H  H17  1  0.35239612  0.65743867  0.77577766  1
  H  H18  1  0.75000000  0.96496336  0.47337217  1
  H  H19  1  0.25000000  0.55556943  0.66586607  1
  H  H20  1  0.64722196  0.50348838  0.05776815  1
  H  H21  1  0.65526210  0.81608651  0.22590215  1
  H  H22  1  0.65836660  0.63307475  0.43158374  1
  H  H23  1  0.34503643  0.46582542  0.72292549  1
  H  H24  1  0.34473790  0.31608651  0.27409785  1
  H  H25  1  0.65526210  0.68391349  0.72590215  1
  H  H26  1  0.15526210  0.18391349  0.77409785  1
  H  H27  1  0.64722196  0.99651162  0.55776815  1
  H  H28  1  0.85239612  0.15743867  0.72422234  1
  H  H29  1  0.65496357  0.53417458  0.27707451  1
  H  H30  1  0.15836660  0.36692525  0.56841626  1
  H  H31  1  0.65942868  0.36726579  0.69424674  1
  H  H32  1  0.64760388  0.34256133  0.22422234  1
  H  H33  1  0.75000000  0.05556943  0.83413393  1
  H  H34  1  0.34503643  0.03417458  0.22292549  1
  H  H35  1  0.34473790  0.18391349  0.77409785  1
  H  H36  1  0.85278222  0.95739192  0.32636513  1
  H  H37  1  0.84473790  0.68391349  0.72590215  1
  H  H38  1  0.65496357  0.96582542  0.77707451  1
  H  H39  1  0.65942868  0.13273421  0.19424674  1
  H  H40  1  0.84473790  0.81608651  0.22590215  1
  H  H41  1  0.34163340  0.36692525  0.56841626  1
  H  H42  1  0.64721778  0.54260808  0.82636513  1
  H  H43  1  0.75000000  0.44099537  0.16699961  1
  H  H44  1  0.84069836  0.26432106  0.87899572  1
  H  H45  1  0.75000000  0.67450524  0.11260753  1
  H  H46  1  0.75000000  0.66942622  0.85192451  1
  H  H47  1  0.35278222  0.04260808  0.67363487  1
  H  H48  1  0.14721778  0.45739192  0.17363487  1
  H  H49  1  0.65930164  0.23567894  0.37899572  1
  H  H50  1  0.15930164  0.76432106  0.62100428  1
  H  H51  1  0.84503643  0.53417458  0.27707451  1
  H  H52  1  0.85239612  0.34256133  0.22422234  1
  H  H53  1  0.34163340  0.13307475  0.06841626  1
  H  H54  1  0.84163340  0.63307475  0.43158374  1
  H  H55  1  0.85277804  0.50348838  0.05776815  1
  H  H56  1  0.65930164  0.26432106  0.87899572  1
  H  H57  1  0.34069836  0.76432106  0.62100428  1
  H  H58  1  0.75000000  0.82549476  0.61260753  1
  H  H59  1  0.25000000  0.46496336  0.02662783  1
  H  H60  1  0.75000000  0.53503664  0.97337217  1
  H  H61  1  0.35239612  0.84256133  0.27577766  1
  H  H62  1  0.64721778  0.95739192  0.32636513  1
  H  H63  1  0.25000000  0.55900463  0.83300039  1
  H  H64  1  0.75000000  0.05900463  0.66699961  1
  H  H65  1  0.25000000  0.17450524  0.38739247  1
  H  H66  1  0.75000000  0.93574614  0.19946053  1
  H  H67  1  0.84632986  0.70705272  0.03358487  1
  H  H68  1  0.15367014  0.29294728  0.96641513  1
  H  H69  1  0.14721778  0.04260808  0.67363487  1
  H  H70  1  0.25000000  0.94443057  0.16586607  1
  H  H71  1  0.35277804  0.49651162  0.94223185  1
  H  H72  1  0.75000000  0.83057378  0.35192451  1
  H  H73  1  0.75000000  0.44443057  0.33413393  1
  H  H74  1  0.85278222  0.54260808  0.82636513  1
  H  H75  1  0.34057132  0.63273421  0.30575326  1
  H  H76  1  0.84057132  0.36726579  0.69424674  1
  H  H77  1  0.25000000  0.33057378  0.14807549  1
  H  H78  1  0.15367014  0.20705272  0.46641513  1
  H  H79  1  0.75000000  0.56425386  0.69946053  1
  H  H80  1  0.25000000  0.16942622  0.64807549  1
  H  H81  1  0.14722196  0.00348838  0.44223185  1
  H  H82  1  0.34632986  0.29294728  0.96641513  1
  H  H83  1  0.34057132  0.86726579  0.80575326  1
  H  H84  1  0.25000000  0.94099537  0.33300039  1
  H  H85  1  0.14760388  0.65743867  0.77577766  1
  H  H86  1  0.25000000  0.06425386  0.80053947  1
  H  H87  1  0.84069836  0.23567894  0.37899572  1
  H  H88  1  0.65836660  0.86692525  0.93158374  1
  H  H89  1  0.34069836  0.73567894  0.12100428  1
  H  H90  1  0.65367014  0.79294728  0.53358487  1
  H  H91  1  0.64760388  0.15743867  0.72422234  1
  H  H92  1  0.65367014  0.70705272  0.03358487  1
  H  H93  1  0.15496357  0.46582542  0.72292549  1
  H  H94  1  0.15930164  0.73567894  0.12100428  1
  H  H95  1  0.25000000  0.03503664  0.52662783  1
  H  H96  1  0.14722196  0.49651162  0.94223185  1
  H  H97  1  0.15942868  0.86726579  0.80575326  1
  H  H98  1  0.14760388  0.84256133  0.27577766  1
  H  H99  1  0.15942868  0.63273421  0.30575326  1
  C  C100  1  0.75000000  0.54343027  0.03427589  1
  C  C101  1  0.25000000  0.45656973  0.96572411  1
  C  C102  1  0.25000000  0.40603403  0.18388811  1
  C  C103  1  0.75000000  0.59396597  0.81611189  1
  C  C104  1  0.25000000  0.04343027  0.46572411  1
  C  C105  1  0.25000000  0.60391572  0.77968539  1
  C  C106  1  0.75000000  0.95656973  0.53427589  1
  C  C107  1  0.25000000  0.89608428  0.27968539  1
  C  C108  1  0.75000000  0.39608428  0.22031461  1
  C  C109  1  0.25000000  0.09396597  0.68388811  1
  C  C110  1  0.75000000  0.90603403  0.31611189  1
  C  C111  1  0.75000000  0.10391572  0.72031461  1
  N  N112  1  0.75000000  0.48110111  0.28162455  1
  N  N113  1  0.25000000  0.98110111  0.21837545  1
  N  N114  1  0.75000000  0.86783794  0.23697720  1
  N  N115  1  0.25000000  0.33399805  0.94492440  1
  N  N116  1  0.75000000  0.01889889  0.78162455  1
  N  N117  1  0.25000000  0.36783794  0.26302280  1
  N  N118  1  0.75000000  0.63216206  0.73697720  1
  N  N119  1  0.75000000  0.66600195  0.05507560  1
  N  N120  1  0.75000000  0.83399805  0.55507560  1
  N  N121  1  0.25000000  0.16600195  0.44492440  1
  N  N122  1  0.25000000  0.51889889  0.71837545  1
  N  N123  1  0.25000000  0.13216206  0.76302280  1
  Cl  Cl124  1  0.96636338  0.56753600  0.58495901  1
  Cl  Cl125  1  0.46636338  0.43246400  0.41504099  1
  Cl  Cl126  1  0.52575428  0.26464442  0.06156804  1
  Cl  Cl127  1  0.01179019  0.33971751  0.79304540  1
  Cl  Cl128  1  0.47424572  0.76464442  0.43843196  1
  Cl  Cl129  1  0.02575428  0.76464442  0.43843196  1
  Cl  Cl130  1  0.03363662  0.06753600  0.91504099  1
  Cl  Cl131  1  0.53363662  0.93246400  0.08495901  1
  Cl  Cl132  1  0.96636338  0.93246400  0.08495901  1
  Cl  Cl133  1  0.01179019  0.16028249  0.29304540  1
  Cl  Cl134  1  0.48820981  0.16028249  0.29304540  1
  Cl  Cl135  1  0.97424572  0.26464442  0.06156804  1
  Cl  Cl136  1  0.51179019  0.66028249  0.20695460  1
  Cl  Cl137  1  0.46636338  0.06753600  0.91504099  1
  Cl  Cl138  1  0.51179019  0.83971751  0.70695460  1
  Cl  Cl139  1  0.98820981  0.66028249  0.20695460  1
  Cl  Cl140  1  0.48820981  0.33971751  0.79304540  1
  Cl  Cl141  1  0.03363662  0.43246400  0.41504099  1
  Cl  Cl142  1  0.47424572  0.73535558  0.93843196  1
  Cl  Cl143  1  0.53363662  0.56753600  0.58495901  1
  Cl  Cl144  1  0.52575428  0.23535558  0.56156804  1
  Cl  Cl145  1  0.98820981  0.83971751  0.70695460  1
  Cl  Cl146  1  0.97424572  0.23535558  0.56156804  1
  Cl  Cl147  1  0.02575428  0.73535558  0.93843196  1
  O  O148  1  0.75000000  0.39630995  0.66690428  1
  O  O149  1  0.25000000  0.72860556  0.59775120  1
  O  O150  1  0.25000000  0.08325394  0.06939256  1
  O  O151  1  0.75000000  0.91674606  0.93060744  1
  O  O152  1  0.75000000  0.10369005  0.16690428  1
  O  O153  1  0.25000000  0.89630995  0.83309572  1
  O  O154  1  0.25000000  0.41674606  0.56939256  1
  O  O155  1  0.75000000  0.27139444  0.40224880  1
  O  O156  1  0.75000000  0.22860556  0.90224880  1
  O  O157  1  0.75000000  0.58325394  0.43060744  1
  O  O158  1  0.25000000  0.60369005  0.33309572  1
  O  O159  1  0.25000000  0.77139444  0.09775120  1
