# generated using pymatgen
data_Li3Fe5O8
_symmetry_space_group_name_H-M   'P 1'
_cell_length_a   8.56040971
_cell_length_b   8.56040971
_cell_length_c   8.32208554
_cell_angle_alpha   90.00000000
_cell_angle_beta   90.00000000
_cell_angle_gamma   90.67933689
_symmetry_Int_Tables_number   1
_chemical_formula_structural   Li3Fe5O8
_chemical_formula_sum   'Li12 Fe20 O32'
_cell_volume   609.80467535
_cell_formula_units_Z   4
loop_
 _symmetry_equiv_pos_site_id
 _symmetry_equiv_pos_as_xyz
  1  'x, y, z'
loop_
 _atom_site_type_symbol
 _atom_site_label
 _atom_site_symmetry_multiplicity
 _atom_site_fract_x
 _atom_site_fract_y
 _atom_site_fract_z
 _atom_site_occupancy
  Li  Li0  1  0.12086318  0.63241440  0.62500000  1
  Li  Li1  1  0.12144467  0.87144467  0.37500000  1
  Li  Li2  1  0.12144467  0.87144467  0.87500000  1
  Li  Li3  1  0.37855533  0.12855533  0.37500000  1
  Li  Li4  1  0.37913682  0.36758560  0.12500000  1
  Li  Li5  1  0.37855533  0.12855533  0.87500000  1
  Li  Li6  1  0.61758560  0.12913682  0.62500000  1
  Li  Li7  1  0.62915674  0.62084326  0.12500000  1
  Li  Li8  1  0.62906673  0.62093327  0.62500000  1
  Li  Li9  1  0.87084326  0.37915674  0.62500000  1
  Li  Li10  1  0.87093327  0.37906673  0.12500000  1
  Li  Li11  1  0.88241440  0.87086318  0.12500000  1
  Fe  Fe12  1  0.12976137  0.12023863  0.62500000  1
  Fe  Fe13  1  0.11956829  0.63175265  0.12500000  1
  Fe  Fe14  1  0.12784832  0.12215168  0.12500000  1
  Fe  Fe15  1  0.12582292  0.37721353  0.37532378  1
  Fe  Fe16  1  0.12582292  0.37721353  0.87467622  1
  Fe  Fe17  1  0.38043171  0.36824735  0.62500000  1
  Fe  Fe18  1  0.37417708  0.62278647  0.37467622  1
  Fe  Fe19  1  0.37417708  0.62278647  0.87532378  1
  Fe  Fe20  1  0.37023863  0.87976137  0.12500000  1
  Fe  Fe21  1  0.37215168  0.87784832  0.62500000  1
  Fe  Fe22  1  0.61824735  0.13043171  0.12500000  1
  Fe  Fe23  1  0.63153979  0.38153979  0.37500000  1
  Fe  Fe24  1  0.62721353  0.87582292  0.37467622  1
  Fe  Fe25  1  0.63153979  0.38153979  0.87500000  1
  Fe  Fe26  1  0.62721353  0.87582292  0.87532378  1
  Fe  Fe27  1  0.87278647  0.12417708  0.37532378  1
  Fe  Fe28  1  0.86846021  0.61846021  0.37500000  1
  Fe  Fe29  1  0.86846021  0.61846021  0.87500000  1
  Fe  Fe30  1  0.88175265  0.86956829  0.62500000  1
  Fe  Fe31  1  0.87278647  0.12417708  0.87467622  1
  O  O32  1  0.12607132  0.36373454  0.62500000  1
  O  O33  1  0.12448653  0.88760463  0.62500000  1
  O  O34  1  0.13760463  0.87448653  0.12500000  1
  O  O35  1  0.11232400  0.13767600  0.38054494  1
  O  O36  1  0.12478400  0.37723193  0.12500000  1
  O  O37  1  0.11232400  0.13767600  0.86945506  1
  O  O38  1  0.12901889  0.61353279  0.38084375  1
  O  O39  1  0.12901889  0.61353279  0.86915625  1
  O  O40  1  0.37521600  0.62276807  0.62500000  1
  O  O41  1  0.37392868  0.63626546  0.12500000  1
  O  O42  1  0.38767600  0.86232400  0.36945506  1
  O  O43  1  0.37098111  0.38646721  0.36915625  1
  O  O44  1  0.36239537  0.12551347  0.62500000  1
  O  O45  1  0.38767600  0.86232400  0.88054494  1
  O  O46  1  0.37098111  0.38646721  0.88084375  1
  O  O47  1  0.37551347  0.11239537  0.12500000  1
  O  O48  1  0.61998839  0.63001161  0.37540960  1
  O  O49  1  0.62466732  0.37704352  0.12500000  1
  O  O50  1  0.63646721  0.12098111  0.38084375  1
  O  O51  1  0.62704352  0.37466732  0.62500000  1
  O  O52  1  0.61998839  0.63001161  0.87459040  1
  O  O53  1  0.63646721  0.12098111  0.86915625  1
  O  O54  1  0.61373454  0.87607132  0.12500000  1
  O  O55  1  0.62723193  0.87478400  0.62500000  1
  O  O56  1  0.87276807  0.12521600  0.12500000  1
  O  O57  1  0.88626546  0.12392868  0.62500000  1
  O  O58  1  0.88001161  0.36998839  0.37459040  1
  O  O59  1  0.87295648  0.62533268  0.12500000  1
  O  O60  1  0.87533268  0.62295648  0.62500000  1
  O  O61  1  0.88001161  0.36998839  0.87540960  1
  O  O62  1  0.86353279  0.87901889  0.36915625  1
  O  O63  1  0.86353279  0.87901889  0.88084375  1
