# generated using pymatgen
data_Ca21(Mn2Bi9)2
_symmetry_space_group_name_H-M   'P 1'
_cell_length_a   12.42990393
_cell_length_b   12.42990335
_cell_length_c   17.22145490
_cell_angle_alpha   88.20474317
_cell_angle_beta   88.20474334
_cell_angle_gamma   90.17458019
_symmetry_Int_Tables_number   1
_chemical_formula_structural   Ca21(Mn2Bi9)2
_chemical_formula_sum   'Ca42 Mn8 Bi36'
_cell_volume   2658.12491421
_cell_formula_units_Z   2
loop_
 _symmetry_equiv_pos_site_id
 _symmetry_equiv_pos_as_xyz
  1  'x, y, z'
loop_
 _atom_site_type_symbol
 _atom_site_label
 _atom_site_symmetry_multiplicity
 _atom_site_fract_x
 _atom_site_fract_y
 _atom_site_fract_z
 _atom_site_occupancy
  Ca  Ca0  1  0.75799008  0.51922809  0.56661273  1
  Ca  Ca1  1  0.76790962  0.59243246  0.34420642  1
  Ca  Ca2  1  0.91007233  0.42113358  0.75959867  1
  Ca  Ca3  1  0.06065900  0.31522954  0.11761313  1
  Ca  Ca4  1  0.74861006  0.26359151  0.42081135  1
  Ca  Ca5  1  0.74363613  0.92069545  0.15938739  1
  Ca  Ca6  1  0.40756754  0.23209038  0.15579358  1
  Ca  Ca7  1  0.26359151  0.74861006  0.92081135  1
  Ca  Ca8  1  0.59243246  0.76790962  0.84420642  1
  Ca  Ca9  1  0.51318335  0.68353055  0.43539148  1
  Ca  Ca10  1  0.07930455  0.25636387  0.34061261  1
  Ca  Ca11  1  0.57158080  0.42841920  0.75000000  1
  Ca  Ca12  1  0.57727087  0.81126020  0.62180126  1
  Ca  Ca13  1  0.42113358  0.91007233  0.25959867  1
  Ca  Ca14  1  0.73353769  0.00209146  0.93768805  1
  Ca  Ca15  1  0.57886642  0.08992767  0.74040133  1
  Ca  Ca16  1  0.99790854  0.26646231  0.56231195  1
  Ca  Ca17  1  0.18873980  0.42272913  0.87819874  1
  Ca  Ca18  1  0.99505533  0.17673860  0.92680554  1
  Ca  Ca19  1  0.42272913  0.18873980  0.37819874  1
  Ca  Ca20  1  0.48681665  0.31646945  0.56460852  1
  Ca  Ca21  1  0.73640849  0.25138994  0.07918865  1
  Ca  Ca22  1  0.81126020  0.57727087  0.12180126  1
  Ca  Ca23  1  0.93934100  0.68477046  0.88238687  1
  Ca  Ca24  1  0.68477046  0.93934100  0.38238687  1
  Ca  Ca25  1  0.00209146  0.73353769  0.43768805  1
  Ca  Ca26  1  0.42841920  0.57158080  0.25000000  1
  Ca  Ca27  1  0.48077191  0.24200992  0.93338727  1
  Ca  Ca28  1  0.82326140  0.00494467  0.57319446  1
  Ca  Ca29  1  0.24200992  0.48077191  0.43338727  1
  Ca  Ca30  1  0.25138994  0.73640849  0.57918865  1
  Ca  Ca31  1  0.00494467  0.82326140  0.07319446  1
  Ca  Ca32  1  0.31646945  0.48681665  0.06460852  1
  Ca  Ca33  1  0.92069545  0.74363613  0.65938739  1
  Ca  Ca34  1  0.31522954  0.06065900  0.61761313  1
  Ca  Ca35  1  0.17673860  0.99505533  0.42680554  1
  Ca  Ca36  1  0.51922809  0.75799008  0.06661273  1
  Ca  Ca37  1  0.25636387  0.07930455  0.84061261  1
  Ca  Ca38  1  0.26646231  0.99790854  0.06231195  1
  Ca  Ca39  1  0.68353055  0.51318335  0.93539148  1
  Ca  Ca40  1  0.08992767  0.57886642  0.24040133  1
  Ca  Ca41  1  0.23209038  0.40756754  0.65579358  1
  Mn  Mn42  1  0.63961663  0.36038337  0.25000000  1
  Mn  Mn43  1  0.36038337  0.63961663  0.75000000  1
  Mn  Mn44  1  0.00102614  0.99897386  0.25000000  1
  Mn  Mn45  1  0.15808708  0.84191292  0.25000000  1
  Mn  Mn46  1  0.84620826  0.15379174  0.25000000  1
  Mn  Mn47  1  0.15379174  0.84620826  0.75000000  1
  Mn  Mn48  1  0.99897386  0.00102614  0.75000000  1
  Mn  Mn49  1  0.84191292  0.15808708  0.75000000  1
  Bi  Bi50  1  0.75728706  0.76068365  0.99979335  1
  Bi  Bi51  1  0.91984602  0.42136293  0.96321342  1
  Bi  Bi52  1  0.92043137  0.06644328  0.40063530  1
  Bi  Bi53  1  0.25409018  0.72815503  0.37488794  1
  Bi  Bi54  1  0.07956863  0.93355672  0.59936470  1
  Bi  Bi55  1  0.42136293  0.91984602  0.46321342  1
  Bi  Bi56  1  0.76068365  0.75728706  0.49979335  1
  Bi  Bi57  1  0.08015398  0.57863707  0.03678658  1
  Bi  Bi58  1  0.77926998  0.92837160  0.75436147  1
  Bi  Bi59  1  0.22073002  0.07162840  0.24563853  1
  Bi  Bi60  1  0.95994331  0.46045363  0.42039551  1
  Bi  Bi61  1  0.27184497  0.74590982  0.12511206  1
  Bi  Bi62  1  0.92837160  0.77926998  0.25436147  1
  Bi  Bi63  1  0.38966275  0.25556989  0.74697804  1
  Bi  Bi64  1  0.74443011  0.61033725  0.75302196  1
  Bi  Bi65  1  0.46045363  0.95994331  0.92039551  1
  Bi  Bi66  1  0.74590982  0.27184497  0.62511206  1
  Bi  Bi67  1  0.23931635  0.24271294  0.50020665  1
  Bi  Bi68  1  0.53954637  0.04005669  0.07960449  1
  Bi  Bi69  1  0.55221428  0.43348471  0.39508843  1
  Bi  Bi70  1  0.61782328  0.13022182  0.25859141  1
  Bi  Bi71  1  0.07162840  0.22073002  0.74563853  1
  Bi  Bi72  1  0.06644328  0.92043137  0.90063530  1
  Bi  Bi73  1  0.04005669  0.53954637  0.57960449  1
  Bi  Bi74  1  0.56651529  0.44778572  0.10491157  1
  Bi  Bi75  1  0.24271294  0.23931635  0.00020665  1
  Bi  Bi76  1  0.61033725  0.74443011  0.25302196  1
  Bi  Bi77  1  0.57863707  0.08015398  0.53678658  1
  Bi  Bi78  1  0.43348471  0.55221428  0.89508843  1
  Bi  Bi79  1  0.86977818  0.38217672  0.24140859  1
  Bi  Bi80  1  0.13022182  0.61782328  0.75859141  1
  Bi  Bi81  1  0.44778572  0.56651529  0.60491157  1
  Bi  Bi82  1  0.25556989  0.38966275  0.24697804  1
  Bi  Bi83  1  0.72815503  0.25409018  0.87488794  1
  Bi  Bi84  1  0.38217672  0.86977818  0.74140859  1
  Bi  Bi85  1  0.93355672  0.07956863  0.09936470  1
