# generated using pymatgen
data_LuH24C4N4Cl7
_symmetry_space_group_name_H-M   'P 1'
_cell_length_a   7.72655208
_cell_length_b   9.92435905
_cell_length_c   13.22024804
_cell_angle_alpha   90.86965251
_cell_angle_beta   90.00000000
_cell_angle_gamma   90.00000000
_symmetry_Int_Tables_number   1
_chemical_formula_structural   LuH24C4N4Cl7
_chemical_formula_sum   'Lu2 H48 C8 N8 Cl14'
_cell_volume   1013.62608739
_cell_formula_units_Z   2
loop_
 _symmetry_equiv_pos_site_id
 _symmetry_equiv_pos_as_xyz
  1  'x, y, z'
loop_
 _atom_site_type_symbol
 _atom_site_label
 _atom_site_symmetry_multiplicity
 _atom_site_fract_x
 _atom_site_fract_y
 _atom_site_fract_z
 _atom_site_occupancy
  Lu  Lu0  1  0.99990931  0.50000000  0.50000000  1
  Lu  Lu1  1  0.00953317  0.00000000  0.00000000  1
  H  H2  1  0.50837598  0.10591671  0.05429041  1
  H  H3  1  0.13978177  0.90076399  0.72021448  1
  H  H4  1  0.11810618  0.32117274  0.87433569  1
  H  H5  1  0.11810618  0.67882726  0.12566431  1
  H  H6  1  0.12752673  0.50332953  0.88726004  1
  H  H7  1  0.65174327  0.73100803  0.29996045  1
  H  H8  1  0.37372136  0.69349591  0.45323144  1
  H  H9  1  0.82106953  0.06114142  0.40583011  1
  H  H10  1  0.55614918  0.21564716  0.53071545  1
  H  H11  1  0.13054077  0.15809281  0.40857496  1
  H  H12  1  0.12752673  0.49667047  0.11273996  1
  H  H13  1  0.40304620  0.24926375  0.03879831  1
  H  H14  1  0.51404270  0.33832834  0.20022461  1
  H  H15  1  0.63595286  0.18509201  0.21042385  1
  H  H16  1  0.82907681  0.42651877  0.91811651  1
  H  H17  1  0.83981199  0.50887702  0.80984920  1
  H  H18  1  0.13054077  0.84190719  0.59142504  1
  H  H19  1  0.51404270  0.66167166  0.79977539  1
  H  H20  1  0.50837598  0.89408329  0.94570959  1
  H  H21  1  0.86037989  0.81275587  0.67344138  1
  H  H22  1  0.85795131  0.02688782  0.28268627  1
  H  H23  1  0.55614918  0.78435284  0.46928455  1
  H  H24  1  0.44523089  0.34863083  0.72327020  1
  H  H25  1  0.61634498  0.74933390  0.96345917  1
  H  H26  1  0.44523089  0.65136917  0.27672980  1
  H  H27  1  0.85795131  0.97311218  0.71731373  1
  H  H28  1  0.83981199  0.49112298  0.19015080  1
  H  H29  1  0.86037989  0.18724413  0.32655862  1
  H  H30  1  0.82106953  0.93885858  0.59416989  1
  H  H31  1  0.11693622  0.42505166  0.76452106  1
  H  H32  1  0.11693622  0.57494834  0.23547894  1
  H  H33  1  0.63595286  0.81490799  0.78957615  1
  H  H34  1  0.13978177  0.09923601  0.27978552  1
  H  H35  1  0.45860316  0.82889608  0.30368327  1
  H  H36  1  0.83255860  0.34078287  0.80979013  1
  H  H37  1  0.40304620  0.75073625  0.96120169  1
  H  H38  1  0.56428442  0.61621619  0.44802856  1
  H  H39  1  0.82907681  0.57348123  0.08188349  1
  H  H40  1  0.83255860  0.65921713  0.19020987  1
  H  H41  1  0.40490719  0.81890394  0.78313025  1
  H  H42  1  0.37372136  0.30650409  0.54676856  1
  H  H43  1  0.61634498  0.25066610  0.03654083  1
  H  H44  1  0.40490719  0.18109606  0.21686975  1
  H  H45  1  0.65174327  0.26899197  0.70003955  1
  H  H46  1  0.12102426  0.02081864  0.62078036  1
  H  H47  1  0.56428442  0.38378381  0.55197144  1
  H  H48  1  0.45860316  0.17110392  0.69631673  1
  H  H49  1  0.12102426  0.97918136  0.37921964  1
  C  C50  1  0.08642979  0.08068533  0.35490467  1
  C  C51  1  0.51383929  0.73029662  0.31927022  1
  C  C52  1  0.07669585  0.41775047  0.84337243  1
  C  C53  1  0.07669585  0.58224953  0.15662757  1
  C  C54  1  0.08642979  0.91931467  0.64509533  1
  C  C55  1  0.51580323  0.77020978  0.81680208  1
  C  C56  1  0.51580323  0.22979022  0.18319792  1
  C  C57  1  0.51383929  0.26970338  0.68072978  1
  N  N58  1  0.50025467  0.29616156  0.57094421  1
  N  N59  1  0.89544069  0.91100738  0.65716921  1
  N  N60  1  0.50025467  0.70383844  0.42905579  1
  N  N61  1  0.51102595  0.79267541  0.92862747  1
  N  N62  1  0.89544069  0.08899262  0.34283079  1
  N  N63  1  0.88405814  0.42407181  0.84590301  1
  N  N64  1  0.88405814  0.57592819  0.15409699  1
  N  N65  1  0.51102595  0.20732459  0.07137253  1
  Cl  Cl66  1  0.75140063  0.58290057  0.62467242  1
  Cl  Cl67  1  0.61329094  0.00000000  0.50000000  1
  Cl  Cl68  1  0.97868343  0.22967614  0.09455464  1
  Cl  Cl69  1  0.23987562  0.41245121  0.38278347  1
  Cl  Cl70  1  0.97868343  0.77032386  0.90544536  1
  Cl  Cl71  1  0.23987562  0.58754879  0.61721653  1
  Cl  Cl72  1  0.99498083  0.72786788  0.40801510  1
  Cl  Cl73  1  0.25570180  0.91694930  0.11526938  1
  Cl  Cl74  1  0.25570180  0.08305070  0.88473062  1
  Cl  Cl75  1  0.58796697  0.50000000  0.00000000  1
  Cl  Cl76  1  0.75140063  0.41709943  0.37532758  1
  Cl  Cl77  1  0.99498083  0.27213212  0.59198490  1
  Cl  Cl78  1  0.77206366  0.08744624  0.87182323  1
  Cl  Cl79  1  0.77206366  0.91255376  0.12817677  1
