# generated using pymatgen
data_SrGd2Co2O7
_symmetry_space_group_name_H-M   'P 1'
_cell_length_a   5.46018149
_cell_length_b   5.46018149
_cell_length_c   19.73387949
_cell_angle_alpha   90.00000000
_cell_angle_beta   90.00000000
_cell_angle_gamma   90.00000000
_symmetry_Int_Tables_number   1
_chemical_formula_structural   SrGd2Co2O7
_chemical_formula_sum   'Sr4 Gd8 Co8 O28'
_cell_volume   588.33763245
_cell_formula_units_Z   4
loop_
 _symmetry_equiv_pos_site_id
 _symmetry_equiv_pos_as_xyz
  1  'x, y, z'
loop_
 _atom_site_type_symbol
 _atom_site_label
 _atom_site_symmetry_multiplicity
 _atom_site_fract_x
 _atom_site_fract_y
 _atom_site_fract_z
 _atom_site_occupancy
  Sr  Sr0  1  0.74272166  0.74272166  0.00000000  1
  Sr  Sr1  1  0.75727834  0.24272166  0.50000000  1
  Sr  Sr2  1  0.25727834  0.25727834  0.00000000  1
  Sr  Sr3  1  0.24272166  0.75727834  0.50000000  1
  Gd  Gd4  1  0.26956720  0.26956720  0.81854226  1
  Gd  Gd5  1  0.76956720  0.23043280  0.31854226  1
  Gd  Gd6  1  0.23043280  0.76956720  0.31854226  1
  Gd  Gd7  1  0.26956720  0.26956720  0.18145774  1
  Gd  Gd8  1  0.73043280  0.73043280  0.18145774  1
  Gd  Gd9  1  0.73043280  0.73043280  0.81854226  1
  Gd  Gd10  1  0.23043280  0.76956720  0.68145774  1
  Gd  Gd11  1  0.76956720  0.23043280  0.68145774  1
  Co  Co12  1  0.74511460  0.74511460  0.40113301  1
  Co  Co13  1  0.24511460  0.75488540  0.09886699  1
  Co  Co14  1  0.75488540  0.24511460  0.09886699  1
  Co  Co15  1  0.75488540  0.24511460  0.90113301  1
  Co  Co16  1  0.24511460  0.75488540  0.90113301  1
  Co  Co17  1  0.25488540  0.25488540  0.59886699  1
  Co  Co18  1  0.25488540  0.25488540  0.40113301  1
  Co  Co19  1  0.74511460  0.74511460  0.59886699  1
  O  O20  1  0.50000000  0.50000000  0.37743298  1
  O  O21  1  0.29749091  0.70250909  0.79256407  1
  O  O22  1  0.50000000  0.00000000  0.39352967  1
  O  O23  1  0.00000000  0.00000000  0.59263683  1
  O  O24  1  0.00000000  0.50000000  0.89352967  1
  O  O25  1  0.50000000  0.00000000  0.89352967  1
  O  O26  1  0.71410508  0.71410508  0.50000000  1
  O  O27  1  0.00000000  0.00000000  0.12256702  1
  O  O28  1  0.29749091  0.70250909  0.20743593  1
  O  O29  1  0.00000000  0.50000000  0.10647033  1
  O  O30  1  0.70250909  0.29749091  0.79256407  1
  O  O31  1  0.79749091  0.79749091  0.70743593  1
  O  O32  1  0.79749091  0.79749091  0.29256407  1
  O  O33  1  0.21410508  0.78589492  0.00000000  1
  O  O34  1  0.50000000  0.50000000  0.62256702  1
  O  O35  1  0.00000000  0.00000000  0.87743298  1
  O  O36  1  0.20250909  0.20250909  0.70743593  1
  O  O37  1  0.00000000  0.50000000  0.39352967  1
  O  O38  1  0.78589492  0.21410508  0.00000000  1
  O  O39  1  0.50000000  0.00000000  0.60647033  1
  O  O40  1  0.00000000  0.50000000  0.60647033  1
  O  O41  1  0.70250909  0.29749091  0.20743593  1
  O  O42  1  0.50000000  0.00000000  0.10647033  1
  O  O43  1  0.50000000  0.50000000  0.09263683  1
  O  O44  1  0.50000000  0.50000000  0.90736317  1
  O  O45  1  0.28589492  0.28589492  0.50000000  1
  O  O46  1  0.00000000  0.00000000  0.40736317  1
  O  O47  1  0.20250909  0.20250909  0.29256407  1
