# generated using pymatgen
data_Mo8P9H56N12ClO56
_symmetry_space_group_name_H-M   'P 1'
_cell_length_a   9.82178644
_cell_length_b   9.82178644
_cell_length_c   14.84188779
_cell_angle_alpha   90.00000000
_cell_angle_beta   90.00000000
_cell_angle_gamma   90.00000000
_symmetry_Int_Tables_number   1
_chemical_formula_structural   Mo8P9H56N12ClO56
_chemical_formula_sum   'Mo8 P9 H56 N12 Cl1 O56'
_cell_volume   1431.75964524
_cell_formula_units_Z   1
loop_
 _symmetry_equiv_pos_site_id
 _symmetry_equiv_pos_as_xyz
  1  'x, y, z'
loop_
 _atom_site_type_symbol
 _atom_site_label
 _atom_site_symmetry_multiplicity
 _atom_site_fract_x
 _atom_site_fract_y
 _atom_site_fract_z
 _atom_site_occupancy
  Mo  Mo0  1  0.14391009  0.37048595  0.83755334  1
  Mo  Mo1  1  0.64817369  0.12374969  0.80659200  1
  Mo  Mo2  1  0.62951405  0.14391009  0.16244666  1
  Mo  Mo3  1  0.35182631  0.87625031  0.80659200  1
  Mo  Mo4  1  0.85608991  0.62951405  0.83755334  1
  Mo  Mo5  1  0.37048595  0.85608991  0.16244666  1
  Mo  Mo6  1  0.12374969  0.35182631  0.19340800  1
  Mo  Mo7  1  0.87625031  0.64817369  0.19340800  1
  P  P8  1  0.64823797  0.82244123  0.69140400  1
  P  P9  1  0.64956808  0.85883700  0.30008586  1
  P  P10  1  0.35043192  0.14116300  0.30008586  1
  P  P11  1  0.82244123  0.35176203  0.30859600  1
  P  P12  1  0.14116300  0.64956808  0.69991414  1
  P  P13  1  0.35176203  0.17755877  0.69140400  1
  P  P14  1  0.50000000  0.50000000  0.50000000  1
  P  P15  1  0.85883700  0.35043192  0.69991414  1
  P  P16  1  0.17755877  0.64823797  0.30859600  1
  H  H17  1  0.58553204  0.51239166  0.20186826  1
  H  H18  1  0.08656353  0.99871467  0.70341453  1
  H  H19  1  0.68940678  0.04653816  0.58834770  1
  H  H20  1  0.32673831  0.66517716  0.41860786  1
  H  H21  1  0.63329840  0.89360934  0.05199405  1
  H  H22  1  0.48995631  0.58542482  0.28169613  1
  H  H23  1  0.00128533  0.08656353  0.29658547  1
  H  H24  1  0.51004369  0.41457518  0.28169613  1
  H  H25  1  0.48760834  0.58553204  0.79813174  1
  H  H26  1  0.31059322  0.95346184  0.58834770  1
  H  H27  1  0.24045571  0.12322451  0.97495388  1
  H  H28  1  0.36670160  0.10639066  0.05199405  1
  H  H29  1  0.10639066  0.63329840  0.94800595  1
  H  H30  1  0.11185857  0.22097870  0.49884634  1
  H  H31  1  0.33482284  0.32673831  0.58139214  1
  H  H32  1  0.68737296  0.73565084  0.02164070  1
  H  H33  1  0.00189688  0.08550768  0.78348349  1
  H  H34  1  0.51239166  0.41446796  0.79813174  1
  H  H35  1  0.04653816  0.31059322  0.41165230  1
  H  H36  1  0.67326169  0.33482284  0.41860786  1
  H  H37  1  0.64608294  0.01106633  0.47957786  1
  H  H38  1  0.01106633  0.35391706  0.52042214  1
  H  H39  1  0.87677549  0.24045571  0.02504612  1
  H  H40  1  0.31262704  0.26434916  0.02164070  1
  H  H41  1  0.75954429  0.87677549  0.97495388  1
  H  H42  1  0.99810312  0.91449232  0.78348349  1
  H  H43  1  0.98893367  0.64608294  0.52042214  1
  H  H44  1  0.95346184  0.68940678  0.41165230  1
  H  H45  1  0.41446796  0.48760834  0.20186826  1
  H  H46  1  0.40072903  0.16815118  0.94954031  1
  H  H47  1  0.89360934  0.36670160  0.94800595  1
  H  H48  1  0.88814143  0.77902130  0.49884634  1
  H  H49  1  0.77902130  0.11185857  0.50115366  1
  H  H50  1  0.56920688  0.75031965  0.42109152  1
  H  H51  1  0.26434916  0.68737296  0.97835930  1
  H  H52  1  0.83044403  0.61976219  0.47707931  1
  H  H53  1  0.75031965  0.43079312  0.57890848  1
  H  H54  1  0.61976219  0.16955597  0.52292069  1
  H  H55  1  0.91343647  0.00128533  0.70341453  1
  H  H56  1  0.38023781  0.83044403  0.52292069  1
  H  H57  1  0.83184882  0.40072903  0.05045969  1
  H  H58  1  0.16815118  0.59927097  0.05045969  1
  H  H59  1  0.35391706  0.98893367  0.47957786  1
  H  H60  1  0.08550768  0.99810312  0.21651651  1
  H  H61  1  0.43079312  0.24968035  0.42109152  1
  H  H62  1  0.66517716  0.67326169  0.58139214  1
  H  H63  1  0.99871467  0.91343647  0.29658547  1
  H  H64  1  0.22097870  0.88814143  0.50115366  1
  H  H65  1  0.16955597  0.38023781  0.47707931  1
  H  H66  1  0.24968035  0.56920688  0.57890848  1
  H  H67  1  0.59927097  0.83184882  0.94954031  1
  H  H68  1  0.91449232  0.00189688  0.21651651  1
  H  H69  1  0.12322451  0.75954429  0.02504612  1
  H  H70  1  0.58542482  0.51004369  0.71830387  1
  H  H71  1  0.41457518  0.48995631  0.71830387  1
  H  H72  1  0.73565084  0.31262704  0.97835930  1
  N  N73  1  0.16547801  0.67088779  0.00005952  1
  N  N74  1  0.91434972  0.68217558  0.47718615  1
  N  N75  1  0.00000000  0.00000000  0.25711405  1
  N  N76  1  0.50000000  0.50000000  0.24198672  1
  N  N77  1  0.08565028  0.31782442  0.47718615  1
  N  N78  1  0.50000000  0.50000000  0.75801328  1
  N  N79  1  0.31782442  0.91434972  0.52281385  1
  N  N80  1  0.67088779  0.83452199  0.99994048  1
  N  N81  1  0.83452199  0.32911221  0.00005952  1
  N  N82  1  0.00000000  0.00000000  0.74288595  1
  N  N83  1  0.32911221  0.16547801  0.99994048  1
  N  N84  1  0.68217558  0.08565028  0.52281385  1
  Cl  Cl85  1  0.00000000  0.00000000  0.50000000  1
  O  O86  1  0.01019493  0.33131011  0.71485953  1
  O  O87  1  0.59673535  0.26901771  0.86645804  1
  O  O88  1  0.79071238  0.46723822  0.75105536  1
  O  O89  1  0.78396163  0.78191280  0.27628414  1
  O  O90  1  0.49309880  0.81276689  0.69715471  1
  O  O91  1  0.74249260  0.58026757  0.92146163  1
  O  O92  1  0.78191280  0.21603837  0.72371586  1
  O  O93  1  0.37032237  0.47255234  0.55827551  1
  O  O94  1  0.94835466  0.76548569  0.11979359  1
  O  O95  1  0.00000000  0.50000000  0.87227060  1
  O  O96  1  0.69321884  0.77318923  0.59469874  1
  O  O97  1  0.25750740  0.41973243  0.92146163  1
  O  O98  1  0.26982626  0.71464937  0.23631701  1
  O  O99  1  0.20928762  0.53276178  0.75105536  1
  O  O100  1  0.22428473  0.92968273  0.11586904  1
  O  O101  1  0.58026757  0.25750740  0.07853837  1
  O  O102  1  0.62967763  0.52744766  0.55827551  1
  O  O103  1  0.66868989  0.01019493  0.28514047  1
  O  O104  1  0.07031727  0.22428473  0.88413096  1
  O  O105  1  0.77571527  0.07031727  0.11586904  1
  O  O106  1  0.76548569  0.05164534  0.88020641  1
  O  O107  1  0.37602990  0.16269940  0.40526077  1
  O  O108  1  0.33131011  0.98980507  0.28514047  1
  O  O109  1  0.03069599  0.70263595  0.30167996  1
  O  O110  1  0.21808720  0.78396163  0.72371586  1
  O  O111  1  0.21603837  0.21808720  0.27628414  1
  O  O112  1  0.62397010  0.83730060  0.40526077  1
  O  O113  1  0.96930401  0.29736405  0.30167996  1
  O  O114  1  0.23451431  0.94835466  0.88020641  1
  O  O115  1  0.52744766  0.37032237  0.44172449  1
  O  O116  1  0.05164534  0.23451431  0.11979359  1
  O  O117  1  0.47255234  0.62967763  0.44172449  1
  O  O118  1  0.28535063  0.26982626  0.76368299  1
  O  O119  1  0.83730060  0.37602990  0.59473923  1
  O  O120  1  0.22681077  0.69321884  0.40530126  1
  O  O121  1  0.50000000  0.00000000  0.83524233  1
  O  O122  1  0.41973243  0.74249260  0.07853837  1
  O  O123  1  0.00000000  0.50000000  0.16475767  1
  O  O124  1  0.73098229  0.59673535  0.13354196  1
  O  O125  1  0.98980507  0.66868989  0.71485953  1
  O  O126  1  0.81276689  0.50690120  0.30284529  1
  O  O127  1  0.50690120  0.18723311  0.69715471  1
  O  O128  1  0.30678116  0.22681077  0.59469874  1
  O  O129  1  0.92968273  0.77571527  0.88413096  1
  O  O130  1  0.26901771  0.40326465  0.13354196  1
  O  O131  1  0.73017374  0.28535063  0.23631701  1
  O  O132  1  0.50000000  0.00000000  0.12772940  1
  O  O133  1  0.16269940  0.62397010  0.59473923  1
  O  O134  1  0.18723311  0.49309880  0.30284529  1
  O  O135  1  0.53276178  0.79071238  0.24894464  1
  O  O136  1  0.29736405  0.03069599  0.69832004  1
  O  O137  1  0.77318923  0.30678116  0.40530126  1
  O  O138  1  0.71464937  0.73017374  0.76368299  1
  O  O139  1  0.70263595  0.96930401  0.69832004  1
  O  O140  1  0.46723822  0.20928762  0.24894464  1
  O  O141  1  0.40326465  0.73098229  0.86645804  1
