# generated using pymatgen
data_In2Sn3S7
_symmetry_space_group_name_H-M   'P 1'
_cell_length_a   3.84717580
_cell_length_b   11.49926855
_cell_length_c   13.08105712
_cell_angle_alpha   105.83980997
_cell_angle_beta   90.00000000
_cell_angle_gamma   90.00000000
_symmetry_Int_Tables_number   1
_chemical_formula_structural   In2Sn3S7
_chemical_formula_sum   'In4 Sn6 S14'
_cell_volume   556.72799909
_cell_formula_units_Z   2
loop_
 _symmetry_equiv_pos_site_id
 _symmetry_equiv_pos_as_xyz
  1  'x, y, z'
loop_
 _atom_site_type_symbol
 _atom_site_label
 _atom_site_symmetry_multiplicity
 _atom_site_fract_x
 _atom_site_fract_y
 _atom_site_fract_z
 _atom_site_occupancy
  In  In0  1  0.75000000  0.47713358  0.61557999  1
  In  In1  1  0.25000000  0.52286642  0.38442001  1
  In  In2  1  0.25000000  0.48696555  0.87698293  1
  In  In3  1  0.75000000  0.51303445  0.12301707  1
  Sn  Sn4  1  0.75000000  0.88793416  0.38717502  1
  Sn  Sn5  1  0.25000000  0.17402098  0.99165414  1
  Sn  Sn6  1  0.25000000  0.11206584  0.61282498  1
  Sn  Sn7  1  0.25000000  0.16855714  0.27973850  1
  Sn  Sn8  1  0.75000000  0.83144286  0.72026150  1
  Sn  Sn9  1  0.75000000  0.82597902  0.00834586  1
  S  S10  1  0.25000000  0.88189432  0.52865382  1
  S  S11  1  0.25000000  0.64080576  0.06423546  1
  S  S12  1  0.25000000  0.91130570  0.26303282  1
  S  S13  1  0.25000000  0.38857086  0.18115179  1
  S  S14  1  0.75000000  0.08869430  0.73696718  1
  S  S15  1  0.25000000  0.34571752  0.67212065  1
  S  S16  1  0.75000000  0.37930116  0.41282356  1
  S  S17  1  0.75000000  0.61142914  0.81884821  1
  S  S18  1  0.75000000  0.65428248  0.32787935  1
  S  S19  1  0.25000000  0.62069884  0.58717644  1
  S  S20  1  0.75000000  0.35919424  0.93576454  1
  S  S21  1  0.75000000  0.09789859  0.11722231  1
  S  S22  1  0.25000000  0.90210141  0.88277769  1
  S  S23  1  0.75000000  0.11810568  0.47134618  1
