# generated using pymatgen
data_FeP3(HO2)6
_symmetry_space_group_name_H-M   'P 1'
_cell_length_a   9.89922339
_cell_length_b   9.89922327
_cell_length_c   9.89922314
_cell_angle_alpha   51.67742324
_cell_angle_beta   51.67742374
_cell_angle_gamma   51.67742188
_symmetry_Int_Tables_number   1
_chemical_formula_structural   FeP3(HO2)6
_chemical_formula_sum   'Fe2 P6 H12 O24'
_cell_volume   551.60377643
_cell_formula_units_Z   2
loop_
 _symmetry_equiv_pos_site_id
 _symmetry_equiv_pos_as_xyz
  1  'x, y, z'
loop_
 _atom_site_type_symbol
 _atom_site_label
 _atom_site_symmetry_multiplicity
 _atom_site_fract_x
 _atom_site_fract_y
 _atom_site_fract_z
 _atom_site_occupancy
  Fe  Fe0  1  0.00000000  0.00000000  0.00000000  1
  Fe  Fe1  1  0.50000000  0.50000000  0.50000000  1
  P  P2  1  0.15665365  0.34334635  0.75000000  1
  P  P3  1  0.34334635  0.75000000  0.15665365  1
  P  P4  1  0.84334635  0.65665365  0.25000000  1
  P  P5  1  0.75000000  0.15665365  0.34334635  1
  P  P6  1  0.65665365  0.25000000  0.84334635  1
  P  P7  1  0.25000000  0.84334635  0.65665365  1
  H  H8  1  0.48309700  0.15200675  0.56381440  1
  H  H9  1  0.84799325  0.43618560  0.51690300  1
  H  H10  1  0.15200675  0.56381440  0.48309700  1
  H  H11  1  0.56381440  0.48309700  0.15200675  1
  H  H12  1  0.98309700  0.06381440  0.65200675  1
  H  H13  1  0.65200675  0.98309700  0.06381440  1
  H  H14  1  0.51690300  0.84799325  0.43618560  1
  H  H15  1  0.43618560  0.51690300  0.84799325  1
  H  H16  1  0.93618560  0.34799325  0.01690300  1
  H  H17  1  0.06381440  0.65200675  0.98309700  1
  H  H18  1  0.01690300  0.93618560  0.34799325  1
  H  H19  1  0.34799325  0.01690300  0.93618560  1
  O  O20  1  0.08098684  0.48355490  0.58915576  1
  O  O21  1  0.91901316  0.51644510  0.41084424  1
  O  O22  1  0.91084424  0.01644510  0.41901316  1
  O  O23  1  0.83322497  0.85183194  0.17395982  1
  O  O24  1  0.32604018  0.64816806  0.66677503  1
  O  O25  1  0.16677503  0.14816806  0.82604018  1
  O  O26  1  0.01644510  0.41901316  0.91084424  1
  O  O27  1  0.08915576  0.98355490  0.58098684  1
  O  O28  1  0.41901316  0.91084424  0.01644510  1
  O  O29  1  0.64816806  0.66677503  0.32604018  1
  O  O30  1  0.48355490  0.58915576  0.08098684  1
  O  O31  1  0.66677503  0.32604018  0.64816806  1
  O  O32  1  0.33322497  0.67395982  0.35183194  1
  O  O33  1  0.17395982  0.83322497  0.85183194  1
  O  O34  1  0.41084424  0.91901316  0.51644510  1
  O  O35  1  0.98355490  0.58098684  0.08915576  1
  O  O36  1  0.82604018  0.16677503  0.14816806  1
  O  O37  1  0.67395982  0.35183194  0.33322497  1
  O  O38  1  0.51644510  0.41084424  0.91901316  1
  O  O39  1  0.35183194  0.33322497  0.67395982  1
  O  O40  1  0.14816806  0.82604018  0.16677503  1
  O  O41  1  0.85183194  0.17395982  0.83322497  1
  O  O42  1  0.58915576  0.08098684  0.48355490  1
  O  O43  1  0.58098684  0.08915576  0.98355490  1
