# generated using pymatgen
data_Cu2AsClO4
_symmetry_space_group_name_H-M   'P 1'
_cell_length_a   4.91838313
_cell_length_b   6.66016380
_cell_length_c   6.93260528
_cell_angle_alpha   90.00000000
_cell_angle_beta   91.82924795
_cell_angle_gamma   90.00000000
_symmetry_Int_Tables_number   1
_chemical_formula_structural   Cu2AsClO4
_chemical_formula_sum   'Cu4 As2 Cl2 O8'
_cell_volume   226.97726867
_cell_formula_units_Z   2
loop_
 _symmetry_equiv_pos_site_id
 _symmetry_equiv_pos_as_xyz
  1  'x, y, z'
loop_
 _atom_site_type_symbol
 _atom_site_label
 _atom_site_symmetry_multiplicity
 _atom_site_fract_x
 _atom_site_fract_y
 _atom_site_fract_z
 _atom_site_occupancy
  Cu  Cu0  1  0.35874707  0.25000000  0.26676000  1
  Cu  Cu1  1  0.64125293  0.75000000  0.73324000  1
  Cu  Cu2  1  0.00000000  0.00000000  0.00000000  1
  Cu  Cu3  1  0.00000000  0.50000000  0.00000000  1
  As  As4  1  0.50816506  0.75000000  0.23970646  1
  As  As5  1  0.49183494  0.25000000  0.76029354  1
  Cl  Cl6  1  0.83239558  0.25000000  0.24456269  1
  Cl  Cl7  1  0.16760442  0.75000000  0.75543731  1
  O  O8  1  0.29920294  0.54202983  0.19989346  1
  O  O9  1  0.70079706  0.04202983  0.80010654  1
  O  O10  1  0.76243434  0.75000000  0.06333333  1
  O  O11  1  0.29920294  0.95797017  0.19989346  1
  O  O12  1  0.32204833  0.25000000  0.54647406  1
  O  O13  1  0.67795167  0.75000000  0.45352594  1
  O  O14  1  0.70079706  0.45797017  0.80010654  1
  O  O15  1  0.23756566  0.25000000  0.93666667  1
