# generated using pymatgen
data_Sr4Mn2Cu3(SO)4
_symmetry_space_group_name_H-M   'P 1'
_cell_length_a   5.72538231
_cell_length_b   10.73776168
_cell_length_c   10.73776197
_cell_angle_alpha   64.49735691
_cell_angle_beta   74.53792724
_cell_angle_gamma   74.53793153
_symmetry_Int_Tables_number   1
_chemical_formula_structural   Sr4Mn2Cu3(SO)4
_chemical_formula_sum   'Sr8 Mn4 Cu6 S8 O8'
_cell_volume   565.43715065
_cell_formula_units_Z   2
loop_
 _symmetry_equiv_pos_site_id
 _symmetry_equiv_pos_as_xyz
  1  'x, y, z'
loop_
 _atom_site_type_symbol
 _atom_site_label
 _atom_site_symmetry_multiplicity
 _atom_site_fract_x
 _atom_site_fract_y
 _atom_site_fract_z
 _atom_site_occupancy
  Sr  Sr0  1  0.84418801  0.02359407  0.77571172  1
  Sr  Sr1  1  0.15581199  0.97640593  0.22428828  1
  Sr  Sr2  1  0.85650620  0.52359407  0.27571172  1
  Sr  Sr3  1  0.64349380  0.22428828  0.97640593  1
  Sr  Sr4  1  0.35650620  0.77571172  0.02359407  1
  Sr  Sr5  1  0.65581199  0.72428828  0.47640593  1
  Sr  Sr6  1  0.14349380  0.47640593  0.72428828  1
  Sr  Sr7  1  0.34418801  0.27571172  0.52359407  1
  Mn  Mn8  1  0.25456760  0.62580200  0.37419800  1
  Mn  Mn9  1  0.75456760  0.87419800  0.12580200  1
  Mn  Mn10  1  0.24543240  0.12580200  0.87419800  1
  Mn  Mn11  1  0.74543240  0.37419800  0.62580200  1
  Cu  Cu12  1  0.75000000  0.99543265  0.50456735  1
  Cu  Cu13  1  0.75000000  0.25000000  0.25000000  1
  Cu  Cu14  1  0.25000000  0.49543265  0.00456735  1
  Cu  Cu15  1  0.75000000  0.50456735  0.99543265  1
  Cu  Cu16  1  0.25000000  0.75000000  0.75000000  1
  Cu  Cu17  1  0.25000000  0.00456735  0.49543265  1
  S  S18  1  0.41365600  0.95514380  0.70052039  1
  S  S19  1  0.43067981  0.45514380  0.20052039  1
  S  S20  1  0.56932019  0.54485620  0.79947961  1
  S  S21  1  0.91365600  0.20052039  0.45514380  1
  S  S22  1  0.08634400  0.79947961  0.54485620  1
  S  S23  1  0.58634400  0.04485620  0.29947961  1
  S  S24  1  0.93067981  0.70052039  0.95514380  1
  S  S25  1  0.06932019  0.29947961  0.04485620  1
  O  O26  1  0.49317523  0.25026673  0.74973327  1
  O  O27  1  0.50682477  0.74973327  0.25026673  1
  O  O28  1  0.99317523  0.24973327  0.75026673  1
  O  O29  1  0.00682477  0.75026673  0.24973327  1
  O  O30  1  0.50000000  0.00000000  0.00000000  1
  O  O31  1  0.00000000  0.50000000  0.50000000  1
  O  O32  1  0.50000000  0.50000000  0.50000000  1
  O  O33  1  0.00000000  0.00000000  0.00000000  1
