# generated using pymatgen
data_ErCo(CN)6
_symmetry_space_group_name_H-M   'P 1'
_cell_length_a   7.40329146
_cell_length_b   7.40329146
_cell_length_c   12.99997655
_cell_angle_alpha   90.00000000
_cell_angle_beta   90.00000000
_cell_angle_gamma   119.99999998
_symmetry_Int_Tables_number   1
_chemical_formula_structural   ErCo(CN)6
_chemical_formula_sum   'Er2 Co2 C12 N12'
_cell_volume   617.05360762
_cell_formula_units_Z   2
loop_
 _symmetry_equiv_pos_site_id
 _symmetry_equiv_pos_as_xyz
  1  'x, y, z'
loop_
 _atom_site_type_symbol
 _atom_site_label
 _atom_site_symmetry_multiplicity
 _atom_site_fract_x
 _atom_site_fract_y
 _atom_site_fract_z
 _atom_site_occupancy
  C  C0  1  0.11852876  0.88147124  0.41642494  1
  C  C1  1  0.76294248  0.88147124  0.41642494  1
  C  C2  1  0.11852876  0.23705752  0.41642494  1
  C  C3  1  0.88147124  0.76294248  0.91642494  1
  C  C4  1  0.76294248  0.88147124  0.08357506  1
  C  C5  1  0.88147124  0.76294248  0.58357506  1
  C  C6  1  0.88147124  0.11852876  0.58357506  1
  C  C7  1  0.11852876  0.88147124  0.08357506  1
  C  C8  1  0.11852876  0.23705752  0.08357506  1
  C  C9  1  0.88147124  0.11852876  0.91642494  1
  C  C10  1  0.23705752  0.11852876  0.91642494  1
  C  C11  1  0.23705752  0.11852876  0.58357506  1
  N  N12  1  0.80810762  0.61621524  0.86287407  1
  N  N13  1  0.19189238  0.38378476  0.36287407  1
  N  N14  1  0.61621524  0.80810762  0.36287407  1
  N  N15  1  0.19189238  0.80810762  0.36287407  1
  N  N16  1  0.61621524  0.80810762  0.13712593  1
  N  N17  1  0.80810762  0.61621524  0.63712593  1
  N  N18  1  0.80810762  0.19189238  0.63712593  1
  N  N19  1  0.19189238  0.80810762  0.13712593  1
  N  N20  1  0.19189238  0.38378476  0.13712593  1
  N  N21  1  0.80810762  0.19189238  0.86287407  1
  N  N22  1  0.38378476  0.19189238  0.86287407  1
  N  N23  1  0.38378476  0.19189238  0.63712593  1
  Co  Co24  1  0.00000000  0.00000000  0.50000000  1
  Co  Co25  1  0.00000000  0.00000000  0.00000000  1
  Er  Er26  1  0.66666667  0.33333333  0.75000000  1
  Er  Er27  1  0.33333333  0.66666667  0.25000000  1
