# generated using pymatgen
data_HgTe(H2O3)2
_symmetry_space_group_name_H-M   'P 1'
_cell_length_a   6.17505803
_cell_length_b   8.43556231
_cell_length_c   11.02382700
_cell_angle_alpha   90.00000000
_cell_angle_beta   90.00000000
_cell_angle_gamma   90.00000000
_symmetry_Int_Tables_number   1
_chemical_formula_structural   HgTe(H2O3)2
_chemical_formula_sum   'Hg4 Te4 H16 O24'
_cell_volume   574.23210508
_cell_formula_units_Z   4
loop_
 _symmetry_equiv_pos_site_id
 _symmetry_equiv_pos_as_xyz
  1  'x, y, z'
loop_
 _atom_site_type_symbol
 _atom_site_label
 _atom_site_symmetry_multiplicity
 _atom_site_fract_x
 _atom_site_fract_y
 _atom_site_fract_z
 _atom_site_occupancy
  Hg  Hg0  1  0.35923848  0.09182497  0.02619539  1
  Hg  Hg1  1  0.14076152  0.09182497  0.52619539  1
  Hg  Hg2  1  0.85923848  0.59182497  0.47380461  1
  Hg  Hg3  1  0.64076152  0.59182497  0.97380461  1
  Te  Te4  1  0.85429841  0.08762693  0.14264421  1
  Te  Te5  1  0.14570159  0.58762693  0.85735579  1
  Te  Te6  1  0.64570159  0.08762693  0.64264421  1
  Te  Te7  1  0.35429841  0.58762693  0.35735579  1
  H  H8  1  0.01288940  0.86500489  0.91609754  1
  H  H9  1  0.98711060  0.36500489  0.08390246  1
  H  H10  1  0.65714971  0.60797580  0.21791592  1
  H  H11  1  0.86594759  0.86593263  0.71739838  1
  H  H12  1  0.13405241  0.36593263  0.28260162  1
  H  H13  1  0.36594759  0.36593263  0.78260162  1
  H  H14  1  0.79293238  0.15496319  0.84545863  1
  H  H15  1  0.51288940  0.36500489  0.58390246  1
  H  H16  1  0.70706762  0.15496319  0.34545863  1
  H  H17  1  0.15714971  0.10797580  0.28208408  1
  H  H18  1  0.29293238  0.65496319  0.65454137  1
  H  H19  1  0.84285029  0.60797580  0.71791592  1
  H  H20  1  0.48711060  0.86500489  0.41609754  1
  H  H21  1  0.34285029  0.10797580  0.78208408  1
  H  H22  1  0.20706762  0.65496319  0.15454137  1
  H  H23  1  0.63405241  0.86593263  0.21739838  1
  O  O24  1  0.21013531  0.37992556  0.36185512  1
  O  O25  1  0.54955668  0.50654110  0.48243174  1
  O  O26  1  0.47575200  0.28720486  0.64991330  1
  O  O27  1  0.64161457  0.15421271  0.26353166  1
  O  O28  1  0.05368578  0.02010652  0.27394696  1
  O  O29  1  0.78986469  0.87992556  0.63814488  1
  O  O30  1  0.85838543  0.15421271  0.76353166  1
  O  O31  1  0.14161457  0.65421271  0.23646834  1
  O  O32  1  0.97575200  0.78720486  0.85008670  1
  O  O33  1  0.95044332  0.50654110  0.98243174  1
  O  O34  1  0.35838543  0.65421271  0.73646834  1
  O  O35  1  0.17071240  0.67424183  0.48361818  1
  O  O36  1  0.71013531  0.87992556  0.13814488  1
  O  O37  1  0.04955668  0.00654110  0.01756826  1
  O  O38  1  0.67071240  0.17424183  0.01638182  1
  O  O39  1  0.44631422  0.02010652  0.77394696  1
  O  O40  1  0.45044332  0.00654110  0.51756826  1
  O  O41  1  0.02424800  0.28720486  0.14991330  1
  O  O42  1  0.82928760  0.17424183  0.51638182  1
  O  O43  1  0.28986469  0.37992556  0.86185512  1
  O  O44  1  0.94631422  0.52010652  0.72605304  1
  O  O45  1  0.52424800  0.78720486  0.35008670  1
  O  O46  1  0.55368578  0.52010652  0.22605304  1
  O  O47  1  0.32928760  0.67424183  0.98361818  1
