# generated using pymatgen
data_BaTe2Mo2(HO6)2
_symmetry_space_group_name_H-M   'P 1'
_cell_length_a   7.51791401
_cell_length_b   7.74288914
_cell_length_c   19.12647275
_cell_angle_alpha   90.00000000
_cell_angle_beta   90.00000000
_cell_angle_gamma   90.00000000
_symmetry_Int_Tables_number   1
_chemical_formula_structural   BaTe2Mo2(HO6)2
_chemical_formula_sum   'Ba4 Te8 Mo8 H8 O48'
_cell_volume   1113.35914630
_cell_formula_units_Z   4
loop_
 _symmetry_equiv_pos_site_id
 _symmetry_equiv_pos_as_xyz
  1  'x, y, z'
loop_
 _atom_site_type_symbol
 _atom_site_label
 _atom_site_symmetry_multiplicity
 _atom_site_fract_x
 _atom_site_fract_y
 _atom_site_fract_z
 _atom_site_occupancy
  Ba  Ba0  1  0.24724894  0.84206371  0.44441550  1
  Ba  Ba1  1  0.75275106  0.34206371  0.05558450  1
  Ba  Ba2  1  0.74724894  0.65793629  0.55558450  1
  Ba  Ba3  1  0.25275106  0.15793629  0.94441550  1
  Te  Te4  1  0.98967411  0.38381714  0.39692512  1
  Te  Te5  1  0.51032589  0.61618286  0.89692512  1
  Te  Te6  1  0.33936328  0.58633770  0.26208566  1
  Te  Te7  1  0.83936328  0.91366230  0.73791434  1
  Te  Te8  1  0.01032589  0.88381714  0.10307488  1
  Te  Te9  1  0.66063672  0.08633770  0.23791434  1
  Te  Te10  1  0.48967411  0.11618286  0.60307488  1
  Te  Te11  1  0.16063672  0.41366230  0.76208566  1
  Mo  Mo12  1  0.53028991  0.86228062  0.09260902  1
  Mo  Mo13  1  0.03028991  0.63771938  0.90739098  1
  Mo  Mo14  1  0.77346283  0.55952160  0.24167719  1
  Mo  Mo15  1  0.96971009  0.13771938  0.59260902  1
  Mo  Mo16  1  0.27346283  0.94047840  0.75832281  1
  Mo  Mo17  1  0.46971009  0.36228062  0.40739098  1
  Mo  Mo18  1  0.72653717  0.44047840  0.74167719  1
  Mo  Mo19  1  0.22653717  0.05952160  0.25832281  1
  H  H20  1  0.87313070  0.98488838  0.90512195  1
  H  H21  1  0.37313070  0.51511162  0.09487805  1
  H  H22  1  0.72157833  0.09368723  0.93366000  1
  H  H23  1  0.27842167  0.59368723  0.56634000  1
  H  H24  1  0.62686930  0.01511162  0.40512195  1
  H  H25  1  0.22157833  0.40631277  0.06634000  1
  H  H26  1  0.12686930  0.48488838  0.59487805  1
  H  H27  1  0.77842167  0.90631277  0.43366000  1
  O  O28  1  0.76531506  0.95962932  0.13978811  1
  O  O29  1  0.95921711  0.50170657  0.81604649  1
  O  O30  1  0.54896118  0.64294117  0.19852600  1
  O  O31  1  0.44394828  0.89906657  0.56633695  1
  O  O32  1  0.09558931  0.06243440  0.33507113  1
  O  O33  1  0.30609165  0.77703348  0.09305294  1
  O  O34  1  0.52488818  0.02243708  0.02545373  1
  O  O35  1  0.66628775  0.25318080  0.78464457  1
  O  O36  1  0.40441069  0.93756560  0.83507113  1
  O  O37  1  0.17048544  0.19890536  0.80619861  1
  O  O38  1  0.09965397  0.89959019  0.19788047  1
  O  O39  1  0.69390835  0.27703348  0.40694706  1
  O  O40  1  0.19390835  0.22296652  0.59305294  1
  O  O41  1  0.94394828  0.60093343  0.43366305  1
  O  O42  1  0.73468494  0.04037068  0.63978811  1
  O  O43  1  0.40034603  0.10040981  0.69788047  1
  O  O44  1  0.45921711  0.99829343  0.18395351  1
  O  O45  1  0.16628775  0.24681920  0.21535543  1
  O  O46  1  0.84322333  0.30884315  0.55655203  1
  O  O47  1  0.04078289  0.00170657  0.68395351  1
  O  O48  1  0.84956447  0.09745892  0.92715964  1
  O  O49  1  0.34956447  0.40254108  0.07284036  1
  O  O50  1  0.59558931  0.43756560  0.66492887  1
  O  O51  1  0.15677667  0.80884315  0.94344797  1
  O  O52  1  0.82951456  0.69890536  0.69380139  1
  O  O53  1  0.83371225  0.74681920  0.28464457  1
  O  O54  1  0.45103882  0.14294117  0.30147400  1
  O  O55  1  0.90034603  0.39959019  0.30211953  1
  O  O56  1  0.33371225  0.75318080  0.71535543  1
  O  O57  1  0.67048544  0.30109464  0.19380139  1
  O  O58  1  0.65677667  0.69115685  0.05655203  1
  O  O59  1  0.02488818  0.47756292  0.97454627  1
  O  O60  1  0.59965397  0.60040981  0.80211953  1
  O  O61  1  0.04896118  0.85705883  0.80147400  1
  O  O62  1  0.26531506  0.54037068  0.86021189  1
  O  O63  1  0.34322333  0.19115685  0.44344797  1
  O  O64  1  0.15043553  0.59745892  0.57284036  1
  O  O65  1  0.54078289  0.49829343  0.31604649  1
  O  O66  1  0.47511182  0.52243708  0.47454627  1
  O  O67  1  0.65043553  0.90254108  0.42715964  1
  O  O68  1  0.05605172  0.10093343  0.06633695  1
  O  O69  1  0.95103882  0.35705883  0.69852600  1
  O  O70  1  0.80609165  0.72296652  0.90694706  1
  O  O71  1  0.97511182  0.97756292  0.52545373  1
  O  O72  1  0.23468494  0.45962932  0.36021189  1
  O  O73  1  0.55605172  0.39906657  0.93366305  1
  O  O74  1  0.90441069  0.56243440  0.16492887  1
  O  O75  1  0.32951456  0.80109464  0.30619861  1
