# generated using pymatgen
data_U3CuO10
_symmetry_space_group_name_H-M   'P 1'
_cell_length_a   5.63297650
_cell_length_b   5.66970778
_cell_length_c   7.60666485
_cell_angle_alpha   71.08226140
_cell_angle_beta   69.64796531
_cell_angle_gamma   71.03290052
_symmetry_Int_Tables_number   1
_chemical_formula_structural   U3CuO10
_chemical_formula_sum   'U3 Cu1 O10'
_cell_volume   209.20598813
_cell_formula_units_Z   1
loop_
 _symmetry_equiv_pos_site_id
 _symmetry_equiv_pos_as_xyz
  1  'x, y, z'
loop_
 _atom_site_type_symbol
 _atom_site_label
 _atom_site_symmetry_multiplicity
 _atom_site_fract_x
 _atom_site_fract_y
 _atom_site_fract_z
 _atom_site_occupancy
  U  U0  1  -0.00000000  0.00000000  -0.00000000  1
  U  U1  1  0.54652598  0.45773375  0.73041042  1
  U  U2  1  0.45347402  0.54226625  0.26958958  1
  Cu  Cu3  1  -0.00000000  0.00000000  0.50000000  1
  O  O4  1  0.69321220  0.76203732  0.14263054  1
  O  O5  1  0.91792713  0.07900397  0.74869706  1
  O  O6  1  0.08207287  0.92099603  0.25130294  1
  O  O7  1  0.23310331  0.32592250  0.35975544  1
  O  O8  1  0.31359611  0.70104649  0.53500544  1
  O  O9  1  0.29576126  0.68999961  0.96504486  1
  O  O10  1  0.30678780  0.23796268  0.85736946  1
  O  O11  1  0.68640389  0.29895351  0.46499456  1
  O  O12  1  0.76689669  0.67407750  0.64024456  1
  O  O13  1  0.70423874  0.31000039  0.03495514  1
