# generated using pymatgen
data_H7NO6
_symmetry_space_group_name_H-M   'P 1'
_cell_length_a   9.70352148
_cell_length_b   15.69749473
_cell_length_c   3.75082559
_cell_angle_alpha   89.95839896
_cell_angle_beta   89.09879560
_cell_angle_gamma   89.98404955
_symmetry_Int_Tables_number   1
_chemical_formula_structural   H7NO6
_chemical_formula_sum   'H28 N4 O24'
_cell_volume   571.25857615
_cell_formula_units_Z   4
loop_
 _symmetry_equiv_pos_site_id
 _symmetry_equiv_pos_as_xyz
  1  'x, y, z'
loop_
 _atom_site_type_symbol
 _atom_site_label
 _atom_site_symmetry_multiplicity
 _atom_site_fract_x
 _atom_site_fract_y
 _atom_site_fract_z
 _atom_site_occupancy
  H  H0  1  0.83707957  0.61668100  0.29246945  1
  H  H1  1  0.72130969  0.66160675  0.06280649  1
  H  H2  1  0.91246129  0.64531551  0.81431316  1
  H  H3  1  0.68783758  0.34868061  0.74668134  1
  H  H4  1  0.79151007  0.33798780  0.41638852  1
  H  H5  1  0.31239167  0.84849422  0.75372793  1
  H  H6  1  0.20870716  0.83801091  0.08411032  1
  H  H7  1  0.27900038  0.16200568  0.43542241  1
  H  H8  1  0.16522957  0.11496857  0.20814805  1
  H  H9  1  0.08690859  0.14543675  0.68590670  1
  H  H10  1  0.77963901  0.92868409  0.14298340  1
  H  H11  1  0.66888670  0.00223493  0.13627814  1
  H  H12  1  0.72202975  0.08221044  0.62852461  1
  H  H13  1  0.82101364  0.00383287  0.65418043  1
  H  H14  1  0.27749551  0.58228130  0.87048454  1
  H  H15  1  0.17896479  0.50373823  0.84546084  1
  H  H16  1  0.22035853  0.42867823  0.35717869  1
  H  H17  1  0.33105062  0.50225444  0.36283204  1
  H  H18  1  0.41307743  0.85417784  0.20889393  1
  H  H19  1  0.53154364  0.79705101  0.46596767  1
  H  H20  1  0.57992456  0.89059857  0.26191188  1
  H  H21  1  0.97532938  0.20264356  0.96976190  1
  H  H22  1  0.91986457  0.11085037  0.75731321  1
  H  H23  1  0.07949310  0.61066307  0.74068308  1
  H  H24  1  0.02444068  0.70278426  0.53046994  1
  H  H25  1  0.42025366  0.39064896  0.23815386  1
  H  H26  1  0.46873354  0.29711683  0.03464589  1
  H  H27  1  0.58713430  0.35426031  0.29140427  1
  N  N28  1  0.95881675  0.83725540  0.33395932  1
  N  N29  1  0.53900527  0.16568150  0.83999473  1
  N  N30  1  0.46134292  0.66554083  0.66169786  1
  N  N31  1  0.04146982  0.33705356  0.16622003  1
  O  O32  1  0.85367987  0.81023986  0.49410094  1
  O  O33  1  0.64299188  0.19423355  0.99681547  1
  O  O34  1  0.35743267  0.69422310  0.50446071  1
  O  O35  1  0.14652916  0.31002906  0.00592161  1
  O  O36  1  0.06949025  0.79059240  0.32724397  1
  O  O37  1  0.42634704  0.20906529  0.84266765  1
  O  O38  1  0.57402891  0.70890815  0.65922531  1
  O  O39  1  0.93077186  0.29043345  0.17343287  1
  O  O40  1  0.96079921  0.90852130  0.17722458  1
  O  O41  1  0.54350516  0.09498900  0.67793425  1
  O  O42  1  0.45671904  0.59484630  0.82373505  1
  O  O43  1  0.03952687  0.40830459  0.32269752  1
  O  O44  1  0.80151552  0.62406854  0.05132792  1
  O  O45  1  0.70521484  0.36615088  0.50067565  1
  O  O46  1  0.29501031  0.86611681  -0.00056520  1
  O  O47  1  0.19942475  0.12403771  0.44947347  1
  O  O48  1  0.68392527  0.94271851  0.06949379  1
  O  O49  1  0.81870148  0.06314076  0.57407185  1
  O  O50  1  0.18089612  0.56310082  0.92457106  1
  O  O51  1  0.31608513  0.44276260  0.43037769  1
  O  O52  1  0.49984547  0.85582880  0.38234530  1
  O  O53  1  0.00393105  0.14414495  0.87451404  1
  O  O54  1  0.99547815  0.64419601  0.62417315  1
  O  O55  1  0.50037223  0.35591914  0.11792672  1
