# generated using pymatgen
data_Al(HO)3
_symmetry_space_group_name_H-M   'P 1'
_cell_length_a   8.79621831
_cell_length_b   5.20362927
_cell_length_c   9.33846849
_cell_angle_alpha   90.90884291
_cell_angle_beta   90.00000000
_cell_angle_gamma   90.00000000
_symmetry_Int_Tables_number   1
_chemical_formula_structural   Al(HO)3
_chemical_formula_sum   'Al8 H24 O24'
_cell_volume   427.38902555
_cell_formula_units_Z   8
loop_
 _symmetry_equiv_pos_site_id
 _symmetry_equiv_pos_as_xyz
  1  'x, y, z'
loop_
 _atom_site_type_symbol
 _atom_site_label
 _atom_site_symmetry_multiplicity
 _atom_site_fract_x
 _atom_site_fract_y
 _atom_site_fract_z
 _atom_site_occupancy
  Al  Al0  1  0.33126635  0.98365537  0.49364752  1
  Al  Al1  1  0.66873365  0.01634463  0.50635248  1
  Al  Al2  1  0.83126635  0.51634463  0.50635248  1
  Al  Al3  1  0.16873365  0.48365537  0.49364752  1
  Al  Al4  1  0.83117403  0.97638478  0.00676269  1
  Al  Al5  1  0.16882597  0.02361522  0.99323731  1
  Al  Al6  1  0.33117403  0.52361522  0.99323731  1
  Al  Al7  1  0.66882597  0.47638478  0.00676269  1
  H  H8  1  0.01163004  0.80506480  0.62158114  1
  H  H9  1  0.98836996  0.19493520  0.37841886  1
  H  H10  1  0.51163004  0.69493520  0.37841886  1
  H  H11  1  0.48836996  0.30506480  0.62158114  1
  H  H12  1  0.13757051  0.14946174  0.68997909  1
  H  H13  1  0.86242949  0.85053826  0.31002091  1
  H  H14  1  0.63757051  0.35053826  0.31002091  1
  H  H15  1  0.36242949  0.64946174  0.68997909  1
  H  H16  1  0.86638231  0.17121095  0.69751914  1
  H  H17  1  0.13361769  0.82878905  0.30248086  1
  H  H18  1  0.36638231  0.32878905  0.30248086  1
  H  H19  1  0.63361769  0.67121095  0.69751914  1
  H  H20  1  0.98258574  0.30400406  0.88769792  1
  H  H21  1  0.01741426  0.69599594  0.11230208  1
  H  H22  1  0.48258574  0.19599594  0.11230208  1
  H  H23  1  0.51741426  0.80400406  0.88769792  1
  H  H24  1  0.65723655  0.14206893  0.80332535  1
  H  H25  1  0.34276345  0.85793107  0.19667465  1
  H  H26  1  0.15723655  0.35793107  0.19667465  1
  H  H27  1  0.84276345  0.64206893  0.80332535  1
  H  H28  1  0.86066069  0.32900761  0.20113580  1
  H  H29  1  0.13933931  0.67099239  0.79886420  1
  H  H30  1  0.36066069  0.17099239  0.79886420  1
  H  H31  1  0.63933931  0.82900761  0.20113580  1
  O  O32  1  0.00944547  0.61710393  0.61842992  1
  O  O33  1  0.99055453  0.38289607  0.38157008  1
  O  O34  1  0.50944547  0.88289607  0.38157008  1
  O  O35  1  0.49055453  0.11710393  0.61842992  1
  O  O36  1  0.17543170  0.16963851  0.59228832  1
  O  O37  1  0.82456830  0.83036149  0.40771168  1
  O  O38  1  0.67543170  0.33036149  0.40771168  1
  O  O39  1  0.32456830  0.66963851  0.59228832  1
  O  O40  1  0.80246283  0.22386023  0.61859756  1
  O  O41  1  0.19753717  0.77613977  0.38140244  1
  O  O42  1  0.30246283  0.27613977  0.38140244  1
  O  O43  1  0.69753717  0.72386023  0.61859756  1
  O  O44  1  0.99068698  0.11639487  0.88122041  1
  O  O45  1  0.00931302  0.88360513  0.11877959  1
  O  O46  1  0.49068698  0.38360513  0.11877959  1
  O  O47  1  0.50931302  0.61639487  0.88122041  1
  O  O48  1  0.67396005  0.15366091  0.90600254  1
  O  O49  1  0.32603995  0.84633909  0.09399746  1
  O  O50  1  0.17396005  0.34633909  0.09399746  1
  O  O51  1  0.82603995  0.65366091  0.90600254  1
  O  O52  1  0.80433144  0.27749507  0.11594760  1
  O  O53  1  0.19566856  0.72250493  0.88405240  1
  O  O54  1  0.30433144  0.22250493  0.88405240  1
  O  O55  1  0.69566856  0.77749507  0.11594760  1
