# generated using pymatgen
data_U3(HO5)2
_symmetry_space_group_name_H-M   'P 1'
_cell_length_a   6.86301908
_cell_length_b   7.52882011
_cell_length_c   5.56301782
_cell_angle_alpha   108.12028758
_cell_angle_beta   124.50047024
_cell_angle_gamma   89.31857717
_symmetry_Int_Tables_number   1
_chemical_formula_structural   U3(HO5)2
_chemical_formula_sum   'U3 H2 O10'
_cell_volume   220.13296011
_cell_formula_units_Z   1
loop_
 _symmetry_equiv_pos_site_id
 _symmetry_equiv_pos_as_xyz
  1  'x, y, z'
loop_
 _atom_site_type_symbol
 _atom_site_label
 _atom_site_symmetry_multiplicity
 _atom_site_fract_x
 _atom_site_fract_y
 _atom_site_fract_z
 _atom_site_occupancy
  U  U0  1  0.00000000  0.00000000  0.00000000  1
  U  U1  1  0.55975995  0.75058436  0.00835759  1
  U  U2  1  0.44024005  0.24941564  0.99164241  1
  H  H3  1  0.68718763  0.40583755  0.80055341  1
  H  H4  1  0.31281237  0.59416245  0.19944659  1
  O  O5  1  0.92182852  0.76935944  0.02203992  1
  O  O6  1  0.07817148  0.23064056  0.97796008  1
  O  O7  1  0.67274588  0.45140447  0.97641260  1
  O  O8  1  0.32725412  0.54859553  0.02358740  1
  O  O9  1  0.31247308  0.95876105  0.00989845  1
  O  O10  1  0.68752692  0.04123895  0.99010155  1
  O  O11  1  0.23902987  0.14503523  0.54700288  1
  O  O12  1  0.76097013  0.85496477  0.45299712  1
  O  O13  1  0.37250137  0.65538945  0.57988263  1
  O  O14  1  0.62749863  0.34461055  0.42011737  1
