# generated using pymatgen
data_Eu(C2N3)3
_symmetry_space_group_name_H-M   'P 1'
_cell_length_a   7.01166737
_cell_length_b   7.01166756
_cell_length_c   10.46692950
_cell_angle_alpha   90.00000000
_cell_angle_beta   90.00000000
_cell_angle_gamma   110.02009901
_symmetry_Int_Tables_number   1
_chemical_formula_structural   Eu(C2N3)3
_chemical_formula_sum   'Eu2 C12 N18'
_cell_volume   483.49530034
_cell_formula_units_Z   2
loop_
 _symmetry_equiv_pos_site_id
 _symmetry_equiv_pos_as_xyz
  1  'x, y, z'
loop_
 _atom_site_type_symbol
 _atom_site_label
 _atom_site_symmetry_multiplicity
 _atom_site_fract_x
 _atom_site_fract_y
 _atom_site_fract_z
 _atom_site_occupancy
  Eu  Eu0  1  0.71207309  0.28792691  0.25000000  1
  Eu  Eu1  1  0.28792691  0.71207309  0.75000000  1
  C  C2  1  0.71309981  0.99680393  0.55894261  1
  C  C3  1  0.44778813  0.25969249  0.75000000  1
  C  C4  1  0.55221187  0.74030751  0.25000000  1
  C  C5  1  0.00319607  0.28690019  0.55894261  1
  C  C6  1  0.99680393  0.71309981  0.44105739  1
  C  C7  1  0.99680393  0.71309981  0.05894261  1
  C  C8  1  0.28690019  0.00319607  0.05894261  1
  C  C9  1  0.00319607  0.28690019  0.94105739  1
  C  C10  1  0.74030750  0.55221187  0.75000000  1
  C  C11  1  0.25969250  0.44778813  0.25000000  1
  C  C12  1  0.71309981  0.99680393  0.94105739  1
  C  C13  1  0.28690019  0.00319607  0.44105739  1
  N  N14  1  0.08852682  0.33789529  0.25000000  1
  N  N15  1  0.84920528  0.15079472  0.50499368  1
  N  N16  1  0.57941131  0.85145179  0.59382474  1
  N  N17  1  0.42058869  0.14854821  0.40617526  1
  N  N18  1  0.33789529  0.08852682  0.75000000  1
  N  N19  1  0.14854821  0.42058869  0.59382474  1
  N  N20  1  0.54585304  0.45414696  0.75000000  1
  N  N21  1  0.15079472  0.84920528  0.49500632  1
  N  N22  1  0.84920528  0.15079472  0.99500632  1
  N  N23  1  0.45414696  0.54585304  0.25000000  1
  N  N24  1  0.85145179  0.57941131  0.09382474  1
  N  N25  1  0.42058869  0.14854821  0.09382474  1
  N  N26  1  0.91147318  0.66210471  0.75000000  1
  N  N27  1  0.15079472  0.84920528  0.00499368  1
  N  N28  1  0.14854821  0.42058869  0.90617526  1
  N  N29  1  0.85145179  0.57941131  0.40617526  1
  N  N30  1  0.66210471  0.91147318  0.25000000  1
  N  N31  1  0.57941131  0.85145179  0.90617526  1
