# generated using pymatgen
data_Al(HO)3
_symmetry_space_group_name_H-M   'P 1'
_cell_length_a   8.66745884
_cell_length_b   5.23085326
_cell_length_c   9.46592639
_cell_angle_alpha   90.00000000
_cell_angle_beta   90.00000000
_cell_angle_gamma   91.43167002
_symmetry_Int_Tables_number   1
_chemical_formula_structural   Al(HO)3
_chemical_formula_sum   'Al8 H24 O24'
_cell_volume   429.03414242
_cell_formula_units_Z   8
loop_
 _symmetry_equiv_pos_site_id
 _symmetry_equiv_pos_as_xyz
  1  'x, y, z'
loop_
 _atom_site_type_symbol
 _atom_site_label
 _atom_site_symmetry_multiplicity
 _atom_site_fract_x
 _atom_site_fract_y
 _atom_site_fract_z
 _atom_site_occupancy
  Al  Al0  1  0.82809379  0.01288418  0.50072512  1
  Al  Al1  1  0.32795841  0.49501004  0.49797521  1
  Al  Al2  1  0.16851480  0.50526898  0.99765808  1
  Al  Al3  1  0.66704090  0.98596359  0.00223147  1
  Al  Al4  1  0.16704090  0.98596359  0.49776853  1
  Al  Al5  1  0.66851480  0.50526898  0.50234192  1
  Al  Al6  1  0.82795841  0.49501004  0.00202479  1
  Al  Al7  1  0.32809379  0.01288418  0.99927488  1
  H  H8  1  0.50145113  0.80149952  0.62979704  1
  H  H9  1  0.97273409  0.69035920  0.37973201  1
  H  H10  1  0.50556559  0.29970687  0.87021139  1
  H  H11  1  0.99440585  0.19594732  0.12894570  1
  H  H12  1  0.49440585  0.19594732  0.37105430  1
  H  H13  1  0.00556559  0.29970687  0.62978861  1
  H  H14  1  0.47273409  0.69035920  0.12026799  1
  H  H15  1  0.00145113  0.80149952  0.87020296  1
  H  H16  1  0.78656015  0.71999330  0.70856604  1
  H  H17  1  0.29020538  0.78633956  0.29116050  1
  H  H18  1  0.21318758  0.21288641  0.78929456  1
  H  H19  1  0.59053464  0.34490058  0.15530432  1
  H  H20  1  0.09053464  0.34490058  0.34469568  1
  H  H21  1  0.71318758  0.21288641  0.71070544  1
  H  H22  1  0.79020538  0.78633956  0.20883950  1
  H  H23  1  0.28656015  0.71999330  0.79143396  1
  H  H24  1  0.41552969  0.14207725  0.64205514  1
  H  H25  1  0.79824235  0.31284346  0.29379914  1
  H  H26  1  0.58952572  0.63468742  0.83841089  1
  H  H27  1  0.09228215  0.86107852  0.16379442  1
  H  H28  1  0.59228215  0.86107852  0.33620558  1
  H  H29  1  0.08952572  0.63468742  0.66158911  1
  H  H30  1  0.29824235  0.31284346  0.20620086  1
  H  H31  1  0.91552969  0.14207725  0.85794486  1
  O  O32  1  0.49641082  0.61817100  0.61328085  1
  O  O33  1  0.99292531  0.87397602  0.38714190  1
  O  O34  1  0.50218274  0.11737538  0.88886499  1
  O  O35  1  0.00004599  0.37901107  0.11171147  1
  O  O36  1  0.50004599  0.37901107  0.38828853  1
  O  O37  1  0.00218274  0.11737538  0.61113501  1
  O  O38  1  0.49292531  0.87397602  0.11285810  1
  O  O39  1  0.99641082  0.61817100  0.88671915  1
  O  O40  1  0.81357994  0.70128313  0.60848017  1
  O  O41  1  0.31492546  0.80178138  0.39219860  1
  O  O42  1  0.18263917  0.19654955  0.88899678  1
  O  O43  1  0.68754618  0.29096188  0.11410209  1
  O  O44  1  0.18754618  0.29096188  0.38589791  1
  O  O45  1  0.68263917  0.19654955  0.61100322  1
  O  O46  1  0.81492546  0.80178138  0.10780140  1
  O  O47  1  0.31357994  0.70128313  0.89151983  1
  O  O48  1  0.31380301  0.18750744  0.60765910  1
  O  O49  1  0.82181972  0.32853653  0.39476928  1
  O  O50  1  0.68266594  0.68401937  0.89025722  1
  O  O51  1  0.18395149  0.81403105  0.11114331  1
  O  O52  1  0.68395149  0.81403105  0.38885669  1
  O  O53  1  0.18266594  0.68401937  0.60974278  1
  O  O54  1  0.32181972  0.32853653  0.10523072  1
  O  O55  1  0.81380301  0.18750744  0.89234090  1
