# generated using pymatgen
data_LiGa(SiO3)2
_symmetry_space_group_name_H-M   'P 1'
_cell_length_a   5.31479873
_cell_length_b   8.72647883
_cell_length_c   9.28348086
_cell_angle_alpha   90.00000000
_cell_angle_beta   101.82368952
_cell_angle_gamma   90.00000000
_symmetry_Int_Tables_number   1
_chemical_formula_structural   LiGa(SiO3)2
_chemical_formula_sum   'Li4 Ga4 Si8 O24'
_cell_volume   421.42764109
_cell_formula_units_Z   4
loop_
 _symmetry_equiv_pos_site_id
 _symmetry_equiv_pos_as_xyz
  1  'x, y, z'
loop_
 _atom_site_type_symbol
 _atom_site_label
 _atom_site_symmetry_multiplicity
 _atom_site_fract_x
 _atom_site_fract_y
 _atom_site_fract_z
 _atom_site_occupancy
  Li  Li0  1  0.01102408  0.00660554  0.24711799  1
  Li  Li1  1  0.48897592  0.50660554  0.75288201  1
  Li  Li2  1  0.98897592  0.99339446  0.75288201  1
  Li  Li3  1  0.51102408  0.49339446  0.24711799  1
  O  O4  1  0.30175192  0.98989129  0.11617568  1
  O  O5  1  0.20977288  0.16755754  0.86505147  1
  O  O6  1  0.29022712  0.66755754  0.13494853  1
  O  O7  1  0.79022712  0.83244246  0.13494853  1
  O  O8  1  0.70977288  0.33244246  0.86505147  1
  O  O9  1  0.73344196  0.66589828  0.36474924  1
  O  O10  1  0.76655804  0.16589828  0.63525076  1
  O  O11  1  0.26655804  0.33410172  0.63525076  1
  O  O12  1  0.23344196  0.83410172  0.36474924  1
  O  O13  1  0.53379756  0.26472083  0.10793495  1
  O  O14  1  0.19824808  0.48989129  0.88382432  1
  O  O15  1  0.69824808  0.01010871  0.88382432  1
  O  O16  1  0.08977533  0.72627837  0.60394215  1
  O  O17  1  0.41022467  0.22627837  0.39605785  1
  O  O18  1  0.91022467  0.27372163  0.39605785  1
  O  O19  1  0.58977533  0.77372163  0.60394215  1
  O  O20  1  0.46620244  0.73527917  0.89206505  1
  O  O21  1  0.96620244  0.76472083  0.89206505  1
  O  O22  1  0.77051167  0.49517875  0.62224285  1
  O  O23  1  0.03379756  0.23527917  0.10793495  1
  O  O24  1  0.27051167  0.00482125  0.62224285  1
  O  O25  1  0.22948833  0.50482125  0.37775715  1
  O  O26  1  0.72948833  0.99517875  0.37775715  1
  O  O27  1  0.80175192  0.51010871  0.11617568  1
  Si  Si28  1  0.22292624  0.66002937  0.95227534  1
  Si  Si29  1  0.79712120  0.66014406  0.54796935  1
  Si  Si30  1  0.70287880  0.16014406  0.45203065  1
  Si  Si31  1  0.20287880  0.33985594  0.45203065  1
  Si  Si32  1  0.29712120  0.83985594  0.54796935  1
  Si  Si33  1  0.27707376  0.16002937  0.04772466  1
  Si  Si34  1  0.72292624  0.83997063  0.95227534  1
  Si  Si35  1  0.77707376  0.33997063  0.04772466  1
  Ga  Ga36  1  0.01320783  0.64743208  0.25035551  1
  Ga  Ga37  1  0.51320783  0.85256792  0.25035551  1
  Ga  Ga38  1  0.98679217  0.35256792  0.74964449  1
  Ga  Ga39  1  0.48679217  0.14743208  0.74964449  1
