# generated using pymatgen
data_Eu2GeSe4
_symmetry_space_group_name_H-M   'P 1'
_cell_length_a   6.97736821
_cell_length_b   7.13106318
_cell_length_c   8.34932238
_cell_angle_alpha   89.97027303
_cell_angle_beta   107.78661783
_cell_angle_gamma   89.75524041
_symmetry_Int_Tables_number   1
_chemical_formula_structural   Eu2GeSe4
_chemical_formula_sum   'Eu4 Ge2 Se8'
_cell_volume   395.56779293
_cell_formula_units_Z   2
loop_
 _symmetry_equiv_pos_site_id
 _symmetry_equiv_pos_as_xyz
  1  'x, y, z'
loop_
 _atom_site_type_symbol
 _atom_site_label
 _atom_site_symmetry_multiplicity
 _atom_site_fract_x
 _atom_site_fract_y
 _atom_site_fract_z
 _atom_site_occupancy
  Eu  Eu0  1  0.27388633  0.72236666  0.94419443  1
  Eu  Eu1  1  0.24877476  0.70558197  0.43688155  1
  Eu  Eu2  1  0.72757651  0.21746411  0.05605931  1
  Eu  Eu3  1  0.74943925  0.20367167  0.56300352  1
  Ge  Ge4  1  0.26653443  0.24817382  0.19437391  1
  Ge  Ge5  1  0.73342458  0.74578248  0.80535417  1
  Se  Se6  1  0.51917513  0.47648996  0.75007738  1
  Se  Se7  1  0.07184685  0.28316314  0.38551031  1
  Se  Se8  1  0.48222207  0.97636667  0.25141151  1
  Se  Se9  1  0.07982915  0.29777997  0.90498228  1
  Se  Se10  1  0.51668506  0.48954765  0.26189432  1
  Se  Se11  1  0.92808588  0.78725758  0.61503546  1
  Se  Se12  1  0.92193134  0.79944034  0.09392954  1
  Se  Se13  1  0.48058866  0.98951398  0.73729231  1
