# generated using pymatgen
data_Cu3SbS3
_symmetry_space_group_name_H-M   'P 1'
_cell_length_a   8.73589322
_cell_length_b   8.73596141
_cell_length_c   8.73594612
_cell_angle_alpha   109.47021739
_cell_angle_beta   109.47162913
_cell_angle_gamma   109.47354663
_symmetry_Int_Tables_number   1
_chemical_formula_structural   Cu3SbS3
_chemical_formula_sum   'Cu12 Sb4 S12'
_cell_volume   513.21199732
_cell_formula_units_Z   4
loop_
 _symmetry_equiv_pos_site_id
 _symmetry_equiv_pos_as_xyz
  1  'x, y, z'
loop_
 _atom_site_type_symbol
 _atom_site_label
 _atom_site_symmetry_multiplicity
 _atom_site_fract_x
 _atom_site_fract_y
 _atom_site_fract_z
 _atom_site_occupancy
  Cu  Cu0  1  0.99996305  0.81588176  0.81589871  1
  Cu  Cu1  1  0.50009896  0.75010896  0.25017814  1
  Cu  Cu2  1  0.75017606  0.49992185  0.24980471  1
  Cu  Cu3  1  0.25008118  0.75011114  0.50011568  1
  Cu  Cu4  1  0.18387402  0.99998292  0.18399133  1
  Cu  Cu5  1  0.00000498  0.18409935  0.18402073  1
  Cu  Cu6  1  0.18387542  0.18377910  0.99993976  1
  Cu  Cu7  1  0.49983734  0.24979712  0.74994611  1
  Cu  Cu8  1  0.81599465  0.81597854  0.99982784  1
  Cu  Cu9  1  0.74995019  0.25023759  0.50023244  1
  Cu  Cu10  1  0.25006420  0.49998207  0.74991179  1
  Cu  Cu11  1  0.81596159  0.99998078  0.81598574  1
  Sb  Sb12  1  0.00006925  0.00001078  0.44998190  1
  Sb  Sb13  1  0.99995518  0.44993509  -0.00000324  1
  Sb  Sb14  1  0.55005108  0.55005385  0.55008848  1
  Sb  Sb15  1  0.44993812  0.00001794  0.99995087  1
  S  S16  1  0.47076814  0.22570379  0.47113605  1
  S  S17  1  0.52893073  0.00008738  0.75468661  1
  S  S18  1  0.24499084  0.77437794  0.24533734  1
  S  S19  1  0.22569478  0.47105730  0.47082537  1
  S  S20  1  0.24539700  0.24519395  0.77431498  1
  S  S21  1  0.47087338  0.47058758  0.22562862  1
  S  S22  1  0.75504055  0.00017097  0.52945784  1
  S  S23  1  0.00006644  0.75476012  0.52906005  1
  S  S24  1  0.52925818  0.75486261  0.99987168  1
  S  S25  1  0.77438518  0.24518515  0.24517459  1
  S  S26  1  0.00016816  0.52933099  0.75495183  1
  S  S27  1  0.75453134  0.52880340  0.99968405  1
