# generated using pymatgen
data_Rb2Cu2(MoO4)3
_symmetry_space_group_name_H-M   'P 1'
_cell_length_a   5.16182244
_cell_length_b   14.25789549
_cell_length_c   19.56352919
_cell_angle_alpha   106.87966939
_cell_angle_beta   90.00000000
_cell_angle_gamma   100.42896090
_symmetry_Int_Tables_number   1
_chemical_formula_structural   Rb2Cu2(MoO4)3
_chemical_formula_sum   'Rb8 Cu8 Mo12 O48'
_cell_volume   1352.90410683
_cell_formula_units_Z   4
loop_
 _symmetry_equiv_pos_site_id
 _symmetry_equiv_pos_as_xyz
  1  'x, y, z'
loop_
 _atom_site_type_symbol
 _atom_site_label
 _atom_site_symmetry_multiplicity
 _atom_site_fract_x
 _atom_site_fract_y
 _atom_site_fract_z
 _atom_site_occupancy
  Rb  Rb0  1  0.51608856  0.63839770  0.72658988  1
  Rb  Rb1  1  0.79598354  0.00000000  0.75000000  1
  Rb  Rb2  1  0.87769086  0.36160230  0.77341012  1
  Rb  Rb3  1  0.20401646  0.00000000  0.25000000  1
  Rb  Rb4  1  0.48391144  0.36160230  0.27341012  1
  Rb  Rb5  1  0.50000000  0.50000000  0.00000000  1
  Rb  Rb6  1  0.12230914  0.63839770  0.22658988  1
  Rb  Rb7  1  0.00000000  0.50000000  0.50000000  1
  Cu  Cu8  1  0.36304884  0.19919987  0.04668024  1
  Cu  Cu9  1  0.16384897  0.80080013  0.45331976  1
  Cu  Cu10  1  0.16019033  0.84566221  0.04780272  1
  Cu  Cu11  1  0.63695116  0.80080013  0.95331976  1
  Cu  Cu12  1  0.31452812  0.15433779  0.45219728  1
  Cu  Cu13  1  0.68547188  0.84566221  0.54780272  1
  Cu  Cu14  1  0.83615103  0.19919987  0.54668024  1
  Cu  Cu15  1  0.83980967  0.15433779  0.95219728  1
  Mo  Mo16  1  0.37644880  0.22740828  0.86448232  1
  Mo  Mo17  1  0.43454647  0.36664270  0.61054730  1
  Mo  Mo18  1  0.14904052  0.77259172  0.63551768  1
  Mo  Mo19  1  0.56545353  0.63335730  0.38945270  1
  Mo  Mo20  1  0.25163531  0.03360167  0.57346132  1
  Mo  Mo21  1  0.06790377  0.63335730  0.88945270  1
  Mo  Mo22  1  0.93209623  0.36664270  0.11054730  1
  Mo  Mo23  1  0.62355120  0.77259172  0.13551768  1
  Mo  Mo24  1  0.21803364  0.96639833  0.92653868  1
  Mo  Mo25  1  0.85095948  0.22740828  0.36448232  1
  Mo  Mo26  1  0.74836469  0.96639833  0.42653868  1
  Mo  Mo27  1  0.78196636  0.03360167  0.07346132  1
  O  O28  1  0.82655859  0.71807569  0.45422375  1
  O  O29  1  0.93853278  0.47281627  0.08109427  1
  O  O30  1  0.40708902  0.69579360  0.88269509  1
  O  O31  1  0.98549436  0.08399985  0.48256000  1
  O  O32  1  0.06146722  0.52718373  0.91890573  1
  O  O33  1  0.10848290  0.28192431  0.04577625  1
  O  O34  1  0.28870458  0.69579360  0.38269509  1
  O  O35  1  0.03152699  0.64931650  0.63818229  1
  O  O36  1  0.01450564  0.91600015  0.51744000  1
  O  O37  1  0.08153778  0.40952377  0.19815925  1
  O  O38  1  0.06742001  0.10919420  0.63236622  1
  O  O39  1  0.49003605  0.10855751  0.52621382  1
  O  O40  1  0.17344141  0.28192431  0.54577625  1
  O  O41  1  0.61852146  0.10855751  0.02621382  1
  O  O42  1  0.58384612  0.23479152  0.94378297  1
  O  O43  1  0.59291098  0.30420640  0.11730491  1
  O  O44  1  0.34905459  0.76520848  0.55621703  1
  O  O45  1  0.55024770  0.00731530  0.37346841  1
  O  O46  1  0.66256375  0.16502445  0.28377196  1
  O  O47  1  0.38147854  0.89144249  0.97378618  1
  O  O48  1  0.49753930  0.83497555  0.21622804  1
  O  O49  1  0.86708486  0.83323719  0.62996175  1
  O  O50  1  0.89151710  0.71807569  0.95422375  1
  O  O51  1  0.53428349  0.47281627  0.58109427  1
  O  O52  1  0.45706760  0.00731530  0.87346841  1
  O  O53  1  0.95822582  0.89080580  0.86763378  1
  O  O54  1  0.96615232  0.83323719  0.12996175  1
  O  O55  1  0.32798599  0.40952377  0.69815925  1
  O  O56  1  0.96847301  0.35068350  0.36181771  1
  O  O57  1  0.04177418  0.10919420  0.13236622  1
  O  O58  1  0.33743625  0.83497555  0.71622804  1
  O  O59  1  0.50996395  0.89144249  0.47378618  1
  O  O60  1  0.03384768  0.16676281  0.87003825  1
  O  O61  1  0.54293240  0.99268470  0.12653159  1
  O  O62  1  0.67201401  0.59047623  0.30184075  1
  O  O63  1  0.65094541  0.23479152  0.44378297  1
  O  O64  1  0.90149451  0.91600015  0.01744000  1
  O  O65  1  0.46571651  0.52718373  0.41890573  1
  O  O66  1  0.38221049  0.35068350  0.86181771  1
  O  O67  1  0.93257999  0.89080580  0.36763378  1
  O  O68  1  0.61778951  0.64931650  0.13818229  1
  O  O69  1  0.13291514  0.16676281  0.37003825  1
  O  O70  1  0.44975230  0.99268470  0.62653159  1
  O  O71  1  0.91846222  0.59047623  0.80184075  1
  O  O72  1  0.50246070  0.16502445  0.78377196  1
  O  O73  1  0.09850549  0.08399985  0.98256000  1
  O  O74  1  0.71129542  0.30420640  0.61730491  1
  O  O75  1  0.41615388  0.76520848  0.05621703  1
