# generated using pymatgen
data_Fe3O4
_symmetry_space_group_name_H-M   'P 1'
_cell_length_a   6.09551771
_cell_length_b   6.07897708
_cell_length_c   17.13006636
_cell_angle_alpha   90.00000000
_cell_angle_beta   90.00000000
_cell_angle_gamma   90.00000000
_symmetry_Int_Tables_number   1
_chemical_formula_structural   Fe3O4
_chemical_formula_sum   'Fe24 O32'
_cell_volume   634.74625720
_cell_formula_units_Z   8
loop_
 _symmetry_equiv_pos_site_id
 _symmetry_equiv_pos_as_xyz
  1  'x, y, z'
loop_
 _atom_site_type_symbol
 _atom_site_label
 _atom_site_symmetry_multiplicity
 _atom_site_fract_x
 _atom_site_fract_y
 _atom_site_fract_z
 _atom_site_occupancy
  O  O0  1  0.50908491  0.51143728  0.62758526  1
  O  O1  1  0.50908491  0.48856272  0.87241474  1
  O  O2  1  0.49091509  0.01143728  0.37241474  1
  O  O3  1  0.49091509  0.98856272  0.12758526  1
  O  O4  1  0.49091509  0.48856272  0.37241474  1
  O  O5  1  0.49091509  0.51143728  0.12758526  1
  O  O6  1  0.50908491  0.98856272  0.62758526  1
  O  O7  1  0.50908491  0.01143728  0.87241474  1
  O  O8  1  0.98856260  0.50932650  0.63110074  1
  O  O9  1  0.98856260  0.49067350  0.86889926  1
  O  O10  1  0.01143740  0.00932650  0.36889926  1
  O  O11  1  0.01143740  0.99067350  0.13110074  1
  O  O12  1  0.01143740  0.49067350  0.36889926  1
  O  O13  1  0.01143740  0.50932650  0.13110074  1
  O  O14  1  0.98856260  0.99067350  0.63110074  1
  O  O15  1  0.98856260  0.00932650  0.86889926  1
  O  O16  1  0.77187630  0.75000000  0.25004349  1
  O  O17  1  0.77187630  0.25000000  0.24995651  1
  O  O18  1  0.22812370  0.25000000  0.74995651  1
  O  O19  1  0.22812370  0.75000000  0.75004349  1
  O  O20  1  0.23057283  0.75000000  0.24497739  1
  O  O21  1  0.23057283  0.25000000  0.25502261  1
  O  O22  1  0.76942717  0.25000000  0.75502261  1
  O  O23  1  0.76942717  0.75000000  0.74497739  1
  O  O24  1  0.73937142  0.75000000  0.00201486  1
  O  O25  1  0.73937142  0.25000000  0.49798514  1
  O  O26  1  0.26062858  0.25000000  0.99798514  1
  O  O27  1  0.26062858  0.75000000  0.50201486  1
  O  O28  1  0.24452260  0.75000000  0.00434401  1
  O  O29  1  0.24452260  0.25000000  0.49565599  1
  O  O30  1  0.75547740  0.25000000  0.99565599  1
  O  O31  1  0.75547740  0.75000000  0.50434401  1
  Fe  Fe32  1  0.74972542  0.75000000  0.12395888  1
  Fe  Fe33  1  0.74972542  0.25000000  0.37604112  1
  Fe  Fe34  1  0.25027458  0.25000000  0.87604112  1
  Fe  Fe35  1  0.25027458  0.75000000  0.62395888  1
  Fe  Fe36  1  0.25562399  0.75000000  0.12150379  1
  Fe  Fe37  1  0.25562399  0.25000000  0.37849621  1
  Fe  Fe38  1  0.74437601  0.25000000  0.87849621  1
  Fe  Fe39  1  0.74437601  0.75000000  0.62150379  1
  Fe  Fe40  1  0.99927682  0.50000000  0.75000000  1
  Fe  Fe41  1  0.00072318  0.00000000  0.25000000  1
  Fe  Fe42  1  0.00072318  0.50000000  0.25000000  1
  Fe  Fe43  1  0.99927682  0.00000000  0.75000000  1
  Fe  Fe44  1  0.50000000  0.50000000  0.50000000  1
  Fe  Fe45  1  0.50000000  0.50000000  0.00000000  1
  Fe  Fe46  1  0.50000000  0.00000000  0.50000000  1
  Fe  Fe47  1  0.50000000  0.00000000  0.00000000  1
  Fe  Fe48  1  0.49781682  0.75000000  0.31111269  1
  Fe  Fe49  1  0.49781682  0.25000000  0.18888731  1
  Fe  Fe50  1  0.50218318  0.25000000  0.68888731  1
  Fe  Fe51  1  0.50218318  0.75000000  0.81111269  1
  Fe  Fe52  1  0.00728352  0.75000000  0.43671907  1
  Fe  Fe53  1  0.00728352  0.25000000  0.06328093  1
  Fe  Fe54  1  0.99271648  0.25000000  0.56328093  1
  Fe  Fe55  1  0.99271648  0.75000000  0.93671907  1
