# generated using pymatgen
data_MnAg4(SbS3)2
_symmetry_space_group_name_H-M   'P 1'
_cell_length_a   6.73285732
_cell_length_b   8.01126537
_cell_length_c   10.68349512
_cell_angle_alpha   90.00000000
_cell_angle_beta   91.58929882
_cell_angle_gamma   90.00000000
_symmetry_Int_Tables_number   1
_chemical_formula_structural   MnAg4(SbS3)2
_chemical_formula_sum   'Mn2 Ag8 Sb4 S12'
_cell_volume   576.03223188
_cell_formula_units_Z   2
loop_
 _symmetry_equiv_pos_site_id
 _symmetry_equiv_pos_as_xyz
  1  'x, y, z'
loop_
 _atom_site_type_symbol
 _atom_site_label
 _atom_site_symmetry_multiplicity
 _atom_site_fract_x
 _atom_site_fract_y
 _atom_site_fract_z
 _atom_site_occupancy
  S  S0  1  0.62288746  0.90704392  0.21939715  1
  S  S1  1  0.65673303  0.74189087  0.89426444  1
  S  S2  1  0.87711254  0.40704392  0.28060285  1
  S  S3  1  0.37711254  0.09295608  0.78060285  1
  S  S4  1  0.12288746  0.59295608  0.71939715  1
  S  S5  1  0.82928436  0.17456793  0.98603467  1
  S  S6  1  0.67071564  0.67456793  0.51396533  1
  S  S7  1  0.17071564  0.82543207  0.01396533  1
  S  S8  1  0.32928436  0.32543207  0.48603467  1
  S  S9  1  0.15673303  0.75810913  0.39426444  1
  S  S10  1  0.34326697  0.25810913  0.10573556  1
  S  S11  1  0.84326697  0.24189087  0.60573556  1
  Mn  Mn12  1  0.00000000  0.50000000  0.50000000  1
  Mn  Mn13  1  0.50000000  0.00000000  0.00000000  1
  Ag  Ag14  1  0.76138662  0.96769991  0.52761508  1
  Ag  Ag15  1  0.26138662  0.53230009  0.02761508  1
  Ag  Ag16  1  0.23861338  0.03230009  0.47238492  1
  Ag  Ag17  1  0.93126900  0.70372956  0.18299495  1
  Ag  Ag18  1  0.56873100  0.20372956  0.31700505  1
  Ag  Ag19  1  0.06873100  0.29627044  0.81700505  1
  Ag  Ag20  1  0.43126900  0.79627044  0.68299495  1
  Ag  Ag21  1  0.73861338  0.46769991  0.97238492  1
  Sb  Sb22  1  0.02692491  0.14968325  0.18863552  1
  Sb  Sb23  1  0.52692491  0.35031675  0.68863552  1
  Sb  Sb24  1  0.97307509  0.85031675  0.81136448  1
  Sb  Sb25  1  0.47307509  0.64968325  0.31136448  1
