# generated using pymatgen
data_LiBi(PO3)4
_symmetry_space_group_name_H-M   'P 1'
_cell_length_a   7.22076821
_cell_length_b   8.54358636
_cell_length_c   7.99078852
_cell_angle_alpha   90.00000000
_cell_angle_beta   92.27326729
_cell_angle_gamma   90.00000000
_symmetry_Int_Tables_number   1
_chemical_formula_structural   LiBi(PO3)4
_chemical_formula_sum   'Li2 Bi2 P8 O24'
_cell_volume   492.57383041
_cell_formula_units_Z   2
loop_
 _symmetry_equiv_pos_site_id
 _symmetry_equiv_pos_as_xyz
  1  'x, y, z'
loop_
 _atom_site_type_symbol
 _atom_site_label
 _atom_site_symmetry_multiplicity
 _atom_site_fract_x
 _atom_site_fract_y
 _atom_site_fract_z
 _atom_site_occupancy
  Li  Li0  1  0.66574858  0.13164137  0.38555242  1
  Li  Li1  1  0.33425142  0.63164137  0.61444758  1
  Bi  Bi2  1  0.22913365  0.25444492  0.23158997  1
  Bi  Bi3  1  0.77086635  0.75444492  0.76841003  1
  P  P4  1  0.89891701  0.33270543  0.88704371  1
  P  P5  1  0.43340374  0.62518109  0.09427993  1
  P  P6  1  0.56659626  0.12518109  0.90572007  1
  P  P7  1  0.98573008  0.11249711  0.60007506  1
  P  P8  1  0.62318689  0.49655978  0.40131012  1
  P  P9  1  0.10108299  0.83270543  0.11295629  1
  P  P10  1  0.37681311  0.99655978  0.59868988  1
  P  P11  1  0.01426992  0.61249711  0.39992494  1
  O  O12  1  0.84093442  0.49825535  0.37426266  1
  O  O13  1  0.81131847  0.01448935  0.59033734  1
  O  O14  1  0.54980726  0.62736867  0.27115685  1
  O  O15  1  0.43407549  0.15296820  0.04232272  1
  O  O16  1  0.00557968  0.21937146  0.45287595  1
  O  O17  1  0.99537830  0.70531470  0.22470483  1
  O  O18  1  0.00462170  0.20531470  0.77529517  1
  O  O19  1  0.96962985  0.30548006  0.06466343  1
  O  O20  1  0.91294979  0.49202424  0.81036237  1
  O  O21  1  0.99442032  0.71937146  0.54712405  1
  O  O22  1  0.58136268  0.55234301  0.57403348  1
  O  O23  1  0.44108625  0.83577658  0.65218678  1
  O  O24  1  0.15906558  0.99825535  0.62573734  1
  O  O25  1  0.41863732  0.05234301  0.42596652  1
  O  O26  1  0.31652957  0.78288155  0.12536176  1
  O  O27  1  0.03037015  0.80548006  0.93533657  1
  O  O28  1  0.08705021  0.99202424  0.18963763  1
  O  O29  1  0.45019274  0.12736867  0.72884315  1
  O  O30  1  0.55891375  0.33577658  0.34781322  1
  O  O31  1  0.31016232  0.48449911  0.07519560  1
  O  O32  1  0.56592451  0.65296820  0.95767728  1
  O  O33  1  0.68347043  0.28288155  0.87463824  1
  O  O34  1  0.18868153  0.51448935  0.40966266  1
  O  O35  1  0.68983768  0.98449911  0.92480440  1
