# generated using pymatgen
data_MgZn2
_symmetry_space_group_name_H-M   'P 1'
_cell_length_a   2.97034275
_cell_length_b   14.79189752
_cell_length_c   4.73431806
_cell_angle_alpha   90.00000000
_cell_angle_beta   90.00000000
_cell_angle_gamma   90.00000000
_symmetry_Int_Tables_number   1
_chemical_formula_structural   MgZn2
_chemical_formula_sum   'Mg4 Zn8'
_cell_volume   208.01175891
_cell_formula_units_Z   4
loop_
 _symmetry_equiv_pos_site_id
 _symmetry_equiv_pos_as_xyz
  1  'x, y, z'
loop_
 _atom_site_type_symbol
 _atom_site_label
 _atom_site_symmetry_multiplicity
 _atom_site_fract_x
 _atom_site_fract_y
 _atom_site_fract_z
 _atom_site_occupancy
  Mg  Mg0  1  0.50000000  0.21627328  0.25000000  1
  Mg  Mg1  1  0.00000000  0.28372672  0.75000000  1
  Mg  Mg2  1  -0.00000000  0.71627328  0.25000000  1
  Mg  Mg3  1  0.50000000  0.78372672  0.75000000  1
  Zn  Zn4  1  -0.00000000  0.39240902  0.25000000  1
  Zn  Zn5  1  0.00000000  0.04889243  0.25000000  1
  Zn  Zn6  1  0.50000000  0.45110757  0.75000000  1
  Zn  Zn7  1  0.50000000  0.10759098  0.75000000  1
  Zn  Zn8  1  0.50000000  0.89240902  0.25000000  1
  Zn  Zn9  1  0.50000000  0.54889243  0.25000000  1
  Zn  Zn10  1  0.00000000  0.95110757  0.75000000  1
  Zn  Zn11  1  0.00000000  0.60759098  0.75000000  1
