# generated using pymatgen
data_Fe2Mo4C
_symmetry_space_group_name_H-M   'P 1'
_cell_length_a   8.00928990
_cell_length_b   8.02267357
_cell_length_c   8.00944300
_cell_angle_alpha   60.05430923
_cell_angle_beta   59.99882623
_cell_angle_gamma   60.05478980
_symmetry_Int_Tables_number   1
_chemical_formula_structural   Fe2Mo4C
_chemical_formula_sum   'Fe8 Mo16 C4'
_cell_volume   364.21194419
_cell_formula_units_Z   4
loop_
 _symmetry_equiv_pos_site_id
 _symmetry_equiv_pos_as_xyz
  1  'x, y, z'
loop_
 _atom_site_type_symbol
 _atom_site_label
 _atom_site_symmetry_multiplicity
 _atom_site_fract_x
 _atom_site_fract_y
 _atom_site_fract_z
 _atom_site_occupancy
  Fe  Fe0  1  0.61878672  0.29385669  0.29367787  1
  Fe  Fe1  1  0.70611051  0.38169174  0.70610014  1
  Fe  Fe2  1  0.38115115  0.70617179  0.70633774  1
  Fe  Fe3  1  0.29364020  0.29381726  0.61889454  1
  Fe  Fe4  1  0.70641213  0.70622271  0.70642391  1
  Fe  Fe5  1  0.29363247  0.29379540  0.29363040  1
  Fe  Fe6  1  0.70637858  0.70620142  0.38102086  1
  Fe  Fe7  1  0.29388105  0.61833179  0.29389290  1
  Mo  Mo8  1  0.49986639  0.50003493  0.00004828  1
  Mo  Mo9  1  0.31382927  0.93607483  0.93626424  1
  Mo  Mo10  1  0.31381016  0.93610948  0.31382065  1
  Mo  Mo11  1  0.06394068  0.68608917  0.68601456  1
  Mo  Mo12  1  0.31399707  0.31392575  0.93605894  1
  Mo  Mo13  1  0.68619967  0.06385688  0.06375000  1
  Mo  Mo14  1  0.06393169  0.68609332  0.06395514  1
  Mo  Mo15  1  0.93627632  0.93599076  0.31387122  1
  Mo  Mo16  1  0.68619653  0.06386841  0.68618478  1
  Mo  Mo17  1  0.49996107  -0.00001111  0.50000266  1
  Mo  Mo18  1  0.93607435  0.31393874  0.93597184  1
  Mo  Mo19  1  0.93611893  0.31391439  0.31399865  1
  Mo  Mo20  1  0.49988164  0.50005822  0.50003285  1
  Mo  Mo21  1  0.68605846  0.68611462  0.06391661  1
  Mo  Mo22  1  0.06373508  0.06385170  0.68620543  1
  Mo  Mo23  1  0.00011041  0.50003348  0.49990987  1
  C  C24  1  0.49998589  0.00004011  -0.00001301  1
  C  C25  1  0.00005323  0.49994537  -0.00000705  1
  C  C26  1  -0.00001131  -0.00001921  0.49996906  1
  C  C27  1  -0.00000833  0.00000136  0.00006692  1
