# generated using pymatgen
data_HoMn4(CuO4)3
_symmetry_space_group_name_H-M   'P 1'
_cell_length_a   6.42882789
_cell_length_b   6.42858121
_cell_length_c   6.42878290
_cell_angle_alpha   109.45365719
_cell_angle_beta   109.45010882
_cell_angle_gamma   109.51090983
_symmetry_Int_Tables_number   1
_chemical_formula_structural   HoMn4(CuO4)3
_chemical_formula_sum   'Ho1 Mn4 Cu3 O12'
_cell_volume   204.52587175
_cell_formula_units_Z   1
loop_
 _symmetry_equiv_pos_site_id
 _symmetry_equiv_pos_as_xyz
  1  'x, y, z'
loop_
 _atom_site_type_symbol
 _atom_site_label
 _atom_site_symmetry_multiplicity
 _atom_site_fract_x
 _atom_site_fract_y
 _atom_site_fract_z
 _atom_site_occupancy
  Ho  Ho0  1  0.00000564  0.99998931  0.00000173  1
  Mn  Mn1  1  0.99999907  0.00000254  0.50000024  1
  Mn  Mn2  1  0.50000414  0.00000491  0.99999909  1
  Mn  Mn3  1  0.49999479  0.49999873  0.49999811  1
  Mn  Mn4  1  0.99999683  0.49999393  0.00000089  1
  Cu  Cu5  1  0.50000001  0.00000086  0.49999741  1
  Cu  Cu6  1  0.49999965  0.49999829  0.99999698  1
  Cu  Cu7  1  0.00000417  0.50000644  0.50000455  1
  O  O8  1  0.16915048  0.30132062  0.47047660  1
  O  O9  1  0.16916225  0.69868660  0.86783036  1
  O  O10  1  0.30040534  0.47020118  0.16980979  1
  O  O11  1  0.83084931  0.69868038  0.52952531  1
  O  O12  1  0.69959526  0.52979883  0.83018968  1
  O  O13  1  0.86845376  0.16933326  0.69909486  1
  O  O14  1  0.83083818  0.30131878  0.13217594  1
  O  O15  1  0.47023813  0.16933992  0.30088797  1
  O  O16  1  0.52976085  0.83065937  0.69911026  1
  O  O17  1  0.13154422  0.83066795  0.30090243  1
  O  O18  1  0.30039088  0.13057993  0.83019386  1
  O  O19  1  0.69960704  0.86941815  0.16980393  1
