# generated using pymatgen
data_MoPCl8O
_symmetry_space_group_name_H-M   'P 1'
_cell_length_a   8.42119953
_cell_length_b   9.30231395
_cell_length_c   17.23894500
_cell_angle_alpha   90.00000000
_cell_angle_beta   90.00000000
_cell_angle_gamma   90.00000000
_symmetry_Int_Tables_number   1
_chemical_formula_structural   MoPCl8O
_chemical_formula_sum   'Mo4 P4 Cl32 O4'
_cell_volume   1350.44106057
_cell_formula_units_Z   4
loop_
 _symmetry_equiv_pos_site_id
 _symmetry_equiv_pos_as_xyz
  1  'x, y, z'
loop_
 _atom_site_type_symbol
 _atom_site_label
 _atom_site_symmetry_multiplicity
 _atom_site_fract_x
 _atom_site_fract_y
 _atom_site_fract_z
 _atom_site_occupancy
  Mo  Mo0  1  0.75000000  0.07804101  0.85300580  1
  Mo  Mo1  1  0.25000000  0.92195899  0.14699420  1
  Mo  Mo2  1  0.25000000  0.57804101  0.64699420  1
  Mo  Mo3  1  0.75000000  0.42195899  0.35300580  1
  P  P4  1  0.75000000  0.71886635  0.92384387  1
  P  P5  1  0.25000000  0.21886635  0.57615613  1
  P  P6  1  0.25000000  0.28113365  0.07615613  1
  P  P7  1  0.75000000  0.78113365  0.42384387  1
  Cl  Cl8  1  0.47827994  0.05012263  0.86154878  1
  Cl  Cl9  1  0.25000000  0.43316233  0.76118799  1
  Cl  Cl10  1  0.25000000  0.71745063  0.22114439  1
  Cl  Cl11  1  0.47827994  0.44987737  0.36154878  1
  Cl  Cl12  1  0.25000000  0.06683767  0.26118799  1
  Cl  Cl13  1  0.25000000  0.71522580  0.53224952  1
  Cl  Cl14  1  0.75000000  0.93316233  0.73881201  1
  Cl  Cl15  1  0.25000000  0.78477420  0.03224952  1
  Cl  Cl16  1  0.56158912  0.63547386  0.87153726  1
  Cl  Cl17  1  0.02172006  0.05012263  0.86154878  1
  Cl  Cl18  1  0.06158912  0.13547386  0.62846274  1
  Cl  Cl19  1  0.75000000  0.28477420  0.46775048  1
  Cl  Cl20  1  0.75000000  0.56683767  0.23881201  1
  Cl  Cl21  1  0.75000000  0.85843816  0.53105541  1
  Cl  Cl22  1  0.06158912  0.36452614  0.12846274  1
  Cl  Cl23  1  0.75000000  0.21745063  0.27885561  1
  Cl  Cl24  1  0.25000000  0.35843816  0.96894459  1
  Cl  Cl25  1  0.02172006  0.44987737  0.36154878  1
  Cl  Cl26  1  0.97827994  0.94987737  0.13845122  1
  Cl  Cl27  1  0.75000000  0.64156184  0.03105541  1
  Cl  Cl28  1  0.52172006  0.55012263  0.63845122  1
  Cl  Cl29  1  0.93841088  0.86452614  0.37153726  1
  Cl  Cl30  1  0.93841088  0.63547386  0.87153726  1
  Cl  Cl31  1  0.43841088  0.36452614  0.12846274  1
  Cl  Cl32  1  0.97827994  0.55012263  0.63845122  1
  Cl  Cl33  1  0.56158912  0.86452614  0.37153726  1
  Cl  Cl34  1  0.75000000  0.28254937  0.77885561  1
  Cl  Cl35  1  0.75000000  0.21522580  0.96775048  1
  Cl  Cl36  1  0.52172006  0.94987737  0.13845122  1
  Cl  Cl37  1  0.25000000  0.14156184  0.46894459  1
  Cl  Cl38  1  0.25000000  0.78254937  0.72114439  1
  Cl  Cl39  1  0.43841088  0.13547386  0.62846274  1
  O  O40  1  0.75000000  0.87932484  0.92555559  1
  O  O41  1  0.25000000  0.12067516  0.07444441  1
  O  O42  1  0.25000000  0.37932484  0.57444441  1
  O  O43  1  0.75000000  0.62067516  0.42555559  1
