# generated using pymatgen
data_Tl2Te3
_symmetry_space_group_name_H-M   'P 1'
_cell_length_a   6.95593480
_cell_length_b   6.94453855
_cell_length_c   11.12784797
_cell_angle_alpha   121.78007126
_cell_angle_beta   90.00000037
_cell_angle_gamma   120.05429791
_symmetry_Int_Tables_number   1
_chemical_formula_structural   Tl2Te3
_chemical_formula_sum   'Tl4 Te6'
_cell_volume   369.22635438
_cell_formula_units_Z   2
loop_
 _symmetry_equiv_pos_site_id
 _symmetry_equiv_pos_as_xyz
  1  'x, y, z'
loop_
 _atom_site_type_symbol
 _atom_site_label
 _atom_site_symmetry_multiplicity
 _atom_site_fract_x
 _atom_site_fract_y
 _atom_site_fract_z
 _atom_site_occupancy
  Tl  Tl0  1  0.13424171  0.89753987  0.46776455  1
  Tl  Tl1  1  0.76329817  0.89753987  0.96776455  1
  Tl  Tl2  1  0.73798850  0.19829920  0.69438542  1
  Tl  Tl3  1  0.46031070  0.19829920  0.19438542  1
  Te  Te4  1  0.23753407  0.41453929  0.97731882  1
  Te  Te5  1  0.17700522  0.41453929  0.47731882  1
  Te  Te6  1  0.66752834  0.58754000  0.59442325  1
  Te  Te7  1  0.92001167  0.58754000  0.09442325  1
  Te  Te8  1  0.18662696  0.83008164  0.75510796  1
  Te  Te9  1  0.64345468  0.83008164  0.25510796  1
