# generated using pymatgen
data_Ni19Se20
_symmetry_space_group_name_H-M   'P 1'
_cell_length_a   7.41592834
_cell_length_b   18.55279417
_cell_length_c   9.06907979
_cell_angle_alpha   34.83068269
_cell_angle_beta   114.45545373
_cell_angle_gamma   120.12160739
_symmetry_Int_Tables_number   1
_chemical_formula_structural   Ni19Se20
_chemical_formula_sum   'Ni19 Se20'
_cell_volume   616.43045525
_cell_formula_units_Z   1
loop_
 _symmetry_equiv_pos_site_id
 _symmetry_equiv_pos_as_xyz
  1  'x, y, z'
loop_
 _atom_site_type_symbol
 _atom_site_label
 _atom_site_symmetry_multiplicity
 _atom_site_fract_x
 _atom_site_fract_y
 _atom_site_fract_z
 _atom_site_occupancy
  Ni  Ni0  1  0.50000000  -0.00000000  0.50000000  1
  Ni  Ni1  1  0.49207823  0.79422517  0.49817558  1
  Ni  Ni2  1  -0.00000000  -0.00000000  0.50000000  1
  Ni  Ni3  1  0.49539014  0.60126849  0.50148144  1
  Ni  Ni4  1  0.50794998  0.80238405  0.00027457  1
  Ni  Ni5  1  0.99910432  0.81037466  0.47041492  1
  Ni  Ni6  1  0.50460986  0.39873151  0.49851856  1
  Ni  Ni7  1  0.49910189  0.60203376  0.99775870  1
  Ni  Ni8  1  0.00781797  0.59944107  0.50510872  1
  Ni  Ni9  1  0.99694748  0.80235264  0.99900116  1
  Ni  Ni10  1  0.50792177  0.20577483  0.50182442  1
  Ni  Ni11  1  0.50089811  0.39796624  0.00224130  1
  Ni  Ni12  1  0.00129264  0.60383927  0.98817332  1
  Ni  Ni13  1  0.99218203  0.40055893  0.49489128  1
  Ni  Ni14  1  0.49205002  0.19761595  0.99972543  1
  Ni  Ni15  1  0.99870736  0.39616073  0.01182668  1
  Ni  Ni16  1  0.00089568  0.18962534  0.52958508  1
  Ni  Ni17  1  0.50000000  -0.00000000  0.00000000  1
  Ni  Ni18  1  0.00305252  0.19764736  0.00099884  1
  Se  Se19  1  0.33601693  0.96638595  0.75551255  1
  Se  Se20  1  0.33279151  0.76956408  0.74036625  1
  Se  Se21  1  0.16613851  0.83040717  0.25249850  1
  Se  Se22  1  0.83214100  0.96931380  0.74105067  1
  Se  Se23  1  0.33001764  0.55907440  0.76495097  1
  Se  Se24  1  0.16546223  0.63416234  0.24560810  1
  Se  Se25  1  0.83242663  0.77004224  0.73960090  1
  Se  Se26  1  0.33462162  0.36667579  0.75184902  1
  Se  Se27  1  0.66452269  0.83047734  0.25350928  1
  Se  Se28  1  0.16516225  0.43110770  0.25529004  1
  Se  Se29  1  0.66537838  0.63332421  0.24815098  1
  Se  Se30  1  0.83483775  0.56889230  0.74470996  1
  Se  Se31  1  0.33547731  0.16952266  0.74649072  1
  Se  Se32  1  0.16757337  0.22995776  0.26039910  1
  Se  Se33  1  0.83453777  0.36583766  0.75439190  1
  Se  Se34  1  0.66998236  0.44092560  0.23504903  1
  Se  Se35  1  0.16785900  0.03068620  0.25894933  1
  Se  Se36  1  0.83386149  0.16959283  0.74750150  1
  Se  Se37  1  0.66720849  0.23043592  0.25963375  1
  Se  Se38  1  0.66398307  0.03361405  0.24448745  1
