# generated using pymatgen
data_Y2Ti2O7
_symmetry_space_group_name_H-M   'P 1'
_cell_length_a   7.25654109
_cell_length_b   7.16149600
_cell_length_c   28.88328531
_cell_angle_alpha   60.27141142
_cell_angle_beta   60.50932738
_cell_angle_gamma   60.43234085
_symmetry_Int_Tables_number   1
_chemical_formula_structural   Y2Ti2O7
_chemical_formula_sum   'Y16 Ti16 O56'
_cell_volume   1071.06141937
_cell_formula_units_Z   8
loop_
 _symmetry_equiv_pos_site_id
 _symmetry_equiv_pos_as_xyz
  1  'x, y, z'
loop_
 _atom_site_type_symbol
 _atom_site_label
 _atom_site_symmetry_multiplicity
 _atom_site_fract_x
 _atom_site_fract_y
 _atom_site_fract_z
 _atom_site_occupancy
  Y  Y0  1  0.03254113  0.99456692  0.99574855  1
  Y  Y1  1  0.03254113  0.48989875  0.99574855  1
  Y  Y2  1  0.51438692  0.98075395  0.00602629  1
  Y  Y3  1  0.04471928  0.47753781  0.12505102  1
  Y  Y4  1  0.00000000  0.50000000  0.25000000  1
  Y  Y5  1  0.95528072  0.52246219  0.37494898  1
  Y  Y6  1  0.00000000  0.00000000  0.25000000  1
  Y  Y7  1  0.96745887  0.51010125  0.50425145  1
  Y  Y8  1  0.50000000  0.00000000  0.25000000  1
  Y  Y9  1  0.96745887  0.00543308  0.50425145  1
  Y  Y10  1  0.00000000  0.50000000  0.75000000  1
  Y  Y11  1  0.48561308  0.01924605  0.49397371  1
  Y  Y12  1  0.00000000  0.00000000  0.75000000  1
  Y  Y13  1  0.99736765  0.00170045  0.87480786  1
  Y  Y14  1  0.50000000  0.00000000  0.75000000  1
  Y  Y15  1  0.00263235  0.99829955  0.62519214  1
  Ti  Ti16  1  0.01270052  0.98987461  0.12688706  1
  Ti  Ti17  1  0.51689451  0.49122955  0.12401119  1
  Ti  Ti18  1  0.50000000  0.50000000  0.25000000  1
  Ti  Ti19  1  0.51689451  0.99583316  0.12401119  1
  Ti  Ti20  1  0.98729948  0.01012539  0.37311294  1
  Ti  Ti21  1  0.48310549  0.50877045  0.37598881  1
  Ti  Ti22  1  0.99325934  0.50101923  0.62617555  1
  Ti  Ti23  1  0.48607023  0.50110085  0.50293227  1
  Ti  Ti24  1  0.48310549  0.00416684  0.37598881  1
  Ti  Ti25  1  0.49384711  0.50083300  0.62596103  1
  Ti  Ti26  1  0.00674066  0.49898077  0.87382445  1
  Ti  Ti27  1  0.50000000  0.50000000  0.75000000  1
  Ti  Ti28  1  0.49384711  0.00147475  0.62596103  1
  Ti  Ti29  1  0.50615289  0.49916700  0.87403897  1
  Ti  Ti30  1  0.50615289  0.99852525  0.87403897  1
  Ti  Ti31  1  0.51392977  0.49889915  0.99706773  1
  O  O32  1  0.14484204  0.10185921  0.03786039  1
  O  O33  1  0.16600409  0.08902035  0.14238797  1
  O  O34  1  0.15143633  0.60546350  0.03440917  1
  O  O35  1  0.55403621  0.18399562  0.04300266  1
  O  O36  1  0.13806746  0.10691619  0.28702454  1
  O  O37  1  0.16600409  0.67542169  0.14238797  1
  O  O38  1  0.55403621  0.58995853  0.04300266  1
  O  O39  1  0.39122172  0.26415355  0.14511754  1
  O  O40  1  0.55006645  0.77582488  0.09957044  1
  O  O41  1  0.17844380  0.09202258  0.38987016  1
  O  O42  1  0.44064438  0.40721650  0.20590555  1
  O  O43  1  0.15599650  0.60352465  0.28423830  1
  O  O44  1  0.82155620  0.32994400  0.11012984  1
  O  O45  1  0.55935562  0.17148310  0.29409445  1
  O  O46  1  0.11759760  0.12615603  0.53252234  1
  O  O47  1  0.44064438  0.82851690  0.20590555  1
  O  O48  1  0.17844380  0.67005600  0.38987016  1
  O  O49  1  0.55935562  0.59278350  0.29409445  1
  O  O50  1  0.82155620  0.90797742  0.11012984  1
  O  O51  1  0.44993355  0.22417512  0.40042956  1
  O  O52  1  0.84400350  0.39647535  0.21576170  1
  O  O53  1  0.17055084  0.17116207  0.64505054  1
  O  O54  1  0.60877828  0.73584645  0.35488246  1
  O  O55  1  0.44596379  0.41004147  0.45699734  1
  O  O56  1  0.16814253  0.58296852  0.54148011  1
  O  O57  1  0.83399591  0.32457831  0.35761203  1
  O  O58  1  0.57485393  0.16705125  0.54505056  1
  O  O59  1  0.86193254  0.89308381  0.21297546  1
  O  O60  1  0.12634318  0.12456959  0.78112941  1
  O  O61  1  0.44596379  0.81600438  0.45699734  1
  O  O62  1  0.17055084  0.57808493  0.64505054  1
  O  O63  1  0.57990698  0.16806531  0.64599060  1
  O  O64  1  0.57485393  0.57789059  0.54505056  1
  O  O65  1  0.83399591  0.91097965  0.35761203  1
  O  O66  1  0.84856367  0.39453650  0.46559083  1
  O  O67  1  0.17145811  0.17194031  0.89469601  1
  O  O68  1  0.41829643  0.82510099  0.60787540  1
  O  O69  1  0.41791466  0.42092819  0.70811870  1
  O  O70  1  0.17132750  0.57793598  0.79320013  1
  O  O71  1  0.82854189  0.42218247  0.60530399  1
  O  O72  1  0.58208534  0.17131863  0.79188130  1
  O  O73  1  0.85515796  0.89814079  0.46213961  1
  O  O74  1  0.41791466  0.82868137  0.70811870  1
  O  O75  1  0.17145811  0.57781753  0.89469601  1
  O  O76  1  0.58208534  0.57907181  0.79188130  1
  O  O77  1  0.58170357  0.17489901  0.89212460  1
  O  O78  1  0.82867250  0.42206402  0.70679987  1
  O  O79  1  0.82854189  0.82805969  0.60530399  1
  O  O80  1  0.42514607  0.42210941  0.95494944  1
  O  O81  1  0.42009302  0.83193469  0.85400940  1
  O  O82  1  0.87365682  0.87543041  0.71887059  1
  O  O83  1  0.82944916  0.42191507  0.85494946  1
  O  O84  1  0.42514607  0.83294875  0.95494944  1
  O  O85  1  0.82944916  0.82883793  0.85494946  1
  O  O86  1  0.83185747  0.41703148  0.95851989  1
  O  O87  1  0.88240240  0.87384397  0.96747766  1
