# generated using pymatgen
data_Ag8GeTe6
_symmetry_space_group_name_H-M   'P 1'
_cell_length_a   8.38436656
_cell_length_b   8.36228307
_cell_length_c   16.83328067
_cell_angle_alpha   60.00385177
_cell_angle_beta   60.35929473
_cell_angle_gamma   60.39533652
_symmetry_Int_Tables_number   1
_chemical_formula_structural   Ag8GeTe6
_chemical_formula_sum   'Ag16 Ge2 Te12'
_cell_volume   839.29574217
_cell_formula_units_Z   2
loop_
 _symmetry_equiv_pos_site_id
 _symmetry_equiv_pos_as_xyz
  1  'x, y, z'
loop_
 _atom_site_type_symbol
 _atom_site_label
 _atom_site_symmetry_multiplicity
 _atom_site_fract_x
 _atom_site_fract_y
 _atom_site_fract_z
 _atom_site_occupancy
  Ag  Ag0  1  0.47209049  0.38748454  0.09208316  1
  Ag  Ag1  1  0.32440413  0.02625377  0.50265176  1
  Ag  Ag2  1  0.23066007  0.85381001  0.33682751  1
  Ag  Ag3  1  0.86664735  0.23398564  0.10194031  1
  Ag  Ag4  1  0.60570591  0.24703565  0.45982193  1
  Ag  Ag5  1  0.58903600  0.95224524  0.14753358  1
  Ag  Ag6  1  0.36350146  0.41374230  0.68498471  1
  Ag  Ag7  1  0.93957413  0.23576511  0.29897313  1
  Ag  Ag8  1  0.93505103  0.61345154  0.13612413  1
  Ag  Ag9  1  0.24734819  0.58006957  0.96151060  1
  Ag  Ag10  1  0.24785606  0.92706529  0.79209721  1
  Ag  Ag11  1  0.92468670  0.22606334  0.60496509  1
  Ag  Ag12  1  0.59802642  0.19108057  0.95449229  1
  Ag  Ag13  1  0.61769803  0.90996317  0.63072811  1
  Ag  Ag14  1  0.92271981  0.27040208  0.79367017  1
  Ag  Ag15  1  0.97071784  0.62017950  0.58127408  1
  Ge  Ge16  1  0.79545477  0.75313817  0.36776485  1
  Ge  Ge17  1  0.76899825  0.75722746  0.87292129  1
  Te  Te18  1  0.96760651  0.99935860  0.99631421  1
  Te  Te19  1  0.21985283  0.22097537  0.11940864  1
  Te  Te20  1  0.99087273  0.00887958  0.49468320  1
  Te  Te21  1  0.16051147  0.61065305  0.30079468  1
  Te  Te22  1  0.63234641  0.63917505  0.06242603  1
  Te  Te23  1  0.25325758  0.25372386  0.61696312  1
  Te  Te24  1  0.62116085  0.13302279  0.31305762  1
  Te  Te25  1  0.62969943  0.62856098  0.32084329  1
  Te  Te26  1  0.14431528  0.62920466  0.81012888  1
  Te  Te27  1  0.62931669  0.64173366  0.55956356  1
  Te  Te28  1  0.63783876  0.13838908  0.79243227  1
  Te  Te29  1  0.62704481  0.62736039  0.81702057  1
