# generated using pymatgen
data_Np3Se3O13
_symmetry_space_group_name_H-M   'P 1'
_cell_length_a   10.78558671
_cell_length_b   12.14274880
_cell_length_c   18.02809374
_cell_angle_alpha   90.00000000
_cell_angle_beta   90.00000000
_cell_angle_gamma   90.00000000
_symmetry_Int_Tables_number   1
_chemical_formula_structural   Np3Se3O13
_chemical_formula_sum   'Np24 Se24 O104'
_cell_volume   2361.07940502
_cell_formula_units_Z   8
loop_
 _symmetry_equiv_pos_site_id
 _symmetry_equiv_pos_as_xyz
  1  'x, y, z'
loop_
 _atom_site_type_symbol
 _atom_site_label
 _atom_site_symmetry_multiplicity
 _atom_site_fract_x
 _atom_site_fract_y
 _atom_site_fract_z
 _atom_site_occupancy
  Np  Np0  1  0.75089814  0.58737208  0.57770397  1
  Np  Np1  1  0.98987083  0.42894578  0.26118540  1
  Np  Np2  1  0.01012917  0.57105422  0.73881460  1
  Np  Np3  1  0.99386738  0.16389900  0.40136773  1
  Np  Np4  1  0.74910186  0.41262792  0.07770397  1
  Np  Np5  1  0.24910186  0.41262792  0.42229603  1
  Np  Np6  1  0.48987083  0.42894578  0.23881460  1
  Np  Np7  1  0.51012917  0.57105422  0.76118540  1
  Np  Np8  1  0.49386738  0.16389900  0.09863227  1
  Np  Np9  1  0.00613262  0.83610100  0.59863227  1
  Np  Np10  1  0.25089814  0.58737208  0.92229603  1
  Np  Np11  1  0.25089814  0.91262792  0.42229603  1
  Np  Np12  1  0.98987083  0.07105422  0.76118540  1
  Np  Np13  1  0.01012917  0.92894578  0.23881460  1
  Np  Np14  1  0.99386738  0.33610100  0.90136773  1
  Np  Np15  1  0.48987083  0.07105422  0.73881460  1
  Np  Np16  1  0.50613262  0.83610100  0.90136773  1
  Np  Np17  1  0.49386738  0.33610100  0.59863227  1
  Np  Np18  1  0.75089814  0.91262792  0.07770397  1
  Np  Np19  1  0.51012917  0.92894578  0.26118540  1
  Np  Np20  1  0.24910186  0.08737208  0.92229603  1
  Np  Np21  1  0.74910186  0.08737208  0.57770397  1
  Np  Np22  1  0.50613262  0.66389900  0.40136773  1
  Np  Np23  1  0.00613262  0.66389900  0.09863227  1
  Se  Se24  1  0.52675801  0.66022664  0.05344376  1
  Se  Se25  1  0.27544673  0.96239225  0.10689059  1
  Se  Se26  1  0.97324199  0.16022664  0.05344376  1
  Se  Se27  1  0.77544673  0.53760775  0.89310941  1
  Se  Se28  1  0.77544673  0.96239225  0.39310941  1
  Se  Se29  1  0.20430628  0.30300568  0.76749712  1
  Se  Se30  1  0.70430628  0.19699432  0.23250288  1
  Se  Se31  1  0.47324199  0.33977336  0.94655624  1
  Se  Se32  1  0.22455327  0.46239225  0.10689059  1
  Se  Se33  1  0.29569372  0.69699432  0.26749712  1
  Se  Se34  1  0.02675801  0.83977336  0.94655624  1
  Se  Se35  1  0.52675801  0.83977336  0.55344376  1
  Se  Se36  1  0.47324199  0.16022664  0.44655624  1
  Se  Se37  1  0.79569372  0.80300568  0.73250288  1
  Se  Se38  1  0.29569372  0.80300568  0.76749712  1
  Se  Se39  1  0.70430628  0.30300568  0.73250288  1
  Se  Se40  1  0.97324199  0.33977336  0.55344376  1
  Se  Se41  1  0.22455327  0.03760775  0.60689059  1
  Se  Se42  1  0.27544673  0.53760775  0.60689059  1
  Se  Se43  1  0.02675801  0.66022664  0.44655624  1
  Se  Se44  1  0.72455327  0.46239225  0.39310941  1
  Se  Se45  1  0.79569372  0.69699432  0.23250288  1
  Se  Se46  1  0.20430628  0.19699432  0.26749712  1
  Se  Se47  1  0.72455327  0.03760775  0.89310941  1
  O  O48  1  0.29373202  0.07898291  0.05068742  1
  O  O49  1  0.18905037  0.25325646  0.85996953  1
  O  O50  1  0.63453145  0.20322237  0.78384962  1
  O  O51  1  0.13453145  0.29677763  0.21615038  1
  O  O52  1  0.89381269  0.48843434  0.83458462  1
  O  O53  1  0.91435525  0.22435883  0.84507359  1
  O  O54  1  0.90495646  0.55069705  0.05811028  1
  O  O55  1  0.58564475  0.72435883  0.84507359  1
  O  O56  1  0.10618731  0.51156566  0.16541538  1
  O  O57  1  0.36556719  0.43378884  0.97552695  1
  O  O58  1  0.58564475  0.77564117  0.34507359  1
  O  O59  1  0.14756518  0.00371314  0.15436742  1
  O  O60  1  0.37311551  0.11777902  0.81164985  1
  O  O61  1  0.40152674  0.28565926  0.46806849  1
  O  O62  1  0.07469498  0.17329901  0.97672078  1
  O  O63  1  0.92141196  0.89124581  0.71812967  1
  O  O64  1  0.85243482  0.50371314  0.34563258  1
  O  O65  1  0.79373202  0.42101709  0.94931258  1
  O  O66  1  0.36556719  0.06621116  0.47552695  1
  O  O67  1  0.59847326  0.71434074  0.53193151  1
  O  O68  1  0.88424724  0.97709191  0.17021310  1
  O  O69  1  0.36546855  0.79677763  0.21615038  1
  O  O70  1  0.40495646  0.94930295  0.94188972  1
  O  O71  1  0.64756518  0.00371314  0.34563258  1
  O  O72  1  0.57469498  0.32670099  0.02327922  1
  O  O73  1  0.14756518  0.49628686  0.65436742  1
  O  O74  1  0.09504354  0.44930295  0.94188972  1
  O  O75  1  0.90495646  0.94930295  0.55811028  1
  O  O76  1  0.10618731  0.98843434  0.66541538  1
  O  O77  1  0.29373202  0.42101709  0.55068742  1
  O  O78  1  0.20626798  0.57898291  0.05068742  1
  O  O79  1  0.62688449  0.61777902  0.68835015  1
  O  O80  1  0.20626798  0.92101709  0.55068742  1
  O  O81  1  0.39381269  0.01156566  0.16541538  1
  O  O82  1  0.57858804  0.39124581  0.71812967  1
  O  O83  1  0.59847326  0.78565926  0.03193151  1
  O  O84  1  0.09847326  0.71434074  0.96806849  1
  O  O85  1  0.38424724  0.97709191  0.32978690  1
  O  O86  1  0.70626798  0.92101709  0.94931258  1
  O  O87  1  0.63443281  0.56621116  0.02447305  1
  O  O88  1  0.81094963  0.74674354  0.14003047  1
  O  O89  1  0.35243482  0.99628686  0.65436742  1
  O  O90  1  0.87311551  0.38222098  0.18835015  1
  O  O91  1  0.57858804  0.10875419  0.21812967  1
  O  O92  1  0.40495646  0.55069705  0.44188972  1
  O  O93  1  0.92141196  0.60875419  0.21812967  1
  O  O94  1  0.13443281  0.93378884  0.97552695  1
  O  O95  1  0.13443281  0.56621116  0.47552695  1
  O  O96  1  0.81094963  0.75325646  0.64003047  1
  O  O97  1  0.57469498  0.17329901  0.52327922  1
  O  O98  1  0.31094963  0.74674354  0.35996953  1
  O  O99  1  0.38424724  0.52290809  0.82978690  1
  O  O100  1  0.60618731  0.98843434  0.83458462  1
  O  O101  1  0.18905037  0.24674354  0.35996953  1
  O  O102  1  0.42530502  0.67329901  0.97672078  1
  O  O103  1  0.90152674  0.21434074  0.53193151  1
  O  O104  1  0.86556719  0.43378884  0.52447305  1
  O  O105  1  0.36546855  0.70322237  0.71615038  1
  O  O106  1  0.09504354  0.05069705  0.44188972  1
  O  O107  1  0.87311551  0.11777902  0.68835015  1
  O  O108  1  0.92530502  0.82670099  0.02327922  1
  O  O109  1  0.64756518  0.49628686  0.84563258  1
  O  O110  1  0.11575276  0.47709191  0.32978690  1
  O  O111  1  0.59504354  0.44930295  0.55811028  1
  O  O112  1  0.63443281  0.93378884  0.52447305  1
  O  O113  1  0.41435525  0.27564117  0.15492641  1
  O  O114  1  0.89381269  0.01156566  0.33458462  1
  O  O115  1  0.13453145  0.20322237  0.71615038  1
  O  O116  1  0.12688449  0.88222098  0.31164985  1
  O  O117  1  0.42530502  0.82670099  0.47672078  1
  O  O118  1  0.92530502  0.67329901  0.52327922  1
  O  O119  1  0.59504354  0.05069705  0.05811028  1
  O  O120  1  0.63453145  0.29677763  0.28384962  1
  O  O121  1  0.35243482  0.50371314  0.15436742  1
  O  O122  1  0.31094963  0.75325646  0.85996953  1
  O  O123  1  0.12688449  0.61777902  0.81164985  1
  O  O124  1  0.42141196  0.89124581  0.78187033  1
  O  O125  1  0.40152674  0.21434074  0.96806849  1
  O  O126  1  0.62688449  0.88222098  0.18835015  1
  O  O127  1  0.90152674  0.28565926  0.03193151  1
  O  O128  1  0.07858804  0.10875419  0.28187033  1
  O  O129  1  0.08564475  0.77564117  0.15492641  1
  O  O130  1  0.60618731  0.51156566  0.33458462  1
  O  O131  1  0.68905037  0.25325646  0.64003047  1
  O  O132  1  0.37311551  0.38222098  0.31164985  1
  O  O133  1  0.79373202  0.07898291  0.44931258  1
  O  O134  1  0.42141196  0.60875419  0.28187033  1
  O  O135  1  0.70626798  0.57898291  0.44931258  1
  O  O136  1  0.61575276  0.47709191  0.17021310  1
  O  O137  1  0.08564475  0.72435883  0.65492641  1
  O  O138  1  0.07469498  0.32670099  0.47672078  1
  O  O139  1  0.39381269  0.48843434  0.66541538  1
  O  O140  1  0.07858804  0.39124581  0.78187033  1
  O  O141  1  0.88424724  0.52290809  0.67021310  1
  O  O142  1  0.86556719  0.06621116  0.02447305  1
  O  O143  1  0.85243482  0.99628686  0.84563258  1
  O  O144  1  0.09847326  0.78565926  0.46806849  1
  O  O145  1  0.11575276  0.02290809  0.82978690  1
  O  O146  1  0.68905037  0.24674354  0.14003047  1
  O  O147  1  0.91435525  0.27564117  0.34507359  1
  O  O148  1  0.86546855  0.79677763  0.28384962  1
  O  O149  1  0.61575276  0.02290809  0.67021310  1
  O  O150  1  0.86546855  0.70322237  0.78384962  1
  O  O151  1  0.41435525  0.22435883  0.65492641  1
