# generated using pymatgen
data_Er2S3
_symmetry_space_group_name_H-M   'P 1'
_cell_length_a   21.41677473
_cell_length_b   8.24976716
_cell_length_c   8.24976763
_cell_angle_alpha   90.00000000
_cell_angle_beta   54.70391751
_cell_angle_gamma   54.70391756
_symmetry_Int_Tables_number   1
_chemical_formula_structural   Er2S3
_chemical_formula_sum   'Er16 S24'
_cell_volume   840.22613392
_cell_formula_units_Z   8
loop_
 _symmetry_equiv_pos_site_id
 _symmetry_equiv_pos_as_xyz
  1  'x, y, z'
loop_
 _atom_site_type_symbol
 _atom_site_label
 _atom_site_symmetry_multiplicity
 _atom_site_fract_x
 _atom_site_fract_y
 _atom_site_fract_z
 _atom_site_occupancy
  Er  Er0  1  0.99514781  0.39521559  0.24832958  1
  Er  Er1  1  0.08301879  0.62547131  0.37547131  1
  Er  Er2  1  0.16666700  0.25000000  0.63193839  1
  Er  Er3  1  0.25031421  0.87452869  0.12452869  1
  Er  Er4  1  0.33818519  0.38065902  0.25167042  1
  Er  Er5  1  0.33818519  0.10478441  0.73377301  1
  Er  Er6  1  0.16666700  0.75000000  0.86806161  1
  Er  Er7  1  0.49514781  0.26622699  0.61934098  1
  Er  Er8  1  0.66666700  0.36806161  0.25000000  1
  Er  Er9  1  0.58301879  0.87547131  0.12547131  1
  Er  Er10  1  0.49514781  0.74832958  0.89521559  1
  Er  Er11  1  0.66666700  0.13193839  0.75000000  1
  Er  Er12  1  0.75031421  0.62452869  0.37452869  1
  Er  Er13  1  0.83818519  0.23377301  0.60478441  1
  Er  Er14  1  0.83818519  0.75167042  0.88065902  1
  Er  Er15  1  0.99514781  0.11934098  0.76622699  1
  S  S16  1  0.04772108  0.99856992  0.36214491  1
  S  S17  1  0.12742867  0.48921425  0.99289195  1
  S  S18  1  0.04772108  0.35826584  0.49469085  1
  S  S19  1  0.28561192  0.14173416  0.13785509  1
  S  S20  1  0.28561192  0.50143008  0.00530915  1
  S  S21  1  0.12742867  0.62849872  0.62482103  1
  S  S22  1  0.38156039  0.00420936  0.34867798  1
  S  S23  1  0.20590433  0.87150128  0.50710805  1
  S  S24  1  0.45177361  0.49335816  0.99579064  1
  S  S25  1  0.38156039  0.35111047  0.50664184  1
  S  S26  1  0.20590433  0.01078575  0.87517897  1
  S  S27  1  0.62742867  0.12482103  0.12849872  1
  S  S28  1  0.62742867  0.49289195  0.98921425  1
  S  S29  1  0.45177361  0.65132202  0.64888953  1
  S  S30  1  0.70590433  0.00710805  0.37150128  1
  S  S31  1  0.54772108  0.86214491  0.49856992  1
  S  S32  1  0.78561192  0.50530915  0.00143008  1
  S  S33  1  0.70590433  0.37517897  0.51078575  1
  S  S34  1  0.54772108  0.99469085  0.85826584  1
  S  S35  1  0.95177361  0.14888953  0.15132202  1
  S  S36  1  0.95177361  0.49579064  0.99335816  1
  S  S37  1  0.78561192  0.63785509  0.64173416  1
  S  S38  1  0.88156039  0.84867798  0.50420936  1
  S  S39  1  0.88156039  0.00664184  0.85111047  1
