# generated using pymatgen
data_Ca4Al6O13
_symmetry_space_group_name_H-M   'P 1'
_cell_length_a   5.34296994
_cell_length_b   17.89883319
_cell_length_c   21.28523982
_cell_angle_alpha   90.00000000
_cell_angle_beta   90.00000000
_cell_angle_gamma   90.00000000
_symmetry_Int_Tables_number   1
_chemical_formula_structural   Ca4Al6O13
_chemical_formula_sum   'Ca32 Al48 O104'
_cell_volume   2035.56980068
_cell_formula_units_Z   8
loop_
 _symmetry_equiv_pos_site_id
 _symmetry_equiv_pos_as_xyz
  1  'x, y, z'
loop_
 _atom_site_type_symbol
 _atom_site_label
 _atom_site_symmetry_multiplicity
 _atom_site_fract_x
 _atom_site_fract_y
 _atom_site_fract_z
 _atom_site_occupancy
  Ca  Ca0  1  0.47720153  0.08687886  0.49429336  1
  Ca  Ca1  1  0.02279847  0.58687886  0.50570664  1
  Ca  Ca2  1  0.52976625  0.08702227  0.75629015  1
  Ca  Ca3  1  0.51021387  0.58272887  0.12470785  1
  Ca  Ca4  1  0.98978613  0.91727113  0.62470785  1
  Ca  Ca5  1  0.00696862  0.09815399  0.62492103  1
  Ca  Ca6  1  0.52279847  0.08687886  0.99429336  1
  Ca  Ca7  1  0.49303138  0.59815399  0.37507897  1
  Ca  Ca8  1  0.99303138  0.09815399  0.12492103  1
  Ca  Ca9  1  0.48978613  0.58272887  0.62470785  1
  Ca  Ca10  1  0.98978613  0.08272887  0.87529215  1
  Ca  Ca11  1  0.52976625  0.91297773  0.74370985  1
  Ca  Ca12  1  0.47023375  0.08702227  0.25629015  1
  Ca  Ca13  1  0.02279847  0.41312114  0.99429336  1
  Ca  Ca14  1  0.02976625  0.41297773  0.75629015  1
  Ca  Ca15  1  0.50696862  0.59815399  0.87507897  1
  Ca  Ca16  1  0.49303138  0.40184601  0.12492103  1
  Ca  Ca17  1  0.97023375  0.58702227  0.24370985  1
  Ca  Ca18  1  0.99303138  0.90184601  0.37507897  1
  Ca  Ca19  1  0.97720153  0.58687886  0.00570664  1
  Ca  Ca20  1  0.51021387  0.41727113  0.37529215  1
  Ca  Ca21  1  0.47023375  0.91297773  0.24370985  1
  Ca  Ca22  1  0.52279847  0.91312114  0.50570664  1
  Ca  Ca23  1  0.50696862  0.40184601  0.62492103  1
  Ca  Ca24  1  0.02976625  0.58702227  0.74370985  1
  Ca  Ca25  1  0.00696862  0.90184601  0.87507897  1
  Ca  Ca26  1  0.01021387  0.08272887  0.37529215  1
  Ca  Ca27  1  0.47720153  0.91312114  0.00570664  1
  Ca  Ca28  1  0.48978613  0.41727113  0.87529215  1
  Ca  Ca29  1  0.97023375  0.41297773  0.25629015  1
  Ca  Ca30  1  0.01021387  0.91727113  0.12470785  1
  Ca  Ca31  1  0.97720153  0.41312114  0.49429336  1
  Al  Al32  1  0.48393724  0.50000000  0.25000000  1
  Al  Al33  1  0.00237679  0.28375561  0.62484641  1
  Al  Al34  1  0.60817686  0.70682273  0.74277039  1
  Al  Al35  1  0.10122508  0.79337356  0.50730956  1
  Al  Al36  1  0.60122508  0.29337356  0.99269044  1
  Al  Al37  1  0.50237679  0.78375561  0.87515359  1
  Al  Al38  1  0.50413259  0.00948263  0.62494523  1
  Al  Al39  1  0.89182314  0.20682273  0.25722961  1
  Al  Al40  1  0.49586741  0.00948263  0.12494523  1
  Al  Al41  1  0.99762321  0.71624439  0.37515359  1
  Al  Al42  1  0.93608088  0.29682691  0.87538565  1
  Al  Al43  1  0.89182314  0.79317727  0.24277039  1
  Al  Al44  1  0.60122508  0.70662644  0.50730956  1
  Al  Al45  1  0.99762321  0.28375561  0.12484641  1
  Al  Al46  1  0.93608088  0.70317309  0.62461435  1
  Al  Al47  1  0.39877492  0.70662644  0.00730956  1
  Al  Al48  1  0.00413259  0.49051737  0.62494523  1
  Al  Al49  1  0.43608088  0.79682691  0.62461435  1
  Al  Al50  1  0.99586741  0.50948263  0.37505477  1
  Al  Al51  1  0.00000000  0.00000000  0.00000000  1
  Al  Al52  1  0.00413259  0.50948263  0.87505477  1
  Al  Al53  1  0.89877492  0.79337356  0.00730956  1
  Al  Al54  1  0.56391912  0.20317309  0.37538565  1
  Al  Al55  1  0.51606276  0.50000000  0.75000000  1
  Al  Al56  1  0.60817686  0.29317727  0.75722961  1
  Al  Al57  1  0.39877492  0.29337356  0.49269044  1
  Al  Al58  1  0.39182314  0.29317727  0.25722961  1
  Al  Al59  1  0.49586741  0.99051737  0.37505477  1
  Al  Al60  1  0.10817686  0.20682273  0.75722961  1
  Al  Al61  1  0.99586741  0.49051737  0.12494523  1
  Al  Al62  1  0.50413259  0.99051737  0.87505477  1
  Al  Al63  1  0.98393724  0.00000000  0.25000000  1
  Al  Al64  1  0.01606276  0.00000000  0.75000000  1
  Al  Al65  1  0.39182314  0.70682273  0.24277039  1
  Al  Al66  1  0.10122508  0.20662644  0.99269044  1
  Al  Al67  1  0.56391912  0.79682691  0.12461435  1
  Al  Al68  1  0.00000000  0.00000000  0.50000000  1
  Al  Al69  1  0.50000000  0.50000000  0.50000000  1
  Al  Al70  1  0.06391912  0.29682691  0.37538565  1
  Al  Al71  1  0.43608088  0.20317309  0.87538565  1
  Al  Al72  1  0.89877492  0.20662644  0.49269044  1
  Al  Al73  1  0.49762321  0.21624439  0.12484641  1
  Al  Al74  1  0.10817686  0.79317727  0.74277039  1
  Al  Al75  1  0.50000000  0.50000000  0.00000000  1
  Al  Al76  1  0.49762321  0.78375561  0.37515359  1
  Al  Al77  1  0.00237679  0.71624439  0.87515359  1
  Al  Al78  1  0.50237679  0.21624439  0.62484641  1
  Al  Al79  1  0.06391912  0.70317309  0.12461435  1
  O  O80  1  0.97925334  0.11566339  0.99036569  1
  O  O81  1  0.73795320  0.99453104  0.31172412  1
  O  O82  1  0.46922114  0.89200650  0.12496298  1
  O  O83  1  0.53077886  0.89200650  0.62496298  1
  O  O84  1  0.75137723  0.99040621  0.93845171  1
  O  O85  1  0.73795320  0.00546896  0.18827588  1
  O  O86  1  0.82691340  0.22257519  0.57462085  1
  O  O87  1  0.43100745  0.21321100  0.78300605  1
  O  O88  1  0.49483785  0.61514712  0.74025142  1
  O  O89  1  0.47925334  0.38433661  0.99036569  1
  O  O90  1  0.49483785  0.38485288  0.75974858  1
  O  O91  1  0.49543755  0.88156334  0.87579730  1
  O  O92  1  0.99483785  0.11514712  0.75974858  1
  O  O93  1  0.99543755  0.61843666  0.87579730  1
  O  O94  1  0.10115285  0.79068400  0.62417215  1
  O  O95  1  0.24897916  0.99563356  0.93709413  1
  O  O96  1  0.50456245  0.88156334  0.37579730  1
  O  O97  1  0.18045223  0.77564771  0.82412255  1
  O  O98  1  0.23795320  0.49453104  0.18827588  1
  O  O99  1  0.03077886  0.39200650  0.87503702  1
  O  O100  1  0.73679437  0.50861319  0.31270916  1
  O  O101  1  0.26204680  0.00546896  0.68827588  1
  O  O102  1  0.00456245  0.38156334  0.12420270  1
  O  O103  1  0.96922114  0.60799350  0.12496298  1
  O  O104  1  0.74862277  0.50959379  0.43845171  1
  O  O105  1  0.57382695  0.78748034  0.03215009  1
  O  O106  1  0.17308660  0.77742481  0.42537915  1
  O  O107  1  0.76204680  0.49453104  0.68827588  1
  O  O108  1  0.39884715  0.29068400  0.37582785  1
  O  O109  1  0.50516215  0.61514712  0.24025142  1
  O  O110  1  0.39884715  0.70931600  0.12417215  1
  O  O111  1  0.81954777  0.22435229  0.17587745  1
  O  O112  1  0.93100745  0.71321100  0.71699395  1
  O  O113  1  0.67308660  0.72257519  0.42537915  1
  O  O114  1  0.60115285  0.70931600  0.62417215  1
  O  O115  1  0.06899255  0.71321100  0.21699395  1
  O  O116  1  0.17308660  0.22257519  0.07462085  1
  O  O117  1  0.68045223  0.72435229  0.82412255  1
  O  O118  1  0.31954777  0.72435229  0.32412255  1
  O  O119  1  0.68045223  0.27564771  0.67587745  1
  O  O120  1  0.96922114  0.39200650  0.37503702  1
  O  O121  1  0.75102084  0.00436644  0.06290587  1
  O  O122  1  0.74862277  0.49040621  0.06154829  1
  O  O123  1  0.32691340  0.27742481  0.57462085  1
  O  O124  1  0.81954777  0.77564771  0.32412255  1
  O  O125  1  0.07382695  0.28748034  0.46784991  1
  O  O126  1  0.49543755  0.11843666  0.62420270  1
  O  O127  1  0.23679437  0.99138681  0.31270916  1
  O  O128  1  0.56899255  0.78678900  0.21699395  1
  O  O129  1  0.00516215  0.11514712  0.25974858  1
  O  O130  1  0.26320563  0.49138681  0.68729084  1
  O  O131  1  0.53077886  0.10799350  0.87503702  1
  O  O132  1  0.92617305  0.71251966  0.53215009  1
  O  O133  1  0.42617305  0.78748034  0.53215009  1
  O  O134  1  0.46922114  0.10799350  0.37503702  1
  O  O135  1  0.76320563  0.99138681  0.81270916  1
  O  O136  1  0.52074666  0.61566339  0.00963431  1
  O  O137  1  0.89884715  0.20931600  0.37582785  1
  O  O138  1  0.97925334  0.88433661  0.50963431  1
  O  O139  1  0.60115285  0.29068400  0.87582785  1
  O  O140  1  0.50456245  0.11843666  0.12420270  1
  O  O141  1  0.26204680  0.99453104  0.81172412  1
  O  O142  1  0.25102084  0.50436644  0.43709413  1
  O  O143  1  0.82691340  0.77742481  0.92537915  1
  O  O144  1  0.26320563  0.50861319  0.81270916  1
  O  O145  1  0.23679437  0.00861319  0.18729084  1
  O  O146  1  0.18045223  0.22435229  0.67587745  1
  O  O147  1  0.75137723  0.00959379  0.56154829  1
  O  O148  1  0.00516215  0.88485288  0.24025142  1
  O  O149  1  0.06899255  0.28678900  0.28300605  1
  O  O150  1  0.47925334  0.61566339  0.50963431  1
  O  O151  1  0.31954777  0.27564771  0.17587745  1
  O  O152  1  0.07382695  0.71251966  0.03215009  1
  O  O153  1  0.42617305  0.21251966  0.96784991  1
  O  O154  1  0.52074666  0.38433661  0.49036569  1
  O  O155  1  0.99483785  0.88485288  0.74025142  1
  O  O156  1  0.23795320  0.50546896  0.31172412  1
  O  O157  1  0.99543755  0.38156334  0.62420270  1
  O  O158  1  0.74897916  0.49563356  0.56290587  1
  O  O159  1  0.56899255  0.21321100  0.28300605  1
  O  O160  1  0.00456245  0.61843666  0.37579730  1
  O  O161  1  0.24897916  0.00436644  0.56290587  1
  O  O162  1  0.32691340  0.72257519  0.92537915  1
  O  O163  1  0.89884715  0.79068400  0.12417215  1
  O  O164  1  0.74897916  0.50436644  0.93709413  1
  O  O165  1  0.10115285  0.20931600  0.87582785  1
  O  O166  1  0.92617305  0.28748034  0.96784991  1
  O  O167  1  0.57382695  0.21251966  0.46784991  1
  O  O168  1  0.76320563  0.00861319  0.68729084  1
  O  O169  1  0.73679437  0.49138681  0.18729084  1
  O  O170  1  0.76204680  0.50546896  0.81172412  1
  O  O171  1  0.03077886  0.60799350  0.62496298  1
  O  O172  1  0.93100745  0.28678900  0.78300605  1
  O  O173  1  0.25102084  0.49563356  0.06290587  1
  O  O174  1  0.67308660  0.27742481  0.07462085  1
  O  O175  1  0.25137723  0.49040621  0.56154829  1
  O  O176  1  0.43100745  0.78678900  0.71699395  1
  O  O177  1  0.24862277  0.99040621  0.43845171  1
  O  O178  1  0.50516215  0.38485288  0.25974858  1
  O  O179  1  0.75102084  0.99563356  0.43709413  1
  O  O180  1  0.02074666  0.88433661  0.00963431  1
  O  O181  1  0.25137723  0.50959379  0.93845171  1
  O  O182  1  0.02074666  0.11566339  0.49036569  1
  O  O183  1  0.24862277  0.00959379  0.06154829  1
