# generated using pymatgen
data_Ba3Si3N5ClO
_symmetry_space_group_name_H-M   'P 1'
_cell_length_a   9.46150014
_cell_length_b   9.58713033
_cell_length_c   5.59977341
_cell_angle_alpha   88.96227016
_cell_angle_beta   92.10337515
_cell_angle_gamma   119.56746014
_symmetry_Int_Tables_number   1
_chemical_formula_structural   Ba3Si3N5ClO
_chemical_formula_sum   'Ba6 Si6 N10 Cl2 O2'
_cell_volume   441.50278746
_cell_formula_units_Z   2
loop_
 _symmetry_equiv_pos_site_id
 _symmetry_equiv_pos_as_xyz
  1  'x, y, z'
loop_
 _atom_site_type_symbol
 _atom_site_label
 _atom_site_symmetry_multiplicity
 _atom_site_fract_x
 _atom_site_fract_y
 _atom_site_fract_z
 _atom_site_occupancy
  Ba  Ba0  1  0.21285652  0.84646550  0.23634603  1
  Ba  Ba1  1  0.15211185  0.34888055  0.24074748  1
  Ba  Ba2  1  0.63904661  0.80385896  0.25152274  1
  Ba  Ba3  1  0.36639102  0.15353450  0.73634603  1
  Ba  Ba4  1  0.80323130  0.65111945  0.74074748  1
  Ba  Ba5  1  0.83518765  0.19614104  0.75152274  1
  Si  Si6  1  0.12396593  0.59081400  0.75307540  1
  Si  Si7  1  0.46876344  0.87680825  0.74684509  1
  Si  Si8  1  0.40593152  0.53191819  0.73528811  1
  Si  Si9  1  0.53315193  0.40918600  0.25307540  1
  Si  Si10  1  0.59195519  0.12319175  0.24684509  1
  Si  Si11  1  0.87401333  0.46808181  0.23528811  1
  N  N12  1  0.25778472  0.79267273  0.73729563  1
  N  N13  1  0.19919712  0.46024133  0.73592986  1
  N  N14  1  0.53450291  0.73510413  0.76069843  1
  N  N15  1  0.45463938  0.45388719  0.49622809  1
  N  N16  1  0.46511199  0.20732727  0.23729563  1
  N  N17  1  0.73895579  0.53975867  0.23592986  1
  N  N18  1  0.54525698  0.99755532  0.49517839  1
  N  N19  1  0.54770166  0.00244468  0.99517839  1
  N  N20  1  0.79939878  0.26489587  0.26069843  1
  N  N21  1  0.00075219  0.54611281  0.99622809  1
  Cl  Cl22  1  0.00375270  0.99783931  0.46918334  1
  Cl  Cl23  1  0.00591340  0.00216069  0.96918334  1
  O  O24  1  0.44404197  0.44765787  0.99566140  1
  O  O25  1  0.99638410  0.55234213  0.49566140  1
