# generated using pymatgen
data_SrCeN2
_symmetry_space_group_name_H-M   'P 1'
_cell_length_a   7.38204434
_cell_length_b   9.74104613
_cell_length_c   6.35059167
_cell_angle_alpha   29.23828577
_cell_angle_beta   54.49993454
_cell_angle_gamma   40.74176255
_symmetry_Int_Tables_number   1
_chemical_formula_structural   SrCeN2
_chemical_formula_sum   'Sr2 Ce2 N4'
_cell_volume   140.86723345
_cell_formula_units_Z   2
loop_
 _symmetry_equiv_pos_site_id
 _symmetry_equiv_pos_as_xyz
  1  'x, y, z'
loop_
 _atom_site_type_symbol
 _atom_site_label
 _atom_site_symmetry_multiplicity
 _atom_site_fract_x
 _atom_site_fract_y
 _atom_site_fract_z
 _atom_site_occupancy
  Sr  Sr0  1  0.00134294  0.99752178  0.00155072  1
  Sr  Sr1  1  0.75097000  0.49791880  0.00153422  1
  Ce  Ce2  1  0.25474359  0.49340770  0.00528608  1
  Ce  Ce3  1  0.49698234  0.99802594  0.00084566  1
  N  N4  1  0.28105666  0.00566272  0.43259951  1
  N  N5  1  0.04346451  0.48817765  0.44947295  1
  N  N6  1  0.71445353  0.00576170  0.55327296  1
  N  N7  1  0.47235344  0.51102271  0.54829589  1
