# generated using pymatgen
data_Ge(WO3)6
_symmetry_space_group_name_H-M   'P 1'
_cell_length_a   7.57696645
_cell_length_b   7.56709404
_cell_length_c   23.17167697
_cell_angle_alpha   90.00000000
_cell_angle_beta   90.00000000
_cell_angle_gamma   120.04316681
_symmetry_Int_Tables_number   1
_chemical_formula_structural   Ge(WO3)6
_chemical_formula_sum   'Ge3 W18 O54'
_cell_volume   1150.06800152
_cell_formula_units_Z   3
loop_
 _symmetry_equiv_pos_site_id
 _symmetry_equiv_pos_as_xyz
  1  'x, y, z'
loop_
 _atom_site_type_symbol
 _atom_site_label
 _atom_site_symmetry_multiplicity
 _atom_site_fract_x
 _atom_site_fract_y
 _atom_site_fract_z
 _atom_site_occupancy
  Ge  Ge0  1  0.10152140  0.00000000  0.75000000  1
  Ge  Ge1  1  0.89874724  0.00000000  0.58368031  1
  Ge  Ge2  1  0.89874724  0.00000000  0.91631969  1
  W  W3  1  0.99920636  0.49936236  0.25000000  1
  W  W4  1  0.99400032  0.48470172  0.75000000  1
  W  W5  1  0.49489678  0.00000000  0.58265408  1
  W  W6  1  0.49489678  0.00000000  0.91734592  1
  W  W7  1  0.50136587  0.50006054  0.08366787  1
  W  W8  1  0.49984400  0.50063764  0.25000000  1
  W  W9  1  0.50136587  0.50006054  0.41633213  1
  W  W10  1  0.49016060  0.48590483  0.58315205  1
  W  W11  1  0.50929860  0.51529828  0.75000000  1
  W  W12  1  0.49016060  0.48590483  0.91684795  1
  W  W13  1  0.50073806  0.00000000  0.08429248  1
  W  W14  1  0.50073806  0.00000000  0.41570752  1
  W  W15  1  0.49904650  0.00000000  0.25000000  1
  W  W16  1  0.50443318  0.00000000  0.75000000  1
  W  W17  1  0.00130533  0.49993946  0.08366787  1
  W  W18  1  0.00130533  0.49993946  0.41633213  1
  W  W19  1  0.00425577  0.51409517  0.58315205  1
  W  W20  1  0.00425577  0.51409517  0.91684795  1
  O  O21  1  0.21491479  0.78511222  0.08156004  1
  O  O22  1  0.21509765  0.78498681  0.25000000  1
  O  O23  1  0.21491479  0.78511222  0.41843996  1
  O  O24  1  0.20208416  0.78880049  0.58477007  1
  O  O25  1  0.18773951  0.80451984  0.75000000  1
  O  O26  1  0.20208416  0.78880049  0.91522993  1
  O  O27  1  0.21473416  0.42939791  0.08205730  1
  O  O28  1  0.21481671  0.42988598  0.25000000  1
  O  O29  1  0.21473416  0.42939791  0.41794270  1
  O  O30  1  0.21707485  0.43500283  0.58443906  1
  O  O31  1  0.21821088  0.43579329  0.75000000  1
  O  O32  1  0.21707485  0.43500283  0.91556094  1
  O  O33  1  0.57101983  0.78613084  0.08200577  1
  O  O34  1  0.57008775  0.78522948  0.25000000  1
  O  O35  1  0.57101983  0.78613084  0.41799423  1
  O  O36  1  0.61675596  0.80500870  0.58507113  1
  O  O37  1  0.58809423  0.79042930  0.75000000  1
  O  O38  1  0.61675596  0.80500870  0.91492887  1
  O  O39  1  0.50000421  0.50433046  0.99832545  1
  O  O40  1  0.49960179  0.49940680  0.16602415  1
  O  O41  1  0.49960179  0.49940680  0.33397585  1
  O  O42  1  0.50002775  0.50004919  0.66699230  1
  O  O43  1  0.50000421  0.50433046  0.50167455  1
  O  O44  1  0.50002775  0.50004919  0.83300770  1
  O  O45  1  0.42980258  0.21488778  0.08156004  1
  O  O46  1  0.43011084  0.21501319  0.25000000  1
  O  O47  1  0.42980258  0.21488778  0.41843996  1
  O  O48  1  0.41328366  0.21119951  0.58477007  1
  O  O49  1  0.38321968  0.19548016  0.75000000  1
  O  O50  1  0.41328366  0.21119951  0.91522993  1
  O  O51  1  0.50015809  0.00000000  0.99811850  1
  O  O52  1  0.49937105  0.00000000  0.16610081  1
  O  O53  1  0.49937105  0.00000000  0.33389919  1
  O  O54  1  0.50015809  0.00000000  0.50188150  1
  O  O55  1  0.49925607  0.00000000  0.66707647  1
  O  O56  1  0.49925607  0.00000000  0.83292353  1
  O  O57  1  0.78533625  0.57060209  0.08205730  1
  O  O58  1  0.78493073  0.57011402  0.25000000  1
  O  O59  1  0.78533625  0.57060209  0.41794270  1
  O  O60  1  0.78207202  0.56499717  0.58443906  1
  O  O61  1  0.78241759  0.56420671  0.75000000  1
  O  O62  1  0.78207202  0.56499717  0.91556094  1
  O  O63  1  0.78488899  0.21386916  0.08200577  1
  O  O64  1  0.78485827  0.21477052  0.25000000  1
  O  O65  1  0.78488899  0.21386916  0.41799423  1
  O  O66  1  0.81174726  0.19499130  0.58507113  1
  O  O67  1  0.79766493  0.20957070  0.75000000  1
  O  O68  1  0.81174726  0.19499130  0.91492887  1
  O  O69  1  0.99567375  0.49566954  0.99832545  1
  O  O70  1  0.00019499  0.50059320  0.16602415  1
  O  O71  1  0.00019499  0.50059320  0.33397585  1
  O  O72  1  0.99567375  0.49566954  0.50167455  1
  O  O73  1  0.99997856  0.49995081  0.66699230  1
  O  O74  1  0.99997856  0.49995081  0.83300770  1
