# generated using pymatgen
data_RbNa2P3(HO2)6
_symmetry_space_group_name_H-M   'P 1'
_cell_length_a   7.63659802
_cell_length_b   9.86827827
_cell_length_c   8.80598554
_cell_angle_alpha   114.00314912
_cell_angle_beta   102.24358910
_cell_angle_gamma   84.58259016
_symmetry_Int_Tables_number   1
_chemical_formula_structural   RbNa2P3(HO2)6
_chemical_formula_sum   'Rb2 Na4 P6 H12 O24'
_cell_volume   592.41845360
_cell_formula_units_Z   2
loop_
 _symmetry_equiv_pos_site_id
 _symmetry_equiv_pos_as_xyz
  1  'x, y, z'
loop_
 _atom_site_type_symbol
 _atom_site_label
 _atom_site_symmetry_multiplicity
 _atom_site_fract_x
 _atom_site_fract_y
 _atom_site_fract_z
 _atom_site_occupancy
  Rb  Rb0  1  0.75427147  0.61981786  0.14747169  1
  Rb  Rb1  1  0.24572853  0.38018214  0.85252831  1
  Na  Na2  1  0.47032231  0.71354392  0.77818228  1
  Na  Na3  1  0.52967769  0.28645608  0.22181772  1
  Na  Na4  1  0.85166065  0.14084246  0.47279967  1
  Na  Na5  1  0.14833935  0.85915754  0.52720033  1
  P  P6  1  0.92663601  0.75741502  0.86173382  1
  P  P7  1  0.07336399  0.24258498  0.13826618  1
  P  P8  1  0.25810164  0.11831227  0.38138740  1
  P  P9  1  0.74189836  0.88168773  0.61861260  1
  P  P10  1  0.75468668  0.20041449  0.87232187  1
  P  P11  1  0.24531332  0.79958551  0.12767813  1
  H  H12  1  0.71480886  0.97029017  0.09801373  1
  H  H13  1  0.28519114  0.02970983  0.90198627  1
  H  H14  1  0.56901554  0.99283590  0.20581156  1
  H  H15  1  0.43098446  0.00716410  0.79418844  1
  H  H16  1  0.48680502  0.38691169  0.60321505  1
  H  H17  1  0.51319498  0.61308831  0.39678495  1
  H  H18  1  0.65640296  0.40421059  0.74078426  1
  H  H19  1  0.34359704  0.59578941  0.25921574  1
  H  H20  1  0.81714371  0.46119334  0.55697519  1
  H  H21  1  0.18285629  0.53880666  0.44302481  1
  H  H22  1  0.88014044  0.40144653  0.38205839  1
  H  H23  1  0.11985956  0.59855347  0.61794161  1
  O  O24  1  0.23838926  0.21104539  0.06160375  1
  O  O25  1  0.76161074  0.78895461  0.93839625  1
  O  O26  1  0.01709593  0.40106050  0.23072046  1
  O  O27  1  0.98290407  0.59893950  0.76927954  1
  O  O28  1  0.91584924  0.84412617  0.73773714  1
  O  O29  1  0.08415076  0.15587383  0.26226286  1
  O  O30  1  0.90893189  0.14841377  0.99594643  1
  O  O31  1  0.09106811  0.85158623  0.00405357  1
  O  O32  1  0.66647236  0.03791509  0.74781522  1
  O  O33  1  0.33352764  0.96208491  0.25218478  1
  O  O34  1  0.18102306  0.09409248  0.51211148  1
  O  O35  1  0.81897694  0.90590752  0.48788852  1
  O  O36  1  0.40296747  0.22886023  0.43110745  1
  O  O37  1  0.59703253  0.77113977  0.56889255  1
  O  O38  1  0.83899627  0.26259162  0.77417293  1
  O  O39  1  0.16100373  0.73740838  0.22582707  1
  O  O40  1  0.38478805  0.71011750  0.03040005  1
  O  O41  1  0.61521195  0.28988250  0.96959995  1
  O  O42  1  0.66538575  0.04483476  0.19443594  1
  O  O43  1  0.33461425  0.95516524  0.80556406  1
  O  O44  1  0.44900535  0.53937882  0.28852812  1
  O  O45  1  0.55099465  0.46062118  0.71147188  1
  O  O46  1  0.79627000  0.38223437  0.44258624  1
  O  O47  1  0.20373000  0.61776563  0.55741376  1
