# generated using pymatgen
data_Ba20Nb19Se60
_symmetry_space_group_name_H-M   'P 1'
_cell_length_a   14.47425024
_cell_length_b   36.20920104
_cell_length_c   15.66007583
_cell_angle_alpha   22.43503616
_cell_angle_beta   117.52401242
_cell_angle_gamma   120.01352210
_symmetry_Int_Tables_number   1
_chemical_formula_structural   Ba20Nb19Se60
_chemical_formula_sum   'Ba20 Nb19 Se60'
_cell_volume   2712.24657086
_cell_formula_units_Z   1
loop_
 _symmetry_equiv_pos_site_id
 _symmetry_equiv_pos_as_xyz
  1  'x, y, z'
loop_
 _atom_site_type_symbol
 _atom_site_label
 _atom_site_symmetry_multiplicity
 _atom_site_fract_x
 _atom_site_fract_y
 _atom_site_fract_z
 _atom_site_occupancy
  Ba  Ba0  1  0.16410692  0.83337210  0.74532604  1
  Ba  Ba1  1  0.16307037  0.63473546  0.74706310  1
  Ba  Ba2  1  0.32490385  0.96561091  0.24856304  1
  Ba  Ba3  1  0.66714176  0.83354583  0.74967492  1
  Ba  Ba4  1  0.16558432  0.43295790  0.75113082  1
  Ba  Ba5  1  0.33274312  0.76641726  0.25033149  1
  Ba  Ba6  1  0.67158764  0.63593408  0.74584212  1
  Ba  Ba7  1  0.83786184  0.96579415  0.24857371  1
  Ba  Ba8  1  0.16186894  0.22976498  0.75090583  1
  Ba  Ba9  1  0.33156540  0.56666679  0.24882354  1
  Ba  Ba10  1  0.66843460  0.43333321  0.75117646  1
  Ba  Ba11  1  0.32841236  0.36406592  0.25415788  1
  Ba  Ba12  1  0.83813106  0.77023502  0.24909417  1
  Ba  Ba13  1  0.16213816  0.03420585  0.75142629  1
  Ba  Ba14  1  0.66725688  0.23358274  0.74966851  1
  Ba  Ba15  1  0.83441568  0.56704210  0.24886918  1
  Ba  Ba16  1  0.33285824  0.16645417  0.25032508  1
  Ba  Ba17  1  0.67509615  0.03438909  0.75143696  1
  Ba  Ba18  1  0.83692963  0.36526454  0.25293690  1
  Ba  Ba19  1  0.83589308  0.16662790  0.25467396  1
  Nb  Nb20  1  0.99940702  0.81852122  0.45360705  1
  Nb  Nb21  1  0.00009764  0.59691938  0.50750305  1
  Nb  Nb22  1  0.99978137  0.79930062  0.00110773  1
  Nb  Nb23  1  0.49937030  0.80011251  0.49944508  1
  Nb  Nb24  1  0.00008143  0.60133609  0.99667333  1
  Nb  Nb25  1  0.99990236  0.40308062  0.49249695  1
  Nb  Nb26  1  0.49982565  0.60056092  0.49880942  1
  Nb  Nb27  1  0.49945228  0.79934696  0.00077792  1
  Nb  Nb28  1  0.99991857  0.39866391  0.00332667  1
  Nb  Nb29  1  0.00059298  0.18147878  0.54639295  1
  Nb  Nb30  1  0.50017435  0.39943908  0.50119058  1
  Nb  Nb31  1  0.49944246  0.60052213  0.99876461  1
  Nb  Nb32  1  0.00021863  0.20069938  0.99889227  1
  Nb  Nb33  1  0.00000000  0.00000000  0.50000000  1
  Nb  Nb34  1  0.50062970  0.19988749  0.50055492  1
  Nb  Nb35  1  0.50055754  0.39947787  0.00123539  1
  Nb  Nb36  1  0.50000000  0.00000000  0.50000000  1
  Nb  Nb37  1  0.50054772  0.20065304  0.99922208  1
  Nb  Nb38  1  0.50000000  0.00000000  0.00000000  1
  Se  Se39  1  0.17378739  0.93521147  0.74896951  1
  Se  Se40  1  0.08699488  0.96517513  0.26070836  1
  Se  Se41  1  0.41376438  0.93496103  0.75012860  1
  Se  Se42  1  0.17248774  0.73136585  0.75775080  1
  Se  Se43  1  0.08704166  0.86108277  0.26076403  1
  Se  Se44  1  0.41336508  0.83053793  0.74968665  1
  Se  Se45  1  0.08719454  0.77086148  0.24618975  1
  Se  Se46  1  0.32616418  0.86525994  0.24972390  1
  Se  Se47  1  0.41383591  0.73530699  0.74968992  1
  Se  Se48  1  0.67359331  0.93449364  0.75029993  1
  Se  Se49  1  0.08727428  0.66671620  0.24668381  1
  Se  Se50  1  0.17480742  0.53774886  0.74304573  1
  Se  Se51  1  0.41418478  0.63052391  0.74975812  1
  Se  Se52  1  0.58670696  0.96934444  0.25025531  1
  Se  Se53  1  0.08748038  0.56687728  0.25741416  1
  Se  Se54  1  0.91266065  0.93443229  0.75003135  1
  Se  Se55  1  0.32571231  0.66507537  0.25026476  1
  Se  Se56  1  0.41312536  0.53473845  0.74995948  1
  Se  Se57  1  0.67385883  0.73496825  0.74968649  1
  Se  Se58  1  0.58642868  0.86533870  0.24938124  1
  Se  Se59  1  0.17373893  0.33367968  0.75258772  1
  Se  Se60  1  0.08741877  0.46232094  0.25695694  1
  Se  Se61  1  0.58630316  0.76974754  0.24943823  1
  Se  Se62  1  0.91262224  0.83117203  0.74811549  1
  Se  Se63  1  0.41347943  0.43059075  0.74989550  1
  Se  Se64  1  0.08600347  0.37187648  0.24250834  1
  Se  Se65  1  0.91411184  0.73136291  0.75787131  1
  Se  Se66  1  0.82636719  0.86139547  0.25954066  1
  Se  Se67  1  0.32596482  0.46509559  0.25030567  1
  Se  Se68  1  0.41351450  0.33465572  0.75063392  1
  Se  Se69  1  0.58648550  0.66534428  0.24936608  1
  Se  Se70  1  0.67403518  0.53490441  0.74969433  1
  Se  Se71  1  0.08588816  0.26863709  0.24212869  1
  Se  Se72  1  0.17363281  0.13860453  0.74045934  1
  Se  Se73  1  0.91399653  0.62812352  0.75749166  1
  Se  Se74  1  0.58652057  0.56940925  0.25010450  1
  Se  Se75  1  0.41369684  0.23025246  0.75056177  1
  Se  Se76  1  0.08737776  0.16882797  0.25188451  1
  Se  Se77  1  0.91258123  0.53767906  0.74304306  1
  Se  Se78  1  0.82626107  0.66632032  0.24741228  1
  Se  Se79  1  0.32614117  0.26503175  0.25031351  1
  Se  Se80  1  0.41357132  0.13466130  0.75061876  1
  Se  Se81  1  0.67428769  0.33492463  0.74973524  1
  Se  Se82  1  0.58687464  0.46526155  0.25004052  1
  Se  Se83  1  0.08733935  0.06556771  0.24996865  1
  Se  Se84  1  0.91251962  0.43312272  0.74258584  1
  Se  Se85  1  0.58581522  0.36947609  0.25024188  1
  Se  Se86  1  0.41329304  0.03065556  0.74974469  1
  Se  Se87  1  0.91272572  0.33328380  0.75331619  1
  Se  Se88  1  0.82519258  0.46225114  0.25695427  1
  Se  Se89  1  0.32640669  0.06550636  0.24970007  1
  Se  Se90  1  0.58616409  0.26469301  0.25031008  1
  Se  Se91  1  0.67383582  0.13474006  0.75027610  1
  Se  Se92  1  0.91280546  0.22913852  0.75381025  1
  Se  Se93  1  0.58663492  0.16946207  0.25031335  1
  Se  Se94  1  0.82751226  0.26863415  0.24224920  1
  Se  Se95  1  0.91295834  0.13891723  0.73923597  1
  Se  Se96  1  0.58623562  0.06503897  0.24987140  1
  Se  Se97  1  0.91300512  0.03482487  0.73929164  1
  Se  Se98  1  0.82621261  0.06478853  0.25103049  1
