# generated using pymatgen
data_Ag13(BiI4)14
_symmetry_space_group_name_H-M   'P 1'
_cell_length_a   9.02745747
_cell_length_b   9.05907600
_cell_length_c   62.63167763
_cell_angle_alpha   60.31875893
_cell_angle_beta   60.34209270
_cell_angle_gamma   58.21055648
_symmetry_Int_Tables_number   1
_chemical_formula_structural   Ag13(BiI4)14
_chemical_formula_sum   'Ag13 Bi14 I56'
_cell_volume   3587.60035843
_cell_formula_units_Z   1
loop_
 _symmetry_equiv_pos_site_id
 _symmetry_equiv_pos_as_xyz
  1  'x, y, z'
loop_
 _atom_site_type_symbol
 _atom_site_label
 _atom_site_symmetry_multiplicity
 _atom_site_fract_x
 _atom_site_fract_y
 _atom_site_fract_z
 _atom_site_occupancy
  Ag  Ag0  1  0.50000000  0.00000000  0.00000000  1
  Ag  Ag1  1  0.00175406  0.50420908  0.14168545  1
  Ag  Ag2  1  0.50367269  0.99968354  0.14200672  1
  Ag  Ag3  1  0.50089060  0.00025236  0.28547450  1
  Ag  Ag4  1  0.00040918  0.50098870  0.28544825  1
  Ag  Ag5  1  0.99986045  0.49955317  0.57148097  1
  Ag  Ag6  1  0.49958427  0.99993471  0.57149241  1
  Ag  Ag7  1  0.50041573  0.00006529  0.42850759  1
  Ag  Ag8  1  0.00013955  0.50044683  0.42851903  1
  Ag  Ag9  1  0.49910940  0.99974764  0.71452550  1
  Ag  Ag10  1  0.99959082  0.49901130  0.71455175  1
  Ag  Ag11  1  0.49632731  0.00031646  0.85799328  1
  Ag  Ag12  1  0.99824594  0.49579092  0.85831455  1
  Bi  Bi13  1  0.00000000  0.00000000  0.00000000  1
  Bi  Bi14  1  0.00359335  0.00742230  0.06974843  1
  Bi  Bi15  1  0.00067312  0.99890922  0.14238262  1
  Bi  Bi16  1  0.00011442  0.99960717  0.28555342  1
  Bi  Bi17  1  0.99983747  0.00016019  0.35698887  1
  Bi  Bi18  1  0.99999010  0.99999694  0.57148566  1
  Bi  Bi19  1  0.00016253  0.99983981  0.64301113  1
  Bi  Bi20  1  0.99960938  0.00040006  0.21389181  1
  Bi  Bi21  1  0.00000000  0.00000000  0.50000000  1
  Bi  Bi22  1  0.99988558  0.00039283  0.71444658  1
  Bi  Bi23  1  0.00000990  0.00000306  0.42851434  1
  Bi  Bi24  1  0.99640665  0.99257770  0.93025157  1
  Bi  Bi25  1  0.00039062  0.99959994  0.78610819  1
  Bi  Bi26  1  0.99932688  0.00109078  0.85761738  1
  I  I27  1  0.24892606  0.22422363  0.03570427  1
  I  I28  1  0.23604280  0.73706074  0.03773311  1
  I  I29  1  0.23932460  0.23728278  0.11153475  1
  I  I30  1  0.74954567  0.24599718  0.03632345  1
  I  I31  1  0.25544989  0.75402448  0.10707300  1
  I  I32  1  0.23798037  0.23758802  0.17695495  1
  I  I33  1  0.75966001  0.25800211  0.10590049  1
  I  I34  1  0.24175617  0.74280781  0.17995289  1
  I  I35  1  0.23832079  0.23813909  0.25443562  1
  I  I36  1  0.74474784  0.78119633  0.03089357  1
  I  I37  1  0.75983682  0.76106918  0.10886693  1
  I  I38  1  0.74260503  0.24300006  0.17985950  1
  I  I39  1  0.25668598  0.75608412  0.24938326  1
  I  I40  1  0.23788051  0.23783062  0.32039756  1
  I  I41  1  0.75617459  0.25664382  0.24919638  1
  I  I42  1  0.76035574  0.76259254  0.17455829  1
  I  I43  1  0.24300885  0.74312563  0.32260931  1
  I  I44  1  0.23841031  0.23818553  0.39724929  1
  I  I45  1  0.74302315  0.24295187  0.32248254  1
  I  I46  1  0.76073020  0.76093609  0.25129226  1
  I  I47  1  0.25671724  0.75678127  0.39203480  1
  I  I48  1  0.23829597  0.23827644  0.46315432  1
  I  I49  1  0.75670075  0.25656553  0.39190937  1
  I  I50  1  0.76144236  0.76174333  0.31717376  1
  I  I51  1  0.24297651  0.74338230  0.46536521  1
  I  I52  1  0.23844519  0.23820958  0.54000749  1
  I  I53  1  0.74309379  0.24294351  0.46524003  1
  I  I54  1  0.76123163  0.76126830  0.39407672  1
  I  I55  1  0.25690621  0.75705649  0.53475997  1
  I  I56  1  0.23876837  0.23873170  0.60592328  1
  I  I57  1  0.75702349  0.25661770  0.53463479  1
  I  I58  1  0.76155481  0.76179042  0.45999251  1
  I  I59  1  0.24329925  0.74343447  0.60809063  1
  I  I60  1  0.23855764  0.23825667  0.68282624  1
  I  I61  1  0.76170403  0.76172356  0.53684568  1
  I  I62  1  0.74328276  0.24321873  0.60796520  1
  I  I63  1  0.25697685  0.75704813  0.67751746  1
  I  I64  1  0.23926980  0.23906391  0.74870774  1
  I  I65  1  0.75699115  0.25687437  0.67739069  1
  I  I66  1  0.76158969  0.76181447  0.60275071  1
  I  I67  1  0.24382541  0.74335618  0.75080362  1
  I  I68  1  0.23964426  0.23740746  0.82544171  1
  I  I69  1  0.76211949  0.76216938  0.67960244  1
  I  I70  1  0.74331402  0.24391588  0.75061674  1
  I  I71  1  0.24016318  0.23893082  0.89113307  1
  I  I72  1  0.25739497  0.75699994  0.82014050  1
  I  I73  1  0.75824383  0.25719219  0.82004711  1
  I  I74  1  0.76167921  0.76186091  0.74556438  1
  I  I75  1  0.24033999  0.74199789  0.89409951  1
  I  I76  1  0.25525216  0.21880367  0.96910643  1
  I  I77  1  0.74455011  0.24597552  0.89292700  1
  I  I78  1  0.76201963  0.76241198  0.82304505  1
  I  I79  1  0.25045433  0.75400282  0.96367655  1
  I  I80  1  0.76395720  0.26293926  0.96226689  1
  I  I81  1  0.76067540  0.76271722  0.88846525  1
  I  I82  1  0.75107394  0.77577637  0.96429573  1
