# generated using pymatgen
data_NaNd3Ti3MnO12
_symmetry_space_group_name_H-M   'P 1'
_cell_length_a   5.50399581
_cell_length_b   5.61635181
_cell_length_c   15.72406487
_cell_angle_alpha   89.93905042
_cell_angle_beta   90.00000000
_cell_angle_gamma   90.00000000
_symmetry_Int_Tables_number   1
_chemical_formula_structural   NaNd3Ti3MnO12
_chemical_formula_sum   'Na2 Nd6 Ti6 Mn2 O24'
_cell_volume   486.06794327
_cell_formula_units_Z   2
loop_
 _symmetry_equiv_pos_site_id
 _symmetry_equiv_pos_as_xyz
  1  'x, y, z'
loop_
 _atom_site_type_symbol
 _atom_site_label
 _atom_site_symmetry_multiplicity
 _atom_site_fract_x
 _atom_site_fract_y
 _atom_site_fract_z
 _atom_site_occupancy
  Na  Na0  1  0.50850982  0.51516946  0.87119862  1
  Na  Na1  1  0.00850982  0.98483054  0.62880138  1
  Nd  Nd2  1  0.97786434  0.04771601  0.37537053  1
  Nd  Nd3  1  0.99060198  0.03808674  0.86711167  1
  Nd  Nd4  1  0.51554328  0.54774391  0.37579571  1
  Nd  Nd5  1  0.47786434  0.45228399  0.12462947  1
  Nd  Nd6  1  0.49060198  0.46191326  0.63288833  1
  Nd  Nd7  1  0.01554328  0.95225609  0.12420429  1
  Ti  Ti8  1  0.00134181  0.50676843  0.75052662  1
  Ti  Ti9  1  0.50134181  0.99323157  0.74947338  1
  Ti  Ti10  1  0.50993243  0.99227296  0.99394538  1
  Ti  Ti11  1  0.49358058  0.00342221  0.50680562  1
  Ti  Ti12  1  0.99358058  0.49657779  0.99319438  1
  Ti  Ti13  1  0.00993243  0.50772704  0.50605462  1
  Mn  Mn14  1  0.99633102  0.49991029  0.24990999  1
  Mn  Mn15  1  0.49633102  0.00008971  0.25009001  1
  O  O16  1  0.09392289  0.47365811  0.38668818  1
  O  O17  1  0.07723134  0.48522089  0.87242178  1
  O  O18  1  0.28699295  0.71369356  0.52763794  1
  O  O19  1  0.20339906  0.20709365  0.22206397  1
  O  O20  1  0.23040576  0.23109351  0.73181435  1
  O  O21  1  0.29059618  0.70602362  0.22299338  1
  O  O22  1  0.27778637  0.72542881  0.02312295  1
  O  O23  1  0.23479662  0.23154519  0.52918182  1
  O  O24  1  0.27336466  0.72636126  0.72862444  1
  O  O25  1  0.22148547  0.22179311  0.02003939  1
  O  O26  1  0.41749639  0.98983039  0.87280350  1
  O  O27  1  0.39881703  0.97588119  0.38753034  1
  O  O28  1  0.59392289  0.02634189  0.11331182  1
  O  O29  1  0.57723134  0.01477911  0.62757822  1
  O  O30  1  0.78699295  0.78630644  0.97236206  1
  O  O31  1  0.77778637  0.77457119  0.47687705  1
  O  O32  1  0.73479662  0.26845481  0.97081818  1
  O  O33  1  0.70339906  0.29290635  0.27793603  1
  O  O34  1  0.72148547  0.27820689  0.47996061  1
  O  O35  1  0.79059618  0.79397638  0.27700662  1
  O  O36  1  0.73040576  0.26890649  0.76818565  1
  O  O37  1  0.77336466  0.77363874  0.77137556  1
  O  O38  1  0.89881703  0.52411881  0.11246966  1
  O  O39  1  0.91749639  0.51016961  0.62719650  1
