# generated using pymatgen
data_CuP2H12N2(O4F)2
_symmetry_space_group_name_H-M   'P 1'
_cell_length_a   7.25969882
_cell_length_b   7.25969882
_cell_length_c   7.49739803
_cell_angle_alpha   70.89671564
_cell_angle_beta   109.10328436
_cell_angle_gamma   137.21231748
_symmetry_Int_Tables_number   1
_chemical_formula_structural   CuP2H12N2(O4F)2
_chemical_formula_sum   'Cu1 P2 H12 N2 O8 F2'
_cell_volume   251.28314269
_cell_formula_units_Z   1
loop_
 _symmetry_equiv_pos_site_id
 _symmetry_equiv_pos_as_xyz
  1  'x, y, z'
loop_
 _atom_site_type_symbol
 _atom_site_label
 _atom_site_symmetry_multiplicity
 _atom_site_fract_x
 _atom_site_fract_y
 _atom_site_fract_z
 _atom_site_occupancy
  Cu  Cu0  1  0.00000000  0.00000000  0.00000000  1
  P  P1  1  0.37621032  0.62378968  0.78377089  1
  P  P2  1  0.62378968  0.37621032  0.21622911  1
  H  H3  1  0.13232734  0.16871705  0.65410949  1
  H  H4  1  0.83128295  0.86767266  0.65410949  1
  H  H5  1  0.86767266  0.83128295  0.34589051  1
  H  H6  1  0.16871705  0.13232734  0.34589051  1
  H  H7  1  0.81498143  0.49862247  0.82117332  1
  H  H8  1  0.50137753  0.18501857  0.82117332  1
  H  H9  1  0.18501857  0.50137753  0.17882668  1
  H  H10  1  0.49862247  0.81498143  0.17882668  1
  H  H11  1  0.62669849  0.37330151  0.61151289  1
  H  H12  1  0.37330151  0.62669849  0.38848711  1
  H  H13  1  0.75354452  0.24645548  0.76936242  1
  H  H14  1  0.24645548  0.75354452  0.23063758  1
  N  N15  1  0.67463607  0.32536393  0.75575796  1
  N  N16  1  0.32536393  0.67463607  0.24424204  1
  O  O17  1  0.43799708  0.56200292  0.64834855  1
  O  O18  1  0.56200292  0.43799708  0.35165145  1
  O  O19  1  0.62471674  0.85718131  0.90063804  1
  O  O20  1  0.14281869  0.37528326  0.90063804  1
  O  O21  1  0.37528326  0.14281869  0.09936196  1
  O  O22  1  0.85718131  0.62471674  0.09936196  1
  O  O23  1  0.02466115  0.97533885  0.70783951  1
  O  O24  1  0.97533885  0.02466115  0.29216049  1
  F  F25  1  0.25348186  0.74651814  0.64431055  1
  F  F26  1  0.74651814  0.25348186  0.35568945  1
