# generated using pymatgen
data_Ag15(BiI4)16
_symmetry_space_group_name_H-M   'P 1'
_cell_length_a   9.02881548
_cell_length_b   9.05671933
_cell_length_c   71.78075387
_cell_angle_alpha   60.26932260
_cell_angle_beta   60.29754182
_cell_angle_gamma   58.29666106
_symmetry_Int_Tables_number   1
_chemical_formula_structural   Ag15(BiI4)16
_chemical_formula_sum   'Ag15 Bi16 I64'
_cell_volume   4111.42062254
_cell_formula_units_Z   1
loop_
 _symmetry_equiv_pos_site_id
 _symmetry_equiv_pos_as_xyz
  1  'x, y, z'
loop_
 _atom_site_type_symbol
 _atom_site_label
 _atom_site_symmetry_multiplicity
 _atom_site_fract_x
 _atom_site_fract_y
 _atom_site_fract_z
 _atom_site_occupancy
  Ag  Ag0  1  0.50000000  0.00000000  0.00000000  1
  Ag  Ag1  1  0.50385107  0.99951853  0.12428266  1
  Ag  Ag2  1  0.00151271  0.50442154  0.12404753  1
  Ag  Ag3  1  0.50090408  0.00023512  0.37486554  1
  Ag  Ag4  1  0.50141140  0.00056616  0.24976267  1
  Ag  Ag5  1  0.00078314  0.50151620  0.24974164  1
  Ag  Ag6  1  0.00026114  0.50080589  0.37487499  1
  Ag  Ag7  1  0.99973886  0.49919411  0.62512501  1
  Ag  Ag8  1  0.50000000  0.00000000  0.50000000  1
  Ag  Ag9  1  0.49909592  0.99976488  0.62513446  1
  Ag  Ag10  1  0.00000000  0.50000000  0.50000000  1
  Ag  Ag11  1  0.49858860  0.99943384  0.75023733  1
  Ag  Ag12  1  0.49614893  0.00048147  0.87571734  1
  Ag  Ag13  1  0.99921686  0.49848380  0.75025836  1
  Ag  Ag14  1  0.99848729  0.49557846  0.87595247  1
  Bi  Bi15  1  0.00000000  0.00000000  0.00000000  1
  Bi  Bi16  1  0.00245134  0.00838316  0.06092942  1
  Bi  Bi17  1  0.99943856  0.00050592  0.18722358  1
  Bi  Bi18  1  0.00059002  0.99895973  0.12467375  1
  Bi  Bi19  1  -0.00002308  0.00009733  0.31232245  1
  Bi  Bi20  1  0.99983278  0.99977941  0.37493053  1
  Bi  Bi21  1  0.00008876  0.99905985  0.24989567  1
  Bi  Bi22  1  0.00016722  0.00022059  0.62506947  1
  Bi  Bi23  1  0.00002992  0.99996946  0.43744035  1
  Bi  Bi24  1  0.00002308  0.99990267  0.68767755  1
  Bi  Bi25  1  0.00000000  0.00000000  0.50000000  1
  Bi  Bi26  1  0.99997008  0.00003054  0.56255965  1
  Bi  Bi27  1  0.99754866  0.99161684  0.93907058  1
  Bi  Bi28  1  0.99991124  0.00094015  0.75010433  1
  Bi  Bi29  1  0.00056144  0.99949408  0.81277642  1
  Bi  Bi30  1  0.99940998  0.00104027  0.87532625  1
  I  I31  1  0.24864134  0.22419560  0.03134069  1
  I  I32  1  0.23900357  0.23702812  0.09772693  1
  I  I33  1  0.23617970  0.74008749  0.03286561  1
  I  I34  1  0.75133926  0.24509629  0.03178885  1
  I  I35  1  0.23783408  0.23741324  0.15494188  1
  I  I36  1  0.25419048  0.75410977  0.09377785  1
  I  I37  1  0.75993199  0.25590064  0.09280229  1
  I  I38  1  0.23834473  0.23811065  0.22267390  1
  I  I39  1  0.74520583  0.78090904  0.02712164  1
  I  I40  1  0.24126566  0.74424071  0.15741212  1
  I  I41  1  0.76010093  0.76057026  0.09524125  1
  I  I42  1  0.74425910  0.24243090  0.15738174  1
  I  I43  1  0.23811044  0.23813170  0.28027920  1
  I  I44  1  0.25497993  0.75662014  0.21835940  1
  I  I45  1  0.75667752  0.25525265  0.21818252  1
  I  I46  1  0.76029723  0.76245794  0.15278755  1
  I  I47  1  0.24219795  0.74469697  0.28230444  1
  I  I48  1  0.23842422  0.23827725  0.34762522  1
  I  I49  1  0.76068452  0.76065143  0.21987852  1
  I  I50  1  0.74465957  0.24224390  0.28221351  1
  I  I51  1  0.23829161  0.23836168  0.40527230  1
  I  I52  1  0.25506372  0.75723957  0.34315488  1
  I  I53  1  0.75731656  0.25501133  0.34305228  1
  I  I54  1  0.76117631  0.76149023  0.27753370  1
  I  I55  1  0.23850768  0.23832991  0.47255779  1
  I  I56  1  0.24220231  0.74489637  0.40717721  1
  I  I57  1  0.74478671  0.24224187  0.40707937  1
  I  I58  1  0.76119671  0.76125202  0.34479965  1
  I  I59  1  0.23847397  0.23852392  0.53024546  1
  I  I60  1  0.25504447  0.75748968  0.46803997  1
  I  I61  1  0.75757251  0.25496011  0.46793461  1
  I  I62  1  0.76144307  0.76156562  0.40248500  1
  I  I63  1  0.24242749  0.74503989  0.53206539  1
  I  I64  1  0.23855693  0.23843438  0.59751500  1
  I  I65  1  0.74495553  0.24251032  0.53196003  1
  I  I66  1  0.76152603  0.76147608  0.46975454  1
  I  I67  1  0.23880329  0.23874798  0.65520035  1
  I  I68  1  0.25521329  0.75775813  0.59292063  1
  I  I69  1  0.75779769  0.25510363  0.59282279  1
  I  I70  1  0.76149232  0.76167009  0.52744221  1
  I  I71  1  0.23882369  0.23850977  0.72246630  1
  I  I72  1  0.24268344  0.74498867  0.65694772  1
  I  I73  1  0.76170839  0.76163832  0.59472770  1
  I  I74  1  0.74493628  0.24276043  0.65684512  1
  I  I75  1  0.23931548  0.23934857  0.78012148  1
  I  I76  1  0.25534043  0.75775610  0.71778649  1
  I  I77  1  0.23970277  0.23754206  0.84721245  1
  I  I78  1  0.24332248  0.74474735  0.78181748  1
  I  I79  1  0.75780205  0.25530303  0.71769556  1
  I  I80  1  0.76157578  0.76172275  0.65237478  1
  I  I81  1  0.74502007  0.24337986  0.78164060  1
  I  I82  1  0.76188956  0.76186830  0.71972080  1
  I  I83  1  0.23989907  0.23942974  0.90475875  1
  I  I84  1  0.25574090  0.75756910  0.84261826  1
  I  I85  1  0.76165527  0.76188935  0.77732610  1
  I  I86  1  0.24006801  0.74409936  0.90719771  1
  I  I87  1  0.75873434  0.25575929  0.84258788  1
  I  I88  1  0.25479417  0.21909096  0.97287836  1
  I  I89  1  0.74580952  0.24589023  0.90622215  1
  I  I90  1  0.76216592  0.76258676  0.84505812  1
  I  I91  1  0.24866074  0.75490371  0.96821115  1
  I  I92  1  0.76382030  0.25991251  0.96713439  1
  I  I93  1  0.76099643  0.76297188  0.90227307  1
  I  I94  1  0.75135866  0.77580440  0.96865931  1
