# generated using pymatgen
data_H7S(NO2)2
_symmetry_space_group_name_H-M   'P 1'
_cell_length_a   5.58845479
_cell_length_b   5.61476515
_cell_length_c   8.69511939
_cell_angle_alpha   72.22756960
_cell_angle_beta   75.09293578
_cell_angle_gamma   67.39536360
_symmetry_Int_Tables_number   1
_chemical_formula_structural   H7S(NO2)2
_chemical_formula_sum   'H14 S2 N4 O8'
_cell_volume   236.79672147
_cell_formula_units_Z   2
loop_
 _symmetry_equiv_pos_site_id
 _symmetry_equiv_pos_as_xyz
  1  'x, y, z'
loop_
 _atom_site_type_symbol
 _atom_site_label
 _atom_site_symmetry_multiplicity
 _atom_site_fract_x
 _atom_site_fract_y
 _atom_site_fract_z
 _atom_site_occupancy
  H  H0  1  0.79495478  0.82218465  0.96517071  1
  H  H1  1  0.20504522  0.17781535  0.03482929  1
  H  H2  1  0.99483985  0.75688917  0.10690371  1
  H  H3  1  0.00516015  0.24311083  0.89309629  1
  H  H4  1  0.66858263  0.94981197  0.13234789  1
  H  H5  1  0.33141737  0.05018803  0.86765211  1
  H  H6  1  0.75521245  0.62119450  0.14921155  1
  H  H7  1  0.24478755  0.37880550  0.85078845  1
  H  H8  1  0.79735906  0.23332983  0.43154871  1
  H  H9  1  0.20264094  0.76667017  0.56845129  1
  H  H10  1  0.82272189  0.10068361  0.63635312  1
  H  H11  1  0.17727811  0.89931639  0.36364688  1
  H  H12  1  0.06119402  0.22938598  0.50544524  1
  H  H13  1  0.93880598  0.77061402  0.49455476  1
  S  S14  1  0.59690457  0.62465190  0.72516516  1
  S  S15  1  0.40309543  0.37534810  0.27483484  1
  N  N16  1  0.92620354  0.12781695  0.51839949  1
  N  N17  1  0.07379646  0.87218305  0.48160051  1
  N  N18  1  0.80617108  0.79062465  0.08713906  1
  N  N19  1  0.19382892  0.20937535  0.91286094  1
  O  O20  1  0.69285132  0.66215891  0.54510804  1
  O  O21  1  0.30714868  0.33784109  0.45489196  1
  O  O22  1  0.71421533  0.34259910  0.81084388  1
  O  O23  1  0.28578467  0.65740090  0.18915612  1
  O  O24  1  0.30358155  0.69350600  0.75367347  1
  O  O25  1  0.69641845  0.30649400  0.24632653  1
  O  O26  1  0.66652737  0.80498004  0.78879864  1
  O  O27  1  0.33347263  0.19501996  0.21120136  1
