# generated using pymatgen
data_KBiH10C4O13
_symmetry_space_group_name_H-M   'P 1'
_cell_length_a   9.19431101
_cell_length_b   11.98076969
_cell_length_c   9.85303924
_cell_angle_alpha   48.61484364
_cell_angle_beta   77.86784925
_cell_angle_gamma   53.51730711
_symmetry_Int_Tables_number   1
_chemical_formula_structural   KBiH10C4O13
_chemical_formula_sum   'K2 Bi2 H20 C8 O26'
_cell_volume   623.92307025
_cell_formula_units_Z   2
loop_
 _symmetry_equiv_pos_site_id
 _symmetry_equiv_pos_as_xyz
  1  'x, y, z'
loop_
 _atom_site_type_symbol
 _atom_site_label
 _atom_site_symmetry_multiplicity
 _atom_site_fract_x
 _atom_site_fract_y
 _atom_site_fract_z
 _atom_site_occupancy
  K  K0  1  0.15533472  0.15533472  0.34466528  1
  K  K1  1  0.90533472  0.90533472  0.09466528  1
  Bi  Bi2  1  0.65604022  0.65604022  0.84395978  1
  Bi  Bi3  1  0.40604022  0.40604022  0.59395978  1
  H  H4  1  0.04207925  0.85227082  0.63979871  1
  H  H5  1  0.85227082  0.04207925  0.46585121  1
  H  H6  1  0.61020129  0.78414879  0.20792075  1
  H  H7  1  0.78414879  0.61020129  0.39772918  1
  H  H8  1  0.46649598  0.13524783  0.12312476  1
  H  H9  1  0.13524783  0.46649598  0.27513143  1
  H  H10  1  0.12687524  0.97486857  0.78350402  1
  H  H11  1  0.97486857  0.12687524  0.11475217  1
  H  H12  1  0.59942034  0.94616298  0.33646586  1
  H  H13  1  0.94616298  0.59942034  0.11795082  1
  H  H14  1  0.91353414  0.13204918  0.65057966  1
  H  H15  1  0.13204918  0.91353414  0.30383702  1
  H  H16  1  0.26904154  0.94984454  0.08053584  1
  H  H17  1  0.94984454  0.26904154  0.70057807  1
  H  H18  1  0.16946416  0.54942193  0.98095846  1
  H  H19  1  0.54942193  0.16946416  0.30015546  1
  H  H20  1  0.34501176  0.06166870  0.98633319  1
  H  H21  1  0.06166870  0.34501176  0.60698635  1
  H  H22  1  0.26366681  0.64301365  0.90498824  1
  H  H23  1  0.64301365  0.26366681  0.18833130  1
  C  C24  1  0.97337529  0.62044844  0.61622162  1
  C  C25  1  0.62044844  0.97337529  0.78995466  1
  C  C26  1  0.63377838  0.46004534  0.27662471  1
  C  C27  1  0.46004534  0.63377838  0.62955156  1
  C  C28  1  0.08922455  0.43041381  0.82590648  1
  C  C29  1  0.43041381  0.08922455  0.65445516  1
  C  C30  1  0.42409352  0.59554484  0.16077545  1
  C  C31  1  0.59554484  0.42409352  0.81958619  1
  O  O32  1  0.00259560  0.40688035  0.94987169  1
  O  O33  1  0.40688035  0.00259560  0.64065236  1
  O  O34  1  0.30012831  0.60934764  0.24740440  1
  O  O35  1  0.60934764  0.30012831  0.84311965  1
  O  O36  1  0.79810767  0.74055741  0.58188020  1
  O  O37  1  0.74055741  0.79810767  0.87945472  1
  O  O38  1  0.66811980  0.37054528  0.45189233  1
  O  O39  1  0.37054528  0.66811980  0.50944259  1
  O  O40  1  0.26507679  0.30828631  0.86191763  1
  O  O41  1  0.30828631  0.26507679  0.56471928  1
  O  O42  1  0.38808237  0.68528072  0.98492321  1
  O  O43  1  0.68528072  0.38808237  0.94171369  1
  O  O44  1  0.05906304  0.64424370  0.49184246  1
  O  O45  1  0.64424370  0.05906304  0.80485080  1
  O  O46  1  0.75815754  0.44514920  0.19093696  1
  O  O47  1  0.44514920  0.75815754  0.60575630  1
  O  O48  1  0.98338165  0.98338165  0.51661835  1
  O  O49  1  0.73338165  0.73338165  0.26661835  1
  O  O50  1  0.48972140  0.08231387  0.25234884  1
  O  O51  1  0.08231387  0.48972140  0.17561589  1
  O  O52  1  0.99765116  0.07438411  0.76027860  1
  O  O53  1  0.07438411  0.99765116  0.16768613  1
  O  O54  1  0.37825180  0.94436964  0.03406908  1
  O  O55  1  0.94436964  0.37825180  0.64330948  1
  O  O56  1  0.21593092  0.60669052  0.87174820  1
  O  O57  1  0.60669052  0.21593092  0.30563036  1
