# generated using pymatgen
data_CsH2CO3
_symmetry_space_group_name_H-M   'P 1'
_cell_length_a   6.27326517
_cell_length_b   10.98858821
_cell_length_c   6.27623623
_cell_angle_alpha   90.00000000
_cell_angle_beta   111.01012628
_cell_angle_gamma   90.00000000
_symmetry_Int_Tables_number   1
_chemical_formula_structural   CsH2CO3
_chemical_formula_sum   'Cs4 H8 C4 O12'
_cell_volume   403.88441234
_cell_formula_units_Z   4
loop_
 _symmetry_equiv_pos_site_id
 _symmetry_equiv_pos_as_xyz
  1  'x, y, z'
loop_
 _atom_site_type_symbol
 _atom_site_label
 _atom_site_symmetry_multiplicity
 _atom_site_fract_x
 _atom_site_fract_y
 _atom_site_fract_z
 _atom_site_occupancy
  Cs  Cs0  1  0.89032219  0.38401970  0.70889262  1
  Cs  Cs1  1  0.10967781  0.88401970  0.79110738  1
  Cs  Cs2  1  0.10967781  0.61598030  0.29110738  1
  Cs  Cs3  1  0.89032219  0.11598030  0.20889262  1
  H  H4  1  0.33710482  0.36193349  0.39073459  1
  H  H5  1  0.66289518  0.86193349  0.10926541  1
  H  H6  1  0.66289518  0.63806651  0.60926541  1
  H  H7  1  0.33710482  0.13806651  0.89073459  1
  H  H8  1  0.34860673  0.26702105  0.58356172  1
  H  H9  1  0.65139327  0.76702105  0.91643828  1
  H  H10  1  0.65139327  0.73297895  0.41643828  1
  H  H11  1  0.34860673  0.23297895  0.08356172  1
  C  C12  1  0.52777583  0.06026228  0.57462254  1
  C  C13  1  0.47222417  0.56026228  0.92537746  1
  C  C14  1  0.47222417  0.93973772  0.42537746  1
  C  C15  1  0.52777583  0.43973772  0.07462254  1
  O  O16  1  0.72511651  0.10517896  0.63133614  1
  O  O17  1  0.27488349  0.60517896  0.86866386  1
  O  O18  1  0.27488349  0.89482104  0.36866386  1
  O  O19  1  0.72511651  0.39482104  0.13133614  1
  O  O20  1  0.36291681  0.10473508  0.62547432  1
  O  O21  1  0.63708319  0.60473508  0.87452568  1
  O  O22  1  0.63708319  0.89526492  0.37452568  1
  O  O23  1  0.36291681  0.39526492  0.12547432  1
  O  O24  1  0.30721683  0.35268056  0.53430177  1
  O  O25  1  0.69278317  0.85268056  0.96569823  1
  O  O26  1  0.69278317  0.64731944  0.46569823  1
  O  O27  1  0.30721683  0.14731944  0.03430177  1
