# generated using pymatgen
data_LiMo2PO8
_symmetry_space_group_name_H-M   'P 1'
_cell_length_a   6.78948734
_cell_length_b   5.36580794
_cell_length_c   17.91956591
_cell_angle_alpha   90.00000000
_cell_angle_beta   90.91884390
_cell_angle_gamma   90.00000000
_symmetry_Int_Tables_number   1
_chemical_formula_structural   LiMo2PO8
_chemical_formula_sum   'Li4 Mo8 P4 O32'
_cell_volume   652.74528438
_cell_formula_units_Z   4
loop_
 _symmetry_equiv_pos_site_id
 _symmetry_equiv_pos_as_xyz
  1  'x, y, z'
loop_
 _atom_site_type_symbol
 _atom_site_label
 _atom_site_symmetry_multiplicity
 _atom_site_fract_x
 _atom_site_fract_y
 _atom_site_fract_z
 _atom_site_occupancy
  Li  Li0  1  0.25877352  0.21108827  0.78218212  1
  Li  Li1  1  0.74122648  0.71108827  0.21781788  1
  Li  Li2  1  0.24635016  0.21229426  0.29186593  1
  Li  Li3  1  0.75364984  0.71229426  0.70813407  1
  Mo  Mo4  1  0.15798300  0.27129566  0.45283493  1
  Mo  Mo5  1  0.66020267  0.77015794  0.04812622  1
  Mo  Mo6  1  0.84201700  0.77129566  0.54716507  1
  Mo  Mo7  1  0.00613662  0.26257115  0.12225257  1
  Mo  Mo8  1  0.33979733  0.27015794  0.95187378  1
  Mo  Mo9  1  0.99386338  0.76257115  0.87774743  1
  Mo  Mo10  1  0.50151831  0.77527516  0.37452973  1
  Mo  Mo11  1  0.49848169  0.27527516  0.62547027  1
  P  P12  1  0.30298400  0.78114582  0.18998800  1
  P  P13  1  0.80412621  0.27293902  0.30559283  1
  P  P14  1  0.69701600  0.28114582  0.81001200  1
  P  P15  1  0.19587379  0.77293902  0.69440717  1
  O  O16  1  0.47151446  0.53851713  0.99126595  1
  O  O17  1  0.67223411  0.54167343  0.60704915  1
  O  O18  1  0.99809538  0.25504261  0.35226477  1
  O  O19  1  0.86609094  0.31573619  0.22420950  1
  O  O20  1  0.15479195  0.59492764  0.15988184  1
  O  O21  1  0.16244415  0.25920227  0.04230169  1
  O  O22  1  0.33916162  0.28182062  0.54453457  1
  O  O23  1  0.20354262  0.98102238  0.91591550  1
  O  O24  1  0.83755585  0.75920227  0.95769831  1
  O  O25  1  0.52848554  0.03851713  0.00873405  1
  O  O26  1  0.78162640  0.55274587  0.81003821  1
  O  O27  1  0.66083838  0.78182062  0.45546543  1
  O  O28  1  0.21837260  0.05274587  0.18996179  1
  O  O29  1  0.35370715  0.71983465  0.27281927  1
  O  O30  1  0.50383164  0.76925560  0.14889331  1
  O  O31  1  0.31720635  0.53039989  0.68906994  1
  O  O32  1  0.32776589  0.04167343  0.39295085  1
  O  O33  1  0.85380028  0.97092893  0.10920440  1
  O  O34  1  0.49616836  0.26925560  0.85110669  1
  O  O35  1  0.00190462  0.75504261  0.64773523  1
  O  O36  1  0.14619972  0.47092893  0.89079560  1
  O  O37  1  0.31055799  0.00993626  0.67521991  1
  O  O38  1  0.68279365  0.03039989  0.31093006  1
  O  O39  1  0.31469721  0.53088895  0.41165361  1
  O  O40  1  0.68530279  0.03088895  0.58834639  1
  O  O41  1  0.79645738  0.48102238  0.08408450  1
  O  O42  1  0.84520805  0.09492764  0.84011816  1
  O  O43  1  0.64629285  0.21983465  0.72718073  1
  O  O44  1  0.98725020  0.52610131  0.50304292  1
  O  O45  1  0.01274980  0.02610131  0.49695708  1
  O  O46  1  0.68944201  0.50993626  0.32478009  1
  O  O47  1  0.13390906  0.81573619  0.77579050  1
