# generated using pymatgen
data_LiCr4(PO4)3
_symmetry_space_group_name_H-M   'P 1'
_cell_length_a   8.89522516
_cell_length_b   8.89522560
_cell_length_c   7.35476522
_cell_angle_alpha   68.52523944
_cell_angle_beta   111.47476168
_cell_angle_gamma   89.86203436
_symmetry_Int_Tables_number   1
_chemical_formula_structural   LiCr4(PO4)3
_chemical_formula_sum   'Li2 Cr8 P6 O24'
_cell_volume   497.65848174
_cell_formula_units_Z   2
loop_
 _symmetry_equiv_pos_site_id
 _symmetry_equiv_pos_as_xyz
  1  'x, y, z'
loop_
 _atom_site_type_symbol
 _atom_site_label
 _atom_site_symmetry_multiplicity
 _atom_site_fract_x
 _atom_site_fract_y
 _atom_site_fract_z
 _atom_site_occupancy
  Li  Li0  1  0.00623211  0.00623211  0.25000000  1
  Li  Li1  1  0.99376789  0.99376789  0.75000000  1
  Cr  Cr2  1  0.61392914  0.06091276  0.84899860  1
  Cr  Cr3  1  0.73314806  0.73314806  0.75000000  1
  Cr  Cr4  1  0.93908724  0.38607086  0.34899860  1
  Cr  Cr5  1  0.49307015  0.49307015  0.75000000  1
  Cr  Cr6  1  0.50692985  0.50692985  0.25000000  1
  Cr  Cr7  1  0.38607086  0.93908724  0.15100140  1
  Cr  Cr8  1  0.26685194  0.26685194  0.25000000  1
  Cr  Cr9  1  0.06091276  0.61392914  0.65100140  1
  P  P10  1  0.88370034  0.33674334  0.89063783  1
  P  P11  1  0.66325666  0.11629966  0.39063783  1
  P  P12  1  0.72198562  0.72198562  0.25000000  1
  P  P13  1  0.11629966  0.66325666  0.10936217  1
  P  P14  1  0.27801438  0.27801438  0.75000000  1
  P  P15  1  0.33674334  0.88370034  0.60936217  1
  O  O16  1  0.59496125  0.04835591  0.21858398  1
  O  O17  1  0.16708521  0.25418042  0.55180695  1
  O  O18  1  0.25961718  0.52678837  0.15827016  1
  O  O19  1  0.52678837  0.25961718  0.34172984  1
  O  O20  1  0.26706003  0.45929960  0.74164160  1
  O  O21  1  0.29979065  0.01475097  0.38164206  1
  O  O22  1  0.98524903  0.70020935  0.88164206  1
  O  O23  1  0.01475097  0.29979065  0.11835794  1
  O  O24  1  0.54070040  0.73293997  0.24164160  1
  O  O25  1  0.73293997  0.54070040  0.25835840  1
  O  O26  1  0.47321163  0.74038282  0.65827016  1
  O  O27  1  0.17703163  0.82836174  0.09632703  1
  O  O28  1  0.82296837  0.17163826  0.90367297  1
  O  O29  1  0.95164409  0.40503875  0.71858398  1
  O  O30  1  0.04835591  0.59496125  0.28141602  1
  O  O31  1  0.17163826  0.82296837  0.59632703  1
  O  O32  1  0.70020935  0.98524903  0.61835794  1
  O  O33  1  0.83291479  0.74581958  0.44819305  1
  O  O34  1  0.45929960  0.26706003  0.75835840  1
  O  O35  1  0.82836174  0.17703163  0.40367297  1
  O  O36  1  0.25418042  0.16708521  0.94819305  1
  O  O37  1  0.74581958  0.83291479  0.05180695  1
  O  O38  1  0.74038282  0.47321163  0.84172984  1
  O  O39  1  0.40503875  0.95164409  0.78141602  1
