# generated using pymatgen
data_TlNi4(PO4)3
_symmetry_space_group_name_H-M   'P 1'
_cell_length_a   6.32312049
_cell_length_b   8.75270331
_cell_length_c   9.76835390
_cell_angle_alpha   90.00000000
_cell_angle_beta   90.00000000
_cell_angle_gamma   111.17449880
_symmetry_Int_Tables_number   1
_chemical_formula_structural   TlNi4(PO4)3
_chemical_formula_sum   'Tl2 Ni8 P6 O24'
_cell_volume   504.12327277
_cell_formula_units_Z   2
loop_
 _symmetry_equiv_pos_site_id
 _symmetry_equiv_pos_as_xyz
  1  'x, y, z'
loop_
 _atom_site_type_symbol
 _atom_site_label
 _atom_site_symmetry_multiplicity
 _atom_site_fract_x
 _atom_site_fract_y
 _atom_site_fract_z
 _atom_site_occupancy
  Tl  Tl0  1  0.02620065  0.05240129  0.46468014  1
  Tl  Tl1  1  0.97379935  0.94759871  0.96468014  1
  Ni  Ni2  1  0.45386127  0.40688634  0.99814374  1
  Ni  Ni3  1  0.54613873  0.59311366  0.49814374  1
  Ni  Ni4  1  0.37821882  0.75643764  0.19755569  1
  Ni  Ni5  1  0.62178118  0.24356236  0.69755569  1
  Ni  Ni6  1  0.04697494  0.59311366  0.49814374  1
  Ni  Ni7  1  0.95302506  0.40688634  0.99814374  1
  Ni  Ni8  1  0.62012551  0.24025101  0.23349469  1
  Ni  Ni9  1  0.37987449  0.75974899  0.73349469  1
  P  P10  1  0.46617063  0.93234125  0.48738731  1
  P  P11  1  0.82018947  0.64037894  0.21166502  1
  P  P12  1  0.17981053  0.35962106  0.71166502  1
  P  P13  1  0.79962320  0.59924641  0.78618262  1
  P  P14  1  0.53382937  0.06765875  0.98738731  1
  P  P15  1  0.20037680  0.40075359  0.28618262  1
  O  O16  1  0.52921096  0.05842191  0.82948883  1
  O  O17  1  0.39349609  0.16830979  0.05257515  1
  O  O18  1  0.60650391  0.83169021  0.55257515  1
  O  O19  1  0.26800854  0.53601709  0.63593023  1
  O  O20  1  0.44500117  0.89000233  0.03171346  1
  O  O21  1  0.78084808  0.56169616  0.62856822  1
  O  O22  1  0.66867165  0.73020855  0.16531628  1
  O  O23  1  0.06153690  0.73020855  0.16531628  1
  O  O24  1  0.77481370  0.16830979  0.05257515  1
  O  O25  1  0.93846310  0.26979145  0.66531628  1
  O  O26  1  0.55499883  0.10999767  0.53171346  1
  O  O27  1  0.95172984  0.31712600  0.33096574  1
  O  O28  1  0.63460384  0.68287400  0.83096574  1
  O  O29  1  0.33132835  0.26979145  0.66531628  1
  O  O30  1  0.04827016  0.68287400  0.83096574  1
  O  O31  1  0.71106311  0.42212622  0.85918616  1
  O  O32  1  0.28893689  0.57787378  0.35918616  1
  O  O33  1  0.22518630  0.83169021  0.55257515  1
  O  O34  1  0.80637290  0.61274580  0.36992582  1
  O  O35  1  0.47078904  0.94157809  0.32948883  1
  O  O36  1  0.19362710  0.38725420  0.86992582  1
  O  O37  1  0.36539616  0.31712600  0.33096574  1
  O  O38  1  0.73199146  0.46398291  0.13593023  1
  O  O39  1  0.21915192  0.43830384  0.12856822  1
