# generated using pymatgen
data_GeH8N2OF6
_symmetry_space_group_name_H-M   'P 1'
_cell_length_a   8.95367706
_cell_length_b   9.41194451
_cell_length_c   7.48229594
_cell_angle_alpha   90.00000000
_cell_angle_beta   90.00000000
_cell_angle_gamma   90.00000000
_symmetry_Int_Tables_number   1
_chemical_formula_structural   GeH8N2OF6
_chemical_formula_sum   'Ge4 H32 N8 O4 F24'
_cell_volume   630.54438947
_cell_formula_units_Z   4
loop_
 _symmetry_equiv_pos_site_id
 _symmetry_equiv_pos_as_xyz
  1  'x, y, z'
loop_
 _atom_site_type_symbol
 _atom_site_label
 _atom_site_symmetry_multiplicity
 _atom_site_fract_x
 _atom_site_fract_y
 _atom_site_fract_z
 _atom_site_occupancy
  Ge  Ge0  1  0.15667240  0.25000000  0.98969741  1
  Ge  Ge1  1  0.65667240  0.25000000  0.51030259  1
  Ge  Ge2  1  0.84332760  0.75000000  0.01030259  1
  Ge  Ge3  1  0.34332760  0.75000000  0.48969741  1
  H  H4  1  0.43972957  0.06384990  0.84061171  1
  H  H5  1  0.93972957  0.43615010  0.65938829  1
  H  H6  1  0.56027043  0.56384990  0.15938829  1
  H  H7  1  0.06027043  0.93615010  0.34061171  1
  H  H8  1  0.56027043  0.93615010  0.15938829  1
  H  H9  1  0.06027043  0.56384990  0.34061171  1
  H  H10  1  0.43972957  0.43615010  0.84061171  1
  H  H11  1  0.93972957  0.06384990  0.65938829  1
  H  H12  1  0.60899228  0.10489596  0.93957861  1
  H  H13  1  0.10899228  0.39510404  0.56042139  1
  H  H14  1  0.39100772  0.60489596  0.06042139  1
  H  H15  1  0.89100772  0.89510404  0.43957861  1
  H  H16  1  0.39100772  0.89510404  0.06042139  1
  H  H17  1  0.89100772  0.60489596  0.43957861  1
  H  H18  1  0.60899228  0.39510404  0.93957861  1
  H  H19  1  0.10899228  0.10489596  0.56042139  1
  H  H20  1  0.57582979  0.93717697  0.85012795  1
  H  H21  1  0.07582979  0.56282303  0.64987205  1
  H  H22  1  0.42417021  0.43717697  0.14987205  1
  H  H23  1  0.92417021  0.06282303  0.35012795  1
  H  H24  1  0.42417021  0.06282303  0.14987205  1
  H  H25  1  0.92417021  0.43717697  0.35012795  1
  H  H26  1  0.57582979  0.56282303  0.85012795  1
  H  H27  1  0.07582979  0.93717697  0.64987205  1
  H  H28  1  0.74929251  0.25000000  0.13264455  1
  H  H29  1  0.24929251  0.25000000  0.36735545  1
  H  H30  1  0.25070749  0.75000000  0.86735545  1
  H  H31  1  0.75070749  0.75000000  0.63264455  1
  H  H32  1  0.80062952  0.25000000  0.93231901  1
  H  H33  1  0.30062952  0.25000000  0.56768099  1
  H  H34  1  0.19937048  0.75000000  0.06768099  1
  H  H35  1  0.69937048  0.75000000  0.43231901  1
  N  N36  1  0.52876904  0.02383528  0.91503059  1
  N  N37  1  0.02876904  0.47616472  0.58496941  1
  N  N38  1  0.47123096  0.52383528  0.08496941  1
  N  N39  1  0.97123096  0.97616472  0.41503059  1
  N  N40  1  0.47123096  0.97616472  0.08496941  1
  N  N41  1  0.97123096  0.52383528  0.41503059  1
  N  N42  1  0.52876904  0.47616472  0.91503059  1
  N  N43  1  0.02876904  0.02383528  0.58496941  1
  O  O44  1  0.71074605  0.25000000  0.00973223  1
  O  O45  1  0.21074605  0.25000000  0.49026777  1
  O  O46  1  0.28925395  0.75000000  0.99026777  1
  O  O47  1  0.78925395  0.75000000  0.50973223  1
  F  F48  1  0.33533743  0.25000000  0.12794607  1
  F  F49  1  0.83533743  0.25000000  0.37205393  1
  F  F50  1  0.66466257  0.75000000  0.87205393  1
  F  F51  1  0.16466257  0.75000000  0.62794607  1
  F  F52  1  0.99041603  0.25000000  0.84627852  1
  F  F53  1  0.49041603  0.25000000  0.65372148  1
  F  F54  1  0.00958397  0.75000000  0.15372148  1
  F  F55  1  0.50958397  0.75000000  0.34627852  1
  F  F56  1  0.08375661  0.11394542  0.13436965  1
  F  F57  1  0.58375661  0.38605458  0.36563035  1
  F  F58  1  0.91624339  0.61394542  0.86563035  1
  F  F59  1  0.41624339  0.88605458  0.63436965  1
  F  F60  1  0.91624339  0.88605458  0.86563035  1
  F  F61  1  0.41624339  0.61394542  0.63436965  1
  F  F62  1  0.08375661  0.38605458  0.13436965  1
  F  F63  1  0.58375661  0.11394542  0.36563035  1
  F  F64  1  0.24210970  0.11235242  0.84664817  1
  F  F65  1  0.74210970  0.38764758  0.65335183  1
  F  F66  1  0.75789030  0.61235242  0.15335183  1
  F  F67  1  0.25789030  0.88764758  0.34664817  1
  F  F68  1  0.75789030  0.88764758  0.15335183  1
  F  F69  1  0.25789030  0.61235242  0.34664817  1
  F  F70  1  0.24210970  0.38764758  0.84664817  1
  F  F71  1  0.74210970  0.11235242  0.65335183  1
