# generated using pymatgen
data_Mn9(PO4)8
_symmetry_space_group_name_H-M   'P 1'
_cell_length_a   9.28420573
_cell_length_b   8.98185188
_cell_length_c   8.92342294
_cell_angle_alpha   102.26705297
_cell_angle_beta   99.83738207
_cell_angle_gamma   112.14769162
_symmetry_Int_Tables_number   1
_chemical_formula_structural   Mn9(PO4)8
_chemical_formula_sum   'Mn9 P8 O32'
_cell_volume   647.07114669
_cell_formula_units_Z   1
loop_
 _symmetry_equiv_pos_site_id
 _symmetry_equiv_pos_as_xyz
  1  'x, y, z'
loop_
 _atom_site_type_symbol
 _atom_site_label
 _atom_site_symmetry_multiplicity
 _atom_site_fract_x
 _atom_site_fract_y
 _atom_site_fract_z
 _atom_site_occupancy
  Mn  Mn0  1  0.45100604  0.69535178  0.32528189  1
  Mn  Mn1  1  0.56006794  0.12504298  0.28272959  1
  Mn  Mn2  1  0.50000000  0.50000000  0.00000000  1
  Mn  Mn3  1  0.43993206  0.87495702  0.71727041  1
  Mn  Mn4  1  0.00000000  0.00000000  0.00000000  1
  Mn  Mn5  1  0.05289546  0.29624634  0.77993181  1
  Mn  Mn6  1  0.94710454  0.70375366  0.22006819  1
  Mn  Mn7  1  0.00000000  0.50000000  0.50000000  1
  Mn  Mn8  1  0.54899396  0.30464822  0.67471811  1
  P  P9  1  0.71925222  0.53842388  0.34148268  1
  P  P10  1  0.09704697  0.37636309  0.14902475  1
  P  P11  1  0.34769940  0.11579380  0.94934676  1
  P  P12  1  0.90295303  0.62363691  0.85097525  1
  P  P13  1  0.28074778  0.46157612  0.65851732  1
  P  P14  1  0.70496906  0.04361156  0.59488011  1
  P  P15  1  0.65230060  0.88420620  0.05065324  1
  P  P16  1  0.29503094  0.95638844  0.40511989  1
  O  O17  1  0.44683103  0.25233221  0.87941268  1
  O  O18  1  0.34121816  0.94186724  0.87493947  1
  O  O19  1  0.58340882  0.83029267  0.86658220  1
  O  O20  1  0.00431743  0.66860542  0.02647311  1
  O  O21  1  0.57637329  0.56653914  0.37392723  1
  O  O22  1  0.28103115  0.47457935  0.83917552  1
  O  O23  1  0.96332664  0.52368125  0.73338458  1
  O  O24  1  0.72126969  0.51744925  0.83457796  1
  O  O25  1  0.41659118  0.16970733  0.13341780  1
  O  O26  1  0.29111800  0.91265062  0.56207862  1
  O  O27  1  0.35911452  0.85686532  0.29081338  1
  O  O28  1  0.07031124  0.20344198  0.17665780  1
  O  O29  1  0.03667336  0.47631875  0.26661542  1
  O  O30  1  0.92968876  0.79655802  0.82334220  1
  O  O31  1  0.10588826  0.31161845  0.57627292  1
  O  O32  1  0.27873031  0.48255075  0.16542204  1
  O  O33  1  0.27195473  0.61262657  0.60844407  1
  O  O34  1  0.55316897  0.74766779  0.12058732  1
  O  O35  1  0.70888200  0.08734938  0.43792138  1
  O  O36  1  0.42413692  0.14466743  0.44178441  1
  O  O37  1  0.42362671  0.43346086  0.62607277  1
  O  O38  1  0.57586308  0.85533257  0.55821459  1
  O  O39  1  0.65878184  0.05813276  0.12506053  1
  O  O40  1  0.82454812  0.88783003  0.08501530  1
  O  O41  1  0.71896885  0.52542065  0.16082448  1
  O  O42  1  0.17545188  0.11216997  0.91498470  1
  O  O43  1  0.72804527  0.38737343  0.39155593  1
  O  O44  1  0.89411174  0.68838155  0.42372708  1
  O  O45  1  0.64088548  0.14313468  0.70918662  1
  O  O46  1  0.99568257  0.33139458  0.97352689  1
  O  O47  1  0.12531661  0.92942738  0.31859231  1
  O  O48  1  0.87468339  0.07057262  0.68140769  1
