# generated using pymatgen
data_Nb12WO33
_symmetry_space_group_name_H-M   'P 1'
_cell_length_a   3.87321067
_cell_length_b   11.56871398
_cell_length_c   15.35299788
_cell_angle_alpha   83.60094629
_cell_angle_beta   82.72362695
_cell_angle_gamma   80.27362878
_symmetry_Int_Tables_number   1
_chemical_formula_structural   Nb12WO33
_chemical_formula_sum   'Nb12 W1 O33'
_cell_volume   669.72980980
_cell_formula_units_Z   1
loop_
 _symmetry_equiv_pos_site_id
 _symmetry_equiv_pos_as_xyz
  1  'x, y, z'
loop_
 _atom_site_type_symbol
 _atom_site_label
 _atom_site_symmetry_multiplicity
 _atom_site_fract_x
 _atom_site_fract_y
 _atom_site_fract_z
 _atom_site_occupancy
  Nb  Nb0  1  0.74886538  0.36121291  0.13861902  1
  Nb  Nb1  1  0.36094759  0.31081404  0.95414631  1
  Nb  Nb2  1  0.58595025  0.45476695  0.38201689  1
  Nb  Nb3  1  0.62865812  0.68918225  0.04642319  1
  Nb  Nb4  1  0.14158058  0.96841896  0.76754461  1
  Nb  Nb5  1  0.39401130  0.54577981  0.62000087  1
  Nb  Nb6  1  0.87291522  0.03132325  0.23316678  1
  Nb  Nb7  1  0.69979842  0.12441595  0.47300814  1
  Nb  Nb8  1  0.46449404  0.78347734  0.28805351  1
  Nb  Nb9  1  0.29707048  0.87502008  0.52778381  1
  Nb  Nb10  1  0.53916654  0.21587271  0.71239669  1
  Nb  Nb11  1  0.25237867  0.63882561  0.86264590  1
  W  W12  1  0.75353311  0.00001604  0.00026310  1
  O  O13  1  0.21960411  0.07598082  0.48070201  1
  O  O14  1  0.44687535  0.25492785  0.84461702  1
  O  O15  1  0.30602517  0.47404858  0.91834105  1
  O  O16  1  0.18744955  0.81552103  0.82163670  1
  O  O17  1  0.56573595  0.86991838  0.98795645  1
  O  O18  1  0.95191313  0.82747960  0.27149657  1
  O  O19  1  0.64775856  0.27962423  0.42556863  1
  O  O20  1  0.61825770  0.16120896  0.59591387  1
  O  O21  1  0.27261944  0.34672443  0.10465876  1
  O  O22  1  0.91220848  0.54759487  0.62834076  1
  O  O23  1  0.61107930  0.01958434  0.76709419  1
  O  O24  1  0.38049950  0.83599689  0.40549476  1
  O  O25  1  0.67429944  0.40218057  0.25100509  1
  O  O26  1  0.14836459  0.69320285  0.00906807  1
  O  O27  1  0.81750133  0.18413161  0.17944742  1
  O  O28  1  0.69320633  0.52636288  0.08266374  1
  O  O29  1  0.05072127  0.17205047  0.72945776  1
  O  O30  1  0.77766407  0.92310507  0.52029529  1
  O  O31  1  0.42541694  0.13032442  0.01222308  1
  O  O32  1  0.04025887  0.02805234  0.90014151  1
  O  O33  1  0.47846279  0.37502193  0.67455393  1
  O  O34  1  0.34921841  0.72083358  0.57752357  1
  O  O35  1  0.78928833  0.06501695  0.35017877  1
  O  O36  1  0.20900080  0.93492818  0.65078054  1
  O  O37  1  0.39438600  0.97996782  0.23398699  1
  O  O38  1  0.08779716  0.45057884  0.37421006  1
  O  O39  1  0.52511553  0.62395327  0.32406012  1
  O  O40  1  0.55216473  0.74597170  0.15555776  1
  O  O41  1  0.33030683  0.59760950  0.75011752  1
  O  O42  1  0.96661492  0.97217567  0.10049777  1
  O  O43  1  0.72743823  0.65295128  0.89656731  1
  O  O44  1  0.49968491  0.50364548  0.49972885  1
  O  O45  1  0.84887557  0.30760268  0.99131823  1
