# generated using pymatgen
data_CdH8C2S2(BrN2)2
_symmetry_space_group_name_H-M   'P 1'
_cell_length_a   13.17260051
_cell_length_b   6.12160037
_cell_length_c   13.81066576
_cell_angle_alpha   90.00000000
_cell_angle_beta   90.00000000
_cell_angle_gamma   90.00000000
_symmetry_Int_Tables_number   1
_chemical_formula_structural   CdH8C2S2(BrN2)2
_chemical_formula_sum   'Cd4 H32 C8 S8 Br8 N16'
_cell_volume   1113.65612607
_cell_formula_units_Z   4
loop_
 _symmetry_equiv_pos_site_id
 _symmetry_equiv_pos_as_xyz
  1  'x, y, z'
loop_
 _atom_site_type_symbol
 _atom_site_label
 _atom_site_symmetry_multiplicity
 _atom_site_fract_x
 _atom_site_fract_y
 _atom_site_fract_z
 _atom_site_occupancy
  Cd  Cd0  1  0.84498748  0.28232423  0.75000000  1
  Cd  Cd1  1  0.34498748  0.21767577  0.75000000  1
  Cd  Cd2  1  0.15501252  0.71767577  0.25000000  1
  Cd  Cd3  1  0.65501252  0.78232423  0.25000000  1
  H  H4  1  0.87693562  0.38170941  0.34837026  1
  H  H5  1  0.37693562  0.11829059  0.15162974  1
  H  H6  1  0.12306438  0.61829059  0.84837026  1
  H  H7  1  0.62306438  0.88170941  0.65162974  1
  H  H8  1  0.12306438  0.61829059  0.65162974  1
  H  H9  1  0.62306438  0.88170941  0.84837026  1
  H  H10  1  0.87693562  0.38170941  0.15162974  1
  H  H11  1  0.37693562  0.11829059  0.34837026  1
  H  H12  1  0.89565565  0.10906208  0.38308176  1
  H  H13  1  0.39565565  0.39093792  0.11691824  1
  H  H14  1  0.10434435  0.89093792  0.88308176  1
  H  H15  1  0.60434435  0.60906208  0.61691824  1
  H  H16  1  0.10434435  0.89093792  0.61691824  1
  H  H17  1  0.60434435  0.60906208  0.88308176  1
  H  H18  1  0.89565565  0.10906208  0.11691824  1
  H  H19  1  0.39565565  0.39093792  0.38308176  1
  H  H20  1  0.85788641  0.64896873  0.45643241  1
  H  H21  1  0.35788641  0.85103127  0.04356759  1
  H  H22  1  0.14211359  0.35103127  0.95643241  1
  H  H23  1  0.64211359  0.14896873  0.54356759  1
  H  H24  1  0.14211359  0.35103127  0.54356759  1
  H  H25  1  0.64211359  0.14896873  0.95643241  1
  H  H26  1  0.85788641  0.64896873  0.04356759  1
  H  H27  1  0.35788641  0.85103127  0.45643241  1
  H  H28  1  0.86196505  0.60207708  0.58151898  1
  H  H29  1  0.36196505  0.89792292  0.91848102  1
  H  H30  1  0.13803495  0.39792292  0.08151898  1
  H  H31  1  0.63803495  0.10207708  0.41848102  1
  H  H32  1  0.13803495  0.39792292  0.41848102  1
  H  H33  1  0.63803495  0.10207708  0.08151898  1
  H  H34  1  0.86196505  0.60207708  0.91848102  1
  H  H35  1  0.36196505  0.89792292  0.58151898  1
  C  C36  1  0.88004424  0.33054607  0.49444500  1
  C  C37  1  0.38004424  0.16945393  0.00555500  1
  C  C38  1  0.11995576  0.66945393  0.99444500  1
  C  C39  1  0.61995576  0.83054607  0.50555500  1
  C  C40  1  0.11995576  0.66945393  0.50555500  1
  C  C41  1  0.61995576  0.83054607  0.99444500  1
  C  C42  1  0.88004424  0.33054607  0.00555500  1
  C  C43  1  0.38004424  0.16945393  0.49444500  1
  S  S44  1  0.89558782  0.13381575  0.58235878  1
  S  S45  1  0.39558782  0.36618425  0.91764122  1
  S  S46  1  0.10441218  0.86618425  0.08235878  1
  S  S47  1  0.60441218  0.63381575  0.41764122  1
  S  S48  1  0.10441218  0.86618425  0.41764122  1
  S  S49  1  0.60441218  0.63381575  0.08235878  1
  S  S50  1  0.89558782  0.13381575  0.91764122  1
  S  S51  1  0.39558782  0.36618425  0.58235878  1
  Br  Br52  1  0.63872540  0.25517517  0.75000000  1
  Br  Br53  1  0.13872540  0.24482483  0.75000000  1
  Br  Br54  1  0.36127460  0.74482483  0.25000000  1
  Br  Br55  1  0.86127460  0.75517517  0.25000000  1
  Br  Br56  1  0.87752911  0.71371784  0.75000000  1
  Br  Br57  1  0.37752911  0.78628216  0.75000000  1
  Br  Br58  1  0.12247089  0.28628216  0.25000000  1
  Br  Br59  1  0.62247089  0.21371784  0.25000000  1
  N  N60  1  0.88368068  0.26769296  0.40188340  1
  N  N61  1  0.38368068  0.23230704  0.09811660  1
  N  N62  1  0.11631932  0.73230704  0.90188340  1
  N  N63  1  0.61631932  0.76769296  0.59811660  1
  N  N64  1  0.11631932  0.73230704  0.59811660  1
  N  N65  1  0.61631932  0.76769296  0.90188340  1
  N  N66  1  0.88368068  0.26769296  0.09811660  1
  N  N67  1  0.38368068  0.23230704  0.40188340  1
  N  N68  1  0.86441188  0.54213587  0.51257076  1
  N  N69  1  0.36441188  0.95786413  0.98742924  1
  N  N70  1  0.13558812  0.45786413  0.01257076  1
  N  N71  1  0.63558812  0.04213587  0.48742924  1
  N  N72  1  0.13558812  0.45786413  0.48742924  1
  N  N73  1  0.63558812  0.04213587  0.01257076  1
  N  N74  1  0.86441188  0.54213587  0.98742924  1
  N  N75  1  0.36441188  0.95786413  0.51257076  1
