# generated using pymatgen
data_UP3H10BrO8
_symmetry_space_group_name_H-M   'P 1'
_cell_length_a   7.59804059
_cell_length_b   10.37720310
_cell_length_c   15.10987325
_cell_angle_alpha   90.00000000
_cell_angle_beta   90.00000000
_cell_angle_gamma   90.00000000
_symmetry_Int_Tables_number   1
_chemical_formula_structural   UP3H10BrO8
_chemical_formula_sum   'U4 P12 H40 Br4 O32'
_cell_volume   1191.35926682
_cell_formula_units_Z   4
loop_
 _symmetry_equiv_pos_site_id
 _symmetry_equiv_pos_as_xyz
  1  'x, y, z'
loop_
 _atom_site_type_symbol
 _atom_site_label
 _atom_site_symmetry_multiplicity
 _atom_site_fract_x
 _atom_site_fract_y
 _atom_site_fract_z
 _atom_site_occupancy
  U  U0  1  0.69823305  0.92898933  0.75000000  1
  U  U1  1  0.30176695  0.07101067  0.25000000  1
  U  U2  1  0.69823305  0.57101067  0.25000000  1
  U  U3  1  0.30176695  0.42898933  0.75000000  1
  P  P4  1  0.37455450  0.12647317  0.61434782  1
  P  P5  1  0.62544550  0.87352683  0.11434782  1
  P  P6  1  0.37455450  0.37352683  0.38565218  1
  P  P7  1  0.62544550  0.62647317  0.88565218  1
  P  P8  1  0.62544550  0.87352683  0.38565218  1
  P  P9  1  0.37455450  0.12647317  0.88565218  1
  P  P10  1  0.62544550  0.62647317  0.61434782  1
  P  P11  1  0.37455450  0.37352683  0.11434782  1
  P  P12  1  0.15501960  0.77893888  0.75000000  1
  P  P13  1  0.84498040  0.22106112  0.25000000  1
  P  P14  1  0.15501960  0.72106112  0.25000000  1
  P  P15  1  0.84498040  0.27893888  0.75000000  1
  H  H16  1  0.85542735  0.04697139  0.57126198  1
  H  H17  1  0.14457265  0.95302861  0.07126198  1
  H  H18  1  0.85542735  0.45302861  0.42873802  1
  H  H19  1  0.14457265  0.54697139  0.92873802  1
  H  H20  1  0.14457265  0.95302861  0.42873802  1
  H  H21  1  0.85542735  0.04697139  0.92873802  1
  H  H22  1  0.14457265  0.54697139  0.57126198  1
  H  H23  1  0.85542735  0.45302861  0.07126198  1
  H  H24  1  0.92585756  0.90111202  0.57353477  1
  H  H25  1  0.07414244  0.09888798  0.07353477  1
  H  H26  1  0.92585756  0.59888798  0.42646523  1
  H  H27  1  0.07414244  0.40111202  0.92646523  1
  H  H28  1  0.07414244  0.09888798  0.42646523  1
  H  H29  1  0.92585756  0.90111202  0.92646523  1
  H  H30  1  0.07414244  0.40111202  0.57353477  1
  H  H31  1  0.92585756  0.59888798  0.07353477  1
  H  H32  1  0.23723166  0.83425800  0.67526872  1
  H  H33  1  0.76276834  0.16574200  0.17526872  1
  H  H34  1  0.23723166  0.66574200  0.32473128  1
  H  H35  1  0.76276834  0.33425800  0.82473128  1
  H  H36  1  0.76276834  0.16574200  0.32473128  1
  H  H37  1  0.23723166  0.83425800  0.82473128  1
  H  H38  1  0.76276834  0.33425800  0.67526872  1
  H  H39  1  0.23723166  0.66574200  0.17526872  1
  H  H40  1  0.19673271  0.08494520  0.61720114  1
  H  H41  1  0.80326729  0.91505480  0.11720114  1
  H  H42  1  0.19673271  0.41505480  0.38279886  1
  H  H43  1  0.80326729  0.58494520  0.88279886  1
  H  H44  1  0.80326729  0.91505480  0.38279886  1
  H  H45  1  0.19673271  0.08494520  0.88279886  1
  H  H46  1  0.80326729  0.58494520  0.61720114  1
  H  H47  1  0.19673271  0.41505480  0.11720114  1
  H  H48  1  0.41419416  0.13548895  0.52263174  1
  H  H49  1  0.58580584  0.86451105  0.02263174  1
  H  H50  1  0.41419416  0.36451105  0.47736826  1
  H  H51  1  0.58580584  0.63548895  0.97736826  1
  H  H52  1  0.58580584  0.86451105  0.47736826  1
  H  H53  1  0.41419416  0.13548895  0.97736826  1
  H  H54  1  0.58580584  0.63548895  0.52263174  1
  H  H55  1  0.41419416  0.36451105  0.02263174  1
  Br  Br56  1  0.09157719  0.75000000  0.50000000  1
  Br  Br57  1  0.90842281  0.25000000  0.00000000  1
  Br  Br58  1  0.90842281  0.25000000  0.50000000  1
  Br  Br59  1  0.09157719  0.75000000  0.00000000  1
  O  O60  1  0.38560541  0.26060523  0.65538803  1
  O  O61  1  0.61439459  0.73939477  0.15538803  1
  O  O62  1  0.38560541  0.23939477  0.34461197  1
  O  O63  1  0.61439459  0.76060523  0.84461197  1
  O  O64  1  0.61439459  0.73939477  0.34461197  1
  O  O65  1  0.38560541  0.26060523  0.84461197  1
  O  O66  1  0.61439459  0.76060523  0.65538803  1
  O  O67  1  0.38560541  0.23939477  0.15538803  1
  O  O68  1  0.48911160  0.02158327  0.65504399  1
  O  O69  1  0.51088840  0.97841673  0.15504399  1
  O  O70  1  0.48911160  0.47841673  0.34495601  1
  O  O71  1  0.51088840  0.52158327  0.84495601  1
  O  O72  1  0.51088840  0.97841673  0.34495601  1
  O  O73  1  0.48911160  0.02158327  0.84495601  1
  O  O74  1  0.51088840  0.52158327  0.65504399  1
  O  O75  1  0.48911160  0.47841673  0.15504399  1
  O  O76  1  0.95958181  0.81536506  0.75000000  1
  O  O77  1  0.04041819  0.18463494  0.25000000  1
  O  O78  1  0.95958181  0.68463494  0.25000000  1
  O  O79  1  0.04041819  0.31536506  0.75000000  1
  O  O80  1  0.19411758  0.63450349  0.75000000  1
  O  O81  1  0.80588242  0.36549651  0.25000000  1
  O  O82  1  0.19411758  0.86549651  0.25000000  1
  O  O83  1  0.80588242  0.13450349  0.75000000  1
  O  O84  1  0.85381022  0.96615552  0.60519787  1
  O  O85  1  0.14618978  0.03384448  0.10519787  1
  O  O86  1  0.85381022  0.53384448  0.39480213  1
  O  O87  1  0.14618978  0.46615552  0.89480213  1
  O  O88  1  0.14618978  0.03384448  0.39480213  1
  O  O89  1  0.85381022  0.96615552  0.89480213  1
  O  O90  1  0.14618978  0.46615552  0.60519787  1
  O  O91  1  0.85381022  0.53384448  0.10519787  1
