# generated using pymatgen
data_LiFe3P4O15
_symmetry_space_group_name_H-M   'P 1'
_cell_length_a   17.45581918
_cell_length_b   6.44177103
_cell_length_c   10.81182225
_cell_angle_alpha   90.00000000
_cell_angle_beta   90.00000000
_cell_angle_gamma   88.79990043
_symmetry_Int_Tables_number   1
_chemical_formula_structural   LiFe3P4O15
_chemical_formula_sum   'Li4 Fe12 P16 O60'
_cell_volume   1215.48370520
_cell_formula_units_Z   4
loop_
 _symmetry_equiv_pos_site_id
 _symmetry_equiv_pos_as_xyz
  1  'x, y, z'
loop_
 _atom_site_type_symbol
 _atom_site_label
 _atom_site_symmetry_multiplicity
 _atom_site_fract_x
 _atom_site_fract_y
 _atom_site_fract_z
 _atom_site_occupancy
  Li  Li0  1  0.00640673  0.82979138  0.55531377  1
  Li  Li1  1  0.41954133  0.40587768  0.34319826  1
  Li  Li2  1  0.91954133  0.40587768  0.15680174  1
  Li  Li3  1  0.50640673  0.82979138  0.94468623  1
  Fe  Fe4  1  0.15868972  0.60538302  0.00777071  1
  Fe  Fe5  1  0.75162143  0.80990048  0.25872003  1
  Fe  Fe6  1  0.36497871  0.08139174  0.98944486  1
  Fe  Fe7  1  0.86497871  0.08139174  0.51055514  1
  Fe  Fe8  1  0.25162143  0.80990048  0.24127997  1
  Fe  Fe9  1  0.35510552  0.08716256  0.52476804  1
  Fe  Fe10  1  0.65868972  0.60538302  0.49222929  1
  Fe  Fe11  1  0.24587638  0.31414753  0.74164109  1
  Fe  Fe12  1  0.63495538  0.58154108  0.00686513  1
  Fe  Fe13  1  0.13495538  0.58154108  0.49313487  1
  Fe  Fe14  1  0.85510552  0.08716256  0.97523196  1
  Fe  Fe15  1  0.74587638  0.31414753  0.75835891  1
  P  P16  1  0.05427853  0.65371235  0.23634461  1
  P  P17  1  0.07349760  0.46748958  0.76100640  1
  P  P18  1  0.32151112  0.58036595  0.97637836  1
  P  P19  1  0.57349760  0.46748958  0.73899360  1
  P  P20  1  0.55427853  0.65371235  0.26365539  1
  P  P21  1  0.29567344  0.59184622  0.50409334  1
  P  P22  1  0.70420658  0.09607614  0.49673565  1
  P  P23  1  0.20420658  0.09607614  0.00326435  1
  P  P24  1  0.94024798  0.16945455  0.76865126  1
  P  P25  1  0.42407578  0.94686820  0.25868112  1
  P  P26  1  0.18044471  0.08318070  0.47652855  1
  P  P27  1  0.44024798  0.16945455  0.73134874  1
  P  P28  1  0.92407578  0.94686820  0.24131888  1
  P  P29  1  0.82151112  0.58036595  0.52362164  1
  P  P30  1  0.68044471  0.08318070  0.02347145  1
  P  P31  1  0.79567344  0.59184622  0.99590666  1
  O  O32  1  0.76585493  0.04354558  0.39227121  1
  O  O33  1  0.58425802  0.60160942  0.62519288  1
  O  O34  1  0.23839685  0.61776444  0.39051916  1
  O  O35  1  0.62856802  0.90258533  0.98878677  1
  O  O36  1  0.65290541  0.91248000  0.51879250  1
  O  O37  1  0.36692602  0.76751773  0.25952099  1
  O  O38  1  0.95457034  0.03508723  0.88335628  1
  O  O39  1  0.02031663  0.48211265  0.16213680  1
  O  O40  1  0.86692602  0.76751773  0.24047901  1
  O  O41  1  0.73651716  0.54615056  0.89023628  1
  O  O42  1  0.49096733  0.36986460  0.72091855  1
  O  O43  1  0.87145095  0.38513289  0.50321551  1
  O  O44  1  0.26077990  0.55121071  0.87015255  1
  O  O45  1  0.37231667  0.76897208  0.95629319  1
  O  O46  1  0.37145095  0.38513289  0.99678449  1
  O  O47  1  0.13763338  0.69783387  0.19231014  1
  O  O48  1  0.12856802  0.90258533  0.51121323  1
  O  O49  1  0.87231667  0.76897208  0.54370681  1
  O  O50  1  0.76571390  0.61658674  0.40964919  1
  O  O51  1  0.76155569  0.11972139  0.61066137  1
  O  O52  1  0.93305203  0.04680118  0.36886721  1
  O  O53  1  0.24320240  0.11621400  0.58191623  1
  O  O54  1  0.26155569  0.11972139  0.88933863  1
  O  O55  1  0.63453593  0.29380261  0.75024900  1
  O  O56  1  0.45457034  0.03508723  0.61664372  1
  O  O57  1  0.50748145  0.86731025  0.29773331  1
  O  O58  1  0.73839685  0.61776444  0.10948084  1
  O  O59  1  0.76077990  0.55121071  0.62984745  1
  O  O60  1  0.95260602  0.06834889  0.64218383  1
  O  O61  1  0.00748145  0.86731025  0.20226669  1
  O  O62  1  0.15290541  0.91248000  0.98120750  1
  O  O63  1  0.90220170  0.10914220  0.14307727  1
  O  O64  1  0.52031663  0.48211265  0.33786320  1
  O  O65  1  0.84999793  0.40662269  0.01906544  1
  O  O66  1  0.84051508  0.78777519  0.97171498  1
  O  O67  1  0.26585493  0.04354558  0.10772879  1
  O  O68  1  0.66107090  0.29923635  0.47070334  1
  O  O69  1  0.40220170  0.10914220  0.35692273  1
  O  O70  1  0.56606117  0.59379173  0.85950009  1
  O  O71  1  0.08425802  0.60160942  0.87480712  1
  O  O72  1  0.04985969  0.63368921  0.37741492  1
  O  O73  1  0.23651716  0.54615056  0.60976372  1
  O  O74  1  0.13357742  0.28534205  0.46117384  1
  O  O75  1  0.85694810  0.25238493  0.78561507  1
  O  O76  1  0.45260602  0.06834889  0.85781617  1
  O  O77  1  0.34051508  0.78777519  0.52828502  1
  O  O78  1  0.54985969  0.63368921  0.12258508  1
  O  O79  1  0.34999793  0.40662269  0.48093456  1
  O  O80  1  0.72757304  0.03602436  0.14289179  1
  O  O81  1  0.26571390  0.61658674  0.09035081  1
  O  O82  1  0.35694810  0.25238493  0.71438493  1
  O  O83  1  0.22757304  0.03602436  0.35710821  1
  O  O84  1  0.43305203  0.04680118  0.13113279  1
  O  O85  1  0.16107090  0.29923635  0.02929666  1
  O  O86  1  0.13453593  0.29380261  0.74975100  1
  O  O87  1  0.63357742  0.28534205  0.03882616  1
  O  O88  1  0.99096733  0.36986460  0.77908145  1
  O  O89  1  0.63763338  0.69783387  0.30768986  1
  O  O90  1  0.74320240  0.11621400  0.91808377  1
  O  O91  1  0.06606117  0.59379173  0.64049991  1
