# generated using pymatgen
data_Zn(CuO2)2
_symmetry_space_group_name_H-M   'P 1'
_cell_length_a   6.15661019
_cell_length_b   6.15840189
_cell_length_c   6.15661019
_cell_angle_alpha   127.16693958
_cell_angle_beta   77.56734760
_cell_angle_gamma   127.64729183
_symmetry_Int_Tables_number   1
_chemical_formula_structural   Zn(CuO2)2
_chemical_formula_sum   'Zn2 Cu4 O8'
_cell_volume   142.84489535
_cell_formula_units_Z   2
loop_
 _symmetry_equiv_pos_site_id
 _symmetry_equiv_pos_as_xyz
  1  'x, y, z'
loop_
 _atom_site_type_symbol
 _atom_site_label
 _atom_site_symmetry_multiplicity
 _atom_site_fract_x
 _atom_site_fract_y
 _atom_site_fract_z
 _atom_site_occupancy
  Zn  Zn0  1  0.87397051  0.75000000  0.62397051  1
  Zn  Zn1  1  0.12602949  0.25000000  0.37602949  1
  Cu  Cu2  1  0.50000000  0.00000000  0.00000000  1
  Cu  Cu3  1  0.50000000  0.50000000  0.00000000  1
  Cu  Cu4  1  0.50000000  0.00000000  0.50000000  1
  Cu  Cu5  1  0.00000000  0.50000000  0.00000000  1
  O  O6  1  0.83609695  0.71440982  0.21524126  1
  O  O7  1  0.49916857  0.21440982  0.37831288  1
  O  O8  1  0.71518317  0.88544385  0.00828809  1
  O  O9  1  0.87715476  0.38544385  0.67026069  1
  O  O10  1  0.12284524  0.61455615  0.32973931  1
  O  O11  1  0.28481683  0.11455615  0.99171191  1
  O  O12  1  0.50083143  0.78559018  0.62168712  1
  O  O13  1  0.16390305  0.28559018  0.78475874  1
