# generated using pymatgen
data_UP3H10ClO8
_symmetry_space_group_name_H-M   'P 1'
_cell_length_a   7.73934713
_cell_length_b   10.29865300
_cell_length_c   14.96049952
_cell_angle_alpha   90.00000000
_cell_angle_beta   90.00000000
_cell_angle_gamma   90.00000000
_symmetry_Int_Tables_number   1
_chemical_formula_structural   UP3H10ClO8
_chemical_formula_sum   'U4 P12 H40 Cl4 O32'
_cell_volume   1192.42437822
_cell_formula_units_Z   4
loop_
 _symmetry_equiv_pos_site_id
 _symmetry_equiv_pos_as_xyz
  1  'x, y, z'
loop_
 _atom_site_type_symbol
 _atom_site_label
 _atom_site_symmetry_multiplicity
 _atom_site_fract_x
 _atom_site_fract_y
 _atom_site_fract_z
 _atom_site_occupancy
  U  U0  1  0.19786183  0.43421646  0.75000000  1
  U  U1  1  0.80213817  0.56578354  0.25000000  1
  U  U2  1  0.19786183  0.06578354  0.25000000  1
  U  U3  1  0.80213817  0.93421646  0.75000000  1
  P  P4  1  0.65073322  0.28543265  0.75000000  1
  P  P5  1  0.34926678  0.71456735  0.25000000  1
  P  P6  1  0.65073322  0.21456735  0.25000000  1
  P  P7  1  0.34926678  0.78543265  0.75000000  1
  P  P8  1  0.11841424  0.12980352  0.88706413  1
  P  P9  1  0.88158576  0.87019648  0.38706413  1
  P  P10  1  0.11841424  0.37019648  0.11293587  1
  P  P11  1  0.88158576  0.62980352  0.61293587  1
  P  P12  1  0.88158576  0.87019648  0.11293587  1
  P  P13  1  0.11841424  0.12980352  0.61293587  1
  P  P14  1  0.88158576  0.62980352  0.88706413  1
  P  P15  1  0.11841424  0.37019648  0.38706413  1
  H  H16  1  0.73132338  0.34186187  0.67471371  1
  H  H17  1  0.26867662  0.65813813  0.17471371  1
  H  H18  1  0.73132338  0.15813813  0.32528629  1
  H  H19  1  0.26867662  0.84186187  0.82528629  1
  H  H20  1  0.26867662  0.65813813  0.32528629  1
  H  H21  1  0.73132338  0.34186187  0.82528629  1
  H  H22  1  0.26867662  0.84186187  0.67471371  1
  H  H23  1  0.73132338  0.15813813  0.17471371  1
  H  H24  1  0.29094729  0.08500414  0.88776254  1
  H  H25  1  0.70905271  0.91499586  0.38776254  1
  H  H26  1  0.29094729  0.41499586  0.11223746  1
  H  H27  1  0.70905271  0.58500414  0.61223746  1
  H  H28  1  0.70905271  0.91499586  0.11223746  1
  H  H29  1  0.29094729  0.08500414  0.61223746  1
  H  H30  1  0.70905271  0.58500414  0.88776254  1
  H  H31  1  0.29094729  0.41499586  0.38776254  1
  H  H32  1  0.06970404  0.13905422  0.97792591  1
  H  H33  1  0.93029596  0.86094578  0.47792591  1
  H  H34  1  0.06970404  0.36094578  0.02207409  1
  H  H35  1  0.93029596  0.63905422  0.52207409  1
  H  H36  1  0.93029596  0.86094578  0.02207409  1
  H  H37  1  0.06970404  0.13905422  0.52207409  1
  H  H38  1  0.93029596  0.63905422  0.97792591  1
  H  H39  1  0.06970404  0.36094578  0.47792591  1
  H  H40  1  0.39514510  0.55533883  0.91755550  1
  H  H41  1  0.60485490  0.44466117  0.41755550  1
  H  H42  1  0.39514510  0.94466117  0.08244450  1
  H  H43  1  0.60485490  0.05533883  0.58244450  1
  H  H44  1  0.60485490  0.44466117  0.08244450  1
  H  H45  1  0.39514510  0.55533883  0.58244450  1
  H  H46  1  0.60485490  0.05533883  0.91755550  1
  H  H47  1  0.39514510  0.94466117  0.41755550  1
  H  H48  1  0.42381114  0.40072638  0.91825161  1
  H  H49  1  0.57618886  0.59927362  0.41825161  1
  H  H50  1  0.42381114  0.09927362  0.08174839  1
  H  H51  1  0.57618886  0.90072638  0.58174839  1
  H  H52  1  0.57618886  0.59927362  0.08174839  1
  H  H53  1  0.42381114  0.40072638  0.58174839  1
  H  H54  1  0.57618886  0.90072638  0.91825161  1
  H  H55  1  0.42381114  0.09927362  0.41825161  1
  Cl  Cl56  1  0.55812308  0.25000000  0.00000000  1
  Cl  Cl57  1  0.44187692  0.75000000  0.50000000  1
  Cl  Cl58  1  0.44187692  0.75000000  0.00000000  1
  Cl  Cl59  1  0.55812308  0.25000000  0.50000000  1
  O  O60  1  0.45881400  0.32063327  0.75000000  1
  O  O61  1  0.54118600  0.67936673  0.25000000  1
  O  O62  1  0.45881400  0.17936673  0.25000000  1
  O  O63  1  0.54118600  0.82063327  0.75000000  1
  O  O64  1  0.69217849  0.14024917  0.75000000  1
  O  O65  1  0.30782151  0.85975083  0.25000000  1
  O  O66  1  0.69217849  0.35975083  0.25000000  1
  O  O67  1  0.30782151  0.64024917  0.75000000  1
  O  O68  1  0.11504485  0.26538128  0.84557704  1
  O  O69  1  0.88495515  0.73461872  0.34557704  1
  O  O70  1  0.11504485  0.23461872  0.15442296  1
  O  O71  1  0.88495515  0.76538128  0.65442296  1
  O  O72  1  0.88495515  0.73461872  0.15442296  1
  O  O73  1  0.11504485  0.26538128  0.65442296  1
  O  O74  1  0.88495515  0.76538128  0.84557704  1
  O  O75  1  0.11504485  0.23461872  0.34557704  1
  O  O76  1  0.00798393  0.02505100  0.84327036  1
  O  O77  1  0.99201607  0.97494900  0.34327036  1
  O  O78  1  0.00798393  0.47494900  0.15672964  1
  O  O79  1  0.99201607  0.52505100  0.65672964  1
  O  O80  1  0.99201607  0.97494900  0.15672964  1
  O  O81  1  0.00798393  0.02505100  0.65672964  1
  O  O82  1  0.99201607  0.52505100  0.84327036  1
  O  O83  1  0.00798393  0.47494900  0.34327036  1
  O  O84  1  0.34930715  0.47217564  0.89564535  1
  O  O85  1  0.65069285  0.52782436  0.39564535  1
  O  O86  1  0.34930715  0.02782436  0.10435465  1
  O  O87  1  0.65069285  0.97217564  0.60435465  1
  O  O88  1  0.65069285  0.52782436  0.10435465  1
  O  O89  1  0.34930715  0.47217564  0.60435465  1
  O  O90  1  0.65069285  0.97217564  0.89564535  1
  O  O91  1  0.34930715  0.02782436  0.39564535  1
