# generated using pymatgen
data_MnCuH10Se2(ClO5)2
_symmetry_space_group_name_H-M   'P 1'
_cell_length_a   9.24263513
_cell_length_b   18.73481219
_cell_length_c   7.21470154
_cell_angle_alpha   90.00000000
_cell_angle_beta   90.00000000
_cell_angle_gamma   90.00000000
_symmetry_Int_Tables_number   1
_chemical_formula_structural   MnCuH10Se2(ClO5)2
_chemical_formula_sum   'Mn4 Cu4 H40 Se8 Cl8 O40'
_cell_volume   1249.29074422
_cell_formula_units_Z   4
loop_
 _symmetry_equiv_pos_site_id
 _symmetry_equiv_pos_as_xyz
  1  'x, y, z'
loop_
 _atom_site_type_symbol
 _atom_site_label
 _atom_site_symmetry_multiplicity
 _atom_site_fract_x
 _atom_site_fract_y
 _atom_site_fract_z
 _atom_site_occupancy
  Mn  Mn0  1  0.64580556  0.25000000  0.93343259  1
  Mn  Mn1  1  0.14580556  0.25000000  0.56656741  1
  Mn  Mn2  1  0.35419444  0.75000000  0.06656741  1
  Mn  Mn3  1  0.85419444  0.75000000  0.43343259  1
  Cu  Cu4  1  0.50000000  0.50000000  0.00000000  1
  Cu  Cu5  1  0.00000000  0.00000000  0.50000000  1
  Cu  Cu6  1  0.50000000  0.00000000  0.00000000  1
  Cu  Cu7  1  0.00000000  0.50000000  0.50000000  1
  H  H8  1  0.56277796  0.44018833  0.61157412  1
  H  H9  1  0.06277796  0.05981167  0.88842588  1
  H  H10  1  0.43722204  0.94018833  0.38842588  1
  H  H11  1  0.93722204  0.55981167  0.11157412  1
  H  H12  1  0.43722204  0.55981167  0.38842588  1
  H  H13  1  0.93722204  0.94018833  0.11157412  1
  H  H14  1  0.56277796  0.05981167  0.61157412  1
  H  H15  1  0.06277796  0.44018833  0.88842588  1
  H  H16  1  0.82476919  0.34292049  0.73241181  1
  H  H17  1  0.32476919  0.15707951  0.76758819  1
  H  H18  1  0.17523081  0.84292049  0.26758819  1
  H  H19  1  0.67523081  0.65707951  0.23241181  1
  H  H20  1  0.17523081  0.65707951  0.26758819  1
  H  H21  1  0.67523081  0.84292049  0.23241181  1
  H  H22  1  0.82476919  0.15707951  0.73241181  1
  H  H23  1  0.32476919  0.34292049  0.76758819  1
  H  H24  1  0.77001732  0.38598128  0.90369196  1
  H  H25  1  0.27001732  0.11401872  0.59630804  1
  H  H26  1  0.22998268  0.88598128  0.09630804  1
  H  H27  1  0.72998268  0.61401872  0.40369196  1
  H  H28  1  0.22998268  0.61401872  0.09630804  1
  H  H29  1  0.72998268  0.88598128  0.40369196  1
  H  H30  1  0.77001732  0.11401872  0.90369196  1
  H  H31  1  0.27001732  0.38598128  0.59630804  1
  H  H32  1  0.65275940  0.25000000  0.52265902  1
  H  H33  1  0.15275940  0.25000000  0.97734098  1
  H  H34  1  0.34724060  0.75000000  0.47734098  1
  H  H35  1  0.84724060  0.75000000  0.02265902  1
  H  H36  1  0.49126539  0.25000000  0.58573491  1
  H  H37  1  0.99126539  0.25000000  0.91426509  1
  H  H38  1  0.50873461  0.75000000  0.41426509  1
  H  H39  1  0.00873461  0.75000000  0.08573491  1
  H  H40  1  0.81495970  0.29090834  0.26221692  1
  H  H41  1  0.31495970  0.20909166  0.23778308  1
  H  H42  1  0.18504030  0.79090834  0.73778308  1
  H  H43  1  0.68504030  0.70909166  0.76221692  1
  H  H44  1  0.18504030  0.70909166  0.73778308  1
  H  H45  1  0.68504030  0.79090834  0.76221692  1
  H  H46  1  0.81495970  0.20909166  0.26221692  1
  H  H47  1  0.31495970  0.29090834  0.23778308  1
  Se  Se48  1  0.69145533  0.45285331  0.33704641  1
  Se  Se49  1  0.19145533  0.04714669  0.16295359  1
  Se  Se50  1  0.30854467  0.95285331  0.66295359  1
  Se  Se51  1  0.80854467  0.54714669  0.83704641  1
  Se  Se52  1  0.30854467  0.54714669  0.66295359  1
  Se  Se53  1  0.80854467  0.95285331  0.83704641  1
  Se  Se54  1  0.69145533  0.04714669  0.33704641  1
  Se  Se55  1  0.19145533  0.45285331  0.16295359  1
  Cl  Cl56  1  0.46333851  0.34646726  0.03534988  1
  Cl  Cl57  1  0.96333851  0.15353274  0.46465012  1
  Cl  Cl58  1  0.53666149  0.84646726  0.96465012  1
  Cl  Cl59  1  0.03666149  0.65353274  0.53534988  1
  Cl  Cl60  1  0.53666149  0.65353274  0.96465012  1
  Cl  Cl61  1  0.03666149  0.84646726  0.53534988  1
  Cl  Cl62  1  0.46333851  0.15353274  0.03534988  1
  Cl  Cl63  1  0.96333851  0.34646726  0.46465012  1
  O  O64  1  0.79008933  0.52032588  0.44358266  1
  O  O65  1  0.29008933  0.97967412  0.05641734  1
  O  O66  1  0.20991067  0.02032588  0.55641734  1
  O  O67  1  0.70991067  0.47967412  0.94358266  1
  O  O68  1  0.20991067  0.47967412  0.55641734  1
  O  O69  1  0.70991067  0.02032588  0.94358266  1
  O  O70  1  0.79008933  0.97967412  0.44358266  1
  O  O71  1  0.29008933  0.52032588  0.05641734  1
  O  O72  1  0.54070394  0.50084506  0.26672829  1
  O  O73  1  0.04070394  0.99915494  0.23327171  1
  O  O74  1  0.45929606  0.00084506  0.73327171  1
  O  O75  1  0.95929606  0.49915494  0.76672829  1
  O  O76  1  0.45929606  0.49915494  0.73327171  1
  O  O77  1  0.95929606  0.00084506  0.76672829  1
  O  O78  1  0.54070394  0.99915494  0.26672829  1
  O  O79  1  0.04070394  0.50084506  0.23327171  1
  O  O80  1  0.61990681  0.40658348  0.53072428  1
  O  O81  1  0.11990681  0.09341652  0.96927572  1
  O  O82  1  0.38009319  0.90658348  0.46927572  1
  O  O83  1  0.88009319  0.59341652  0.03072428  1
  O  O84  1  0.38009319  0.59341652  0.46927572  1
  O  O85  1  0.88009319  0.90658348  0.03072428  1
  O  O86  1  0.61990681  0.09341652  0.53072428  1
  O  O87  1  0.11990681  0.40658348  0.96927572  1
  O  O88  1  0.79857150  0.33716512  0.86370993  1
  O  O89  1  0.29857150  0.16283488  0.63629007  1
  O  O90  1  0.20142850  0.83716512  0.13629007  1
  O  O91  1  0.70142850  0.66283488  0.36370993  1
  O  O92  1  0.20142850  0.66283488  0.13629007  1
  O  O93  1  0.70142850  0.83716512  0.36370993  1
  O  O94  1  0.79857150  0.16283488  0.86370993  1
  O  O95  1  0.29857150  0.33716512  0.63629007  1
  O  O96  1  0.58961932  0.25000000  0.63240923  1
  O  O97  1  0.08961932  0.25000000  0.86759077  1
  O  O98  1  0.41038068  0.75000000  0.36759077  1
  O  O99  1  0.91038068  0.75000000  0.13240923  1
  O  O100  1  0.75548121  0.25000000  0.22057657  1
  O  O101  1  0.25548121  0.25000000  0.27942343  1
  O  O102  1  0.24451879  0.75000000  0.77942343  1
  O  O103  1  0.74451879  0.75000000  0.72057657  1
