# generated using pymatgen
data_BaTm2O4
_symmetry_space_group_name_H-M   'P 1'
_cell_length_a   3.40759235
_cell_length_b   5.86264179
_cell_length_c   11.39981045
_cell_angle_alpha   90.00000000
_cell_angle_beta   90.00000000
_cell_angle_gamma   106.89502425
_symmetry_Int_Tables_number   1
_chemical_formula_structural   BaTm2O4
_chemical_formula_sum   'Ba2 Tm4 O8'
_cell_volume   217.91012704
_cell_formula_units_Z   2
loop_
 _symmetry_equiv_pos_site_id
 _symmetry_equiv_pos_as_xyz
  1  'x, y, z'
loop_
 _atom_site_type_symbol
 _atom_site_label
 _atom_site_symmetry_multiplicity
 _atom_site_fract_x
 _atom_site_fract_y
 _atom_site_fract_z
 _atom_site_occupancy
  Ba  Ba0  1  0.11063791  0.22127583  0.25000000  1
  Ba  Ba1  1  0.88936209  0.77872417  0.75000000  1
  Tm  Tm2  1  0.36462735  0.72925469  0.42972673  1
  Tm  Tm3  1  0.36462735  0.72925469  0.07027327  1
  Tm  Tm4  1  0.63537265  0.27074531  0.57027327  1
  Tm  Tm5  1  0.63537265  0.27074531  0.92972673  1
  O  O6  1  0.00000000  0.00000000  0.00000000  1
  O  O7  1  0.00000000  0.00000000  0.50000000  1
  O  O8  1  0.43327678  0.86655455  0.25000000  1
  O  O9  1  0.25998498  0.51997096  0.60064208  1
  O  O10  1  0.25998498  0.51997096  0.89935792  1
  O  O11  1  0.56672322  0.13344545  0.75000000  1
  O  O12  1  0.74001502  0.48002904  0.39935792  1
  O  O13  1  0.74001502  0.48002904  0.10064208  1
