# generated using pymatgen
data_LiSiBiO4
_symmetry_space_group_name_H-M   'P 1'
_cell_length_a   5.77458703
_cell_length_b   9.05877140
_cell_length_c   7.09848764
_cell_angle_alpha   90.00000000
_cell_angle_beta   90.00000000
_cell_angle_gamma   90.00000000
_symmetry_Int_Tables_number   1
_chemical_formula_structural   LiSiBiO4
_chemical_formula_sum   'Li4 Si4 Bi4 O16'
_cell_volume   371.32660067
_cell_formula_units_Z   4
loop_
 _symmetry_equiv_pos_site_id
 _symmetry_equiv_pos_as_xyz
  1  'x, y, z'
loop_
 _atom_site_type_symbol
 _atom_site_label
 _atom_site_symmetry_multiplicity
 _atom_site_fract_x
 _atom_site_fract_y
 _atom_site_fract_z
 _atom_site_occupancy
  Li  Li0  1  0.00000000  0.00000000  0.00000000  1
  Li  Li1  1  0.00000000  0.00000000  0.50000000  1
  Li  Li2  1  0.50000000  0.50000000  0.50000000  1
  Li  Li3  1  0.50000000  0.50000000  0.00000000  1
  Si  Si4  1  0.08442704  0.67762242  0.25000000  1
  Si  Si5  1  0.41557296  0.17762242  0.25000000  1
  Si  Si6  1  0.58442704  0.82237758  0.75000000  1
  Si  Si7  1  0.91557296  0.32237758  0.75000000  1
  Bi  Bi8  1  0.13280886  0.65596531  0.75000000  1
  Bi  Bi9  1  0.36719114  0.15596531  0.75000000  1
  Bi  Bi10  1  0.63280886  0.84403469  0.25000000  1
  Bi  Bi11  1  0.86719114  0.34403469  0.25000000  1
  O  O12  1  0.98812612  0.14405919  0.75000000  1
  O  O13  1  0.32216169  0.90485561  0.75000000  1
  O  O14  1  0.26547643  0.13361384  0.06403978  1
  O  O15  1  0.26547643  0.13361384  0.43596022  1
  O  O16  1  0.23452357  0.63361384  0.06403978  1
  O  O17  1  0.23452357  0.63361384  0.43596022  1
  O  O18  1  0.17783831  0.40485561  0.75000000  1
  O  O19  1  0.51187388  0.64405919  0.75000000  1
  O  O20  1  0.48812612  0.35594081  0.25000000  1
  O  O21  1  0.82216169  0.59514439  0.25000000  1
  O  O22  1  0.73452357  0.86638616  0.56403978  1
  O  O23  1  0.73452357  0.86638616  0.93596022  1
  O  O24  1  0.76547643  0.36638616  0.93596022  1
  O  O25  1  0.76547643  0.36638616  0.56403978  1
  O  O26  1  0.01187388  0.85594081  0.25000000  1
  O  O27  1  0.67783831  0.09514439  0.25000000  1
