# generated using pymatgen
data_LiMnPO4
_symmetry_space_group_name_H-M   'P 1'
_cell_length_a   8.52424264
_cell_length_b   7.57982035
_cell_length_c   14.92298034
_cell_angle_alpha   90.00000000
_cell_angle_beta   90.67625891
_cell_angle_gamma   90.00000000
_symmetry_Int_Tables_number   1
_chemical_formula_structural   LiMnPO4
_chemical_formula_sum   'Li12 Mn12 P12 O48'
_cell_volume   964.13984438
_cell_formula_units_Z   12
loop_
 _symmetry_equiv_pos_site_id
 _symmetry_equiv_pos_as_xyz
  1  'x, y, z'
loop_
 _atom_site_type_symbol
 _atom_site_label
 _atom_site_symmetry_multiplicity
 _atom_site_fract_x
 _atom_site_fract_y
 _atom_site_fract_z
 _atom_site_occupancy
  Li  Li0  1  0.93579281  0.33113818  0.59251413  1
  Li  Li1  1  0.07954995  0.81861391  0.75899367  1
  Li  Li2  1  0.40494022  0.17291019  0.42005969  1
  Li  Li3  1  0.59505978  0.82708981  0.57994031  1
  Li  Li4  1  0.09505978  0.67291019  0.07994031  1
  Li  Li5  1  0.92045005  0.18138609  0.24100633  1
  Li  Li6  1  0.06420719  0.66886182  0.40748587  1
  Li  Li7  1  0.43579281  0.16886182  0.09251413  1
  Li  Li8  1  0.56420719  0.83113818  0.90748587  1
  Li  Li9  1  0.90494022  0.32708981  0.92005969  1
  Li  Li10  1  0.57954995  0.68138609  0.25899367  1
  Li  Li11  1  0.42045005  0.31861391  0.74100633  1
  Mn  Mn12  1  0.25652441  0.45700568  0.25594997  1
  Mn  Mn13  1  0.24347559  0.95700568  0.24405003  1
  Mn  Mn14  1  0.23259514  0.96819461  0.92686326  1
  Mn  Mn15  1  0.26740486  0.46819461  0.57313674  1
  Mn  Mn16  1  0.75652441  0.04299432  0.75594997  1
  Mn  Mn17  1  0.73259514  0.53180539  0.42686326  1
  Mn  Mn18  1  0.76740486  0.03180539  0.07313674  1
  Mn  Mn19  1  0.73811251  0.46461173  0.08733878  1
  Mn  Mn20  1  0.76188749  0.96461173  0.41266122  1
  Mn  Mn21  1  0.23811251  0.03538827  0.58733878  1
  Mn  Mn22  1  0.74347559  0.54299432  0.74405003  1
  Mn  Mn23  1  0.26188749  0.53538827  0.91266122  1
  P  P24  1  0.10908856  0.27045264  0.07726095  1
  P  P25  1  0.44309575  0.76409452  0.08926606  1
  P  P26  1  0.08149278  0.23077457  0.76917869  1
  P  P27  1  0.89091144  0.72954736  0.92273905  1
  P  P28  1  0.91850722  0.76922543  0.23082131  1
  P  P29  1  0.39091144  0.77045264  0.42273905  1
  P  P30  1  0.94309575  0.73590548  0.58926606  1
  P  P31  1  0.55690425  0.23590548  0.91073394  1
  P  P32  1  0.58149278  0.26922543  0.26917869  1
  P  P33  1  0.41850722  0.73077457  0.73082131  1
  P  P34  1  0.60908856  0.22954736  0.57726095  1
  P  P35  1  0.05690425  0.26409452  0.41073394  1
  O  O36  1  0.28395035  0.77753206  0.13912597  1
  O  O37  1  0.21606371  0.23557509  0.69937714  1
  O  O38  1  0.03834454  0.89014482  0.63056857  1
  O  O39  1  0.21856242  0.11865712  0.04741904  1
  O  O40  1  0.28393629  0.73557509  0.80062286  1
  O  O41  1  0.59533531  0.26387202  0.01256139  1
  O  O42  1  0.57944947  0.75177972  0.78191769  1
  O  O43  1  0.96165546  0.10985518  0.36943143  1
  O  O44  1  0.78393629  0.76442491  0.30062286  1
  O  O45  1  0.92055053  0.25177972  0.71808231  1
  O  O46  1  0.89273342  0.71940014  0.81820235  1
  O  O47  1  0.46268831  0.06288695  0.89686833  1
  O  O48  1  0.93696463  0.23769055  0.04340778  1
  O  O49  1  0.42055053  0.24822028  0.21808231  1
  O  O50  1  0.17299066  0.44597743  0.04015071  1
  O  O51  1  0.59478931  0.12366337  0.34096784  1
  O  O52  1  0.06303537  0.76230945  0.95659222  1
  O  O53  1  0.53834454  0.60985518  0.13056857  1
  O  O54  1  0.40521069  0.87633663  0.65903216  1
  O  O55  1  0.46165546  0.39014482  0.86943143  1
  O  O56  1  0.78143758  0.88134288  0.95258096  1
  O  O57  1  0.10726658  0.28059986  0.18179765  1
  O  O58  1  0.96268831  0.43711305  0.39686833  1
  O  O59  1  0.56303537  0.73769055  0.45659222  1
  O  O60  1  0.90521069  0.62366337  0.15903216  1
  O  O61  1  0.32700934  0.94597743  0.45984929  1
  O  O62  1  0.03731169  0.56288695  0.60313167  1
  O  O63  1  0.71604965  0.22246794  0.86087403  1
  O  O64  1  0.78395035  0.72246794  0.63912597  1
  O  O65  1  0.71606371  0.26442491  0.19937714  1
  O  O66  1  0.28143758  0.61865712  0.45258096  1
  O  O67  1  0.43696463  0.26230945  0.54340778  1
  O  O68  1  0.21604965  0.27753206  0.36087403  1
  O  O69  1  0.42223153  0.54985712  0.68118745  1
  O  O70  1  0.92223153  0.95014288  0.18118745  1
  O  O71  1  0.09533531  0.23612798  0.51256139  1
  O  O72  1  0.82700934  0.55402257  0.95984929  1
  O  O73  1  0.53731169  0.93711305  0.10313167  1
  O  O74  1  0.39273342  0.78059986  0.31820235  1
  O  O75  1  0.07776847  0.04985712  0.81881255  1
  O  O76  1  0.71856242  0.38134288  0.54741904  1
  O  O77  1  0.60726658  0.21940014  0.68179765  1
  O  O78  1  0.57776847  0.45014288  0.31881255  1
  O  O79  1  0.40466469  0.73612798  0.98743861  1
  O  O80  1  0.07944947  0.74822028  0.28191769  1
  O  O81  1  0.09478931  0.37633663  0.84096784  1
  O  O82  1  0.67299066  0.05402257  0.54015071  1
  O  O83  1  0.90466469  0.76387202  0.48743861  1
