# generated using pymatgen
data_HfZrO4
_symmetry_space_group_name_H-M   'P 1'
_cell_length_a   4.89775711
_cell_length_b   6.91913530
_cell_length_c   3.25269107
_cell_angle_alpha   90.00000000
_cell_angle_beta   90.00000000
_cell_angle_gamma   45.06008459
_symmetry_Int_Tables_number   1
_chemical_formula_structural   HfZrO4
_chemical_formula_sum   'Hf1 Zr1 O4'
_cell_volume   78.02465244
_cell_formula_units_Z   1
loop_
 _symmetry_equiv_pos_site_id
 _symmetry_equiv_pos_as_xyz
  1  'x, y, z'
loop_
 _atom_site_type_symbol
 _atom_site_label
 _atom_site_symmetry_multiplicity
 _atom_site_fract_x
 _atom_site_fract_y
 _atom_site_fract_z
 _atom_site_occupancy
  Hf  Hf0  1  0.00000211  0.00008532  0.00000000  1
  Zr  Zr1  1  0.00005100  0.49996390  0.50000000  1
  O  O2  1  0.00061356  0.30262962  0.00000000  1
  O  O3  1  0.38409065  0.80854215  0.50000000  1
  O  O4  1  0.61622692  0.19247041  0.50000000  1
  O  O5  1  0.00059377  0.69709461  0.00000000  1
