# generated using pymatgen
data_LiAg2F6
_symmetry_space_group_name_H-M   'P 1'
_cell_length_a   4.91977492
_cell_length_b   4.91999538
_cell_length_c   10.23238081
_cell_angle_alpha   89.99445013
_cell_angle_beta   90.00499746
_cell_angle_gamma   89.89546278
_symmetry_Int_Tables_number   1
_chemical_formula_structural   LiAg2F6
_chemical_formula_sum   'Li2 Ag4 F12'
_cell_volume   247.67712499
_cell_formula_units_Z   2
loop_
 _symmetry_equiv_pos_site_id
 _symmetry_equiv_pos_as_xyz
  1  'x, y, z'
loop_
 _atom_site_type_symbol
 _atom_site_label
 _atom_site_symmetry_multiplicity
 _atom_site_fract_x
 _atom_site_fract_y
 _atom_site_fract_z
 _atom_site_occupancy
  Li  Li0  1  0.99998295  0.00001458  0.00230058  1
  Li  Li1  1  0.49999096  0.49999467  0.49789205  1
  Ag  Ag2  1  0.99999869  0.00001331  0.66508191  1
  Ag  Ag3  1  0.00003411  0.99998070  0.33343322  1
  Ag  Ag4  1  0.50001422  0.49998899  0.83416940  1
  Ag  Ag5  1  0.50000687  0.49996924  0.16595193  1
  F  F6  1  0.19581949  0.80425053  0.17066132  1
  F  F7  1  0.19843103  0.80168885  0.83153220  1
  F  F8  1  0.20127771  0.79883242  0.49722360  1
  F  F9  1  0.29831872  0.29835524  0.00323389  1
  F  F10  1  0.30215353  0.30236508  0.66844818  1
  F  F11  1  0.30511335  0.30513424  0.32944613  1
  F  F12  1  0.69493154  0.69482250  0.32943765  1
  F  F13  1  0.69783331  0.69765476  0.66845802  1
  F  F14  1  0.70171704  0.70160818  0.00323277  1
  F  F15  1  0.79872077  0.20115664  0.49726072  1
  F  F16  1  0.80153022  0.19835385  0.83157221  1
  F  F17  1  0.80421650  0.19572322  0.17066422  1
