# generated using pymatgen
data_LiCu3F7
_symmetry_space_group_name_H-M   'P 1'
_cell_length_a   6.96067773
_cell_length_b   6.96067748
_cell_length_c   6.95384457
_cell_angle_alpha   65.67197475
_cell_angle_beta   114.32803004
_cell_angle_gamma   116.36334797
_symmetry_Int_Tables_number   1
_chemical_formula_structural   LiCu3F7
_chemical_formula_sum   'Li2 Cu6 F14'
_cell_volume   264.02891885
_cell_formula_units_Z   2
loop_
 _symmetry_equiv_pos_site_id
 _symmetry_equiv_pos_as_xyz
  1  'x, y, z'
loop_
 _atom_site_type_symbol
 _atom_site_label
 _atom_site_symmetry_multiplicity
 _atom_site_fract_x
 _atom_site_fract_y
 _atom_site_fract_z
 _atom_site_occupancy
  Li  Li0  1  0.50000000  0.50000000  0.50000000  1
  Li  Li1  1  0.50000000  0.50000000  0.00000000  1
  Cu  Cu2  1  0.00000000  0.50000000  0.50000000  1
  Cu  Cu3  1  0.00000000  0.50000000  0.00000000  1
  Cu  Cu4  1  0.00000000  0.00000000  0.50000000  1
  Cu  Cu5  1  0.00000000  0.00000000  0.00000000  1
  Cu  Cu6  1  0.50000000  0.00000000  0.50000000  1
  Cu  Cu7  1  0.50000000  0.00000000  0.00000000  1
  F  F8  1  0.01691070  0.36641065  0.81201611  1
  F  F9  1  0.12907761  0.30731166  0.50188657  1
  F  F10  1  0.39704982  0.68385099  0.60184155  1
  F  F11  1  0.69268834  0.87092239  0.00188657  1
  F  F12  1  0.10232576  0.10232576  0.25000000  1
  F  F13  1  0.31614901  0.60295018  0.10184155  1
  F  F14  1  0.63358935  0.98308930  0.31201611  1
  F  F15  1  0.36641065  0.01691070  0.68798389  1
  F  F16  1  0.68385099  0.39704982  0.89815845  1
  F  F17  1  0.89767424  0.89767424  0.75000000  1
  F  F18  1  0.30731166  0.12907761  0.99811343  1
  F  F19  1  0.60295018  0.31614901  0.39815845  1
  F  F20  1  0.87092239  0.69268834  0.49811343  1
  F  F21  1  0.98308930  0.63358935  0.18798389  1
