# generated using pymatgen
data_CsClO3
_symmetry_space_group_name_H-M   'P 1'
_cell_length_a   6.81280573
_cell_length_b   6.57345242
_cell_length_c   4.72617346
_cell_angle_alpha   90.00000000
_cell_angle_beta   90.23543179
_cell_angle_gamma   90.00000000
_symmetry_Int_Tables_number   1
_chemical_formula_structural   CsClO3
_chemical_formula_sum   'Cs2 Cl2 O6'
_cell_volume   211.65353177
_cell_formula_units_Z   2
loop_
 _symmetry_equiv_pos_site_id
 _symmetry_equiv_pos_as_xyz
  1  'x, y, z'
loop_
 _atom_site_type_symbol
 _atom_site_label
 _atom_site_symmetry_multiplicity
 _atom_site_fract_x
 _atom_site_fract_y
 _atom_site_fract_z
 _atom_site_occupancy
  Cs  Cs0  1  0.48853854  0.00000000  0.49756165  1
  Cs  Cs1  1  0.98808074  0.50000000  0.50295453  1
  Cl  Cl2  1  0.02997583  0.00000000  0.03098666  1
  Cl  Cl3  1  0.52995533  0.50000000  0.96802616  1
  O  O4  1  0.15736722  0.18428378  0.97990204  1
  O  O5  1  0.15736722  0.81571622  0.97990204  1
  O  O6  1  0.47975383  0.50000000  0.65696969  1
  O  O7  1  0.65733873  0.31581477  0.02075119  1
  O  O8  1  0.65733873  0.68418523  0.02075119  1
  O  O9  1  0.98028383  0.00000000  0.34219685  1
