# generated using pymatgen
data_TiCu(PO4)2
_symmetry_space_group_name_H-M   'P 1'
_cell_length_a   9.85679932
_cell_length_b   5.98457436
_cell_length_c   4.92435412
_cell_angle_alpha   90.00000000
_cell_angle_beta   90.76993200
_cell_angle_gamma   90.00000000
_symmetry_Int_Tables_number   1
_chemical_formula_structural   TiCu(PO4)2
_chemical_formula_sum   'Ti2 Cu2 P4 O16'
_cell_volume   290.45526027
_cell_formula_units_Z   2
loop_
 _symmetry_equiv_pos_site_id
 _symmetry_equiv_pos_as_xyz
  1  'x, y, z'
loop_
 _atom_site_type_symbol
 _atom_site_label
 _atom_site_symmetry_multiplicity
 _atom_site_fract_x
 _atom_site_fract_y
 _atom_site_fract_z
 _atom_site_occupancy
  Ti  Ti0  1  0.22339126  0.75000000  0.47294117  1
  Ti  Ti1  1  0.77660874  0.25000000  0.52705883  1
  Cu  Cu2  1  0.28436905  0.25000000  0.91881400  1
  Cu  Cu3  1  0.71563095  0.75000000  0.08118600  1
  P  P4  1  0.10118192  0.25000000  0.43334525  1
  P  P5  1  0.40297117  0.75000000  0.90993224  1
  P  P6  1  0.59702883  0.25000000  0.09006776  1
  P  P7  1  0.89881808  0.75000000  0.56665475  1
  O  O8  1  0.05210889  0.75000000  0.64895977  1
  O  O9  1  0.11239907  0.25000000  0.74299642  1
  O  O10  1  0.17081519  0.04040019  0.30445278  1
  O  O11  1  0.17081519  0.45959981  0.30445278  1
  O  O12  1  0.32751325  0.94435922  0.75171110  1
  O  O13  1  0.32751325  0.55564078  0.75171110  1
  O  O14  1  0.36791162  0.75000000  0.21269063  1
  O  O15  1  0.44585447  0.25000000  0.13772047  1
  O  O16  1  0.55414553  0.75000000  0.86227953  1
  O  O17  1  0.63208838  0.25000000  0.78730937  1
  O  O18  1  0.67248675  0.05564078  0.24828890  1
  O  O19  1  0.67248675  0.44435922  0.24828890  1
  O  O20  1  0.82918481  0.54040019  0.69554722  1
  O  O21  1  0.82918481  0.95959981  0.69554722  1
  O  O22  1  0.88760093  0.75000000  0.25700358  1
  O  O23  1  0.94789111  0.25000000  0.35104023  1
