# generated using pymatgen
data_Na5GdO4
_symmetry_space_group_name_H-M   'P 1'
_cell_length_a   7.91711596
_cell_length_b   7.59843252
_cell_length_c   5.59570656
_cell_angle_alpha   90.00000000
_cell_angle_beta   90.00000000
_cell_angle_gamma   90.00000000
_symmetry_Int_Tables_number   1
_chemical_formula_structural   Na5GdO4
_chemical_formula_sum   'Na10 Gd2 O8'
_cell_volume   336.62467635
_cell_formula_units_Z   2
loop_
 _symmetry_equiv_pos_site_id
 _symmetry_equiv_pos_as_xyz
  1  'x, y, z'
loop_
 _atom_site_type_symbol
 _atom_site_label
 _atom_site_symmetry_multiplicity
 _atom_site_fract_x
 _atom_site_fract_y
 _atom_site_fract_z
 _atom_site_occupancy
  Na  Na0  1  0.05752309  0.01114519  0.74476889  1
  Na  Na1  1  0.05752309  0.48885481  0.74476889  1
  Na  Na2  1  0.25000000  0.75000000  0.20466806  1
  Na  Na3  1  0.44247691  0.48885481  0.74476889  1
  Na  Na4  1  0.44247691  0.01114519  0.74476889  1
  Na  Na5  1  0.55752309  0.51114519  0.25523111  1
  Na  Na6  1  0.55752309  0.98885481  0.25523111  1
  Na  Na7  1  0.75000000  0.25000000  0.79533194  1
  Na  Na8  1  0.94247691  0.51114519  0.25523111  1
  Na  Na9  1  0.94247691  0.98885481  0.25523111  1
  Gd  Gd10  1  0.25000000  0.25000000  0.22057235  1
  Gd  Gd11  1  0.75000000  0.75000000  0.77942765  1
  O  O12  1  0.01527776  0.25000000  0.01160193  1
  O  O13  1  0.25000000  0.48918199  0.43124832  1
  O  O14  1  0.25000000  0.01081801  0.43124832  1
  O  O15  1  0.48472224  0.25000000  0.01160193  1
  O  O16  1  0.51527776  0.75000000  0.98839807  1
  O  O17  1  0.75000000  0.51081801  0.56875168  1
  O  O18  1  0.75000000  0.98918199  0.56875168  1
  O  O19  1  0.98472224  0.75000000  0.98839807  1
