# generated using pymatgen
data_Lu2TeO6
_symmetry_space_group_name_H-M   'P 1'
_cell_length_a   4.91566003
_cell_length_b   4.91564835
_cell_length_c   9.88690543
_cell_angle_alpha   90.00000000
_cell_angle_beta   90.00000000
_cell_angle_gamma   89.99901462
_symmetry_Int_Tables_number   1
_chemical_formula_structural   Lu2TeO6
_chemical_formula_sum   'Lu4 Te2 O12'
_cell_volume   238.90378284
_cell_formula_units_Z   2
loop_
 _symmetry_equiv_pos_site_id
 _symmetry_equiv_pos_as_xyz
  1  'x, y, z'
loop_
 _atom_site_type_symbol
 _atom_site_label
 _atom_site_symmetry_multiplicity
 _atom_site_fract_x
 _atom_site_fract_y
 _atom_site_fract_z
 _atom_site_occupancy
  Lu  Lu0  1  0.00002846  0.00003063  0.33460301  1
  Lu  Lu1  1  0.00002846  0.00003063  0.66539699  1
  Lu  Lu2  1  0.50000018  0.49998959  0.16539530  1
  Lu  Lu3  1  0.50000018  0.49998959  0.83460470  1
  Te  Te4  1  0.00000316  0.99999445  0.00000000  1
  Te  Te5  1  0.50005010  0.50005845  0.50000000  1
  O  O6  1  0.18528775  0.18527364  0.14929464  1
  O  O7  1  0.18528775  0.18527364  0.85070536  1
  O  O8  1  0.21749729  0.21730981  0.50000000  1
  O  O9  1  0.28271589  0.71741774  0.00000000  1
  O  O10  1  0.31468064  0.68523931  0.35070616  1
  O  O11  1  0.31468064  0.68523931  0.64929384  1
  O  O12  1  0.68536002  0.31480424  0.35070549  1
  O  O13  1  0.68536002  0.31480424  0.64929451  1
  O  O14  1  0.71743417  0.28271284  0.00000000  1
  O  O15  1  0.78254765  0.78277502  0.50000000  1
  O  O16  1  0.81471832  0.81472794  0.14929880  1
  O  O17  1  0.81471832  0.81472794  0.85070120  1
