# generated using pymatgen
data_LaBiO3
_symmetry_space_group_name_H-M   'P 1'
_cell_length_a   6.30052401
_cell_length_b   6.29805818
_cell_length_c   6.30052405
_cell_angle_alpha   120.01295062
_cell_angle_beta   59.99999484
_cell_angle_gamma   120.01294708
_symmetry_Int_Tables_number   1
_chemical_formula_structural   LaBiO3
_chemical_formula_sum   'La2 Bi2 O6'
_cell_volume   176.75022261
_cell_formula_units_Z   2
loop_
 _symmetry_equiv_pos_site_id
 _symmetry_equiv_pos_as_xyz
  1  'x, y, z'
loop_
 _atom_site_type_symbol
 _atom_site_label
 _atom_site_symmetry_multiplicity
 _atom_site_fract_x
 _atom_site_fract_y
 _atom_site_fract_z
 _atom_site_occupancy
  La  La0  1  0.13342242  0.40026625  0.13342242  1
  La  La1  1  0.86657758  0.59973375  0.86657758  1
  Bi  Bi2  1  0.35140024  0.05420071  0.35140024  1
  Bi  Bi3  1  0.64859976  0.94579929  0.64859976  1
  O  O4  1  0.00509169  0.23785687  0.46503848  1
  O  O5  1  0.53496152  0.76214313  0.23227231  1
  O  O6  1  0.23227231  0.76214313  0.99490831  1
  O  O7  1  0.76772769  0.23785687  0.00509169  1
  O  O8  1  0.46503848  0.23785687  0.76772769  1
  O  O9  1  0.99490831  0.76214313  0.53496152  1
