# generated using pymatgen
data_Li4CuSi2O7
_symmetry_space_group_name_H-M   'P 1'
_cell_length_a   4.50897074
_cell_length_b   5.30624777
_cell_length_c   6.79298848
_cell_angle_alpha   80.85153371
_cell_angle_beta   90.00000000
_cell_angle_gamma   64.85733372
_symmetry_Int_Tables_number   1
_chemical_formula_structural   Li4CuSi2O7
_chemical_formula_sum   'Li4 Cu1 Si2 O7'
_cell_volume   144.84107006
_cell_formula_units_Z   1
loop_
 _symmetry_equiv_pos_site_id
 _symmetry_equiv_pos_as_xyz
  1  'x, y, z'
loop_
 _atom_site_type_symbol
 _atom_site_label
 _atom_site_symmetry_multiplicity
 _atom_site_fract_x
 _atom_site_fract_y
 _atom_site_fract_z
 _atom_site_occupancy
  Li  Li0  1  0.16045377  0.70694390  0.43489044  1
  Li  Li1  1  0.71973047  0.57629338  0.14475588  1
  Li  Li2  1  0.29602385  0.42370662  0.85524412  1
  Li  Li3  1  0.86739767  0.29305610  0.56510956  1
  Cu  Cu4  1  0.00194179  0.00000000  0.00000000  1
  Si  Si5  1  0.56564506  0.84858170  0.71016841  1
  Si  Si6  1  0.41422675  0.15141830  0.28983159  1
  O  O7  1  0.33183560  0.90051119  0.22503971  1
  O  O8  1  0.86225557  0.74035330  0.88757531  1
  O  O9  1  0.49931033  0.59088721  0.65514850  1
  O  O10  1  0.09019654  0.40911279  0.34485150  1
  O  O11  1  0.60260888  0.25964670  0.11242469  1
  O  O12  1  0.23234678  0.09948881  0.77496029  1
  O  O13  1  0.68302694  1.00000000  0.50000000  1
