# generated using pymatgen
data_Er(BiO2)3
_symmetry_space_group_name_H-M   'P 1'
_cell_length_a   6.99176602
_cell_length_b   6.99176595
_cell_length_c   6.99176606
_cell_angle_alpha   93.00927484
_cell_angle_beta   93.00926903
_cell_angle_gamma   93.00927143
_symmetry_Int_Tables_number   1
_chemical_formula_structural   Er(BiO2)3
_chemical_formula_sum   'Er2 Bi6 O12'
_cell_volume   340.32547207
_cell_formula_units_Z   2
loop_
 _symmetry_equiv_pos_site_id
 _symmetry_equiv_pos_as_xyz
  1  'x, y, z'
loop_
 _atom_site_type_symbol
 _atom_site_label
 _atom_site_symmetry_multiplicity
 _atom_site_fract_x
 _atom_site_fract_y
 _atom_site_fract_z
 _atom_site_occupancy
  Er  Er0  1  0.00000000  0.00000000  0.00000000  1
  Er  Er1  1  0.50000000  0.50000000  0.50000000  1
  Bi  Bi2  1  0.06922614  0.55340228  0.25038879  1
  Bi  Bi3  1  0.25038879  0.06922614  0.55340228  1
  Bi  Bi4  1  0.44659772  0.74961121  0.93077386  1
  Bi  Bi5  1  0.55340228  0.25038879  0.06922614  1
  Bi  Bi6  1  0.74961121  0.93077386  0.44659772  1
  Bi  Bi7  1  0.93077386  0.44659772  0.74961121  1
  O  O8  1  0.07112681  0.69234264  0.92591955  1
  O  O9  1  0.07408045  0.92887319  0.30765736  1
  O  O10  1  0.19080277  0.40151945  0.52733699  1
  O  O11  1  0.30765736  0.07408045  0.92887319  1
  O  O12  1  0.40151945  0.52733699  0.19080277  1
  O  O13  1  0.47266301  0.80919723  0.59848055  1
  O  O14  1  0.52733699  0.19080277  0.40151945  1
  O  O15  1  0.59848055  0.47266301  0.80919723  1
  O  O16  1  0.69234264  0.92591955  0.07112681  1
  O  O17  1  0.80919723  0.59848055  0.47266301  1
  O  O18  1  0.92591955  0.07112681  0.69234264  1
  O  O19  1  0.92887319  0.30765736  0.07408045  1
