# generated using pymatgen
data_Bi7(O2F3)3
_symmetry_space_group_name_H-M   'P 1'
_cell_length_a   5.83657009
_cell_length_b   21.02876242
_cell_length_c   5.85302996
_cell_angle_alpha   82.00033869
_cell_angle_beta   90.00000000
_cell_angle_gamma   90.00000000
_symmetry_Int_Tables_number   1
_chemical_formula_structural   Bi7(O2F3)3
_chemical_formula_sum   'Bi14 O12 F18'
_cell_volume   711.38598195
_cell_formula_units_Z   2
loop_
 _symmetry_equiv_pos_site_id
 _symmetry_equiv_pos_as_xyz
  1  'x, y, z'
loop_
 _atom_site_type_symbol
 _atom_site_label
 _atom_site_symmetry_multiplicity
 _atom_site_fract_x
 _atom_site_fract_y
 _atom_site_fract_z
 _atom_site_occupancy
  Bi  Bi0  1  0.29344570  0.65390029  0.38648822  1
  Bi  Bi1  1  0.29344570  0.34609971  0.54038850  1
  Bi  Bi2  1  0.25245943  0.05801049  0.71671809  1
  Bi  Bi3  1  0.25245943  0.94198951  0.27472859  1
  Bi  Bi4  1  0.25842591  0.50000000  0.05782865  1
  Bi  Bi5  1  0.30715261  0.20358159  0.18539795  1
  Bi  Bi6  1  0.30715261  0.79641841  0.88897953  1
  Bi  Bi7  1  0.69284739  0.79641841  0.38897953  1
  Bi  Bi8  1  0.69284739  0.20358159  0.68539795  1
  Bi  Bi9  1  0.74157409  0.50000000  0.55782865  1
  Bi  Bi10  1  0.74754057  0.05801049  0.21671809  1
  Bi  Bi11  1  0.74754057  0.94198951  0.77472859  1
  Bi  Bi12  1  0.70655430  0.34609971  0.04038850  1
  Bi  Bi13  1  0.70655430  0.65390029  0.88648822  1
  O  O14  1  0.00000000  0.00000000  0.01697471  1
  O  O15  1  0.00000000  0.00000000  0.51697471  1
  O  O16  1  0.47777063  0.29231537  0.83983013  1
  O  O17  1  0.47777063  0.70768463  0.63214550  1
  O  O18  1  0.49264542  0.14707484  0.95747731  1
  O  O19  1  0.49264542  0.85292516  0.60455216  1
  O  O20  1  0.50000000  0.00000000  0.49467501  1
  O  O21  1  0.50000000  0.00000000  0.99467501  1
  O  O22  1  0.50735458  0.85292516  0.10455216  1
  O  O23  1  0.50735458  0.14707484  0.45747731  1
  O  O24  1  0.52222937  0.29231537  0.33983013  1
  O  O25  1  0.52222937  0.70768463  0.13214550  1
  F  F26  1  0.04827718  0.12871561  0.33909339  1
  F  F27  1  0.04827718  0.87128439  0.96780900  1
  F  F28  1  0.08198465  0.26253592  0.51164819  1
  F  F29  1  0.08198465  0.73746408  0.27418411  1
  F  F30  1  0.10793801  0.50000000  0.41349215  1
  F  F31  1  0.12651619  0.60665761  0.04988648  1
  F  F32  1  0.12651619  0.39334239  0.15654409  1
  F  F33  1  0.46095461  0.43559700  0.80054613  1
  F  F34  1  0.46095461  0.56440300  0.73614313  1
  F  F35  1  0.53904539  0.43559700  0.30054613  1
  F  F36  1  0.53904539  0.56440300  0.23614313  1
  F  F37  1  0.87348381  0.39334239  0.65654409  1
  F  F38  1  0.87348381  0.60665761  0.54988648  1
  F  F39  1  0.89206199  0.50000000  0.91349215  1
  F  F40  1  0.91801535  0.26253592  0.01164819  1
  F  F41  1  0.91801535  0.73746408  0.77418411  1
  F  F42  1  0.95172282  0.12871561  0.83909339  1
  F  F43  1  0.95172282  0.87128439  0.46780900  1
