# generated using pymatgen
data_Li2Ti3Ni(PO4)6
_symmetry_space_group_name_H-M   'P 1'
_cell_length_a   8.69453524
_cell_length_b   8.69453572
_cell_length_c   8.69453584
_cell_angle_alpha   59.60682905
_cell_angle_beta   59.60683147
_cell_angle_gamma   59.60682973
_symmetry_Int_Tables_number   1
_chemical_formula_structural   Li2Ti3Ni(PO4)6
_chemical_formula_sum   'Li2 Ti3 Ni1 P6 O24'
_cell_volume   460.60209325
_cell_formula_units_Z   1
loop_
 _symmetry_equiv_pos_site_id
 _symmetry_equiv_pos_as_xyz
  1  'x, y, z'
loop_
 _atom_site_type_symbol
 _atom_site_label
 _atom_site_symmetry_multiplicity
 _atom_site_fract_x
 _atom_site_fract_y
 _atom_site_fract_z
 _atom_site_occupancy
  Li  Li0  1  0.98839606  0.98839606  0.98839606  1
  Li  Li1  1  0.50177193  0.50177193  0.50177193  1
  Ti  Ti2  1  0.14219217  0.14219217  0.14219217  1
  Ti  Ti3  1  0.35550453  0.35550453  0.35550453  1
  Ti  Ti4  1  0.64517513  0.64517513  0.64517513  1
  Ni  Ni5  1  0.85719370  0.85719370  0.85719370  1
  P  P6  1  0.04305309  0.74864803  0.46138501  1
  P  P7  1  0.46138501  0.04305309  0.74864803  1
  P  P8  1  0.74864803  0.46138501  0.04305309  1
  P  P9  1  0.24948206  0.54074046  0.95892381  1
  P  P10  1  0.54074046  0.95892381  0.24948206  1
  P  P11  1  0.95892381  0.24948206  0.54074046  1
  O  O12  1  0.11916697  0.31551059  0.48974566  1
  O  O13  1  0.31551059  0.48974566  0.11916697  1
  O  O14  1  0.05322830  0.92112893  0.27577871  1
  O  O15  1  0.48974566  0.11916697  0.31551059  1
  O  O16  1  0.23506243  0.58595795  0.42538490  1
  O  O17  1  0.01799606  0.78848181  0.62480716  1
  O  O18  1  0.27577871  0.05322830  0.92112893  1
  O  O19  1  0.42538490  0.23506243  0.58595795  1
  O  O20  1  0.58595795  0.42538490  0.23506243  1
  O  O21  1  0.19693888  0.37486654  0.00071206  1
  O  O22  1  0.08493794  0.72843075  0.95088839  1
  O  O23  1  0.37486654  0.00071206  0.19693888  1
  O  O24  1  0.62480716  0.01799606  0.78848181  1
  O  O25  1  0.92112893  0.27577871  0.05322830  1
  O  O26  1  0.78848181  0.62480716  0.01799606  1
  O  O27  1  0.41428511  0.56320354  0.76620111  1
  O  O28  1  0.56320354  0.76620111  0.41428511  1
  O  O29  1  0.72843075  0.95088839  0.08493794  1
  O  O30  1  0.00071206  0.19693888  0.37486654  1
  O  O31  1  0.76620111  0.41428511  0.56320354  1
  O  O32  1  0.50408744  0.87707169  0.69366209  1
  O  O33  1  0.95088839  0.08493794  0.72843075  1
  O  O34  1  0.69366209  0.50408744  0.87707169  1
  O  O35  1  0.87707169  0.69366209  0.50408744  1
