# generated using pymatgen
data_BaZnGeO4
_symmetry_space_group_name_H-M   'P 1'
_cell_length_a   9.33659691
_cell_length_b   9.33654082
_cell_length_c   9.21648875
_cell_angle_alpha   89.99988841
_cell_angle_beta   90.00041104
_cell_angle_gamma   120.00011292
_symmetry_Int_Tables_number   1
_chemical_formula_structural   BaZnGeO4
_chemical_formula_sum   'Ba6 Zn6 Ge6 O24'
_cell_volume   695.77728192
_cell_formula_units_Z   6
loop_
 _symmetry_equiv_pos_site_id
 _symmetry_equiv_pos_as_xyz
  1  'x, y, z'
loop_
 _atom_site_type_symbol
 _atom_site_label
 _atom_site_symmetry_multiplicity
 _atom_site_fract_x
 _atom_site_fract_y
 _atom_site_fract_z
 _atom_site_occupancy
  Ba  Ba0  1  0.33333038  0.66666184  0.21967625  1
  Ba  Ba1  1  0.00000465  0.00000251  0.22627468  1
  Ba  Ba2  1  0.00000482  0.00000410  0.72626905  1
  Ba  Ba3  1  0.33337674  0.66668516  0.72095298  1
  Ba  Ba4  1  0.66667099  0.33333199  0.71967972  1
  Ba  Ba5  1  0.66668444  0.33331671  0.22095444  1
  Zn  Zn6  1  0.00412158  0.67134000  0.02134345  1
  Zn  Zn7  1  0.32865618  0.33277777  0.02134983  1
  Zn  Zn8  1  0.66722237  0.99587743  0.02134455  1
  Zn  Zn9  1  0.33277799  0.00412034  0.52134738  1
  Zn  Zn10  1  0.67134830  0.66721816  0.52134323  1
  Zn  Zn11  1  0.99588486  0.32866513  0.52134859  1
  Ge  Ge12  1  0.00438392  0.66778978  0.42713205  1
  Ge  Ge13  1  0.66340902  0.99561808  0.42713165  1
  Ge  Ge14  1  0.33220543  0.33659496  0.42713227  1
  Ge  Ge15  1  0.66779018  0.66340180  0.92713338  1
  Ge  Ge16  1  0.33659197  0.00438702  0.92713082  1
  Ge  Ge17  1  0.99561641  0.33220780  0.92712738  1
  O  O18  1  0.12609578  0.90922394  0.98095460  1
  O  O19  1  0.01191691  0.67308134  0.23553111  1
  O  O20  1  0.21322383  0.76456603  0.48546773  1
  O  O21  1  0.11418281  0.54308379  0.97839000  1
  O  O22  1  0.42890769  0.88582752  0.97839328  1
  O  O23  1  0.09077476  0.21686897  0.98094377  1
  O  O24  1  0.23543842  0.44866435  0.48547470  1
  O  O25  1  0.32686720  0.33882416  0.23553546  1
  O  O26  1  0.66118035  0.98809974  0.23553010  1
  O  O27  1  0.21687218  0.12609691  0.48094713  1
  O  O28  1  0.55135076  0.78677772  0.48546154  1
  O  O29  1  0.45691724  0.57109789  0.97840111  1
  O  O30  1  0.54307895  0.42890131  0.47839632  1
  O  O31  1  0.44865824  0.21322793  0.98546954  1
  O  O32  1  0.78312786  0.87389929  0.98095896  1
  O  O33  1  0.33881418  0.01192338  0.73553454  1
  O  O34  1  0.67308060  0.66118677  0.73553388  1
  O  O35  1  0.76456479  0.55133563  0.98546004  1
  O  O36  1  0.90922958  0.78313137  0.48094530  1
  O  O37  1  0.57109510  0.11417725  0.47840336  1
  O  O38  1  0.88581666  0.45691676  0.47839836  1
  O  O39  1  0.78677877  0.23543368  0.98547314  1
  O  O40  1  0.98804070  0.32686879  0.73553256  1
  O  O41  1  0.87390543  0.09078190  0.48094376  1
