# generated using pymatgen
data_Ti2Sn3O10
_symmetry_space_group_name_H-M   'P 1'
_cell_length_a   4.76039421
_cell_length_b   4.76039421
_cell_length_c   15.72266712
_cell_angle_alpha   90.00000000
_cell_angle_beta   90.00000000
_cell_angle_gamma   90.08814010
_symmetry_Int_Tables_number   1
_chemical_formula_structural   Ti2Sn3O10
_chemical_formula_sum   'Ti4 Sn6 O20'
_cell_volume   356.29648839
_cell_formula_units_Z   2
loop_
 _symmetry_equiv_pos_site_id
 _symmetry_equiv_pos_as_xyz
  1  'x, y, z'
loop_
 _atom_site_type_symbol
 _atom_site_label
 _atom_site_symmetry_multiplicity
 _atom_site_fract_x
 _atom_site_fract_y
 _atom_site_fract_z
 _atom_site_occupancy
  Ti  Ti0  1  0.00000000  0.00000000  0.00406019  1
  Ti  Ti1  1  0.00000000  0.00000000  0.40299210  1
  Ti  Ti2  1  0.00000000  0.00000000  0.59651018  1
  Ti  Ti3  1  0.50000000  0.50000000  0.09687336  1
  Sn  Sn4  1  0.00000000  0.00000000  0.19873744  1
  Sn  Sn5  1  0.00000000  0.00000000  0.80003924  1
  Sn  Sn6  1  0.50000000  0.50000000  0.69804366  1
  Sn  Sn7  1  0.50000000  0.50000000  0.49921744  1
  Sn  Sn8  1  0.50000000  0.50000000  0.29949589  1
  Sn  Sn9  1  0.50000000  0.50000000  0.90439388  1
  O  O10  1  0.18565738  0.81434262  0.49959608  1
  O  O11  1  0.19834486  0.80165514  0.09461929  1
  O  O12  1  0.19006088  0.80993912  0.30433757  1
  O  O13  1  0.19004929  0.80995071  0.69422195  1
  O  O14  1  0.19005221  0.80994779  0.90594264  1
  O  O15  1  0.30130040  0.30130040  0.00677911  1
  O  O16  1  0.30960868  0.30960868  0.19476655  1
  O  O17  1  0.30609100  0.30609100  0.80091863  1
  O  O18  1  0.29681180  0.29681180  0.40056745  1
  O  O19  1  0.29676494  0.29676494  0.59806904  1
  O  O20  1  0.69869960  0.69869960  0.00677911  1
  O  O21  1  0.69039132  0.69039132  0.19476655  1
  O  O22  1  0.70318820  0.70318820  0.40056745  1
  O  O23  1  0.70323506  0.70323506  0.59806904  1
  O  O24  1  0.69390900  0.69390900  0.80091863  1
  O  O25  1  0.81434262  0.18565738  0.49959608  1
  O  O26  1  0.80165514  0.19834486  0.09461929  1
  O  O27  1  0.80993912  0.19006088  0.30433757  1
  O  O28  1  0.80995071  0.19004929  0.69422195  1
  O  O29  1  0.80994779  0.19005221  0.90594264  1
