# generated using pymatgen
data_LiSn2P4H3O16
_symmetry_space_group_name_H-M   'P 1'
_cell_length_a   4.96316177
_cell_length_b   8.17948581
_cell_length_c   7.57202436
_cell_angle_alpha   90.02128330
_cell_angle_beta   103.96779840
_cell_angle_gamma   88.76072452
_symmetry_Int_Tables_number   1
_chemical_formula_structural   LiSn2P4H3O16
_chemical_formula_sum   'Li1 Sn2 P4 H3 O16'
_cell_volume   298.23205314
_cell_formula_units_Z   1
loop_
 _symmetry_equiv_pos_site_id
 _symmetry_equiv_pos_as_xyz
  1  'x, y, z'
loop_
 _atom_site_type_symbol
 _atom_site_label
 _atom_site_symmetry_multiplicity
 _atom_site_fract_x
 _atom_site_fract_y
 _atom_site_fract_z
 _atom_site_occupancy
  Li  Li0  1  0.42116114  0.88507317  0.86543905  1
  Sn  Sn1  1  0.49986341  0.49765755  0.00184463  1
  Sn  Sn2  1  0.98778420  0.00416105  0.49127156  1
  P  P3  1  0.12208971  0.34402736  0.25684109  1
  P  P4  1  0.36087493  0.85203364  0.23145900  1
  P  P5  1  0.63024728  0.14979252  0.76850310  1
  P  P6  1  0.87713175  0.66136699  0.73757707  1
  H  H7  1  0.00221722  0.99539112  0.00175710  1
  H  H8  1  0.44138453  0.36985638  0.50664689  1
  H  H9  1  0.53714820  0.59495353  0.50314876  1
  O  O10  1  0.11392556  0.54703194  0.83274946  1
  O  O11  1  0.98715757  0.82932617  0.69980877  1
  O  O12  1  0.15580109  0.82846867  0.35545940  1
  O  O13  1  0.27219200  0.42992735  0.44286780  1
  O  O14  1  0.36982672  0.05190536  0.66955205  1
  O  O15  1  0.55088811  0.32626529  0.81307978  1
  O  O16  1  0.22529067  0.94201700  0.05113642  1
  O  O17  1  0.33204440  0.32474544  0.13629159  1
  O  O18  1  0.65383294  0.68097498  0.85262803  1
  O  O19  1  0.75644556  0.04578077  0.93679173  1
  O  O20  1  0.45378367  0.67990815  0.18236583  1
  O  O21  1  0.60502087  0.95172968  0.33782468  1
  O  O22  1  0.73972901  0.58025285  0.55076172  1
  O  O23  1  0.81949390  0.17434654  0.63384414  1
  O  O24  1  0.03065459  0.17515256  0.30050547  1
  O  O25  1  0.88423694  0.46240395  0.17127186  1
