# generated using pymatgen
data_Li4FeO3
_symmetry_space_group_name_H-M   'P 1'
_cell_length_a   5.14754313
_cell_length_b   5.67570073
_cell_length_c   6.97105783
_cell_angle_alpha   71.46665617
_cell_angle_beta   89.96214986
_cell_angle_gamma   62.99851470
_symmetry_Int_Tables_number   1
_chemical_formula_structural   Li4FeO3
_chemical_formula_sum   'Li8 Fe2 O6'
_cell_volume   169.54848511
_cell_formula_units_Z   2
loop_
 _symmetry_equiv_pos_site_id
 _symmetry_equiv_pos_as_xyz
  1  'x, y, z'
loop_
 _atom_site_type_symbol
 _atom_site_label
 _atom_site_symmetry_multiplicity
 _atom_site_fract_x
 _atom_site_fract_y
 _atom_site_fract_z
 _atom_site_occupancy
  Li  Li0  1  0.96410214  0.76871660  0.93310987  1
  Li  Li1  1  0.26588038  0.76949224  0.43551759  1
  Li  Li2  1  0.87679677  0.55237827  0.64177837  1
  Li  Li3  1  0.51723055  0.40117669  0.83813840  1
  Li  Li4  1  0.56690617  0.55464227  0.14133908  1
  Li  Li5  1  0.07913840  0.40368061  0.33736066  1
  Li  Li6  1  0.71434159  0.26858996  0.52719567  1
  Li  Li7  1  0.01559239  0.26802411  0.02793664  1
  Fe  Fe8  1  0.34036765  0.03636967  0.74994201  1
  Fe  Fe9  1  0.62182695  0.03759569  0.25045137  1
  O  O10  1  0.67063074  0.66846924  0.86079989  1
  O  O11  1  0.65857249  0.66972141  0.36116276  1
  O  O12  1  0.29980600  0.40319119  0.59210766  1
  O  O13  1  0.94668263  0.12972610  0.80627848  1
  O  O14  1  0.29507208  0.40368324  0.09184793  1
  O  O15  1  0.92207908  0.13029672  0.30655961  1
