# generated using pymatgen
data_MgCu2AsO7
_symmetry_space_group_name_H-M   'P 1'
_cell_length_a   5.11667036
_cell_length_b   5.33073242
_cell_length_c   6.01649168
_cell_angle_alpha   93.94036318
_cell_angle_beta   115.83138929
_cell_angle_gamma   82.07403421
_symmetry_Int_Tables_number   1
_chemical_formula_structural   MgCu2AsO7
_chemical_formula_sum   'Mg1 Cu2 As1 O7'
_cell_volume   146.28835269
_cell_formula_units_Z   1
loop_
 _symmetry_equiv_pos_site_id
 _symmetry_equiv_pos_as_xyz
  1  'x, y, z'
loop_
 _atom_site_type_symbol
 _atom_site_label
 _atom_site_symmetry_multiplicity
 _atom_site_fract_x
 _atom_site_fract_y
 _atom_site_fract_z
 _atom_site_occupancy
  Mg  Mg0  1  0.63572777  0.54712337  0.13041028  1
  Cu  Cu1  1  0.65216203  0.04887382  0.41782307  1
  Cu  Cu2  1  0.63518138  0.56985013  0.62667311  1
  As  As3  1  0.99412424  0.00758974  0.99156377  1
  O  O4  1  0.92728211  0.15833653  0.72027593  1
  O  O5  1  0.88386703  0.19986752  0.17656817  1
  O  O6  1  0.82727784  0.71817226  0.48007992  1
  O  O7  1  0.82044673  0.73468404  0.93737716  1
  O  O8  1  0.47484230  0.37787573  0.34275619  1
  O  O9  1  0.41193094  0.45843341  0.75657691  1
  O  O10  1  0.36715765  0.90219344  0.13089549  1
