# generated using pymatgen
data_Fe7(PO5)4
_symmetry_space_group_name_H-M   'P 1'
_cell_length_a   7.36920604
_cell_length_b   7.40731105
_cell_length_c   15.21372081
_cell_angle_alpha   90.00000000
_cell_angle_beta   90.00000000
_cell_angle_gamma   61.93719482
_symmetry_Int_Tables_number   1
_chemical_formula_structural   Fe7(PO5)4
_chemical_formula_sum   'Fe14 P8 O40'
_cell_volume   732.82148338
_cell_formula_units_Z   2
loop_
 _symmetry_equiv_pos_site_id
 _symmetry_equiv_pos_as_xyz
  1  'x, y, z'
loop_
 _atom_site_type_symbol
 _atom_site_label
 _atom_site_symmetry_multiplicity
 _atom_site_fract_x
 _atom_site_fract_y
 _atom_site_fract_z
 _atom_site_occupancy
  Fe  Fe0  1  0.50000000  0.00000000  0.00000000  1
  Fe  Fe1  1  0.71925140  0.27096415  0.11297013  1
  Fe  Fe2  1  0.23938511  0.25278002  0.12677672  1
  Fe  Fe3  1  0.98838229  0.01450645  0.24877264  1
  Fe  Fe4  1  0.71925140  0.77096415  0.38702987  1
  Fe  Fe5  1  0.98838229  0.51450645  0.25122736  1
  Fe  Fe6  1  0.76061489  0.24721998  0.62677672  1
  Fe  Fe7  1  0.23938511  0.75278002  0.37322328  1
  Fe  Fe8  1  0.50000000  0.50000000  0.50000000  1
  Fe  Fe9  1  0.28074860  0.22903585  0.61297013  1
  Fe  Fe10  1  0.01161771  0.98549355  0.75122736  1
  Fe  Fe11  1  0.76061489  0.74721998  0.87322328  1
  Fe  Fe12  1  0.01161771  0.48549355  0.74877264  1
  Fe  Fe13  1  0.28074860  0.72903585  0.88702987  1
  P  P14  1  0.99830809  0.75750221  0.06260409  1
  P  P15  1  0.49421524  0.24715754  0.31058441  1
  P  P16  1  0.49421524  0.74715754  0.18941559  1
  P  P17  1  0.99830809  0.25750221  0.43739591  1
  P  P18  1  0.50578476  0.25284246  0.81058441  1
  P  P19  1  0.00169191  0.74249779  0.56260409  1
  P  P20  1  0.50578476  0.75284246  0.68941559  1
  P  P21  1  0.00169191  0.24249779  0.93739591  1
  O  O22  1  0.80845576  0.80025568  0.00355083  1
  O  O23  1  0.49655758  0.22181547  0.07198161  1
  O  O24  1  0.93286486  0.94606976  0.12388357  1
  O  O25  1  0.54564687  0.55852826  0.13470084  1
  O  O26  1  0.67854434  0.21047097  0.24976738  1
  O  O27  1  0.17997405  0.71576010  0.00404096  1
  O  O28  1  0.93286486  0.44606976  0.37611643  1
  O  O29  1  0.54564687  0.05852826  0.36529916  1
  O  O30  1  0.05105344  0.56877030  0.12312527  1
  O  O31  1  0.99029661  0.25872302  0.18478725  1
  O  O32  1  0.30299533  0.30810022  0.24986350  1
  O  O33  1  0.67854434  0.71047097  0.25023262  1
  O  O34  1  0.43128262  0.93282676  0.12692917  1
  O  O35  1  0.43128262  0.43282676  0.37307083  1
  O  O36  1  0.30299533  0.80810022  0.25013650  1
  O  O37  1  0.80845576  0.30025568  0.49644917  1
  O  O38  1  0.05105344  0.06877030  0.37687473  1
  O  O39  1  0.99029661  0.75872302  0.31521275  1
  O  O40  1  0.50344242  0.27818453  0.57198161  1
  O  O41  1  0.49655758  0.72181547  0.42801839  1
  O  O42  1  0.17997405  0.21576010  0.49595904  1
  O  O43  1  0.82002595  0.78423990  0.50404096  1
  O  O44  1  0.94894656  0.93122970  0.62312527  1
  O  O45  1  0.19154424  0.69974432  0.50355083  1
  O  O46  1  0.69700467  0.19189978  0.74986350  1
  O  O47  1  0.56871738  0.56717324  0.62692917  1
  O  O48  1  0.06713514  0.55393024  0.62388357  1
  O  O49  1  0.56871738  0.06717324  0.87307083  1
  O  O50  1  0.32145566  0.28952903  0.74976738  1
  O  O51  1  0.45435313  0.94147174  0.63470084  1
  O  O52  1  0.00970339  0.24127698  0.68478725  1
  O  O53  1  0.94894656  0.43122970  0.87687473  1
  O  O54  1  0.69700467  0.69189978  0.75013650  1
  O  O55  1  0.45435313  0.44147174  0.86529916  1
  O  O56  1  0.82002595  0.28423990  0.99595904  1
  O  O57  1  0.32145566  0.78952903  0.75023262  1
  O  O58  1  0.06713514  0.05393024  0.87611643  1
  O  O59  1  0.19154424  0.19974432  0.99644917  1
  O  O60  1  0.50344242  0.77818453  0.92801839  1
  O  O61  1  0.00970339  0.74127698  0.81521275  1
