# generated using pymatgen
data_Li4Mn3Cr3(FeO8)2
_symmetry_space_group_name_H-M   'P 1'
_cell_length_a   5.86671065
_cell_length_b   5.86174147
_cell_length_c   9.51301678
_cell_angle_alpha   89.70903131
_cell_angle_beta   89.78045122
_cell_angle_gamma   119.94580018
_symmetry_Int_Tables_number   1
_chemical_formula_structural   Li4Mn3Cr3(FeO8)2
_chemical_formula_sum   'Li4 Mn3 Cr3 Fe2 O16'
_cell_volume   283.45872614
_cell_formula_units_Z   1
loop_
 _symmetry_equiv_pos_site_id
 _symmetry_equiv_pos_as_xyz
  1  'x, y, z'
loop_
 _atom_site_type_symbol
 _atom_site_label
 _atom_site_symmetry_multiplicity
 _atom_site_fract_x
 _atom_site_fract_y
 _atom_site_fract_z
 _atom_site_occupancy
  Li  Li0  1  0.34173260  0.67039457  0.89278384  1
  Li  Li1  1  0.99381819  0.99769196  0.99725388  1
  Li  Li2  1  0.99777345  0.99817101  0.49632700  1
  Li  Li3  1  0.67084448  0.33848125  0.39285373  1
  Mn  Mn4  1  0.65997880  0.83213558  0.21565638  1
  Mn  Mn5  1  0.83145528  0.66149336  0.71490808  1
  Mn  Mn6  1  0.83130401  0.16891903  0.71480917  1
  Cr  Cr7  1  0.16595498  0.83052123  0.21232057  1
  Cr  Cr8  1  0.16916061  0.33895530  0.21415574  1
  Cr  Cr9  1  0.33866510  0.16877729  0.71408773  1
  Fe  Fe10  1  0.32524728  0.66167642  0.49097473  1
  Fe  Fe11  1  0.66311106  0.32609487  0.98975660  1
  O  O12  1  0.15529378  0.83153359  0.60003931  1
  O  O13  1  0.03878881  0.52941662  0.33450443  1
  O  O14  1  0.34471002  0.67515479  0.10592268  1
  O  O15  1  0.98935834  0.99310298  0.31076409  1
  O  O16  1  0.99069640  0.99411876  0.81032032  1
  O  O17  1  0.15405119  0.32274559  0.59961135  1
  O  O18  1  0.48062599  0.96420006  0.33365639  1
  O  O19  1  0.48678817  0.52678016  0.33908617  1
  O  O20  1  0.32300248  0.15135018  0.10147679  1
  O  O21  1  0.67572798  0.83851718  0.60444021  1
  O  O22  1  0.52795241  0.48814111  0.83760051  1
  O  O23  1  0.52768530  0.03770784  0.83670498  1
  O  O24  1  0.67871095  0.33956418  0.60853742  1
  O  O25  1  0.84046607  0.67497983  0.10482394  1
  O  O26  1  0.96560553  0.48195758  0.83416494  1
  O  O27  1  0.83148874  0.15771868  0.10029803  1
