# generated using pymatgen
data_Li4Mn3Nb2Sn3O16
_symmetry_space_group_name_H-M   'P 1'
_cell_length_a   6.28100563
_cell_length_b   6.23010885
_cell_length_c   10.00688810
_cell_angle_alpha   89.99840317
_cell_angle_beta   90.43442890
_cell_angle_gamma   119.73076422
_symmetry_Int_Tables_number   1
_chemical_formula_structural   Li4Mn3Nb2Sn3O16
_chemical_formula_sum   'Li4 Mn3 Nb2 Sn3 O16'
_cell_volume   340.02422167
_cell_formula_units_Z   1
loop_
 _symmetry_equiv_pos_site_id
 _symmetry_equiv_pos_as_xyz
  1  'x, y, z'
loop_
 _atom_site_type_symbol
 _atom_site_label
 _atom_site_symmetry_multiplicity
 _atom_site_fract_x
 _atom_site_fract_y
 _atom_site_fract_z
 _atom_site_occupancy
  Li  Li0  1  0.33950393  0.66977280  0.90283586  1
  Li  Li1  1  0.99051216  0.99529515  0.98402105  1
  Li  Li2  1  0.99823182  0.99912278  0.49477667  1
  Li  Li3  1  0.65434555  0.32717809  0.40532690  1
  Mn  Mn4  1  0.65856912  0.82926770  0.21325941  1
  Mn  Mn5  1  0.83446588  0.66253943  0.70997969  1
  Mn  Mn6  1  0.83444490  0.17192609  0.70996860  1
  Nb  Nb7  1  0.34943592  0.67475557  0.49646525  1
  Nb  Nb8  1  0.69941756  0.34970545  0.98021569  1
  Sn  Sn9  1  0.16960456  0.83189255  0.21454218  1
  Sn  Sn10  1  0.16962498  0.33769957  0.21458025  1
  Sn  Sn11  1  0.34584392  0.17301359  0.71679278  1
  O  O12  1  0.18320282  0.83702037  0.58828758  1
  O  O13  1  0.02911282  0.51453027  0.33912439  1
  O  O14  1  0.31894934  0.65945071  0.10214374  1
  O  O15  1  0.00321066  0.00157888  0.31129525  1
  O  O16  1  0.01270401  0.00638056  0.80092420  1
  O  O17  1  0.18320698  0.34621072  0.58828651  1
  O  O18  1  0.46298885  0.95359309  0.34893983  1
  O  O19  1  0.46306877  0.50943498  0.34895724  1
  O  O20  1  0.31864103  0.15933808  0.09850774  1
  O  O21  1  0.65794879  0.82899265  0.58032246  1
  O  O22  1  0.51423187  0.47272919  0.85523817  1
  O  O23  1  0.51424129  0.04153494  0.85523472  1
  O  O24  1  0.65477730  0.32740497  0.60585851  1
  O  O25  1  0.83786623  0.66163920  0.09100939  1
  O  O26  1  0.96396276  0.48201796  0.85991857  1
  O  O27  1  0.83788618  0.17627266  0.09102836  1
