# generated using pymatgen
data_Ba8Fe8O21
_symmetry_space_group_name_H-M   'P 1'
_cell_length_a   5.74417756
_cell_length_b   5.81629989
_cell_length_c   19.09490810
_cell_angle_alpha   99.30332818
_cell_angle_beta   98.08166613
_cell_angle_gamma   60.02877083
_symmetry_Int_Tables_number   1
_chemical_formula_structural   Ba8Fe8O21
_chemical_formula_sum   'Ba8 Fe8 O21'
_cell_volume   544.04172151
_cell_formula_units_Z   1
loop_
 _symmetry_equiv_pos_site_id
 _symmetry_equiv_pos_as_xyz
  1  'x, y, z'
loop_
 _atom_site_type_symbol
 _atom_site_label
 _atom_site_symmetry_multiplicity
 _atom_site_fract_x
 _atom_site_fract_y
 _atom_site_fract_z
 _atom_site_occupancy
  Ba  Ba0  1  0.75179570  0.75081051  0.25198564  1
  Ba  Ba1  1  0.37500000  0.37500000  0.12500000  1
  Ba  Ba2  1  0.99820430  0.99918949  0.99801436  1
  Ba  Ba3  1  0.87500000  0.87500000  0.62500000  1
  Ba  Ba4  1  0.49568444  0.50673811  0.49679111  1
  Ba  Ba5  1  0.12321437  0.12661202  0.37135559  1
  Ba  Ba6  1  0.62678563  0.62338798  0.87864441  1
  Ba  Ba7  1  0.25431556  0.24326189  0.75320889  1
  Fe  Fe8  1  0.66334914  0.65967640  0.05582688  1
  Fe  Fe9  1  0.78463261  0.86327543  0.42936974  1
  Fe  Fe10  1  0.08665086  0.09032360  0.19417312  1
  Fe  Fe11  1  0.43965420  0.45260695  0.31126984  1
  Fe  Fe12  1  0.96536739  0.88672457  0.82063026  1
  Fe  Fe13  1  0.20396197  0.16017962  0.56861245  1
  Fe  Fe14  1  0.54603803  0.58982038  0.68138755  1
  Fe  Fe15  1  0.31034580  0.29739305  0.93873016  1
  O  O16  1  0.49449675  0.48080602  0.99807581  1
  O  O17  1  0.37500000  0.87500000  0.12500000  1
  O  O18  1  0.99042841  0.51747021  0.00761977  1
  O  O19  1  0.87500000  0.37500000  0.12500000  1
  O  O20  1  0.24576373  0.75845609  0.24842304  1
  O  O21  1  0.50423627  0.99154391  0.00157696  1
  O  O22  1  0.11535809  0.62796815  0.38355085  1
  O  O23  1  0.75957159  0.23252979  0.24238023  1
  O  O24  1  0.62891652  0.63074690  0.37577873  1
  O  O25  1  0.25550325  0.26919398  0.25192419  1
  O  O26  1  0.37500000  0.87500000  0.62500000  1
  O  O27  1  0.61811573  0.14900105  0.37230042  1
  O  O28  1  0.87500000  0.37500000  0.62500000  1
  O  O29  1  0.37500000  0.37500000  0.62500000  1
  O  O30  1  0.75627512  0.73037835  0.74938356  1
  O  O31  1  0.99372488  0.01962165  0.50061644  1
  O  O32  1  0.50029069  0.00542710  0.49947828  1
  O  O33  1  0.24970931  0.74457290  0.75052172  1
  O  O34  1  0.13188427  0.60099895  0.87769958  1
  O  O35  1  0.12108348  0.11925310  0.87422127  1
  O  O36  1  0.63464191  0.12203185  0.86644915  1
