# generated using pymatgen
data_Na3PH22(SO4)3
_symmetry_space_group_name_H-M   'P 1'
_cell_length_a   12.99038294
_cell_length_b   9.53422196
_cell_length_c   14.28264480
_cell_angle_alpha   90.00000000
_cell_angle_beta   90.00000000
_cell_angle_gamma   90.00000000
_symmetry_Int_Tables_number   1
_chemical_formula_structural   Na3PH22(SO4)3
_chemical_formula_sum   'Na12 P4 H88 S12 O48'
_cell_volume   1768.95118147
_cell_formula_units_Z   4
loop_
 _symmetry_equiv_pos_site_id
 _symmetry_equiv_pos_as_xyz
  1  'x, y, z'
loop_
 _atom_site_type_symbol
 _atom_site_label
 _atom_site_symmetry_multiplicity
 _atom_site_fract_x
 _atom_site_fract_y
 _atom_site_fract_z
 _atom_site_occupancy
  Na  Na0  1  0.99078999  0.01469635  0.39935172  1
  Na  Na1  1  0.20783657  0.99367429  0.76696207  1
  Na  Na2  1  0.23668169  0.00674495  0.46113722  1
  Na  Na3  1  0.26331831  0.50674495  0.96113722  1
  Na  Na4  1  0.29216343  0.49367429  0.26696207  1
  Na  Na5  1  0.50921001  0.51469635  0.89935172  1
  Na  Na6  1  0.49078999  0.48530365  0.39935172  1
  Na  Na7  1  0.70783657  0.50632571  0.76696207  1
  Na  Na8  1  0.73668169  0.49325505  0.46113722  1
  Na  Na9  1  0.76331831  0.99325505  0.96113722  1
  Na  Na10  1  0.79216343  0.00632571  0.26696207  1
  Na  Na11  1  0.00921001  0.98530365  0.89935172  1
  P  P12  1  0.08833537  0.47523628  0.59759051  1
  P  P13  1  0.41166463  0.97523628  0.09759051  1
  P  P14  1  0.58833537  0.02476372  0.59759051  1
  P  P15  1  0.91166463  0.52476372  0.09759051  1
  H  H16  1  0.99657066  0.85536844  0.20914481  1
  H  H17  1  0.03399145  0.00925194  0.18387512  1
  H  H18  1  0.06165983  0.37176844  0.96269231  1
  H  H19  1  0.07663221  0.74133522  0.76045460  1
  H  H20  1  0.07987703  0.09416487  0.58403697  1
  H  H21  1  0.08212086  0.45206436  0.29239230  1
  H  H22  1  0.07881732  0.22496042  0.51626214  1
  H  H23  1  0.10015685  0.76790363  0.44930549  1
  H  H24  1  0.09192314  0.38679242  0.85417974  1
  H  H25  1  0.08048517  0.66488260  0.01145459  1
  H  H26  1  0.12163538  0.12205837  0.30087078  1
  H  H27  1  0.11845369  0.73807569  0.86721986  1
  H  H28  1  0.15347993  0.19684306  0.91810648  1
  H  H29  1  0.15021236  0.78474741  0.34754066  1
  H  H30  1  0.11457190  0.40121007  0.39227649  1
  H  H31  1  0.13957413  0.67603607  0.21166743  1
  H  H32  1  0.17672938  0.34807902  0.10989426  1
  H  H33  1  0.17770999  0.76973214  0.02659705  1
  H  H34  1  0.22869870  0.17179831  0.27915705  1
  H  H35  1  0.20372373  0.06523666  0.97154622  1
  H  H36  1  0.20809719  0.79529432  0.60593524  1
  H  H37  1  0.22815741  0.78884062  0.20071985  1
  H  H38  1  0.27184259  0.28884062  0.70071985  1
  H  H39  1  0.29190281  0.29529432  0.10593524  1
  H  H40  1  0.29627627  0.56523666  0.47154622  1
  H  H41  1  0.27130130  0.67179831  0.77915705  1
  H  H42  1  0.32229001  0.26973214  0.52659705  1
  H  H43  1  0.32327062  0.84807902  0.60989426  1
  H  H44  1  0.36042587  0.17603607  0.71166743  1
  H  H45  1  0.38542810  0.90121007  0.89227649  1
  H  H46  1  0.34978764  0.28474841  0.84754066  1
  H  H47  1  0.34652007  0.69684306  0.41810648  1
  H  H48  1  0.38154631  0.23807569  0.36721986  1
  H  H49  1  0.37836462  0.62205837  0.80087078  1
  H  H50  1  0.41951483  0.16488260  0.51145459  1
  H  H51  1  0.40807686  0.88679242  0.35417974  1
  H  H52  1  0.39984315  0.26790363  0.94930549  1
  H  H53  1  0.42118268  0.72496042  0.01626214  1
  H  H54  1  0.41787914  0.95206436  0.79239230  1
  H  H55  1  0.42012297  0.59416487  0.08403697  1
  H  H56  1  0.42336779  0.24133522  0.26045460  1
  H  H57  1  0.43834017  0.87176844  0.46269231  1
  H  H58  1  0.46600855  0.50925194  0.68387512  1
  H  H59  1  0.50342934  0.35536844  0.70914481  1
  H  H60  1  0.49657066  0.64463156  0.20914481  1
  H  H61  1  0.53399145  0.49074806  0.18387512  1
  H  H62  1  0.56165983  0.12823156  0.96269231  1
  H  H63  1  0.57663221  0.75866478  0.76045460  1
  H  H64  1  0.57987703  0.40583513  0.58403697  1
  H  H65  1  0.58212086  0.04793564  0.29239230  1
  H  H66  1  0.57881732  0.27503958  0.51626214  1
  H  H67  1  0.60015685  0.73209637  0.44930549  1
  H  H68  1  0.59192314  0.11320758  0.85417974  1
  H  H69  1  0.58048517  0.83511740  0.01145459  1
  H  H70  1  0.62163538  0.37794163  0.30087078  1
  H  H71  1  0.61845369  0.76192431  0.86721986  1
  H  H72  1  0.65347993  0.30315694  0.91810648  1
  H  H73  1  0.65021236  0.71525259  0.34754066  1
  H  H74  1  0.61457190  0.09878993  0.39227649  1
  H  H75  1  0.63957413  0.82396393  0.21166743  1
  H  H76  1  0.67672938  0.15192098  0.10989426  1
  H  H77  1  0.67770999  0.73026786  0.02659705  1
  H  H78  1  0.72869870  0.32820169  0.27915705  1
  H  H79  1  0.70372373  0.43476334  0.97154622  1
  H  H80  1  0.70809719  0.70470568  0.60593524  1
  H  H81  1  0.72815741  0.71115938  0.20071985  1
  H  H82  1  0.77184259  0.21115938  0.70071985  1
  H  H83  1  0.79190281  0.20470568  0.10593524  1
  H  H84  1  0.79627627  0.93476334  0.47154622  1
  H  H85  1  0.77130130  0.82820169  0.77915705  1
  H  H86  1  0.82229001  0.23026786  0.52659705  1
  H  H87  1  0.82327062  0.65192098  0.60989426  1
  H  H88  1  0.86042587  0.32396393  0.71166743  1
  H  H89  1  0.88542810  0.59878993  0.89227649  1
  H  H90  1  0.84978764  0.21525159  0.84754066  1
  H  H91  1  0.84652007  0.80315694  0.41810648  1
  H  H92  1  0.88154631  0.26192431  0.36721986  1
  H  H93  1  0.87836462  0.87794163  0.80087078  1
  H  H94  1  0.91951483  0.33511740  0.51145459  1
  H  H95  1  0.90807686  0.61320758  0.35417974  1
  H  H96  1  0.89984315  0.23209637  0.94930549  1
  H  H97  1  0.92118268  0.77503958  0.01626214  1
  H  H98  1  0.91787914  0.54793564  0.79239230  1
  H  H99  1  0.92012297  0.90583513  0.08403697  1
  H  H100  1  0.92336779  0.25866478  0.26045460  1
  H  H101  1  0.93834017  0.62823156  0.46269231  1
  H  H102  1  0.96600855  0.99074806  0.68387512  1
  H  H103  1  0.00342934  0.14463156  0.70914481  1
  S  S104  1  0.02350425  0.38382158  0.71587387  1
  S  S105  1  0.03996769  0.68204615  0.59193100  1
  S  S106  1  0.25427555  0.96791951  0.10331958  1
  S  S107  1  0.24572445  0.46791951  0.60331958  1
  S  S108  1  0.46003231  0.18204615  0.09193100  1
  S  S109  1  0.47649575  0.88382158  0.21587387  1
  S  S110  1  0.52350425  0.11617842  0.71587387  1
  S  S111  1  0.53996769  0.81795385  0.59193100  1
  S  S112  1  0.75427555  0.53208049  0.10331958  1
  S  S113  1  0.74572445  0.03208049  0.60331958  1
  S  S114  1  0.96003231  0.31795385  0.09193100  1
  S  S115  1  0.97649575  0.61617842  0.21587387  1
  O  O116  1  0.02348489  0.04392844  0.71030724  1
  O  O117  1  0.04836787  0.39416534  0.51047977  1
  O  O118  1  0.08677147  0.11984905  0.51778254  1
  O  O119  1  0.09931711  0.79931854  0.81380404  1
  O  O120  1  0.12003364  0.36990480  0.91825658  1
  O  O121  1  0.11720242  0.83665867  0.39990216  1
  O  O122  1  0.13661912  0.40082740  0.32574483  1
  O  O123  1  0.16183610  0.09262023  0.91634943  1
  O  O124  1  0.15005610  0.69244753  0.98806016  1
  O  O125  1  0.19295545  0.09588573  0.31141399  1
  O  O126  1  0.20542055  0.70807707  0.23985266  1
  O  O127  1  0.24817086  0.37967033  0.11402820  1
  O  O128  1  0.25182914  0.87967033  0.61402820  1
  O  O129  1  0.29457945  0.20807707  0.73985266  1
  O  O130  1  0.30704455  0.59588573  0.81141399  1
  O  O131  1  0.34994390  0.19244753  0.48806016  1
  O  O132  1  0.33816390  0.59262023  0.41634943  1
  O  O133  1  0.36338088  0.90082740  0.82574483  1
  O  O134  1  0.38279758  0.33665867  0.89990216  1
  O  O135  1  0.37996636  0.86990480  0.41825658  1
  O  O136  1  0.40068289  0.29931854  0.31380404  1
  O  O137  1  0.41322853  0.61984905  0.01778254  1
  O  O138  1  0.45163213  0.89416534  0.01047977  1
  O  O139  1  0.47651511  0.54392844  0.21030724  1
  O  O140  1  0.52348489  0.45607156  0.71030724  1
  O  O141  1  0.54836787  0.10583466  0.51047977  1
  O  O142  1  0.58677147  0.38015095  0.51778254  1
  O  O143  1  0.59931711  0.70068146  0.81380404  1
  O  O144  1  0.62003364  0.13009520  0.91825658  1
  O  O145  1  0.61720242  0.66334133  0.39990216  1
  O  O146  1  0.63661912  0.09917260  0.32574483  1
  O  O147  1  0.66183610  0.40737977  0.91634943  1
  O  O148  1  0.65005610  0.80755247  0.98806016  1
  O  O149  1  0.69295545  0.40411427  0.31141399  1
  O  O150  1  0.70542055  0.79192293  0.23985266  1
  O  O151  1  0.74817086  0.12032967  0.11402820  1
  O  O152  1  0.75182914  0.62032967  0.61402820  1
  O  O153  1  0.79457945  0.29192293  0.73985266  1
  O  O154  1  0.80704455  0.90411427  0.81141399  1
  O  O155  1  0.84994390  0.30755247  0.48806016  1
  O  O156  1  0.83816390  0.90737977  0.41634943  1
  O  O157  1  0.86338088  0.59917260  0.82574483  1
  O  O158  1  0.88279758  0.16334133  0.89990216  1
  O  O159  1  0.87996636  0.63009520  0.41825658  1
  O  O160  1  0.90068289  0.20068146  0.31380404  1
  O  O161  1  0.91322853  0.88015095  0.01778254  1
  O  O162  1  0.95163213  0.60583466  0.01047977  1
  O  O163  1  0.97651511  0.95607156  0.21030724  1
