# generated using pymatgen
data_Li2Si4Ni4O13
_symmetry_space_group_name_H-M   'P 1'
_cell_length_a   10.14908648
_cell_length_b   7.86777496
_cell_length_c   6.75040026
_cell_angle_alpha   77.73449082
_cell_angle_beta   90.20945766
_cell_angle_gamma   112.92442834
_symmetry_Int_Tables_number   1
_chemical_formula_structural   Li2Si4Ni4O13
_chemical_formula_sum   'Li4 Si8 Ni8 O26'
_cell_volume   483.24271728
_cell_formula_units_Z   2
loop_
 _symmetry_equiv_pos_site_id
 _symmetry_equiv_pos_as_xyz
  1  'x, y, z'
loop_
 _atom_site_type_symbol
 _atom_site_label
 _atom_site_symmetry_multiplicity
 _atom_site_fract_x
 _atom_site_fract_y
 _atom_site_fract_z
 _atom_site_occupancy
  Li  Li0  1  0.11770432  0.61693913  0.22121168  1
  Li  Li1  1  0.42446249  0.45621663  0.75138126  1
  Li  Li2  1  0.57553751  0.54378337  0.24861874  1
  Li  Li3  1  0.88229568  0.38306087  0.77878832  1
  Si  Si4  1  0.17864429  0.59575790  0.72899062  1
  Si  Si5  1  0.28600113  0.42514935  0.27244062  1
  Si  Si6  1  0.28391590  0.12434454  0.62019034  1
  Si  Si7  1  0.28493561  0.11444824  0.07835412  1
  Si  Si8  1  0.71506439  0.88555176  0.92164588  1
  Si  Si9  1  0.71608410  0.87565546  0.37980966  1
  Si  Si10  1  0.71399887  0.57485065  0.72755938  1
  Si  Si11  1  0.82135571  0.40424210  0.27100938  1
  Ni  Ni12  1  0.00754212  0.81672645  0.91291135  1
  Ni  Ni13  1  0.01186835  0.81755073  0.42857248  1
  Ni  Ni14  1  0.38468568  0.82910968  0.42175131  1
  Ni  Ni15  1  0.38688548  0.82789970  0.92012309  1
  Ni  Ni16  1  0.61311452  0.17210030  0.07987691  1
  Ni  Ni17  1  0.61531432  0.17089032  0.57824869  1
  Ni  Ni18  1  0.98813165  0.18244927  0.57142752  1
  Ni  Ni19  1  0.99245788  0.18327355  0.08708865  1
  O  O20  1  0.11327493  0.99642645  0.14156290  1
  O  O21  1  0.07365707  0.36855668  0.79087040  1
  O  O22  1  0.15856578  0.69329377  0.49253067  1
  O  O23  1  0.16285759  0.70779856  0.90776818  1
  O  O24  1  0.11194431  0.35120251  0.28350123  1
  O  O25  1  0.11247615  0.01102361  0.60972783  1
  O  O26  1  0.39199079  0.00488556  0.13866255  1
  O  O27  1  0.39278640  0.02384751  0.59435119  1
  O  O28  1  0.35434863  0.64808911  0.71982739  1
  O  O29  1  0.37649003  0.65195179  0.20894862  1
  O  O30  1  0.30642975  0.18329020  0.83544877  1
  O  O31  1  0.34313355  0.34774985  0.48773316  1
  O  O32  1  0.34857986  0.32746885  0.12427091  1
  O  O33  1  0.65142014  0.67253115  0.87572909  1
  O  O34  1  0.65686645  0.65225015  0.51226684  1
  O  O35  1  0.69357025  0.81670980  0.16455123  1
  O  O36  1  0.62350997  0.34804821  0.79105138  1
  O  O37  1  0.64565137  0.35191089  0.28017261  1
  O  O38  1  0.60721360  0.97615249  0.40564881  1
  O  O39  1  0.60800921  0.99511444  0.86133745  1
  O  O40  1  0.88752385  0.98897639  0.39027217  1
  O  O41  1  0.88805569  0.64879749  0.71649877  1
  O  O42  1  0.83714241  0.29220144  0.09223182  1
  O  O43  1  0.84143422  0.30670623  0.50746933  1
  O  O44  1  0.92634293  0.63144332  0.20913060  1
  O  O45  1  0.88672507  0.00357355  0.85843710  1
