# generated using pymatgen
data_LiFeSi3O8
_symmetry_space_group_name_H-M   'P 1'
_cell_length_a   7.89643358
_cell_length_b   7.38410571
_cell_length_c   7.38817177
_cell_angle_alpha   78.63927114
_cell_angle_beta   107.24860333
_cell_angle_gamma   63.06349300
_symmetry_Int_Tables_number   1
_chemical_formula_structural   LiFeSi3O8
_chemical_formula_sum   'Li2 Fe2 Si6 O16'
_cell_volume   337.87319444
_cell_formula_units_Z   2
loop_
 _symmetry_equiv_pos_site_id
 _symmetry_equiv_pos_as_xyz
  1  'x, y, z'
loop_
 _atom_site_type_symbol
 _atom_site_label
 _atom_site_symmetry_multiplicity
 _atom_site_fract_x
 _atom_site_fract_y
 _atom_site_fract_z
 _atom_site_occupancy
  Li  Li0  1  0.24534303  0.74293062  0.12856015  1
  Li  Li1  1  0.75465697  0.25706938  0.87143985  1
  Fe  Fe2  1  0.82678679  0.83419373  0.79768717  1
  Fe  Fe3  1  0.17321321  0.16580627  0.20231283  1
  Si  Si4  1  0.21616840  0.55236035  0.69296862  1
  Si  Si5  1  0.44362761  0.76714423  0.64889326  1
  Si  Si6  1  0.16167675  0.16465523  0.75659577  1
  Si  Si7  1  0.83832325  0.83534477  0.24340423  1
  Si  Si8  1  0.55637239  0.23285577  0.35110674  1
  Si  Si9  1  0.78383160  0.44763965  0.30703138  1
  O  O10  1  0.10251240  0.67893129  0.81940610  1
  O  O11  1  0.31181547  0.93464718  0.74145150  1
  O  O12  1  0.06770170  0.68176756  0.44462143  1
  O  O13  1  0.33056883  0.87501870  0.39834518  1
  O  O14  1  0.43999429  0.54120098  0.73223708  1
  O  O15  1  0.11934181  0.10587888  0.95731736  1
  O  O16  1  0.28192908  0.29662483  0.76787331  1
  O  O17  1  0.69062849  0.68595982  0.74978515  1
  O  O18  1  0.30937151  0.31404018  0.25021485  1
  O  O19  1  0.71807092  0.70337517  0.23212669  1
  O  O20  1  0.88065819  0.89412112  0.04268264  1
  O  O21  1  0.56000571  0.45879902  0.26776292  1
  O  O22  1  0.66943117  0.12498130  0.60165482  1
  O  O23  1  0.93229830  0.31823244  0.55537857  1
  O  O24  1  0.68818453  0.06535282  0.25854850  1
  O  O25  1  0.89748760  0.32106871  0.18059390  1
