# generated using pymatgen
data_Li6Mn15O32
_symmetry_space_group_name_H-M   'P 1'
_cell_length_a   5.97080512
_cell_length_b   5.89243924
_cell_length_c   19.37751427
_cell_angle_alpha   97.88740312
_cell_angle_beta   97.92185301
_cell_angle_gamma   59.20452779
_symmetry_Int_Tables_number   1
_chemical_formula_structural   Li6Mn15O32
_chemical_formula_sum   'Li6 Mn15 O32'
_cell_volume   578.25277344
_cell_formula_units_Z   1
loop_
 _symmetry_equiv_pos_site_id
 _symmetry_equiv_pos_as_xyz
  1  'x, y, z'
loop_
 _atom_site_type_symbol
 _atom_site_label
 _atom_site_symmetry_multiplicity
 _atom_site_fract_x
 _atom_site_fract_y
 _atom_site_fract_z
 _atom_site_occupancy
  Li  Li0  1  0.84871806  0.82905028  0.03261377  1
  Li  Li1  1  0.90230251  0.91764175  0.21743192  1
  Li  Li2  1  0.58756455  0.59099436  0.27576381  1
  Li  Li3  1  0.65967321  0.65186719  0.46905099  1
  Li  Li4  1  0.09002164  0.09742436  0.78053687  1
  Li  Li5  1  0.16283607  0.15639331  0.97461432  1
  Mn  Mn6  1  0.50203719  0.50594702  0.00424561  1
  Mn  Mn7  1  0.87463192  0.37368373  0.12496998  1
  Mn  Mn8  1  0.37511013  0.37325403  0.12505144  1
  Mn  Mn9  1  0.12587498  0.62131600  0.37529482  1
  Mn  Mn10  1  0.24771408  0.24214141  0.24564701  1
  Mn  Mn11  1  0.37477395  0.87313363  0.62481244  1
  Mn  Mn12  1  0.87396093  0.87353888  0.62470728  1
  Mn  Mn13  1  0.12543608  0.12505330  0.37430892  1
  Mn  Mn14  1  0.62267369  0.12605947  0.37548799  1
  Mn  Mn15  1  0.74482193  0.74650115  0.74855121  1
  Mn  Mn16  1  0.00406649  0.00115530  0.50135073  1
  Mn  Mn17  1  0.87440862  0.37347230  0.62486249  1
  Mn  Mn18  1  0.62391563  0.62376878  0.87567369  1
  Mn  Mn19  1  0.12694395  0.62298908  0.87469241  1
  Mn  Mn20  1  0.62369188  0.12713237  0.87457168  1
  O  O21  1  0.69693283  0.63156107  0.05779665  1
  O  O22  1  0.22748357  0.63449202  0.05771434  1
  O  O23  1  0.40663042  0.97173037  0.31374673  1
  O  O24  1  0.67641683  0.21636695  0.06676009  1
  O  O25  1  0.57170260  0.52435058  0.17549612  1
  O  O26  1  0.95850116  0.93417628  0.32271135  1
  O  O27  1  0.17769855  0.22342341  0.07480948  1
  O  O28  1  0.07375065  0.53050069  0.18357294  1
  O  O29  1  0.52262227  0.11179578  0.19254498  1
  O  O30  1  0.83327561  0.83378988  0.43548015  1
  O  O31  1  0.05425508  0.11507068  0.19247608  1
  O  O32  1  0.27537525  0.82455894  0.43361394  1
  O  O33  1  0.97231264  0.42901443  0.31827958  1
  O  O34  1  0.41607879  0.42087748  0.31822864  1
  O  O35  1  0.28892870  0.31094882  0.42650773  1
  O  O36  1  0.17224022  0.73216222  0.56692600  1
  O  O37  1  0.67396908  0.67541777  0.57009365  1
  O  O38  1  0.84420741  0.27497909  0.43548559  1
  O  O39  1  0.58370375  0.57998577  0.68437957  1
  O  O40  1  0.01123461  0.57644633  0.68329236  1
  O  O41  1  0.73725061  0.17084610  0.56601614  1
  O  O42  1  0.91401439  0.91635180  0.81356219  1
  O  O43  1  0.16484979  0.16708476  0.56504523  1
  O  O44  1  0.47382546  0.92430498  0.81651157  1
  O  O45  1  0.89776329  0.47225523  0.81262832  1
  O  O46  1  0.07521985  0.07061539  0.67929128  1
  O  O47  1  0.79978711  0.80944745  0.92631804  1
  O  O48  1  0.45140403  0.44298292  0.82455930  1
  O  O49  1  0.57591281  0.01527344  0.68218601  1
  O  O50  1  0.35045028  0.77871938  0.93818207  1
  O  O51  1  0.33612831  0.32545805  0.93263381  1
  O  O52  1  0.77729857  0.31907627  0.93128270  1
