# generated using pymatgen
data_LiCo3CuO8
_symmetry_space_group_name_H-M   'P 1'
_cell_length_a   5.95232425
_cell_length_b   5.71130575
_cell_length_c   5.69115370
_cell_angle_alpha   59.88279847
_cell_angle_beta   60.81474216
_cell_angle_gamma   90.00000620
_symmetry_Int_Tables_number   1
_chemical_formula_structural   LiCo3CuO8
_chemical_formula_sum   'Li1 Co3 Cu1 O8'
_cell_volume   138.22735165
_cell_formula_units_Z   1
loop_
 _symmetry_equiv_pos_site_id
 _symmetry_equiv_pos_as_xyz
  1  'x, y, z'
loop_
 _atom_site_type_symbol
 _atom_site_label
 _atom_site_symmetry_multiplicity
 _atom_site_fract_x
 _atom_site_fract_y
 _atom_site_fract_z
 _atom_site_occupancy
  Li  Li0  1  0.50000000  0.00000000  0.00000000  1
  Co  Co1  1  0.00000000  0.00000000  0.50000000  1
  Co  Co2  1  0.00000000  0.50000000  0.00000000  1
  Co  Co3  1  0.00000000  0.50000000  0.50000000  1
  Cu  Cu4  1  0.00000000  0.00000000  0.00000000  1
  O  O5  1  0.19728827  0.23377140  0.04198792  1
  O  O6  1  0.19150472  0.23385763  0.53228474  1
  O  O7  1  0.19728827  0.72424068  0.04198792  1
  O  O8  1  0.19759118  0.73776971  0.52446158  1
  O  O9  1  0.80240882  0.26223029  0.47553842  1
  O  O10  1  0.80271173  0.27575932  0.95801208  1
  O  O11  1  0.80849528  0.76614237  0.46771526  1
  O  O12  1  0.80271173  0.76622860  0.95801208  1
