# generated using pymatgen
data_FeOF
_symmetry_space_group_name_H-M   'P 1'
_cell_length_a   4.77316128
_cell_length_b   14.25119259
_cell_length_c   3.06307840
_cell_angle_alpha   90.00000000
_cell_angle_beta   90.00000000
_cell_angle_gamma   91.48479492
_symmetry_Int_Tables_number   1
_chemical_formula_structural   FeOF
_chemical_formula_sum   'Fe6 O6 F6'
_cell_volume   208.29055936
_cell_formula_units_Z   6
loop_
 _symmetry_equiv_pos_site_id
 _symmetry_equiv_pos_as_xyz
  1  'x, y, z'
loop_
 _atom_site_type_symbol
 _atom_site_label
 _atom_site_symmetry_multiplicity
 _atom_site_fract_x
 _atom_site_fract_y
 _atom_site_fract_z
 _atom_site_occupancy
  Fe  Fe0  1  0.90435088  -0.00218054  0.00000000  1
  Fe  Fe1  1  0.09564912  0.33551454  0.00000000  1
  Fe  Fe2  1  0.00000000  0.66666700  0.00000000  1
  Fe  Fe3  1  0.50000000  0.16666700  0.50000000  1
  Fe  Fe4  1  0.54345902  0.50046382  0.50000000  1
  Fe  Fe5  1  0.45654098  0.83286918  0.50000000  1
  O  O6  1  0.22392384  0.26353405  0.50000000  1
  O  O7  1  0.27220955  0.76632416  0.00000000  1
  O  O8  1  0.35358457  0.43624923  0.00000000  1
  O  O9  1  0.72779045  0.56700884  0.00000000  1
  O  O10  1  0.64641543  0.89708377  0.00000000  1
  O  O11  1  0.77607616  0.06979895  0.50000000  1
  F  F12  1  0.15003677  0.93892722  0.50000000  1
  F  F13  1  0.21082473  0.60180638  0.50000000  1
  F  F14  1  0.29334882  0.10080320  0.00000000  1
  F  F15  1  0.70665118  0.23252980  0.00000000  1
  F  F16  1  0.84996323  0.39440578  0.50000000  1
  F  F17  1  0.78917527  0.73152762  0.50000000  1
