# generated using pymatgen
data_LiMn(PO3)3
_symmetry_space_group_name_H-M   'P 1'
_cell_length_a   9.85807998
_cell_length_b   9.60382162
_cell_length_c   9.55095754
_cell_angle_alpha   109.87710396
_cell_angle_beta   104.49234000
_cell_angle_gamma   108.70033300
_symmetry_Int_Tables_number   1
_chemical_formula_structural   LiMn(PO3)3
_chemical_formula_sum   'Li4 Mn4 P12 O36'
_cell_volume   737.06062425
_cell_formula_units_Z   4
loop_
 _symmetry_equiv_pos_site_id
 _symmetry_equiv_pos_as_xyz
  1  'x, y, z'
loop_
 _atom_site_type_symbol
 _atom_site_label
 _atom_site_symmetry_multiplicity
 _atom_site_fract_x
 _atom_site_fract_y
 _atom_site_fract_z
 _atom_site_occupancy
  Li  Li0  1  0.25268368  0.22783435  0.77007584  1
  Li  Li1  1  0.20965272  0.31259152  0.06799309  1
  Li  Li2  1  0.79034728  0.68740848  0.93200691  1
  Li  Li3  1  0.74731632  0.77216565  0.22992416  1
  Mn  Mn4  1  0.50697077  0.92847010  0.32808251  1
  Mn  Mn5  1  0.29742153  0.17645922  0.37420606  1
  Mn  Mn6  1  0.70257847  0.82354078  0.62579394  1
  Mn  Mn7  1  0.49302923  0.07152990  0.67191749  1
  P  P8  1  0.08749164  0.91799641  0.80666242  1
  P  P9  1  0.10712648  0.85316206  0.48291805  1
  P  P10  1  0.35204234  0.60320249  0.98714953  1
  P  P11  1  0.15845190  0.78623101  0.04405151  1
  P  P12  1  0.28847819  0.65877050  0.42125818  1
  P  P13  1  0.40380801  0.56719188  0.67533087  1
  P  P14  1  0.59619199  0.43280812  0.32466913  1
  P  P15  1  0.71152181  0.34122950  0.57874182  1
  P  P16  1  0.84154810  0.21376899  0.95594849  1
  P  P17  1  0.64795766  0.39679751  0.01285047  1
  P  P18  1  0.89287352  0.14683794  0.51708195  1
  P  P19  1  0.91250836  0.08200359  0.19333758  1
  O  O20  1  0.99773894  0.26930319  0.95354617  1
  O  O21  1  0.09878869  0.82335413  0.63659831  1
  O  O22  1  0.16359301  0.83068517  0.89739775  1
  O  O23  1  0.20194930  0.63371406  0.99144750  1
  O  O24  1  0.14313974  0.70111295  0.39299022  1
  O  O25  1  0.04417387  0.17205545  0.62364995  1
  O  O26  1  0.19637882  0.09763587  0.88744829  1
  O  O27  1  0.31700242  0.43168592  0.95975016  1
  O  O28  1  0.36553356  0.62668266  0.83173997  1
  O  O29  1  0.28538593  0.61242082  0.56705618  1
  O  O30  1  0.29619835  0.93085057  0.20236819  1
  O  O31  1  0.08272757  0.13825590  0.22087216  1
  O  O32  1  0.26441301  0.52184721  0.27296803  1
  O  O33  1  0.44078018  0.82403426  0.49226566  1
  O  O34  1  0.35092120  0.38347390  0.59801642  1
  O  O35  1  0.25404528  0.01473650  0.54249926  1
  O  O36  1  0.56878064  0.68260644  0.71547476  1
  O  O37  1  0.50508582  0.25659146  0.86470040  1
  O  O38  1  0.49491418  0.74340854  0.13529960  1
  O  O39  1  0.43121936  0.31739356  0.28452524  1
  O  O40  1  0.74595472  0.98526350  0.45750074  1
  O  O41  1  0.64907880  0.61652610  0.40198358  1
  O  O42  1  0.55921982  0.17596574  0.50773434  1
  O  O43  1  0.73558699  0.47815279  0.72703197  1
  O  O44  1  0.91727243  0.86174410  0.77912784  1
  O  O45  1  0.70380165  0.06914943  0.79763181  1
  O  O46  1  0.71461407  0.38757918  0.43294382  1
  O  O47  1  0.63446644  0.37331734  0.16826003  1
  O  O48  1  0.68299758  0.56831408  0.04024984  1
  O  O49  1  0.80362118  0.90236413  0.11255171  1
  O  O50  1  0.95582613  0.82794455  0.37635005  1
  O  O51  1  0.85686026  0.29888705  0.60700978  1
  O  O52  1  0.79805070  0.36628594  0.00855250  1
  O  O53  1  0.83640699  0.16931483  0.10260225  1
  O  O54  1  0.90121131  0.17664587  0.36340169  1
  O  O55  1  0.00226106  0.73069681  0.04645383  1
