# generated using pymatgen
data_Li4Cr2Si4O13
_symmetry_space_group_name_H-M   'P 1'
_cell_length_a   13.71204877
_cell_length_b   5.00001534
_cell_length_c   14.06537844
_cell_angle_alpha   90.00000000
_cell_angle_beta   90.00000000
_cell_angle_gamma   90.00000000
_symmetry_Int_Tables_number   1
_chemical_formula_structural   Li4Cr2Si4O13
_chemical_formula_sum   'Li16 Cr8 Si16 O52'
_cell_volume   964.32873424
_cell_formula_units_Z   4
loop_
 _symmetry_equiv_pos_site_id
 _symmetry_equiv_pos_as_xyz
  1  'x, y, z'
loop_
 _atom_site_type_symbol
 _atom_site_label
 _atom_site_symmetry_multiplicity
 _atom_site_fract_x
 _atom_site_fract_y
 _atom_site_fract_z
 _atom_site_occupancy
  Li  Li0  1  0.04216982  0.17497894  0.22122772  1
  Li  Li1  1  0.10928733  0.66136183  0.92091151  1
  Li  Li2  1  0.13404682  0.64714495  0.10935512  1
  Li  Li3  1  0.21060941  0.25120146  0.83775935  1
  Li  Li4  1  0.28939059  0.75120146  0.33775935  1
  Li  Li5  1  0.36595318  0.14714495  0.60935512  1
  Li  Li6  1  0.39071267  0.16136183  0.42091151  1
  Li  Li7  1  0.45783018  0.67497894  0.72122772  1
  Li  Li8  1  0.54216982  0.32502106  0.22122772  1
  Li  Li9  1  0.60928733  0.83863817  0.92091151  1
  Li  Li10  1  0.63404682  0.85285505  0.10935512  1
  Li  Li11  1  0.71060941  0.24879854  0.83775935  1
  Li  Li12  1  0.78939059  0.74879854  0.33775935  1
  Li  Li13  1  0.86595318  0.35285505  0.60935512  1
  Li  Li14  1  0.89071267  0.33863817  0.42091151  1
  Li  Li15  1  0.95783018  0.82502106  0.72122772  1
  Cr  Cr16  1  0.07951550  0.35736568  0.62595085  1
  Cr  Cr17  1  0.17113214  0.17880267  0.42222698  1
  Cr  Cr18  1  0.32886786  0.67880267  0.92222698  1
  Cr  Cr19  1  0.42048450  0.85736568  0.12595085  1
  Cr  Cr20  1  0.57951550  0.14263432  0.62595085  1
  Cr  Cr21  1  0.67113214  0.32119733  0.42222698  1
  Cr  Cr22  1  0.82886786  0.82119733  0.92222698  1
  Cr  Cr23  1  0.92048450  0.64263432  0.12595085  1
  Si  Si24  1  0.02083764  0.15236249  0.00087561  1
  Si  Si25  1  0.06086859  0.68445149  0.31701461  1
  Si  Si26  1  0.18969719  0.84766171  0.72900941  1
  Si  Si27  1  0.22693025  0.17190642  0.04592662  1
  Si  Si28  1  0.27306975  0.67190642  0.54592662  1
  Si  Si29  1  0.31030281  0.34766171  0.22900941  1
  Si  Si30  1  0.43913141  0.18445149  0.81701461  1
  Si  Si31  1  0.47916236  0.65236249  0.50087561  1
  Si  Si32  1  0.52083764  0.34763751  0.00087561  1
  Si  Si33  1  0.56086859  0.81554851  0.31701461  1
  Si  Si34  1  0.68969719  0.65233829  0.72900941  1
  Si  Si35  1  0.72693025  0.32809358  0.04592662  1
  Si  Si36  1  0.77306975  0.82809358  0.54592662  1
  Si  Si37  1  0.81030281  0.15233829  0.22900941  1
  Si  Si38  1  0.93913141  0.31554851  0.81701461  1
  Si  Si39  1  0.97916236  0.84763751  0.50087561  1
  O  O40  1  0.02508824  0.42901972  0.05936170  1
  O  O41  1  0.03395795  0.76662751  0.20708603  1
  O  O42  1  0.03344489  0.21965985  0.88611537  1
  O  O43  1  0.06705268  0.05868858  0.52065169  1
  O  O44  1  0.07496219  0.36660006  0.33767939  1
  O  O45  1  0.09252291  0.67439813  0.70730290  1
  O  O46  1  0.12554690  0.98832949  0.02496730  1
  O  O47  1  0.15603425  0.85879135  0.34450952  1
  O  O48  1  0.17653326  0.16430738  0.70585257  1
  O  O49  1  0.18132404  0.47488593  0.52540279  1
  O  O50  1  0.21689164  0.24419883  0.16037330  1
  O  O51  1  0.21727845  0.82029295  0.84216688  1
  O  O52  1  0.21902062  0.44780044  0.98513377  1
  O  O53  1  0.28097938  0.94780044  0.48513377  1
  O  O54  1  0.28272155  0.32029295  0.34216688  1
  O  O55  1  0.28310836  0.74419883  0.66037330  1
  O  O56  1  0.31867596  0.97488593  0.02540279  1
  O  O57  1  0.32346674  0.66430738  0.20585257  1
  O  O58  1  0.34396575  0.35879135  0.84450952  1
  O  O59  1  0.37445310  0.48832949  0.52496730  1
  O  O60  1  0.40747709  0.17439813  0.20730290  1
  O  O61  1  0.42503781  0.86660006  0.83767939  1
  O  O62  1  0.43294732  0.55868858  0.02065169  1
  O  O63  1  0.46655511  0.71965985  0.38611537  1
  O  O64  1  0.46604205  0.26662751  0.70708603  1
  O  O65  1  0.47491176  0.92901972  0.55936170  1
  O  O66  1  0.52508824  0.07098028  0.05936170  1
  O  O67  1  0.53395795  0.73337249  0.20708603  1
  O  O68  1  0.53344489  0.28034015  0.88611537  1
  O  O69  1  0.56705268  0.44131142  0.52065169  1
  O  O70  1  0.57496219  0.13339994  0.33767939  1
  O  O71  1  0.59252291  0.82560187  0.70730290  1
  O  O72  1  0.62554690  0.51167051  0.02496730  1
  O  O73  1  0.65603425  0.64120865  0.34450952  1
  O  O74  1  0.67653326  0.33569262  0.70585257  1
  O  O75  1  0.68132404  0.02511407  0.52540279  1
  O  O76  1  0.71689164  0.25580117  0.16037330  1
  O  O77  1  0.71727845  0.67970705  0.84216688  1
  O  O78  1  0.71902062  0.05219956  0.98513377  1
  O  O79  1  0.78097938  0.55219956  0.48513377  1
  O  O80  1  0.78272155  0.17970705  0.34216688  1
  O  O81  1  0.78310836  0.75580117  0.66037330  1
  O  O82  1  0.81867596  0.52511407  0.02540279  1
  O  O83  1  0.82346674  0.83569262  0.20585257  1
  O  O84  1  0.84396575  0.14120865  0.84450952  1
  O  O85  1  0.87445310  0.01167051  0.52496730  1
  O  O86  1  0.90747709  0.32560187  0.20730290  1
  O  O87  1  0.92503781  0.63339994  0.83767939  1
  O  O88  1  0.93294732  0.94131142  0.02065169  1
  O  O89  1  0.96655511  0.78034015  0.38611537  1
  O  O90  1  0.96604205  0.23337249  0.70708603  1
  O  O91  1  0.97491176  0.57098028  0.55936170  1
