# generated using pymatgen
data_Li4Nb2Fe3Co3O16
_symmetry_space_group_name_H-M   'P 1'
_cell_length_a   5.87812183
_cell_length_b   5.88902884
_cell_length_c   9.60763127
_cell_angle_alpha   90.00328362
_cell_angle_beta   91.10529697
_cell_angle_gamma   120.06665918
_symmetry_Int_Tables_number   1
_chemical_formula_structural   Li4Nb2Fe3Co3O16
_chemical_formula_sum   'Li4 Nb2 Fe3 Co3 O16'
_cell_volume   287.75898068
_cell_formula_units_Z   1
loop_
 _symmetry_equiv_pos_site_id
 _symmetry_equiv_pos_as_xyz
  1  'x, y, z'
loop_
 _atom_site_type_symbol
 _atom_site_label
 _atom_site_symmetry_multiplicity
 _atom_site_fract_x
 _atom_site_fract_y
 _atom_site_fract_z
 _atom_site_occupancy
  Li  Li0  1  0.32509405  0.66252955  0.90338996  1
  Li  Li1  1  0.01232114  0.00622253  0.99404730  1
  Li  Li2  1  0.01564744  0.00781804  0.49076942  1
  Li  Li3  1  0.65837721  0.32925267  0.39678026  1
  Nb  Nb4  1  0.32584228  0.66292953  0.49280686  1
  Nb  Nb5  1  0.66290466  0.33146326  0.99825268  1
  Fe  Fe6  1  0.65833357  0.82921470  0.21975689  1
  Fe  Fe7  1  0.82711711  0.65759018  0.71839123  1
  Fe  Fe8  1  0.82706478  0.16951893  0.71837905  1
  Co  Co9  1  0.17264293  0.83112601  0.21422856  1
  Co  Co10  1  0.17263119  0.34150595  0.21421881  1
  Co  Co11  1  0.34264918  0.17134112  0.71435194  1
  O  O12  1  0.17461488  0.84040165  0.59629404  1
  O  O13  1  0.04008338  0.52001417  0.33068793  1
  O  O14  1  0.32436167  0.66217415  0.11146036  1
  O  O15  1  0.01242621  0.00621425  0.30432848  1
  O  O16  1  0.01208579  0.00609465  0.80611386  1
  O  O17  1  0.17467365  0.33425780  0.59630720  1
  O  O18  1  0.47052806  0.96237860  0.33945219  1
  O  O19  1  0.47050006  0.50818925  0.33943075  1
  O  O20  1  0.33367689  0.16683594  0.10367074  1
  O  O21  1  0.67101949  0.83550957  0.58416264  1
  O  O22  1  0.50661639  0.47150757  0.84012778  1
  O  O23  1  0.50655495  0.03508699  0.84009070  1
  O  O24  1  0.66029196  0.33014573  0.60684602  1
  O  O25  1  0.84044083  0.67045194  0.09321844  1
  O  O26  1  0.96113568  0.48058638  0.84707189  1
  O  O27  1  0.84036556  0.16994091  0.09320401  1
