# generated using pymatgen
data_Cu2IO3
_symmetry_space_group_name_H-M   'P 1'
_cell_length_a   5.85788405
_cell_length_b   5.75235290
_cell_length_c   6.08042824
_cell_angle_alpha   90.00000000
_cell_angle_beta   78.01032601
_cell_angle_gamma   90.00000000
_symmetry_Int_Tables_number   1
_chemical_formula_structural   Cu2IO3
_chemical_formula_sum   'Cu4 I2 O6'
_cell_volume   200.42019638
_cell_formula_units_Z   2
loop_
 _symmetry_equiv_pos_site_id
 _symmetry_equiv_pos_as_xyz
  1  'x, y, z'
loop_
 _atom_site_type_symbol
 _atom_site_label
 _atom_site_symmetry_multiplicity
 _atom_site_fract_x
 _atom_site_fract_y
 _atom_site_fract_z
 _atom_site_occupancy
  Cu  Cu0  1  0.00000000  0.50000000  -0.00000000  1
  Cu  Cu1  1  0.00000000  -0.00000000  -0.00000000  1
  Cu  Cu2  1  0.50153304  0.25000000  0.99617876  1
  Cu  Cu3  1  0.49846696  0.75000000  0.00382124  1
  I  I4  1  0.21804641  0.25000000  0.49157657  1
  I  I5  1  0.78195359  0.75000000  0.50842343  1
  O  O6  1  0.98618426  0.25000000  0.78716273  1
  O  O7  1  0.01381574  0.75000000  0.21283727  1
  O  O8  1  0.32645595  0.50178253  0.91933698  1
  O  O9  1  0.67354405  0.00178253  0.08066302  1
  O  O10  1  0.67354405  0.49821747  0.08066302  1
  O  O11  1  0.32645595  0.99821747  0.91933698  1
