# generated using pymatgen
data_Ni(PO3)3
_symmetry_space_group_name_H-M   'P 1'
_cell_length_a   9.67741176
_cell_length_b   10.65837274
_cell_length_c   6.38122177
_cell_angle_alpha   90.00000000
_cell_angle_beta   90.00000000
_cell_angle_gamma   90.00000000
_symmetry_Int_Tables_number   1
_chemical_formula_structural   Ni(PO3)3
_chemical_formula_sum   'Ni4 P12 O36'
_cell_volume   658.19406565
_cell_formula_units_Z   4
loop_
 _symmetry_equiv_pos_site_id
 _symmetry_equiv_pos_as_xyz
  1  'x, y, z'
loop_
 _atom_site_type_symbol
 _atom_site_label
 _atom_site_symmetry_multiplicity
 _atom_site_fract_x
 _atom_site_fract_y
 _atom_site_fract_z
 _atom_site_occupancy
  Ni  Ni0  1  0.00000000  0.00000000  0.00000000  1
  Ni  Ni1  1  0.00000000  0.50000000  0.50000000  1
  Ni  Ni2  1  0.50000000  0.50000000  0.00000000  1
  Ni  Ni3  1  0.50000000  0.00000000  0.50000000  1
  P  P4  1  0.08058206  0.75000000  0.75000000  1
  P  P5  1  0.21523632  0.86731797  0.36513366  1
  P  P6  1  0.21523632  0.63268203  0.13486634  1
  P  P7  1  0.28476368  0.13268203  0.86513366  1
  P  P8  1  0.28476368  0.36731797  0.63486634  1
  P  P9  1  0.41941794  0.25000000  0.25000000  1
  P  P10  1  0.58058206  0.75000000  0.75000000  1
  P  P11  1  0.71523632  0.63268203  0.36513366  1
  P  P12  1  0.71523632  0.86731797  0.13486634  1
  P  P13  1  0.78476368  0.13268203  0.63486634  1
  P  P14  1  0.78476368  0.36731797  0.86513366  1
  P  P15  1  0.91941794  0.25000000  0.25000000  1
  O  O16  1  0.01276174  0.15499072  0.14881989  1
  O  O17  1  0.01276174  0.34500928  0.35118011  1
  O  O18  1  0.08242600  0.59631451  0.23696612  1
  O  O19  1  0.08242600  0.90368549  0.26303388  1
  O  O20  1  0.18199859  0.47312291  0.61638825  1
  O  O21  1  0.18199859  0.02687709  0.88361175  1
  O  O22  1  0.18905087  0.81050832  0.59378092  1
  O  O23  1  0.18905087  0.68949168  0.90621908  1
  O  O24  1  0.21065860  0.25000000  0.75000000  1
  O  O25  1  0.28934140  0.75000000  0.25000000  1
  O  O26  1  0.31094913  0.18949168  0.09378092  1
  O  O27  1  0.31094913  0.31050832  0.40621908  1
  O  O28  1  0.31800141  0.52687709  0.11638825  1
  O  O29  1  0.31800141  0.97312291  0.38361175  1
  O  O30  1  0.41757400  0.09631451  0.76303388  1
  O  O31  1  0.41757400  0.40368549  0.73696612  1
  O  O32  1  0.48723826  0.65499072  0.85118011  1
  O  O33  1  0.48723826  0.84500928  0.64881989  1
  O  O34  1  0.51276174  0.15499072  0.35118011  1
  O  O35  1  0.51276174  0.34500928  0.14881989  1
  O  O36  1  0.58242600  0.59631451  0.26303388  1
  O  O37  1  0.58242600  0.90368549  0.23696612  1
  O  O38  1  0.68199859  0.02687709  0.61638825  1
  O  O39  1  0.68199859  0.47312291  0.88361175  1
  O  O40  1  0.68905087  0.68949168  0.59378092  1
  O  O41  1  0.68905087  0.81050832  0.90621908  1
  O  O42  1  0.71065860  0.25000000  0.75000000  1
  O  O43  1  0.78934140  0.75000000  0.25000000  1
  O  O44  1  0.81094913  0.18949168  0.40621908  1
  O  O45  1  0.81094913  0.31050832  0.09378092  1
  O  O46  1  0.81800141  0.52687709  0.38361175  1
  O  O47  1  0.81800141  0.97312291  0.11638825  1
  O  O48  1  0.91757400  0.09631451  0.73696612  1
  O  O49  1  0.91757400  0.40368549  0.76303388  1
  O  O50  1  0.98723826  0.65499072  0.64881989  1
  O  O51  1  0.98723826  0.84500928  0.85118011  1
