# generated using pymatgen
data_LiMnF4
_symmetry_space_group_name_H-M   'P 1'
_cell_length_a   10.87952568
_cell_length_b   5.83278600
_cell_length_c   5.02166745
_cell_angle_alpha   90.00000000
_cell_angle_beta   90.00000000
_cell_angle_gamma   90.00000000
_symmetry_Int_Tables_number   1
_chemical_formula_structural   LiMnF4
_chemical_formula_sum   'Li4 Mn4 F16'
_cell_volume   318.66469722
_cell_formula_units_Z   4
loop_
 _symmetry_equiv_pos_site_id
 _symmetry_equiv_pos_as_xyz
  1  'x, y, z'
loop_
 _atom_site_type_symbol
 _atom_site_label
 _atom_site_symmetry_multiplicity
 _atom_site_fract_x
 _atom_site_fract_y
 _atom_site_fract_z
 _atom_site_occupancy
  Li  Li0  1  0.08047688  0.25000000  0.42305597  1
  Li  Li1  1  0.41952312  0.75000000  0.92305597  1
  Li  Li2  1  0.58047688  0.25000000  0.07694403  1
  Li  Li3  1  0.91952312  0.75000000  0.57694403  1
  Mn  Mn4  1  0.24047895  0.75000000  0.46455552  1
  Mn  Mn5  1  0.25952105  0.25000000  0.96455552  1
  Mn  Mn6  1  0.74047895  0.75000000  0.03544448  1
  Mn  Mn7  1  0.75952105  0.25000000  0.53544448  1
  F  F8  1  0.08899092  0.75000000  0.62530678  1
  F  F9  1  0.11184042  0.25000000  0.79345761  1
  F  F10  1  0.18635095  0.02413450  0.24650334  1
  F  F11  1  0.18635095  0.47586550  0.24650334  1
  F  F12  1  0.31364905  0.52413450  0.74650334  1
  F  F13  1  0.31364905  0.97586550  0.74650334  1
  F  F14  1  0.38815958  0.75000000  0.29345761  1
  F  F15  1  0.41100908  0.25000000  0.12530678  1
  F  F16  1  0.58899092  0.75000000  0.87469322  1
  F  F17  1  0.61184042  0.25000000  0.70654239  1
  F  F18  1  0.68635095  0.02413450  0.25349666  1
  F  F19  1  0.68635095  0.47586550  0.25349666  1
  F  F20  1  0.81364905  0.52413450  0.75349666  1
  F  F21  1  0.81364905  0.97586550  0.75349666  1
  F  F22  1  0.88815958  0.75000000  0.20654239  1
  F  F23  1  0.91100908  0.25000000  0.37469322  1
