# generated using pymatgen
data_Li2MnPO4F
_symmetry_space_group_name_H-M   'P 1'
_cell_length_a   5.13672051
_cell_length_b   13.24081261
_cell_length_c   11.53000175
_cell_angle_alpha   90.00000000
_cell_angle_beta   90.00000000
_cell_angle_gamma   90.00000000
_symmetry_Int_Tables_number   1
_chemical_formula_structural   Li2MnPO4F
_chemical_formula_sum   'Li16 Mn8 P8 O32 F8'
_cell_volume   784.20561722
_cell_formula_units_Z   8
loop_
 _symmetry_equiv_pos_site_id
 _symmetry_equiv_pos_as_xyz
  1  'x, y, z'
loop_
 _atom_site_type_symbol
 _atom_site_label
 _atom_site_symmetry_multiplicity
 _atom_site_fract_x
 _atom_site_fract_y
 _atom_site_fract_z
 _atom_site_occupancy
  Li  Li0  1  0.21751265  0.23746635  0.17827297  1
  Li  Li1  1  0.21751265  0.76253365  0.67827297  1
  Li  Li2  1  0.21972402  0.63612913  0.39683385  1
  Li  Li3  1  0.21972402  0.36387087  0.89683385  1
  Li  Li4  1  0.28027598  0.13612913  0.39683385  1
  Li  Li5  1  0.28027598  0.86387087  0.89683385  1
  Li  Li6  1  0.28248735  0.26253365  0.67827297  1
  Li  Li7  1  0.28248735  0.73746635  0.17827297  1
  Li  Li8  1  0.71751265  0.26253365  0.82172703  1
  Li  Li9  1  0.71751265  0.73746635  0.32172703  1
  Li  Li10  1  0.71972402  0.13612913  0.10316615  1
  Li  Li11  1  0.71972402  0.86387087  0.60316615  1
  Li  Li12  1  0.78027598  0.36387087  0.60316615  1
  Li  Li13  1  0.78027598  0.63612913  0.10316615  1
  Li  Li14  1  0.78248735  0.76253365  0.82172703  1
  Li  Li15  1  0.78248735  0.23746635  0.32172703  1
  Mn  Mn16  1  0.22928219  0.50591792  0.16436116  1
  Mn  Mn17  1  0.22928219  0.49408208  0.66436116  1
  Mn  Mn18  1  0.27071781  0.99408208  0.66436116  1
  Mn  Mn19  1  0.27071781  0.00591792  0.16436116  1
  Mn  Mn20  1  0.72928219  0.00591792  0.33563884  1
  Mn  Mn21  1  0.72928219  0.99408208  0.83563884  1
  Mn  Mn22  1  0.77071781  0.50591792  0.33563884  1
  Mn  Mn23  1  0.77071781  0.49408208  0.83563884  1
  P  P24  1  0.20908578  0.12957762  0.91501819  1
  P  P25  1  0.20908578  0.87042238  0.41501819  1
  P  P26  1  0.29091422  0.37042238  0.41501819  1
  P  P27  1  0.29091422  0.62957762  0.91501819  1
  P  P28  1  0.70908578  0.37042238  0.08498181  1
  P  P29  1  0.70908578  0.62957762  0.58498181  1
  P  P30  1  0.79091422  0.12957762  0.58498181  1
  P  P31  1  0.79091422  0.87042238  0.08498181  1
  O  O32  1  0.09660728  0.12577174  0.59190369  1
  O  O33  1  0.09660728  0.87422826  0.09190369  1
  O  O34  1  0.18412774  0.46929150  0.35529384  1
  O  O35  1  0.18412774  0.53070850  0.85529384  1
  O  O36  1  0.18065486  0.27710530  0.35393224  1
  O  O37  1  0.18065486  0.72289470  0.85393224  1
  O  O38  1  0.20476382  0.62823646  0.04410666  1
  O  O39  1  0.20476382  0.37176354  0.54410666  1
  O  O40  1  0.29523618  0.12823646  0.04410666  1
  O  O41  1  0.29523618  0.87176354  0.54410666  1
  O  O42  1  0.31934514  0.22289470  0.85393224  1
  O  O43  1  0.31934514  0.77710530  0.35393224  1
  O  O44  1  0.31587226  0.03070850  0.85529384  1
  O  O45  1  0.31587226  0.96929150  0.35529384  1
  O  O46  1  0.40339272  0.37422826  0.09190369  1
  O  O47  1  0.40339272  0.62577174  0.59190369  1
  O  O48  1  0.59660728  0.62577174  0.90809631  1
  O  O49  1  0.59660728  0.37422826  0.40809631  1
  O  O50  1  0.68412774  0.03070850  0.64470616  1
  O  O51  1  0.68412774  0.96929150  0.14470616  1
  O  O52  1  0.68065486  0.22289470  0.64606776  1
  O  O53  1  0.68065486  0.77710530  0.14606776  1
  O  O54  1  0.70476382  0.12823646  0.45589334  1
  O  O55  1  0.70476382  0.87176354  0.95589334  1
  O  O56  1  0.79523618  0.37176354  0.95589334  1
  O  O57  1  0.79523618  0.62823646  0.45589334  1
  O  O58  1  0.81934514  0.27710530  0.14606776  1
  O  O59  1  0.81934514  0.72289470  0.64606776  1
  O  O60  1  0.81587226  0.46929150  0.14470616  1
  O  O61  1  0.81587226  0.53070850  0.64470616  1
  O  O62  1  0.90339272  0.12577174  0.90809631  1
  O  O63  1  0.90339272  0.87422826  0.40809631  1
  F  F64  1  0.00000000  0.10595942  0.25000000  1
  F  F65  1  0.00000000  0.63722374  0.25000000  1
  F  F66  1  0.00000000  0.36277626  0.75000000  1
  F  F67  1  0.00000000  0.89404058  0.75000000  1
  F  F68  1  0.50000000  0.60595942  0.25000000  1
  F  F69  1  0.50000000  0.13722374  0.25000000  1
  F  F70  1  0.50000000  0.39404058  0.75000000  1
  F  F71  1  0.50000000  0.86277626  0.75000000  1
