# generated using pymatgen
data_Li5MnP2(O4F)2
_symmetry_space_group_name_H-M   'P 1'
_cell_length_a   9.99411824
_cell_length_b   9.99405703
_cell_length_c   6.56721667
_cell_angle_alpha   89.99995611
_cell_angle_beta   90.00016728
_cell_angle_gamma   120.00034882
_symmetry_Int_Tables_number   1
_chemical_formula_structural   Li5MnP2(O4F)2
_chemical_formula_sum   'Li15 Mn3 P6 O24 F6'
_cell_volume   568.06333216
_cell_formula_units_Z   3
loop_
 _symmetry_equiv_pos_site_id
 _symmetry_equiv_pos_as_xyz
  1  'x, y, z'
loop_
 _atom_site_type_symbol
 _atom_site_label
 _atom_site_symmetry_multiplicity
 _atom_site_fract_x
 _atom_site_fract_y
 _atom_site_fract_z
 _atom_site_occupancy
  Li  Li0  1  0.16622031  0.83384099  0.50184290  1
  Li  Li1  1  0.33334182  0.66669822  0.56021371  1
  Li  Li2  1  0.33332681  0.66672270  0.94484615  1
  Li  Li3  1  0.00001177  0.00002420  0.44906163  1
  Li  Li4  1  0.99999570  0.00004253  0.06563341  1
  Li  Li5  1  0.16619270  0.33236139  0.50183175  1
  Li  Li6  1  0.66765227  0.83385088  0.50180948  1
  Li  Li7  1  0.46493507  0.48175508  0.73495790  1
  Li  Li8  1  0.32030193  0.13572402  0.27359071  1
  Li  Li9  1  0.81542744  0.67972152  0.27360187  1
  Li  Li10  1  0.66666461  0.33331135  0.98394990  1
  Li  Li11  1  0.66668084  0.33333353  0.49009993  1
  Li  Li12  1  0.51822985  0.98316665  0.73498481  1
  Li  Li13  1  0.01685393  0.53507272  0.73497249  1
  Li  Li14  1  0.86430377  0.18453998  0.27357977  1
  Mn  Mn15  1  0.16672630  0.83370829  0.00384346  1
  Mn  Mn16  1  0.16623567  0.33303735  0.00393849  1
  Mn  Mn17  1  0.66702385  0.83321174  0.00397308  1
  P  P18  1  0.03498418  0.52500683  0.26021966  1
  P  P19  1  0.48999187  0.96500399  0.26021166  1
  P  P20  1  0.29824312  0.14263302  0.74962257  1
  P  P21  1  0.47501042  0.50998479  0.26023619  1
  P  P22  1  0.84436000  0.70172382  0.74958683  1
  P  P23  1  0.85735859  0.15560372  0.74958931  1
  O  O24  1  0.01651127  0.73930437  0.77210439  1
  O  O25  1  0.11845632  0.62833445  0.06809602  1
  O  O26  1  0.11271567  0.61474299  0.45421569  1
  O  O27  1  0.31836369  0.92925739  0.23528968  1
  O  O28  1  0.07072247  0.38910266  0.23537475  1
  O  O29  1  0.50203212  0.88731464  0.45417743  1
  O  O30  1  0.50987675  0.88149516  0.06809933  1
  O  O31  1  0.26066803  0.27721003  0.77217737  1
  O  O32  1  0.37165052  0.49015594  0.06809901  1
  O  O33  1  0.38527547  0.49798718  0.45419848  1
  O  O34  1  0.22341364  0.05336911  0.55470075  1
  O  O35  1  0.21396076  0.03892970  0.94101410  1
  O  O36  1  0.61091709  0.68161113  0.23537322  1
  O  O37  1  0.72281619  0.98344483  0.77216228  1
  O  O38  1  0.53726338  0.39779937  0.25585992  1
  O  O39  1  0.47337430  0.20690823  0.75781068  1
  O  O40  1  0.82494119  0.78595831  0.94104373  1
  O  O41  1  0.82995272  0.77659603  0.55468096  1
  O  O42  1  0.73350988  0.52658311  0.75774110  1
  O  O43  1  0.60218845  0.13946504  0.25581819  1
  O  O44  1  0.86051496  0.46273595  0.25586844  1
  O  O45  1  0.79307597  0.26646146  0.75778070  1
  O  O46  1  0.94664677  0.17005528  0.55469912  1
  O  O47  1  0.96105787  0.17507609  0.94104652  1
  F  F48  1  0.02591922  0.84661299  0.24103678  1
  F  F49  1  0.30817692  0.81987806  0.76971287  1
  F  F50  1  0.18014229  0.48834274  0.76968002  1
  F  F51  1  0.15339575  0.17933743  0.24102345  1
  F  F52  1  0.51168078  0.69179632  0.76964893  1
  F  F53  1  0.82070673  0.97405566  0.24099344  1
