# generated using pymatgen
data_Mn3(O2F)2
_symmetry_space_group_name_H-M   'P 1'
_cell_length_a   4.67607567
_cell_length_b   13.95335610
_cell_length_c   3.03833495
_cell_angle_alpha   89.99994471
_cell_angle_beta   90.00006460
_cell_angle_gamma   90.00337697
_symmetry_Int_Tables_number   1
_chemical_formula_structural   Mn3(O2F)2
_chemical_formula_sum   'Mn6 O8 F4'
_cell_volume   198.24208513
_cell_formula_units_Z   2
loop_
 _symmetry_equiv_pos_site_id
 _symmetry_equiv_pos_as_xyz
  1  'x, y, z'
loop_
 _atom_site_type_symbol
 _atom_site_label
 _atom_site_symmetry_multiplicity
 _atom_site_fract_x
 _atom_site_fract_y
 _atom_site_fract_z
 _atom_site_occupancy
  Mn  Mn0  1  0.92462731  0.00710218  -0.00000026  1
  Mn  Mn1  1  0.99999752  0.33333101  0.00000397  1
  Mn  Mn2  1  0.07538754  0.65957211  -0.00000146  1
  Mn  Mn3  1  0.42451917  0.15962393  0.49999210  1
  Mn  Mn4  1  0.57546117  0.50708536  0.49999827  1
  Mn  Mn5  1  0.49999588  0.83332840  0.50000268  1
  O  O6  1  0.17866357  0.26816143  0.50000046  1
  O  O7  1  0.26121482  0.60023739  0.50000078  1
  O  O8  1  0.23881063  0.10025466  0.99999843  1
  O  O9  1  0.32132948  0.76815461  0.00000077  1
  O  O10  1  0.76121038  0.56641004  0.00000040  1
  O  O11  1  0.67867548  0.89850060  0.00000178  1
  O  O12  1  0.73877169  0.06642563  0.50000102  1
  O  O13  1  0.82132817  0.39849946  0.50000020  1
  F  F14  1  0.14652235  0.94163646  0.50000007  1
  F  F15  1  0.35351860  0.44164148  0.00000014  1
  F  F16  1  0.64647722  0.22501473  -0.00000068  1
  F  F17  1  0.85348901  0.72501651  0.50000135  1
