# generated using pymatgen
data_Co3OF5
_symmetry_space_group_name_H-M   'P 1'
_cell_length_a   7.28140540
_cell_length_b   5.68777028
_cell_length_c   5.68777028
_cell_angle_alpha   73.48354488
_cell_angle_beta   74.16464495
_cell_angle_gamma   74.16464495
_symmetry_Int_Tables_number   1
_chemical_formula_structural   Co3OF5
_chemical_formula_sum   'Co6 O2 F10'
_cell_volume   212.34224580
_cell_formula_units_Z   2
loop_
 _symmetry_equiv_pos_site_id
 _symmetry_equiv_pos_as_xyz
  1  'x, y, z'
loop_
 _atom_site_type_symbol
 _atom_site_label
 _atom_site_symmetry_multiplicity
 _atom_site_fract_x
 _atom_site_fract_y
 _atom_site_fract_z
 _atom_site_occupancy
  Co  Co0  1  0.85069248  0.67740497  0.67740497  1
  Co  Co1  1  0.32111928  0.66420428  0.66420428  1
  Co  Co2  1  0.67888072  0.33579572  0.33579572  1
  Co  Co3  1  0.14930752  0.32259503  0.32259503  1
  Co  Co4  1  0.50000000  0.00000000  0.00000000  1
  Co  Co5  1  0.00000000  0.00000000  0.00000000  1
  O  O6  1  0.97067041  0.23030012  0.23030012  1
  O  O7  1  0.02932959  0.76969988  0.76969988  1
  F  F8  1  0.33415364  0.36505319  0.97309426  1
  F  F9  1  0.66584636  0.02690574  0.63494681  1
  F  F10  1  0.63551433  0.57173871  0.57173871  1
  F  F11  1  0.29804889  0.89854957  0.89854957  1
  F  F12  1  0.36448567  0.42826129  0.42826129  1
  F  F13  1  0.70195111  0.10145043  0.10145043  1
  F  F14  1  0.33415364  0.97309426  0.36505319  1
  F  F15  1  0.66584636  0.63494681  0.02690574  1
  F  F16  1  0.00000000  0.30963886  0.69036114  1
  F  F17  1  0.00000000  0.69036114  0.30963886  1
