# generated using pymatgen
data_Co3OF5
_symmetry_space_group_name_H-M   'P 1'
_cell_length_a   4.71390171
_cell_length_b   4.71760373
_cell_length_c   9.52587187
_cell_angle_alpha   90.00000000
_cell_angle_beta   90.00000000
_cell_angle_gamma   90.00000000
_symmetry_Int_Tables_number   1
_chemical_formula_structural   Co3OF5
_chemical_formula_sum   'Co6 O2 F10'
_cell_volume   211.83938969
_cell_formula_units_Z   2
loop_
 _symmetry_equiv_pos_site_id
 _symmetry_equiv_pos_as_xyz
  1  'x, y, z'
loop_
 _atom_site_type_symbol
 _atom_site_label
 _atom_site_symmetry_multiplicity
 _atom_site_fract_x
 _atom_site_fract_y
 _atom_site_fract_z
 _atom_site_occupancy
  Co  Co0  1  0.03284959  0.02886292  0.00000000  1
  Co  Co1  1  0.00348508  0.98910645  0.33868268  1
  Co  Co2  1  0.00348508  0.98910645  0.66131732  1
  Co  Co3  1  0.49651492  0.48910645  0.16131732  1
  Co  Co4  1  0.49651492  0.48910645  0.83868268  1
  Co  Co5  1  0.46715041  0.52886292  0.50000000  1
  O  O6  1  0.19803964  0.79614814  0.50000000  1
  O  O7  1  0.30196036  0.29614814  0.00000000  1
  F  F8  1  0.19701301  0.80259468  0.16484818  1
  F  F9  1  0.19701301  0.80259468  0.83515182  1
  F  F10  1  0.30298699  0.30259468  0.33515182  1
  F  F11  1  0.30298699  0.30259468  0.66484818  1
  F  F12  1  0.69062083  0.69021137  0.66719643  1
  F  F13  1  0.71675962  0.71116395  0.00000000  1
  F  F14  1  0.69062083  0.69021137  0.33280357  1
  F  F15  1  0.80937917  0.19021137  0.16719643  1
  F  F16  1  0.80937917  0.19021137  0.83280357  1
  F  F17  1  0.78324038  0.21116395  0.50000000  1
