# generated using pymatgen
data_LiCrF4
_symmetry_space_group_name_H-M   'P 1'
_cell_length_a   7.36325029
_cell_length_b   9.37029082
_cell_length_c   9.37029009
_cell_angle_alpha   66.11227333
_cell_angle_beta   81.04837842
_cell_angle_gamma   81.04837828
_symmetry_Int_Tables_number   1
_chemical_formula_structural   LiCrF4
_chemical_formula_sum   'Li8 Cr8 F32'
_cell_volume   580.85468206
_cell_formula_units_Z   8
loop_
 _symmetry_equiv_pos_site_id
 _symmetry_equiv_pos_as_xyz
  1  'x, y, z'
loop_
 _atom_site_type_symbol
 _atom_site_label
 _atom_site_symmetry_multiplicity
 _atom_site_fract_x
 _atom_site_fract_y
 _atom_site_fract_z
 _atom_site_occupancy
  Li  Li0  1  0.60843671  0.11128674  0.51315303  1
  Li  Li1  1  0.10843970  0.51315535  0.11128302  1
  Li  Li2  1  0.34116251  0.38887209  0.38199126  1
  Li  Li3  1  0.84117306  0.38199966  0.38886960  1
  Li  Li4  1  0.15883749  0.61800874  0.61112791  1
  Li  Li5  1  0.65882694  0.61113040  0.61800034  1
  Li  Li6  1  0.89156329  0.48684697  0.88871326  1
  Li  Li7  1  0.39156030  0.88871698  0.48684465  1
  Cr  Cr8  1  0.41044869  0.17899118  0.17110212  1
  Cr  Cr9  1  0.91044609  0.17109879  0.17899393  1
  Cr  Cr10  1  0.50179093  0.25567443  0.74925183  1
  Cr  Cr11  1  0.99820907  0.25074817  0.74432557  1
  Cr  Cr12  1  0.00179283  0.74924755  0.25566580  1
  Cr  Cr13  1  0.49820717  0.74433420  0.25075245  1
  Cr  Cr14  1  0.08955131  0.82889788  0.82100882  1
  Cr  Cr15  1  0.58955391  0.82100607  0.82890121  1
  F  F16  1  0.16240577  0.11050126  0.23709556  1
  F  F17  1  0.10124221  0.03175495  0.83223822  1
  F  F18  1  0.81996755  0.10423041  0.39072738  1
  F  F19  1  0.41279528  0.17577748  0.38151714  1
  F  F20  1  0.66240507  0.23708576  0.11051184  1
  F  F21  1  0.49760955  0.04927460  0.73135184  1
  F  F22  1  0.99378954  0.25267828  0.54502092  1
  F  F23  1  0.31997423  0.39072568  0.10424091  1
  F  F24  1  0.91280410  0.38151439  0.17577925  1
  F  F25  1  0.39875779  0.16776178  0.96824505  1
  F  F26  1  0.75000000  0.18494603  0.81505397  1
  F  F27  1  0.25000000  0.32740472  0.67259528  1
  F  F28  1  0.00239045  0.26864816  0.95072540  1
  F  F29  1  0.59852442  0.31897926  0.52855081  1
  F  F30  1  0.09851404  0.52854967  0.31897205  1
  F  F31  1  0.49377320  0.54503098  0.25268562  1
  F  F32  1  0.99760004  0.73135527  0.04926948  1
  F  F33  1  0.50621046  0.45497908  0.74732172  1
  F  F34  1  0.90147558  0.47144919  0.68102074  1
  F  F35  1  0.40148596  0.68102795  0.47145033  1
  F  F36  1  0.75000000  0.67260191  0.32739809  1
  F  F37  1  0.25000000  0.81506236  0.18493764  1
  F  F38  1  0.60124809  0.83223432  0.03175651  1
  F  F39  1  0.08720472  0.61848286  0.82422252  1
  F  F40  1  0.68003245  0.60927262  0.89576959  1
  F  F41  1  0.00622680  0.74731438  0.45496902  1
  F  F42  1  0.50239996  0.95073052  0.26864473  1
  F  F43  1  0.33759423  0.76290444  0.88949874  1
  F  F44  1  0.58719590  0.82422075  0.61848561  1
  F  F45  1  0.18002577  0.89575909  0.60927432  1
  F  F46  1  0.89875191  0.96824349  0.16776568  1
  F  F47  1  0.83759493  0.88948816  0.76291424  1
