# generated using pymatgen
data_V3OF11
_symmetry_space_group_name_H-M   'P 1'
_cell_length_a   5.45657511
_cell_length_b   5.27164884
_cell_length_c   14.74026245
_cell_angle_alpha   89.93842254
_cell_angle_beta   100.35214018
_cell_angle_gamma   89.93189641
_symmetry_Int_Tables_number   1
_chemical_formula_structural   V3OF11
_chemical_formula_sum   'V6 O2 F22'
_cell_volume   417.10317470
_cell_formula_units_Z   2
loop_
 _symmetry_equiv_pos_site_id
 _symmetry_equiv_pos_as_xyz
  1  'x, y, z'
loop_
 _atom_site_type_symbol
 _atom_site_label
 _atom_site_symmetry_multiplicity
 _atom_site_fract_x
 _atom_site_fract_y
 _atom_site_fract_z
 _atom_site_occupancy
  V  V0  1  0.99984334  0.99990330  0.99985774  1
  V  V1  1  0.16577227  0.50947551  0.32706368  1
  V  V2  1  0.32169647  0.99194669  0.66703291  1
  V  V3  1  0.49968837  0.49987697  0.99971155  1
  V  V4  1  0.66785609  0.00435998  0.33455390  1
  V  V5  1  0.79271894  0.47546095  0.66333980  1
  O  O6  1  0.12302637  0.58175881  0.21871750  1
  O  O7  1  0.54165520  0.29538045  0.64402105  1
  F  F8  1  0.02319706  0.20960559  0.64193359  1
  F  F9  1  0.18923188  0.30252339  0.97519701  1
  F  F10  1  0.13880726  0.70774597  0.69042779  1
  F  F11  1  0.04210102  0.08569173  0.11757310  1
  F  F12  1  0.20889910  0.40822777  0.44896980  1
  F  F13  1  0.38370385  0.08800814  0.78393488  1
  F  F14  1  0.29682691  0.92356617  0.54848910  1
  F  F15  1  0.46043745  0.58679849  0.88228157  1
  F  F16  1  0.36247334  0.20734879  0.30895953  1
  F  F17  1  0.68896643  0.19735560  0.97543493  1
  F  F18  1  0.31107313  0.80244498  0.02459261  1
  F  F19  1  0.46832528  0.70377324  0.35974154  1
  F  F20  1  0.63655475  0.78636734  0.69085561  1
  F  F21  1  0.54179263  0.41340066  0.11747258  1
  F  F22  1  0.71095208  0.08286483  0.45225027  1
  F  F23  1  0.89479569  0.42804488  0.78317878  1
  F  F24  1  0.62420375  0.91138567  0.21784463  1
  F  F25  1  0.80150342  0.59419505  0.55130447  1
  F  F26  1  0.95796082  0.91515985  0.88226602  1
  F  F27  1  0.86327411  0.29784077  0.30847074  1
  F  F28  1  0.81058517  0.69786817  0.02479473  1
  F  F29  1  0.97207682  0.79161926  0.35972758  1
