# generated using pymatgen
data_Li3MnP2HO8
_symmetry_space_group_name_H-M   'P 1'
_cell_length_a   4.95988330
_cell_length_b   7.77031520
_cell_length_c   8.42345197
_cell_angle_alpha   89.99175762
_cell_angle_beta   89.98127801
_cell_angle_gamma   76.29795245
_symmetry_Int_Tables_number   1
_chemical_formula_structural   Li3MnP2HO8
_chemical_formula_sum   'Li6 Mn2 P4 H2 O16'
_cell_volume   315.39961110
_cell_formula_units_Z   2
loop_
 _symmetry_equiv_pos_site_id
 _symmetry_equiv_pos_as_xyz
  1  'x, y, z'
loop_
 _atom_site_type_symbol
 _atom_site_label
 _atom_site_symmetry_multiplicity
 _atom_site_fract_x
 _atom_site_fract_y
 _atom_site_fract_z
 _atom_site_occupancy
  Li  Li0  1  0.16912210  0.06612137  0.20647088  1
  Li  Li1  1  0.11482036  0.36193984  0.35995732  1
  Li  Li2  1  0.38509716  0.13809299  0.85999347  1
  Li  Li3  1  0.33076681  0.43389971  0.70635871  1
  Li  Li4  1  0.64013441  0.80571384  0.15347605  1
  Li  Li5  1  0.85989414  0.69427423  0.65350035  1
  Mn  Mn6  1  0.49951025  0.00188523  0.50345993  1
  Mn  Mn7  1  0.00047545  0.49809828  0.00346423  1
  P  P8  1  0.13434051  0.72378121  0.35745410  1
  P  P9  1  0.36564402  0.77631347  0.85728060  1
  P  P10  1  0.62731615  0.22075936  0.14234452  1
  P  P11  1  0.87256349  0.27915575  0.64224058  1
  H  H12  1  0.54699366  0.50766370  0.50037628  1
  H  H13  1  0.95309015  0.99229949  0.00034021  1
  O  O14  1  0.07580307  0.17680220  0.51945155  1
  O  O15  1  0.00876006  0.66397539  0.20485775  1
  O  O16  1  0.16352900  0.65638187  0.81518253  1
  O  O17  1  0.28966361  0.55008967  0.44628519  1
  O  O18  1  0.42409512  0.32329933  0.01931635  1
  O  O19  1  0.46778566  0.18508996  0.29150769  1
  O  O20  1  0.21028637  0.94985800  0.94630404  1
  O  O21  1  0.33642667  0.84354954  0.31512190  1
  O  O22  1  0.62297384  0.19734603  0.67784060  1
  O  O23  1  0.75647429  0.02677403  0.07189636  1
  O  O24  1  0.49117807  0.83591406  0.70498801  1
  O  O25  1  0.59856113  0.67282026  0.96590964  1
  O  O26  1  0.74346114  0.47326044  0.57195120  1
  O  O27  1  0.87699854  0.30271114  0.17773846  1
  O  O28  1  0.03220012  0.31499976  0.79163801  1
  O  O29  1  0.90152963  0.82707485  0.46581649  1
