# generated using pymatgen
data_Li4Mn2(PO4)3
_symmetry_space_group_name_H-M   'P 1'
_cell_length_a   8.58316509
_cell_length_b   8.70315286
_cell_length_c   8.95219754
_cell_angle_alpha   62.78721202
_cell_angle_beta   119.24800665
_cell_angle_gamma   118.85029299
_symmetry_Int_Tables_number   1
_chemical_formula_structural   Li4Mn2(PO4)3
_chemical_formula_sum   'Li8 Mn4 P6 O24'
_cell_volume   489.11504412
_cell_formula_units_Z   2
loop_
 _symmetry_equiv_pos_site_id
 _symmetry_equiv_pos_as_xyz
  1  'x, y, z'
loop_
 _atom_site_type_symbol
 _atom_site_label
 _atom_site_symmetry_multiplicity
 _atom_site_fract_x
 _atom_site_fract_y
 _atom_site_fract_z
 _atom_site_occupancy
  Li  Li0  1  0.71225914  0.89500048  0.64386969  1
  Li  Li1  1  0.61241985  0.72906218  0.17156059  1
  Li  Li2  1  0.00817155  0.22221089  0.44374459  1
  Li  Li3  1  0.77998203  0.41995026  0.13325130  1
  Li  Li4  1  0.22008511  0.58009419  0.86675959  1
  Li  Li5  1  0.99186733  0.77778887  0.55634219  1
  Li  Li6  1  0.38758089  0.27095041  0.82842816  1
  Li  Li7  1  0.28771076  0.10487456  0.35614946  1
  Mn  Mn8  1  0.66102916  0.35624307  0.45676818  1
  Mn  Mn9  1  0.33891980  0.64374308  0.54323859  1
  Mn  Mn10  1  0.15537858  0.86250772  0.93487898  1
  Mn  Mn11  1  0.84458227  0.13748328  0.06487754  1
  P  P12  1  0.96358620  0.75252936  0.25562800  1
  P  P13  1  0.44889799  0.93206657  0.75112502  1
  P  P14  1  0.74104697  0.54023368  0.74315904  1
  P  P15  1  0.25892000  0.45974631  0.25683940  1
  P  P16  1  0.55114342  0.06795721  0.24888877  1
  P  P17  1  0.03640654  0.24748419  0.74436529  1
  O  O18  1  0.89278969  0.88011436  0.26887608  1
  O  O19  1  0.86388273  0.74150074  0.74324042  1
  O  O20  1  0.58428261  0.93783299  0.94266662  1
  O  O21  1  0.79320573  0.57079356  0.24357577  1
  O  O22  1  0.52530411  0.88088497  0.39242002  1
  O  O23  1  0.79390549  0.51317777  0.61379273  1
  O  O24  1  0.48641512  0.79402844  0.71306244  1
  O  O25  1  0.23910285  0.84471656  0.74483117  1
  O  O26  1  0.96442007  0.17257586  0.89577563  1
  O  O27  1  0.78270782  0.40012060  0.92880252  1
  O  O28  1  0.86948623  0.26596167  0.55782429  1
  O  O29  1  0.52683904  0.51159488  0.67913440  1
  O  O30  1  0.47314099  0.48844600  0.32084609  1
  O  O31  1  0.13047177  0.73401884  0.44219994  1
  O  O32  1  0.21725136  0.59986980  0.07119915  1
  O  O33  1  0.03566451  0.82744868  0.10425788  1
  O  O34  1  0.76095424  0.15532830  0.25522717  1
  O  O35  1  0.51352777  0.20594104  0.28697312  1
  O  O36  1  0.20605475  0.48679800  0.38620958  1
  O  O37  1  0.47468003  0.11910006  0.60756699  1
  O  O38  1  0.20675128  0.42923968  0.75638210  1
  O  O39  1  0.41580257  0.06220232  0.05732458  1
  O  O40  1  0.13613177  0.25848637  0.25675279  1
  O  O41  1  0.10725388  0.11990420  0.73118117  1
