# generated using pymatgen
data_V3OF11
_symmetry_space_group_name_H-M   'P 1'
_cell_length_a   5.45595604
_cell_length_b   5.27322179
_cell_length_c   14.76270508
_cell_angle_alpha   89.94826309
_cell_angle_beta   100.31826270
_cell_angle_gamma   90.07914703
_symmetry_Int_Tables_number   1
_chemical_formula_structural   V3OF11
_chemical_formula_sum   'V6 O2 F22'
_cell_volume   417.86068355
_cell_formula_units_Z   2
loop_
 _symmetry_equiv_pos_site_id
 _symmetry_equiv_pos_as_xyz
  1  'x, y, z'
loop_
 _atom_site_type_symbol
 _atom_site_label
 _atom_site_symmetry_multiplicity
 _atom_site_fract_x
 _atom_site_fract_y
 _atom_site_fract_z
 _atom_site_occupancy
  V  V0  1  0.00191264  0.00503688  0.00131810  1
  V  V1  1  0.15530540  0.50821538  0.33373590  1
  V  V2  1  0.33324091  0.00007361  0.66627602  1
  V  V3  1  0.50008819  0.51006343  0.99395526  1
  V  V4  1  0.62530507  0.02553290  0.32977232  1
  V  V5  1  0.83332494  0.50019698  0.66637682  1
  O  O6  1  0.45499951  0.58089561  0.88565100  1
  O  O7  1  0.37471320  0.20468831  0.31047061  1
  F  F8  1  0.02348172  0.19828533  0.64193485  1
  F  F9  1  0.19676958  0.29820774  0.97553640  1
  F  F10  1  0.14335841  0.69852670  0.69114987  1
  F  F11  1  0.04367856  0.08133978  0.11869901  1
  F  F12  1  0.21607980  0.41261713  0.45058055  1
  F  F13  1  0.37533047  0.08554025  0.78409714  1
  F  F14  1  0.12786306  0.57750628  0.21523702  1
  F  F15  1  0.29397428  0.91342114  0.54929843  1
  F  F16  1  0.52323541  0.30183160  0.64211752  1
  F  F17  1  0.69638234  0.20759478  0.97570850  1
  F  F18  1  0.30634957  0.79237758  0.02644107  1
  F  F19  1  0.46974977  0.71364066  0.35729642  1
  F  F20  1  0.64399856  0.80150629  0.69158849  1
  F  F21  1  0.54148186  0.40802519  0.11551923  1
  F  F22  1  0.72652266  0.07235844  0.44953668  1
  F  F23  1  0.87604600  0.41318375  0.78413420  1
  F  F24  1  0.63510476  0.90712641  0.21805383  1
  F  F25  1  0.79117668  0.58495984  0.54916103  1
  F  F26  1  0.95838578  0.91167331  0.88451172  1
  F  F27  1  0.85745338  0.28983603  0.30878326  1
  F  F28  1  0.80254622  0.70333968  0.02605612  1
  F  F29  1  0.97214027  0.79239799  0.35700163  1
