# generated using pymatgen
data_Li6TiNi7O16
_symmetry_space_group_name_H-M   'P 1'
_cell_length_a   7.69150890
_cell_length_b   6.42231032
_cell_length_c   6.55295972
_cell_angle_alpha   70.80066554
_cell_angle_beta   75.96973539
_cell_angle_gamma   65.81840156
_symmetry_Int_Tables_number   1
_chemical_formula_structural   Li6TiNi7O16
_chemical_formula_sum   'Li6 Ti1 Ni7 O16'
_cell_volume   276.68133703
_cell_formula_units_Z   1
loop_
 _symmetry_equiv_pos_site_id
 _symmetry_equiv_pos_as_xyz
  1  'x, y, z'
loop_
 _atom_site_type_symbol
 _atom_site_label
 _atom_site_symmetry_multiplicity
 _atom_site_fract_x
 _atom_site_fract_y
 _atom_site_fract_z
 _atom_site_occupancy
  Li  Li0  1  0.44321528  0.17681039  0.32129673  1
  Li  Li1  1  0.19485148  0.94298065  0.54853589  1
  Li  Li2  1  0.30978150  0.56109808  0.93193254  1
  Li  Li3  1  0.68825571  0.45159519  0.05971630  1
  Li  Li4  1  0.80336992  0.05783564  0.45220419  1
  Li  Li5  1  0.93108752  0.66796074  0.83127898  1
  Ti  Ti6  1  0.99493879  0.00706634  0.02009009  1
  Ni  Ni7  1  0.12980324  0.61028687  0.37214959  1
  Ni  Ni8  1  0.25688278  0.24994520  0.75177355  1
  Ni  Ni9  1  0.37515717  0.87635917  0.12401487  1
  Ni  Ni10  1  0.49668651  0.50338595  0.49782573  1
  Ni  Ni11  1  0.62663395  0.12356458  0.86660704  1
  Ni  Ni12  1  0.75131486  0.74985736  0.25125772  1
  Ni  Ni13  1  0.87467690  0.37347289  0.61861911  1
  O  O14  1  0.03137999  0.68337876  0.07635009  1
  O  O15  1  0.15737638  0.28926765  0.49675885  1
  O  O16  1  0.37132436  0.20418892  0.00010557  1
  O  O17  1  0.09796293  0.93765956  0.28293047  1
  O  O18  1  0.24407553  0.56777979  0.64680094  1
  O  O19  1  0.39514203  0.54012371  0.24353889  1
  O  O20  1  0.52994305  0.18801793  0.58286945  1
  O  O21  1  0.73057117  0.07592375  0.16180274  1
  O  O22  1  0.26818974  0.93178379  0.86690373  1
  O  O23  1  0.46002565  0.83086556  0.38428703  1
  O  O24  1  0.59526084  0.44928180  0.75356992  1
  O  O25  1  0.74932864  0.43703077  0.35507371  1
  O  O26  1  0.89264520  0.05485180  0.72918357  1
  O  O27  1  0.65502829  0.79994178  0.99333110  1
  O  O28  1  0.86857672  0.68572937  0.50525165  1
  O  O29  1  0.95816387  0.33581402  0.89562897  1
