# generated using pymatgen
data_WOF4
_symmetry_space_group_name_H-M   'P 1'
_cell_length_a   5.68591406
_cell_length_b   17.60980151
_cell_length_c   8.10748233
_cell_angle_alpha   90.00000000
_cell_angle_beta   91.57381495
_cell_angle_gamma   90.00000000
_symmetry_Int_Tables_number   1
_chemical_formula_structural   WOF4
_chemical_formula_sum   'W8 O8 F32'
_cell_volume   811.47828634
_cell_formula_units_Z   8
loop_
 _symmetry_equiv_pos_site_id
 _symmetry_equiv_pos_as_xyz
  1  'x, y, z'
loop_
 _atom_site_type_symbol
 _atom_site_label
 _atom_site_symmetry_multiplicity
 _atom_site_fract_x
 _atom_site_fract_y
 _atom_site_fract_z
 _atom_site_occupancy
  W  W0  1  0.25522467  0.85860642  0.98266327  1
  W  W1  1  0.26301981  0.38753386  0.90009702  1
  W  W2  1  0.25522467  0.64139358  0.48266327  1
  W  W3  1  0.26301981  0.11246614  0.40009702  1
  W  W4  1  0.73698019  0.88753386  0.59990298  1
  W  W5  1  0.74477533  0.35860642  0.51733673  1
  W  W6  1  0.73698019  0.61246614  0.09990298  1
  W  W7  1  0.74477533  0.14139358  0.01733673  1
  O  O8  1  0.10079501  0.07889621  0.55872780  1
  O  O9  1  0.10079501  0.42110379  0.05872780  1
  O  O10  1  0.43613666  0.63652801  0.65418162  1
  O  O11  1  0.43613666  0.86347199  0.15418162  1
  O  O12  1  0.56386334  0.13652801  0.84581838  1
  O  O13  1  0.56386334  0.36347199  0.34581838  1
  O  O14  1  0.89920499  0.57889621  0.94127220  1
  O  O15  1  0.89920499  0.92110379  0.44127220  1
  F  F16  1  0.00461466  0.34934926  0.75306698  1
  F  F17  1  0.00461466  0.15065074  0.25306698  1
  F  F18  1  0.03643770  0.12806922  0.91933609  1
  F  F19  1  0.03643770  0.37193078  0.41933609  1
  F  F20  1  0.20624508  0.75289233  0.96197610  1
  F  F21  1  0.20624508  0.74710767  0.46197610  1
  F  F22  1  0.25587078  0.95968286  0.90571730  1
  F  F23  1  0.25882012  0.47168437  0.75566947  1
  F  F24  1  0.25587078  0.54031714  0.40571730  1
  F  F25  1  0.25882012  0.02831563  0.25566947  1
  F  F26  1  0.30048569  0.28469622  0.96042501  1
  F  F27  1  0.30048569  0.21530378  0.46042501  1
  F  F28  1  0.43330064  0.91288921  0.52133864  1
  F  F29  1  0.43330064  0.58711079  0.02133864  1
  F  F30  1  0.49859066  0.84248996  0.81453094  1
  F  F31  1  0.50140934  0.34248996  0.68546906  1
  F  F32  1  0.49859066  0.65751004  0.31453094  1
  F  F33  1  0.50140934  0.15751004  0.18546906  1
  F  F34  1  0.56669936  0.41288921  0.97866136  1
  F  F35  1  0.56669936  0.08711079  0.47866136  1
  F  F36  1  0.69951431  0.78469622  0.53957499  1
  F  F37  1  0.69951431  0.71530378  0.03957499  1
  F  F38  1  0.74117988  0.97168437  0.74433053  1
  F  F39  1  0.74412922  0.45968286  0.59428270  1
  F  F40  1  0.74117988  0.52831563  0.24433053  1
  F  F41  1  0.74412922  0.04031714  0.09428270  1
  F  F42  1  0.79375492  0.25289233  0.53802390  1
  F  F43  1  0.79375492  0.24710767  0.03802390  1
  F  F44  1  0.96356230  0.62806922  0.58066391  1
  F  F45  1  0.96356230  0.87193078  0.08066391  1
  F  F46  1  0.99538534  0.84934926  0.74693302  1
  F  F47  1  0.99538534  0.65065074  0.24693302  1
