# generated using pymatgen
data_Li5CoOF5
_symmetry_space_group_name_H-M   'P 1'
_cell_length_a   2.91605822
_cell_length_b   2.91597697
_cell_length_c   12.56938693
_cell_angle_alpha   89.99670002
_cell_angle_beta   90.04163718
_cell_angle_gamma   90.00040809
_symmetry_Int_Tables_number   1
_chemical_formula_structural   Li5CoOF5
_chemical_formula_sum   'Li5 Co1 O1 F5'
_cell_volume   106.87946225
_cell_formula_units_Z   1
loop_
 _symmetry_equiv_pos_site_id
 _symmetry_equiv_pos_as_xyz
  1  'x, y, z'
loop_
 _atom_site_type_symbol
 _atom_site_label
 _atom_site_symmetry_multiplicity
 _atom_site_fract_x
 _atom_site_fract_y
 _atom_site_fract_z
 _atom_site_occupancy
  Li  Li0  1  0.00008440  0.99999378  0.99300528  1
  Li  Li1  1  0.99991547  0.00000615  0.34032812  1
  Li  Li2  1  0.49998988  0.50000049  0.50584001  1
  Li  Li3  1  0.00000026  0.00000012  0.66666713  1
  Li  Li4  1  0.50001016  0.49999912  0.82749345  1
  Co  Co5  1  0.49999951  0.49999973  0.16666591  1
  O  O6  1  0.99999992  0.00000000  0.16666744  1
  F  F7  1  0.50030545  0.49997807  0.98836915  1
  F  F8  1  0.49969541  0.50002208  0.34496577  1
  F  F9  1  0.00002842  -0.00000474  0.50516589  1
  F  F10  1  0.49999977  0.50000007  0.66666523  1
  F  F11  1  -0.00002866  0.00000513  0.82816661  1
