# generated using pymatgen
data_V3OF11
_symmetry_space_group_name_H-M   'P 1'
_cell_length_a   5.45735718
_cell_length_b   5.27625751
_cell_length_c   14.79589256
_cell_angle_alpha   89.95327186
_cell_angle_beta   100.28379653
_cell_angle_gamma   89.98058411
_symmetry_Int_Tables_number   1
_chemical_formula_structural   V3OF11
_chemical_formula_sum   'V6 O2 F22'
_cell_volume   419.19490227
_cell_formula_units_Z   2
loop_
 _symmetry_equiv_pos_site_id
 _symmetry_equiv_pos_as_xyz
  1  'x, y, z'
loop_
 _atom_site_type_symbol
 _atom_site_label
 _atom_site_symmetry_multiplicity
 _atom_site_fract_x
 _atom_site_fract_y
 _atom_site_fract_z
 _atom_site_occupancy
  V  V0  1  0.00001854  -0.00000809  0.00004728  1
  V  V1  1  0.15520215  0.50974609  0.33464361  1
  V  V2  1  0.33328377  0.00903211  0.67285303  1
  V  V3  1  0.50002733  0.50012418  0.00006365  1
  V  V4  1  0.62598330  0.02503142  0.33032449  1
  V  V5  1  0.83147379  0.50443237  0.66574354  1
  O  O6  1  0.37814716  0.08149983  0.78135212  1
  O  O7  1  0.37538453  0.20424036  0.31107523  1
  F  F8  1  0.03128260  0.20338042  0.64071394  1
  F  F9  1  0.18984843  0.30159725  0.97541268  1
  F  F10  1  0.13725208  0.70682589  0.69076153  1
  F  F11  1  0.04185785  0.08564336  0.11711425  1
  F  F12  1  0.21451844  0.41274874  0.45028255  1
  F  F13  1  0.12864993  0.57615097  0.21649780  1
  F  F14  1  0.29551752  0.90929350  0.55154493  1
  F  F15  1  0.45817351  0.58505755  0.88311133  1
  F  F16  1  0.52805271  0.29271799  0.64083556  1
  F  F17  1  0.69042628  0.19865761  0.97541549  1
  F  F18  1  0.31037482  0.80145107  0.02478376  1
  F  F19  1  0.47019406  0.71255670  0.35734967  1
  F  F20  1  0.63761204  0.79720616  0.69158423  1
  F  F21  1  0.54194361  0.41297966  0.11707903  1
  F  F22  1  0.72668394  0.07360815  0.44992997  1
  F  F23  1  0.87623811  0.41215220  0.78162862  1
  F  F24  1  0.63422128  0.90794172  0.21824371  1
  F  F25  1  0.78973418  0.58075059  0.54849034  1
  F  F26  1  0.95911638  0.91422268  0.88325788  1
  F  F27  1  0.85804573  0.29054418  0.30878681  1
  F  F28  1  0.81007815  0.69835135  0.02448844  1
  F  F29  1  0.97065878  0.79206197  0.35658555  1
