# generated using pymatgen
data_LiMn2OF5
_symmetry_space_group_name_H-M   'P 1'
_cell_length_a   4.64627697
_cell_length_b   4.64627697
_cell_length_c   18.92967804
_cell_angle_alpha   88.30652559
_cell_angle_beta   91.69347441
_cell_angle_gamma   90.15280632
_symmetry_Int_Tables_number   1
_chemical_formula_structural   LiMn2OF5
_chemical_formula_sum   'Li4 Mn8 O4 F20'
_cell_volume   408.29424909
_cell_formula_units_Z   4
loop_
 _symmetry_equiv_pos_site_id
 _symmetry_equiv_pos_as_xyz
  1  'x, y, z'
loop_
 _atom_site_type_symbol
 _atom_site_label
 _atom_site_symmetry_multiplicity
 _atom_site_fract_x
 _atom_site_fract_y
 _atom_site_fract_z
 _atom_site_occupancy
  Li  Li0  1  0.00648111  0.00806075  0.99728796  1
  Li  Li1  1  0.99193925  0.99351889  0.49728796  1
  Li  Li2  1  0.50214604  0.48778931  0.24746733  1
  Li  Li3  1  0.51221069  0.49785396  0.74746733  1
  Mn  Mn4  1  0.98324187  0.97504861  0.16485838  1
  Mn  Mn5  1  0.01333482  0.98002208  0.33584643  1
  Mn  Mn6  1  0.02495139  0.01675813  0.66485838  1
  Mn  Mn7  1  0.01997792  0.98666518  0.83584643  1
  Mn  Mn8  1  0.51624348  0.52009883  0.08611644  1
  Mn  Mn9  1  0.47748531  0.51339764  0.41556372  1
  Mn  Mn10  1  0.48660236  0.52251469  0.91556372  1
  Mn  Mn11  1  0.47990117  0.48375652  0.58611644  1
  O  O12  1  0.19729670  0.79656671  0.41221934  1
  O  O13  1  0.20343329  0.80270330  0.91221934  1
  O  O14  1  0.30958053  0.29748282  0.66189505  1
  O  O15  1  0.70251718  0.69041947  0.16189505  1
  F  F16  1  0.20442399  0.80017925  0.08221439  1
  F  F17  1  0.19982075  0.79557601  0.58221439  1
  F  F18  1  0.18869126  0.78497330  0.24717364  1
  F  F19  1  0.21502670  0.81130874  0.74717364  1
  F  F20  1  0.31379350  0.32475511  0.00825813  1
  F  F21  1  0.28902030  0.30208334  0.49684557  1
  F  F22  1  0.28142875  0.27252375  0.16577838  1
  F  F23  1  0.29970100  0.30564597  0.83597262  1
  F  F24  1  0.29274740  0.29290481  0.33263855  1
  F  F25  1  0.70709519  0.70725260  0.83263855  1
  F  F26  1  0.69435403  0.70029900  0.33597262  1
  F  F27  1  0.72747625  0.71857125  0.66577838  1
  F  F28  1  0.69791666  0.71097970  0.99684557  1
  F  F29  1  0.67524489  0.68620650  0.50825813  1
  F  F30  1  0.80788636  0.17684456  0.25718816  1
  F  F31  1  0.82315544  0.19211364  0.75718816  1
  F  F32  1  0.77410747  0.21630378  0.41679310  1
  F  F33  1  0.78369622  0.22589253  0.91679310  1
  F  F34  1  0.80019049  0.20312177  0.58588281  1
  F  F35  1  0.79687823  0.19980951  0.08588281  1
