# generated using pymatgen
data_Li2MnF4
_symmetry_space_group_name_H-M   'P 1'
_cell_length_a   3.14699746
_cell_length_b   10.09876092
_cell_length_c   5.04970502
_cell_angle_alpha   90.00000000
_cell_angle_beta   89.36725099
_cell_angle_gamma   90.00000000
_symmetry_Int_Tables_number   1
_chemical_formula_structural   Li2MnF4
_chemical_formula_sum   'Li4 Mn2 F8'
_cell_volume   160.47375275
_cell_formula_units_Z   2
loop_
 _symmetry_equiv_pos_site_id
 _symmetry_equiv_pos_as_xyz
  1  'x, y, z'
loop_
 _atom_site_type_symbol
 _atom_site_label
 _atom_site_symmetry_multiplicity
 _atom_site_fract_x
 _atom_site_fract_y
 _atom_site_fract_z
 _atom_site_occupancy
  Li  Li0  1  0.50560943  0.79119702  0.52966845  1
  Li  Li1  1  0.49439057  0.29119702  0.97033155  1
  Li  Li2  1  0.50560943  0.70880298  0.02966845  1
  Li  Li3  1  0.49439057  0.20880298  0.47033155  1
  Mn  Mn4  1  0.00000000  0.50000000  0.50000000  1
  Mn  Mn5  1  0.00000000  0.00000000  0.00000000  1
  F  F6  1  0.00204652  0.32691430  0.74307072  1
  F  F7  1  0.00204652  0.17308570  0.24307072  1
  F  F8  1  0.49594203  0.59816378  0.71831641  1
  F  F9  1  0.49594203  0.90183622  0.21831641  1
  F  F10  1  0.50405797  0.09816378  0.78168359  1
  F  F11  1  0.50405797  0.40183622  0.28168359  1
  F  F12  1  0.99795348  0.82691430  0.75692928  1
  F  F13  1  0.99795348  0.67308570  0.25692928  1
