# generated using pymatgen
data_Na5V4(PO4)6
_symmetry_space_group_name_H-M   'P 1'
_cell_length_a   8.76223826
_cell_length_b   8.98379200
_cell_length_c   12.59445980
_cell_angle_alpha   90.00000000
_cell_angle_beta   90.86129493
_cell_angle_gamma   90.00000000
_symmetry_Int_Tables_number   1
_chemical_formula_structural   Na5V4(PO4)6
_chemical_formula_sum   'Na10 V8 P12 O48'
_cell_volume   991.30025841
_cell_formula_units_Z   2
loop_
 _symmetry_equiv_pos_site_id
 _symmetry_equiv_pos_as_xyz
  1  'x, y, z'
loop_
 _atom_site_type_symbol
 _atom_site_label
 _atom_site_symmetry_multiplicity
 _atom_site_fract_x
 _atom_site_fract_y
 _atom_site_fract_z
 _atom_site_occupancy
  Na  Na0  1  0.11535434  0.72173706  0.76327012  1
  Na  Na1  1  0.21970521  0.78933967  0.16729545  1
  Na  Na2  1  0.29387618  0.29837438  0.33189891  1
  Na  Na3  1  0.34752443  0.21642901  0.71231680  1
  Na  Na4  1  0.42484493  0.55690829  0.81016972  1
  Na  Na5  1  0.61535434  0.77826294  0.26327012  1
  Na  Na6  1  0.71970521  0.71066033  0.66729545  1
  Na  Na7  1  0.79387618  0.20162562  0.83189891  1
  Na  Na8  1  0.84752443  0.28357099  0.21231680  1
  Na  Na9  1  0.92484493  0.94309171  0.31016972  1
  V  V10  1  0.25292883  0.02691949  0.89596874  1
  V  V11  1  0.25894436  0.96365223  0.39891419  1
  V  V12  1  0.25079546  0.46268521  0.10848495  1
  V  V13  1  0.24604413  0.52530219  0.60004787  1
  V  V14  1  0.75292883  0.47308051  0.39596874  1
  V  V15  1  0.75894436  0.53634777  0.89891419  1
  V  V16  1  0.75079546  0.03731479  0.60848495  1
  V  V17  1  0.74604413  0.97469781  0.10004787  1
  P  P18  1  0.02998945  0.24493865  0.49712133  1
  P  P19  1  0.10770161  0.38431686  0.85702330  1
  P  P20  1  0.12154488  0.10256188  0.14842160  1
  P  P21  1  0.38645307  0.60803980  0.35569301  1
  P  P22  1  0.38948792  0.88604519  0.64936679  1
  P  P23  1  0.47241702  0.75198609  0.00089379  1
  P  P24  1  0.52998945  0.25506135  0.99712133  1
  P  P25  1  0.60770161  0.11568314  0.35702330  1
  P  P26  1  0.62154488  0.39743812  0.64842160  1
  P  P27  1  0.88645307  0.89196020  0.85569301  1
  P  P28  1  0.88948792  0.61395481  0.14936679  1
  P  P29  1  0.97241702  0.74801391  0.50089379  1
  O  O30  1  0.08178907  0.84346060  0.43129580  1
  O  O31  1  0.06190456  0.65786433  0.58625660  1
  O  O32  1  0.06020531  0.90468123  0.87535333  1
  O  O33  1  0.06335731  0.59105358  0.15406041  1
  O  O34  1  0.13702608  0.34208625  0.56753921  1
  O  O35  1  0.16434716  0.43882451  0.96534759  1
  O  O36  1  0.13219950  0.21631488  0.83884429  1
  O  O37  1  0.16681096  0.00353288  0.24698586  1
  O  O38  1  0.13942628  0.14243905  0.43134047  1
  O  O39  1  0.14983378  0.26973459  0.17318926  1
  O  O40  1  0.20625088  0.04094268  0.05362656  1
  O  O41  1  0.18897625  0.47649213  0.76901472  1
  O  O42  1  0.30273673  0.97675431  0.73257108  1
  O  O43  1  0.29506431  0.54420334  0.44711134  1
  O  O44  1  0.35494631  0.77910022  0.33565155  1
  O  O45  1  0.36085455  0.65045361  0.05859396  1
  O  O46  1  0.33915389  0.52096195  0.25484015  1
  O  O47  1  0.35294376  0.71667195  0.66364947  1
  O  O48  1  0.33505136  0.94421722  0.53801102  1
  O  O49  1  0.38226066  0.84797259  0.92095847  1
  O  O50  1  0.43137878  0.08256487  0.35070830  1
  O  O51  1  0.44487914  0.41768121  0.63658324  1
  O  O52  1  0.43653603  0.16689684  0.91242583  1
  O  O53  1  0.43235452  0.34636671  0.07155393  1
  O  O54  1  0.58178907  0.65653940  0.93129580  1
  O  O55  1  0.56190456  0.84213567  0.08625660  1
  O  O56  1  0.56020531  0.59531877  0.37535333  1
  O  O57  1  0.56335731  0.90894642  0.65406041  1
  O  O58  1  0.63702608  0.15791375  0.06753921  1
  O  O59  1  0.66434716  0.06117549  0.46534759  1
  O  O60  1  0.63219950  0.28368512  0.33884429  1
  O  O61  1  0.66681096  0.49646712  0.74698586  1
  O  O62  1  0.63942628  0.35756095  0.93134047  1
  O  O63  1  0.64983378  0.23026541  0.67318926  1
  O  O64  1  0.70625088  0.45905732  0.55362656  1
  O  O65  1  0.68897625  0.02350787  0.26901472  1
  O  O66  1  0.80273673  0.52324569  0.23257108  1
  O  O67  1  0.79506431  0.95579666  0.94711134  1
  O  O68  1  0.85494631  0.72089978  0.83565155  1
  O  O69  1  0.86085455  0.84954639  0.55859396  1
  O  O70  1  0.83915389  0.97903805  0.75484015  1
  O  O71  1  0.85294376  0.78332805  0.16364947  1
  O  O72  1  0.83505136  0.55578278  0.03801102  1
  O  O73  1  0.88226066  0.65202741  0.42095847  1
  O  O74  1  0.93137878  0.41743513  0.85070830  1
  O  O75  1  0.94487914  0.08231879  0.13658324  1
  O  O76  1  0.93653603  0.33310316  0.41242583  1
  O  O77  1  0.93235452  0.15363329  0.57155393  1
