# generated using pymatgen
data_Na9Mn15O32
_symmetry_space_group_name_H-M   'P 1'
_cell_length_a   6.29564723
_cell_length_b   6.17798305
_cell_length_c   20.28799571
_cell_angle_alpha   97.94911396
_cell_angle_beta   91.79184635
_cell_angle_gamma   122.08327170
_symmetry_Int_Tables_number   1
_chemical_formula_structural   Na9Mn15O32
_chemical_formula_sum   'Na9 Mn15 O32'
_cell_volume   656.97651987
_cell_formula_units_Z   1
loop_
 _symmetry_equiv_pos_site_id
 _symmetry_equiv_pos_as_xyz
  1  'x, y, z'
loop_
 _atom_site_type_symbol
 _atom_site_label
 _atom_site_symmetry_multiplicity
 _atom_site_fract_x
 _atom_site_fract_y
 _atom_site_fract_z
 _atom_site_occupancy
  Na  Na0  1  0.85401958  0.68851218  0.03517412  1
  Na  Na1  1  0.37480740  0.25154465  0.12440604  1
  Na  Na2  1  0.89542691  0.81698741  0.21550256  1
  Na  Na3  1  0.59279777  0.19811656  0.27816636  1
  Na  Na4  1  0.33495210  0.68294243  0.53309774  1
  Na  Na5  1  0.41501185  0.81266451  0.71582565  1
  Na  Na6  1  0.66212315  0.31354847  0.46540973  1
  Na  Na7  1  0.07376684  0.18696372  0.78418898  1
  Na  Na8  1  0.17205242  0.30678860  0.97216215  1
  Mn  Mn9  1  0.37508655  0.75250668  0.12473257  1
  Mn  Mn10  1  0.24342969  0.51550769  0.24838084  1
  Mn  Mn11  1  0.12986292  0.76191600  0.37306952  1
  Mn  Mn12  1  0.51385327  0.98949366  0.00133625  1
  Mn  Mn13  1  0.12846660  0.25694725  0.37249918  1
  Mn  Mn14  1  0.62584977  0.75815149  0.37337952  1
  Mn  Mn15  1  0.87548020  0.25283170  0.12521019  1
  Mn  Mn16  1  0.99622819  0.99920485  0.49920484  1
  Mn  Mn17  1  0.12354440  0.74378433  0.87750795  1
  Mn  Mn18  1  0.87405030  0.74781207  0.62500231  1
  Mn  Mn19  1  0.37351993  0.24765952  0.62478921  1
  Mn  Mn20  1  0.62006465  0.74129364  0.87610775  1
  Mn  Mn21  1  0.74490698  0.49904788  0.75124050  1
  Mn  Mn22  1  0.87369934  0.24866934  0.62543276  1
  Mn  Mn23  1  0.62142664  0.24530198  0.87751378  1
  O  O24  1  0.25519798  0.86178717  0.05465958  1
  O  O25  1  0.66815172  0.89402708  0.06957392  1
  O  O26  1  0.08519536  0.61317837  0.18141367  1
  O  O27  1  0.16592932  0.40109560  0.07832093  1
  O  O28  1  0.49575922  0.64080865  0.19298227  1
  O  O29  1  0.05883759  0.19718198  0.19156993  1
  O  O30  1  0.42055887  0.84060071  0.32068028  1
  O  O31  1  0.69327694  0.30801102  0.05843703  1
  O  O32  1  0.33901561  0.60850202  0.42440454  1
  O  O33  1  0.40345971  0.41263121  0.31425390  1
  O  O34  1  0.14879710  0.89612979  0.56667953  1
  O  O35  1  0.58290610  0.10374552  0.17133278  1
  O  O36  1  0.91329099  0.90190413  0.32350838  1
  O  O37  1  0.02226766  0.60062820  0.67299974  1
  O  O38  1  0.83733274  0.68245514  0.42908947  1
  O  O39  1  0.27331397  0.11128959  0.42143118  1
  O  O40  1  0.99377302  0.41525118  0.31964612  1
  O  O41  1  0.72500280  0.89637253  0.57804350  1
  O  O42  1  0.15828251  0.31658121  0.56947920  1
  O  O43  1  0.09218519  0.10045876  0.67673102  1
  O  O44  1  0.46803965  0.89163542  0.82581194  1
  O  O45  1  0.59629985  0.59818600  0.68207228  1
  O  O46  1  0.65638314  0.39470383  0.57336321  1
  O  O47  1  0.85179844  0.10862894  0.43098790  1
  O  O48  1  0.34710037  0.66360557  0.93007134  1
  O  O49  1  0.58849582  0.18077677  0.68091055  1
  O  O50  1  0.46888448  0.38429250  0.82558264  1
  O  O51  1  0.89693369  0.81857730  0.82013157  1
  O  O52  1  0.89782420  0.40005214  0.82146536  1
  O  O53  1  0.77930833  0.60288052  0.92650501  1
  O  O54  1  0.34977456  0.08599108  0.93415777  1
  O  O55  1  0.76626664  0.09364447  0.93216096  1
