# generated using pymatgen
data_Na2V6O13
_symmetry_space_group_name_H-M   'P 1'
_cell_length_a   3.78512293
_cell_length_b   6.34772830
_cell_length_c   10.95345643
_cell_angle_alpha   80.87427942
_cell_angle_beta   90.00073992
_cell_angle_gamma   72.65754679
_symmetry_Int_Tables_number   1
_chemical_formula_structural   Na2V6O13
_chemical_formula_sum   'Na2 V6 O13'
_cell_volume   247.72181580
_cell_formula_units_Z   1
loop_
 _symmetry_equiv_pos_site_id
 _symmetry_equiv_pos_as_xyz
  1  'x, y, z'
loop_
 _atom_site_type_symbol
 _atom_site_label
 _atom_site_symmetry_multiplicity
 _atom_site_fract_x
 _atom_site_fract_y
 _atom_site_fract_z
 _atom_site_occupancy
  Na  Na0  1  0.05252412  0.89404378  0.16336152  1
  Na  Na1  1  0.94728132  0.10233988  0.83831774  1
  V  V2  1  0.64840129  0.70115479  0.95803436  1
  V  V3  1  0.59281576  0.81664102  0.60746690  1
  V  V4  1  0.71473052  0.57295098  0.36837868  1
  V  V5  1  0.28834650  0.42517395  0.63339146  1
  V  V6  1  0.41148504  0.18121747  0.39431239  1
  V  V7  1  0.35151921  0.29485239  0.04381249  1
  O  O8  1  0.60792063  0.78405126  0.80074860  1
  O  O9  1  0.57068304  0.86180148  0.42649078  1
  O  O10  1  0.11863896  0.76489668  0.62135016  1
  O  O11  1  0.66746079  0.66568679  0.21613777  1
  O  O12  1  0.81745642  0.36282604  0.00058820  1
  O  O13  1  0.75743149  0.48708202  0.59280049  1
  O  O14  1  0.24563464  0.51103868  0.40872494  1
  O  O15  1  0.18236851  0.63304048  0.00104156  1
  O  O16  1  0.33371847  0.33153125  0.78560390  1
  O  O17  1  0.88478940  0.23321163  0.38038075  1
  O  O18  1  0.43359174  0.13647098  0.57495981  1
  O  O19  1  0.39395624  0.21218647  0.20102312  1
  O  O20  1  0.49931591  0.99817597  0.00075038  1
