# generated using pymatgen
data_V2OF5
_symmetry_space_group_name_H-M   'P 1'
_cell_length_a   8.47752242
_cell_length_b   8.60803435
_cell_length_c   4.63930794
_cell_angle_alpha   90.23118987
_cell_angle_beta   90.56276381
_cell_angle_gamma   60.00399237
_symmetry_Int_Tables_number   1
_chemical_formula_structural   V2OF5
_chemical_formula_sum   'V6 O3 F15'
_cell_volume   293.19264363
_cell_formula_units_Z   3
loop_
 _symmetry_equiv_pos_site_id
 _symmetry_equiv_pos_as_xyz
  1  'x, y, z'
loop_
 _atom_site_type_symbol
 _atom_site_label
 _atom_site_symmetry_multiplicity
 _atom_site_fract_x
 _atom_site_fract_y
 _atom_site_fract_z
 _atom_site_occupancy
  V  V0  1  0.00040519  0.66205734  0.99503890  1
  V  V1  1  0.33332153  0.99410760  0.99508436  1
  V  V2  1  0.34463666  0.67231503  0.52049180  1
  V  V3  1  0.01024274  0.34260002  0.52110049  1
  V  V4  1  0.66934172  0.32653006  0.00632653  1
  V  V5  1  0.65900481  0.01612182  0.47782363  1
  O  O6  1  0.41917384  0.78044000  0.73451486  1
  O  O7  1  0.08626774  0.44894671  0.73763496  1
  O  O8  1  0.58285877  0.19852141  0.26690285  1
  F  F9  1  0.23386392  0.88202095  0.24619069  1
  F  F10  1  0.11901314  0.75957495  0.74494089  1
  F  F11  1  0.21457056  0.58040075  0.25238333  1
  F  F12  1  0.54946331  0.89723415  0.25080549  1
  F  F13  1  0.54388981  0.54762038  0.24282730  1
  F  F14  1  0.44968979  0.44854735  0.75212324  1
  F  F15  1  0.11717412  0.11565319  0.74435571  1
  F  F16  1  0.21285236  0.21511310  0.25350442  1
  F  F17  1  0.78509672  0.79659360  0.74340143  1
  F  F18  1  0.88258457  0.87902793  0.25842967  1
  F  F19  1  0.89965175  0.54909451  0.24525060  1
  F  F20  1  0.78231304  0.42882178  0.73441672  1
  F  F21  1  0.45606067  0.09190671  0.75581089  1
  F  F22  1  0.88196954  0.24727643  0.25472046  1
  F  F23  1  0.76883469  0.11679920  0.75565777  1
