# generated using pymatgen
data_Na3Fe2(PO4)3
_symmetry_space_group_name_H-M   'P 1'
_cell_length_a   8.85236744
_cell_length_b   12.57293200
_cell_length_c   9.03714545
_cell_angle_alpha   90.00000000
_cell_angle_beta   90.00000000
_cell_angle_gamma   90.33125842
_symmetry_Int_Tables_number   1
_chemical_formula_structural   Na3Fe2(PO4)3
_chemical_formula_sum   'Na12 Fe8 P12 O48'
_cell_volume   1005.81941061
_cell_formula_units_Z   4
loop_
 _symmetry_equiv_pos_site_id
 _symmetry_equiv_pos_as_xyz
  1  'x, y, z'
loop_
 _atom_site_type_symbol
 _atom_site_label
 _atom_site_symmetry_multiplicity
 _atom_site_fract_x
 _atom_site_fract_y
 _atom_site_fract_z
 _atom_site_occupancy
  Na  Na0  1  0.06326871  0.69315851  0.02913848  1
  Na  Na1  1  0.21917368  0.17104651  0.79141713  1
  Na  Na2  1  0.18196271  0.82082419  0.71915718  1
  Na  Na3  1  0.31803729  0.67917581  0.21915718  1
  Na  Na4  1  0.28082632  0.32895349  0.29141713  1
  Na  Na5  1  0.43673129  0.80684149  0.52913848  1
  Na  Na6  1  0.56326871  0.19315951  0.47086152  1
  Na  Na7  1  0.71917368  0.67104651  0.70858287  1
  Na  Na8  1  0.68196271  0.32082419  0.78084282  1
  Na  Na9  1  0.81803729  0.17917581  0.28084282  1
  Na  Na10  1  0.78082632  0.82895349  0.20858287  1
  Na  Na11  1  0.93673129  0.30684149  0.97086152  1
  Fe  Fe12  1  0.23786471  0.59968912  0.53782398  1
  Fe  Fe13  1  0.26213529  0.90031088  0.03782398  1
  Fe  Fe14  1  0.23768952  0.10329387  0.46062069  1
  Fe  Fe15  1  0.26231048  0.39670613  0.96062069  1
  Fe  Fe16  1  0.73768952  0.60329387  0.03937931  1
  Fe  Fe17  1  0.76231048  0.89670613  0.53937931  1
  Fe  Fe18  1  0.73786471  0.09968912  0.96217602  1
  Fe  Fe19  1  0.76213529  0.40031088  0.46217602  1
  P  P20  1  0.03267814  0.50041680  0.24738383  1
  P  P21  1  0.10651562  0.85036052  0.38303102  1
  P  P22  1  0.11583048  0.14532326  0.10746693  1
  P  P23  1  0.38416952  0.35467674  0.60746693  1
  P  P24  1  0.39348438  0.64963948  0.88303102  1
  P  P25  1  0.46732186  0.99958320  0.74738383  1
  P  P26  1  0.53267814  0.00041680  0.25261617  1
  P  P27  1  0.60651562  0.35036052  0.11696898  1
  P  P28  1  0.61583048  0.64532326  0.39253307  1
  P  P29  1  0.88416952  0.85467674  0.89253307  1
  P  P30  1  0.89348438  0.14963948  0.61696898  1
  P  P31  1  0.96732186  0.49958320  0.75261617  1
  O  O32  1  0.06911045  0.42756861  0.84832546  1
  O  O33  1  0.05986675  0.58431354  0.66690550  1
  O  O34  1  0.05784937  0.86420880  0.91596987  1
  O  O35  1  0.06561404  0.15659633  0.59100953  1
  O  O36  1  0.12713322  0.57490214  0.34917063  1
  O  O37  1  0.16235514  0.96123493  0.43024220  1
  O  O38  1  0.14294124  0.82769279  0.21651192  1
  O  O39  1  0.17082987  0.24205729  0.01321286  1
  O  O40  1  0.14703369  0.44013197  0.14832944  1
  O  O41  1  0.14698799  0.16707054  0.27413957  1
  O  O42  1  0.19662728  0.04608818  0.05037824  1
  O  O43  1  0.19243545  0.76782523  0.48151306  1
  O  O44  1  0.30756455  0.73217477  0.98151306  1
  O  O45  1  0.30337272  0.45391182  0.55037824  1
  O  O46  1  0.35301201  0.33292946  0.77413957  1
  O  O47  1  0.35296631  0.05986803  0.64832944  1
  O  O48  1  0.32917013  0.25794271  0.51321286  1
  O  O49  1  0.35705876  0.67230721  0.71651192  1
  O  O50  1  0.33764486  0.53876507  0.93024220  1
  O  O51  1  0.37286678  0.92509786  0.84917063  1
  O  O52  1  0.44215063  0.63579120  0.41596987  1
  O  O53  1  0.43438596  0.34340367  0.09100953  1
  O  O54  1  0.44013325  0.91568646  0.16690550  1
  O  O55  1  0.43088955  0.07243139  0.34832546  1
  O  O56  1  0.56911045  0.92756861  0.65167454  1
  O  O57  1  0.55986675  0.08431354  0.83309450  1
  O  O58  1  0.56561404  0.65659633  0.90899047  1
  O  O59  1  0.55784937  0.36420880  0.58403013  1
  O  O60  1  0.62713322  0.07490214  0.15082937  1
  O  O61  1  0.66235514  0.46123493  0.06975780  1
  O  O62  1  0.64294124  0.32769279  0.28348808  1
  O  O63  1  0.67082987  0.74205729  0.48678714  1
  O  O64  1  0.64703369  0.94013197  0.35167056  1
  O  O65  1  0.64698799  0.66707054  0.22586043  1
  O  O66  1  0.69662728  0.54608818  0.44962176  1
  O  O67  1  0.69243545  0.26782523  0.01848694  1
  O  O68  1  0.80756455  0.23217477  0.51848694  1
  O  O69  1  0.80337272  0.95391182  0.94962176  1
  O  O70  1  0.85301201  0.83292946  0.72586043  1
  O  O71  1  0.85296631  0.55986803  0.85167056  1
  O  O72  1  0.82917013  0.75794271  0.98678714  1
  O  O73  1  0.85705876  0.17230721  0.78348808  1
  O  O74  1  0.83764486  0.03876507  0.56975780  1
  O  O75  1  0.87286678  0.42509786  0.65082937  1
  O  O76  1  0.93438596  0.84340367  0.40899047  1
  O  O77  1  0.94215063  0.13579120  0.08403013  1
  O  O78  1  0.94013325  0.41568646  0.33309450  1
  O  O79  1  0.93088955  0.57243139  0.15167454  1
