# generated using pymatgen
data_MnOF
_symmetry_space_group_name_H-M   'P 1'
_cell_length_a   4.63334483
_cell_length_b   4.63334483
_cell_length_c   12.67850532
_cell_angle_alpha   90.02615869
_cell_angle_beta   90.02615869
_cell_angle_gamma   90.18086478
_symmetry_Int_Tables_number   1
_chemical_formula_structural   MnOF
_chemical_formula_sum   'Mn8 O8 F8'
_cell_volume   272.17927215
_cell_formula_units_Z   8
loop_
 _symmetry_equiv_pos_site_id
 _symmetry_equiv_pos_as_xyz
  1  'x, y, z'
loop_
 _atom_site_type_symbol
 _atom_site_label
 _atom_site_symmetry_multiplicity
 _atom_site_fract_x
 _atom_site_fract_y
 _atom_site_fract_z
 _atom_site_occupancy
  Mn  Mn0  1  0.97571296  0.96656077  0.00062326  1
  Mn  Mn1  1  0.03343923  0.02428704  0.24937674  1
  Mn  Mn2  1  0.98835422  0.95375800  0.49961572  1
  Mn  Mn3  1  0.04624200  0.01164578  0.75038428  1
  Mn  Mn4  1  0.48468978  0.51531022  0.62500000  1
  Mn  Mn5  1  0.53174192  0.46825808  0.12500000  1
  Mn  Mn6  1  0.48155610  0.52132978  0.37422388  1
  Mn  Mn7  1  0.47867022  0.51844390  0.87577612  1
  O  O8  1  0.18706902  0.81382088  0.37170584  1
  O  O9  1  0.18939435  0.81060565  0.62500000  1
  O  O10  1  0.18617912  0.81293098  0.87829416  1
  O  O11  1  0.33163524  0.31582481  0.25009688  1
  O  O12  1  0.30996763  0.32794620  0.74973294  1
  O  O13  1  0.68417519  0.66836476  0.99990312  1
  O  O14  1  0.67205380  0.69003237  0.50026706  1
  O  O15  1  0.82585181  0.17414819  0.12500000  1
  F  F16  1  0.22783286  0.77216714  0.12500000  1
  F  F17  1  0.28015549  0.27101570  0.99948759  1
  F  F18  1  0.26938966  0.28068523  0.50046037  1
  F  F19  1  0.72898430  0.71984451  0.25051241  1
  F  F20  1  0.71931477  0.73061034  0.74953963  1
  F  F21  1  0.78529333  0.21064217  0.38263844  1
  F  F22  1  0.79293817  0.20706183  0.62500000  1
  F  F23  1  0.78935783  0.21470667  0.86736156  1
