# generated using pymatgen
data_LiMn2F5
_symmetry_space_group_name_H-M   'P 1'
_cell_length_a   5.29288332
_cell_length_b   6.11974471
_cell_length_c   7.58400155
_cell_angle_alpha   70.33562762
_cell_angle_beta   90.04712992
_cell_angle_gamma   64.29502161
_symmetry_Int_Tables_number   1
_chemical_formula_structural   LiMn2F5
_chemical_formula_sum   'Li2 Mn4 F10'
_cell_volume   205.29281500
_cell_formula_units_Z   2
loop_
 _symmetry_equiv_pos_site_id
 _symmetry_equiv_pos_as_xyz
  1  'x, y, z'
loop_
 _atom_site_type_symbol
 _atom_site_label
 _atom_site_symmetry_multiplicity
 _atom_site_fract_x
 _atom_site_fract_y
 _atom_site_fract_z
 _atom_site_occupancy
  Li  Li0  1  0.00210138  0.99869662  0.50463004  1
  Li  Li1  1  0.99932449  0.00293868  0.00134350  1
  Mn  Mn2  1  0.62551568  0.73597282  0.72707587  1
  Mn  Mn3  1  0.63942974  0.73571903  0.22711386  1
  Mn  Mn4  1  0.35964068  0.26426170  0.77647151  1
  Mn  Mn5  1  0.37526555  0.26473985  0.27505875  1
  F  F6  1  0.75102564  0.83373544  0.94958044  1
  F  F7  1  0.41276765  0.84132863  0.44669417  1
  F  F8  1  0.03016051  0.63905706  0.65031808  1
  F  F9  1  0.66656607  0.36236944  0.85176480  1
  F  F10  1  0.33708824  0.63574805  0.14752780  1
  F  F11  1  0.97268163  0.36347075  0.35545949  1
  F  F12  1  0.58203484  0.16052629  0.55657756  1
  F  F13  1  0.20847211  0.99793298  0.75457740  1
  F  F14  1  0.25316534  0.16071203  0.05506422  1
  F  F15  1  0.79351744  0.00018263  0.25160650  1
