# generated using pymatgen
data_Li5Fe8(BO3)8
_symmetry_space_group_name_H-M   'P 1'
_cell_length_a   5.25743663
_cell_length_b   9.08977152
_cell_length_c   11.35071683
_cell_angle_alpha   66.83838643
_cell_angle_beta   76.65054975
_cell_angle_gamma   90.16822359
_symmetry_Int_Tables_number   1
_chemical_formula_structural   Li5Fe8(BO3)8
_chemical_formula_sum   'Li5 Fe8 B8 O24'
_cell_volume   482.56970578
_cell_formula_units_Z   1
loop_
 _symmetry_equiv_pos_site_id
 _symmetry_equiv_pos_as_xyz
  1  'x, y, z'
loop_
 _atom_site_type_symbol
 _atom_site_label
 _atom_site_symmetry_multiplicity
 _atom_site_fract_x
 _atom_site_fract_y
 _atom_site_fract_z
 _atom_site_occupancy
  Li  Li0  1  0.70484176  0.72076915  0.90186760  1
  Li  Li1  1  0.51222905  0.48944087  0.66533674  1
  Li  Li2  1  0.72798398  0.75280997  0.16531620  1
  Li  Li3  1  0.02131827  0.99556524  0.65906900  1
  Li  Li4  1  0.22400624  0.25050474  0.16736436  1
  Fe  Fe5  1  0.98391414  0.64736614  0.38240352  1
  Fe  Fe6  1  0.73079702  0.07454104  0.87985723  1
  Fe  Fe7  1  0.53311061  0.84152830  0.62737375  1
  Fe  Fe8  1  0.74711984  0.43667918  0.13207505  1
  Fe  Fe9  1  0.22764097  0.55089755  0.88304873  1
  Fe  Fe10  1  0.48496852  0.14576370  0.38265615  1
  Fe  Fe11  1  0.03948498  0.34900776  0.62917489  1
  Fe  Fe12  1  0.24860449  0.94222716  0.12621603  1
  B  B13  1  0.98080824  0.31672025  0.37642519  1
  B  B14  1  0.72933201  0.40061053  0.87527248  1
  B  B15  1  0.52602942  0.18335201  0.62972387  1
  B  B16  1  0.76237613  0.10436466  0.12906470  1
  B  B17  1  0.48124779  0.81708720  0.37415133  1
  B  B18  1  0.23713943  0.89610565  0.87617459  1
  B  B19  1  0.02556320  0.68443138  0.62854716  1
  B  B20  1  0.26271791  0.60286745  0.12749979  1
  O  O21  1  0.97742932  0.91441367  0.86572072  1
  O  O22  1  0.88010837  0.28703079  0.84275563  1
  O  O23  1  0.83220970  0.50246897  0.92144935  1
  O  O24  1  0.89813838  0.81006172  0.64251095  1
  O  O25  1  0.90888757  0.58192519  0.58343925  1
  O  O26  1  0.75770600  0.14789348  0.67473320  1
  O  O27  1  0.74325725  0.32031832  0.34150805  1
  O  O28  1  0.48418008  0.40856792  0.85603628  1
  O  O29  1  0.37340313  0.78300924  0.84197244  1
  O  O30  1  0.55109412  0.92698628  0.42049232  1
  O  O31  1  0.64821199  0.70731481  0.35700657  1
  O  O32  1  0.36281051  0.99134495  0.92025793  1
  O  O33  1  0.66240139  0.99830546  0.08251756  1
  O  O34  1  0.40835609  0.31589404  0.62872976  1
  O  O35  1  0.41721345  0.07718151  0.58626669  1
  O  O36  1  0.58982865  0.20089205  0.17297814  1
  O  O37  1  0.53190921  0.62390351  0.11061510  1
  O  O38  1  0.26389522  0.65216632  0.66021115  1
  O  O39  1  0.24506715  0.82184671  0.33828687  1
  O  O40  1  0.04897124  0.42680633  0.42306787  1
  O  O41  1  0.14525884  0.20392084  0.36388722  1
  O  O42  1  0.15431000  0.48520707  0.09873302  1
  O  O43  1  0.09781155  0.70251134  0.17180056  1
  O  O44  1  0.01767981  0.11001556  0.13275602  1
