# generated using pymatgen
data_Li5Fe8(BO3)8
_symmetry_space_group_name_H-M   'P 1'
_cell_length_a   5.26413425
_cell_length_b   9.10420465
_cell_length_c   11.36040909
_cell_angle_alpha   66.72489040
_cell_angle_beta   77.13392139
_cell_angle_gamma   90.06367615
_symmetry_Int_Tables_number   1
_chemical_formula_structural   Li5Fe8(BO3)8
_chemical_formula_sum   'Li5 Fe8 B8 O24'
_cell_volume   485.17101610
_cell_formula_units_Z   1
loop_
 _symmetry_equiv_pos_site_id
 _symmetry_equiv_pos_as_xyz
  1  'x, y, z'
loop_
 _atom_site_type_symbol
 _atom_site_label
 _atom_site_symmetry_multiplicity
 _atom_site_fract_x
 _atom_site_fract_y
 _atom_site_fract_z
 _atom_site_occupancy
  Li  Li0  1  0.97420180  0.96016806  0.40285178  1
  Li  Li1  1  0.51465949  0.49036365  0.66465287  1
  Li  Li2  1  0.73009185  0.75035450  0.16754411  1
  Li  Li3  1  0.01260975  0.98797431  0.66820471  1
  Li  Li4  1  0.22999631  0.25661657  0.15884366  1
  Fe  Fe5  1  0.98093124  0.64019989  0.38149144  1
  Fe  Fe6  1  0.72768348  0.06584619  0.88164176  1
  Fe  Fe7  1  0.53074981  0.84248205  0.63315809  1
  Fe  Fe8  1  0.75009883  0.44257817  0.12612975  1
  Fe  Fe9  1  0.22745210  0.56473332  0.88338345  1
  Fe  Fe10  1  0.47991058  0.15167633  0.38241947  1
  Fe  Fe11  1  0.03713487  0.34351487  0.62760497  1
  Fe  Fe12  1  0.25034030  0.93873630  0.12821883  1
  B  B13  1  0.97951480  0.30680781  0.37856906  1
  B  B14  1  0.73540442  0.39938222  0.87405831  1
  B  B15  1  0.52345051  0.18307039  0.63098296  1
  B  B16  1  0.75890222  0.10322183  0.13150342  1
  B  B17  1  0.48380474  0.82492796  0.37286387  1
  B  B18  1  0.23418554  0.89898795  0.87605564  1
  B  B19  1  0.02354834  0.68374619  0.62634721  1
  B  B20  1  0.26702004  0.60688331  0.12617429  1
  O  O21  1  0.98568155  0.92586543  0.85903426  1
  O  O22  1  0.85797785  0.28249844  0.83978609  1
  O  O23  1  0.86521830  0.48787842  0.92157195  1
  O  O24  1  0.91891188  0.82867784  0.60936884  1
  O  O25  1  0.90351173  0.57158077  0.59682848  1
  O  O26  1  0.75430267  0.14314831  0.67430739  1
  O  O27  1  0.74482024  0.32067597  0.33837053  1
  O  O28  1  0.48555813  0.42757685  0.85964974  1
  O  O29  1  0.35940462  0.78289256  0.83979118  1
  O  O30  1  0.57789357  0.93401526  0.41919232  1
  O  O31  1  0.63721972  0.71318734  0.35590538  1
  O  O32  1  0.36341974  0.98901932  0.92169580  1
  O  O33  1  0.66260601  0.99943308  0.08306697  1
  O  O34  1  0.40710918  0.31414513  0.63317573  1
  O  O35  1  0.41278759  0.07965995  0.58491397  1
  O  O36  1  0.58726116  0.20278248  0.17177895  1
  O  O37  1  0.52364197  0.61209046  0.12818193  1
  O  O38  1  0.25377745  0.65186012  0.67200196  1
  O  O39  1  0.24052131  0.84061030  0.34407950  1
  O  O40  1  0.06474414  0.40922632  0.42441453  1
  O  O41  1  0.12509222  0.18289598  0.36535393  1
  O  O42  1  0.16398214  0.49399551  0.08554772  1
  O  O43  1  0.10099886  0.70760884  0.16247206  1
  O  O44  1  0.01012295  0.10340744  0.14316413  1
