# generated using pymatgen
data_V3O5F
_symmetry_space_group_name_H-M   'P 1'
_cell_length_a   10.52648617
_cell_length_b   6.42349929
_cell_length_c   2.99171084
_cell_angle_alpha   90.00000000
_cell_angle_beta   90.00000000
_cell_angle_gamma   107.76702470
_symmetry_Int_Tables_number   1
_chemical_formula_structural   V3O5F
_chemical_formula_sum   'V6 O10 F2'
_cell_volume   192.64194841
_cell_formula_units_Z   2
loop_
 _symmetry_equiv_pos_site_id
 _symmetry_equiv_pos_as_xyz
  1  'x, y, z'
loop_
 _atom_site_type_symbol
 _atom_site_label
 _atom_site_symmetry_multiplicity
 _atom_site_fract_x
 _atom_site_fract_y
 _atom_site_fract_z
 _atom_site_occupancy
  V  V0  1  0.02254346  0.01129041  0.00000000  1
  V  V1  1  0.34460617  0.17225751  0.50000000  1
  V  V2  1  0.98868926  0.49434278  0.50000000  1
  V  V3  1  0.31079225  0.65534729  0.00000000  1
  V  V4  1  0.66663432  0.33333071  0.00000000  1
  V  V5  1  0.66666168  0.83335223  0.50000000  1
  O  O6  1  0.14020060  0.07011318  0.50000000  1
  O  O7  1  0.99771899  0.28955766  0.00000000  1
  O  O8  1  0.99773291  0.70816388  0.00000000  1
  O  O9  1  0.33562462  0.37707457  0.00000000  1
  O  O10  1  0.66669737  0.03013330  0.00000000  1
  O  O11  1  0.19315143  0.59652119  0.50000000  1
  O  O12  1  0.53748293  0.26872473  0.50000000  1
  O  O13  1  0.79584664  0.39793941  0.50000000  1
  O  O14  1  0.33560790  0.95849806  0.00000000  1
  O  O15  1  0.66667677  0.63656901  0.00000000  1
  F  F16  1  0.45878480  0.72944816  0.50000000  1
  F  F17  1  0.87454887  0.93733391  0.50000000  1
