# generated using pymatgen
data_Li8FeCo9O20
_symmetry_space_group_name_H-M   'P 1'
_cell_length_a   7.49289756
_cell_length_b   4.90599046
_cell_length_c   9.72205160
_cell_angle_alpha   85.18794815
_cell_angle_beta   80.48028725
_cell_angle_gamma   70.79734030
_symmetry_Int_Tables_number   1
_chemical_formula_structural   Li8FeCo9O20
_chemical_formula_sum   'Li8 Fe1 Co9 O20'
_cell_volume   332.68433627
_cell_formula_units_Z   1
loop_
 _symmetry_equiv_pos_site_id
 _symmetry_equiv_pos_as_xyz
  1  'x, y, z'
loop_
 _atom_site_type_symbol
 _atom_site_label
 _atom_site_symmetry_multiplicity
 _atom_site_fract_x
 _atom_site_fract_y
 _atom_site_fract_z
 _atom_site_occupancy
  Li  Li0  1  0.08831866  0.70284326  0.50415121  1
  Li  Li1  1  0.28838354  0.10714041  0.50349366  1
  Li  Li2  1  0.21168134  0.39715674  0.99584879  1
  Li  Li3  1  0.51368551  0.49364695  0.50120714  1
  Li  Li4  1  0.59219272  0.20727372  0.99777715  1
  Li  Li5  1  0.70780728  0.89272628  0.50222285  1
  Li  Li6  1  0.78631449  0.60635305  0.99879286  1
  Li  Li7  1  0.01161646  0.99285959  0.99650634  1
  Fe  Fe8  1  0.15000000  0.05000000  0.25000000  1
  Co  Co9  1  0.05004728  0.35064853  0.74803843  1
  Co  Co10  1  0.35139706  0.45368246  0.25005642  1
  Co  Co11  1  0.24995272  0.74935147  0.75196157  1
  Co  Co12  1  0.44900815  0.14715351  0.75109375  1
  Co  Co13  1  0.55068845  0.85115494  0.24800833  1
  Co  Co14  1  0.74931155  0.24884506  0.25199167  1
  Co  Co15  1  0.65000000  0.55000000  0.75000000  1
  Co  Co16  1  0.94860294  0.64631754  0.24994358  1
  Co  Co17  1  0.85099185  0.95284649  0.74890625  1
  O  O18  1  0.07484614  0.01879695  0.64516352  1
  O  O19  1  0.13446793  0.37709610  0.35625431  1
  O  O20  1  0.16553207  0.72290390  0.14374569  1
  O  O21  1  0.02776926  0.67674334  0.85816435  1
  O  O22  1  0.22515386  0.08120305  0.85483648  1
  O  O23  1  0.36964234  0.13764291  0.14343164  1
  O  O24  1  0.27223074  0.42325666  0.64183565  1
  O  O25  1  0.32590870  0.78327844  0.35952307  1
  O  O26  1  0.52905298  0.17748335  0.35879925  1
  O  O27  1  0.43150065  0.46604880  0.85454838  1
  O  O28  1  0.57590700  0.51975638  0.14472032  1
  O  O29  1  0.47161136  0.82164726  0.64265171  1
  O  O30  1  0.66707122  0.22151679  0.64731195  1
  O  O31  1  0.72409300  0.58024362  0.35527968  1
  O  O32  1  0.77094702  0.92251665  0.14120075  1
  O  O33  1  0.63292878  0.87848321  0.85268805  1
  O  O34  1  0.97409130  0.31672156  0.14047693  1
  O  O35  1  0.82838864  0.27835274  0.85734829  1
  O  O36  1  0.86849935  0.63395120  0.64545162  1
  O  O37  1  0.93035766  0.96235709  0.35656836  1
