# generated using pymatgen
data_V2OF5
_symmetry_space_group_name_H-M   'P 1'
_cell_length_a   8.79718476
_cell_length_b   4.87780708
_cell_length_c   4.85702015
_cell_angle_alpha   90.00000000
_cell_angle_beta   89.53959133
_cell_angle_gamma   90.00000000
_symmetry_Int_Tables_number   1
_chemical_formula_structural   V2OF5
_chemical_formula_sum   'V4 O2 F10'
_cell_volume   208.41271756
_cell_formula_units_Z   2
loop_
 _symmetry_equiv_pos_site_id
 _symmetry_equiv_pos_as_xyz
  1  'x, y, z'
loop_
 _atom_site_type_symbol
 _atom_site_label
 _atom_site_symmetry_multiplicity
 _atom_site_fract_x
 _atom_site_fract_y
 _atom_site_fract_z
 _atom_site_occupancy
  V  V0  1  0.17318965  0.51354367  0.49081243  1
  V  V1  1  0.31301283  0.98953470  0.01043661  1
  V  V2  1  0.67318965  0.98645633  0.99081243  1
  V  V3  1  0.81301283  0.51046530  0.51043661  1
  O  O4  1  0.19251759  0.79450091  0.20794225  1
  O  O5  1  0.69251759  0.70549909  0.70794225  1
  F  F6  1  0.18299538  0.21874596  0.78069607  1
  F  F7  1  0.32354149  0.28906448  0.28481850  1
  F  F8  1  0.32669956  0.71850809  0.71483156  1
  F  F9  1  0.49054210  0.16912351  0.82547440  1
  F  F10  1  0.49944842  0.81822925  0.18230019  1
  F  F11  1  0.68299538  0.28125404  0.28069607  1
  F  F12  1  0.82669956  0.78149191  0.21483156  1
  F  F13  1  0.82354149  0.21093552  0.78481850  1
  F  F14  1  0.99054210  0.33087649  0.32547440  1
  F  F15  1  0.99944842  0.68177075  0.68230019  1
