# generated using pymatgen
data_Li5Fe8(BO3)8
_symmetry_space_group_name_H-M   'P 1'
_cell_length_a   5.26757106
_cell_length_b   9.08061526
_cell_length_c   10.21422965
_cell_angle_alpha   89.99919445
_cell_angle_beta   91.34515450
_cell_angle_gamma   90.01995430
_symmetry_Int_Tables_number   1
_chemical_formula_structural   Li5Fe8(BO3)8
_chemical_formula_sum   'Li5 Fe8 B8 O24'
_cell_volume   488.44039055
_cell_formula_units_Z   1
loop_
 _symmetry_equiv_pos_site_id
 _symmetry_equiv_pos_as_xyz
  1  'x, y, z'
loop_
 _atom_site_type_symbol
 _atom_site_label
 _atom_site_symmetry_multiplicity
 _atom_site_fract_x
 _atom_site_fract_y
 _atom_site_fract_z
 _atom_site_occupancy
  Li  Li0  1  0.33883269  0.01458852  0.84430443  1
  Li  Li1  1  0.65637175  0.99766472  0.11985745  1
  Li  Li2  1  0.15788932  0.49466281  0.59653304  1
  Li  Li3  1  0.84466849  0.48442870  0.33735629  1
  Li  Li4  1  0.83724618  0.50548374  0.83540857  1
  Fe  Fe5  1  0.15925562  0.17295394  0.12497500  1
  Fe  Fe6  1  0.83392218  0.15396705  0.37095325  1
  Fe  Fe7  1  0.33489379  0.34236762  0.87259578  1
  Fe  Fe8  1  0.64690087  0.32074244  0.61860296  1
  Fe  Fe9  1  0.34772777  0.66744024  0.37015392  1
  Fe  Fe10  1  0.16120773  0.83683956  0.62000506  1
  Fe  Fe11  1  0.65752290  0.66365927  0.11933758  1
  Fe  Fe12  1  0.83890577  0.84336368  0.86808900  1
  B  B13  1  0.15063572  0.16764415  0.62532763  1
  B  B14  1  0.33246794  0.34126732  0.36773092  1
  B  B15  1  0.83027714  0.16971762  0.88160370  1
  B  B16  1  0.65802419  0.33013444  0.12210479  1
  B  B17  1  0.33543828  0.66976792  0.86885926  1
  B  B18  1  0.67280080  0.66707742  0.62777673  1
  B  B19  1  0.16491455  0.83729612  0.11789650  1
  B  B20  1  0.84085637  0.82505323  0.36142815  1
  O  O21  1  0.26427032  0.03467877  0.65240117  1
  O  O22  1  0.08968972  0.16867557  0.91775078  1
  O  O23  1  0.69068578  0.04232041  0.89196006  1
  O  O24  1  0.20344543  0.21840844  0.31557398  1
  O  O25  1  0.28063598  0.29769311  0.65972482  1
  O  O26  1  0.79327222  0.20020121  0.14793757  1
  O  O27  1  0.91296352  0.17650385  0.56883011  1
  O  O28  1  0.40904996  0.31710557  0.07690242  1
  O  O29  1  0.19510415  0.46722344  0.39467519  1
  O  O30  1  0.58966850  0.33510476  0.39697662  1
  O  O31  1  0.72056755  0.30038903  0.83705479  1
  O  O32  1  0.19488132  0.54439861  0.85702457  1
  O  O33  1  0.76839823  0.46453790  0.14066639  1
  O  O34  1  0.30642939  0.71509341  0.15569613  1
  O  O35  1  0.41630581  0.67884133  0.58918149  1
  O  O36  1  0.79023581  0.53179643  0.63397041  1
  O  O37  1  0.59012652  0.66491847  0.91688501  1
  O  O38  1  0.07467535  0.81442211  0.42964487  1
  O  O39  1  0.23192076  0.80557506  0.83008578  1
  O  O40  1  0.72834872  0.68950205  0.31953629  1
  O  O41  1  0.80735012  0.79354234  0.66444456  1
  O  O42  1  0.27853444  0.97337816  0.11332749  1
  O  O43  1  0.90739389  0.82111510  0.08220679  1
  O  O44  1  0.72285445  0.95160739  0.33068370  1
