# generated using pymatgen
data_V2OF5
_symmetry_space_group_name_H-M   'P 1'
_cell_length_a   8.49751979
_cell_length_b   8.54180729
_cell_length_c   4.63931934
_cell_angle_alpha   90.37190990
_cell_angle_beta   89.36740894
_cell_angle_gamma   60.03916790
_symmetry_Int_Tables_number   1
_chemical_formula_structural   V2OF5
_chemical_formula_sum   'V6 O3 F15'
_cell_volume   291.69565075
_cell_formula_units_Z   3
loop_
 _symmetry_equiv_pos_site_id
 _symmetry_equiv_pos_as_xyz
  1  'x, y, z'
loop_
 _atom_site_type_symbol
 _atom_site_label
 _atom_site_symmetry_multiplicity
 _atom_site_fract_x
 _atom_site_fract_y
 _atom_site_fract_z
 _atom_site_occupancy
  V  V0  1  0.01707962  0.33110802  0.98474933  1
  V  V1  1  0.32973051  0.00589933  0.50614427  1
  V  V2  1  0.35255694  0.65979108  0.98080201  1
  V  V3  1  0.66807137  0.33666532  0.50181275  1
  V  V4  1  0.67166526  0.99814233  0.99380286  1
  V  V5  1  0.99525036  0.68524221  0.51592975  1
  O  O6  1  0.20206655  0.21818918  0.76473777  1
  O  O7  1  0.53685799  0.55062453  0.76073962  1
  O  O8  1  0.88491977  0.86782301  0.73442225  1
  F  F9  1  0.11648552  0.12078143  0.25414668  1
  F  F10  1  0.08885761  0.45987872  0.25627811  1
  F  F11  1  0.45336098  0.09816481  0.24960711  1
  F  F12  1  0.12596782  0.75444908  0.24429472  1
  F  F13  1  0.21405099  0.56939952  0.75313848  1
  F  F14  1  0.56735399  0.21283463  0.74763130  1
  F  F15  1  0.23157185  0.88169146  0.75596807  1
  F  F16  1  0.45050685  0.45308444  0.25317701  1
  F  F17  1  0.42853835  0.78565538  0.24866217  1
  F  F18  1  0.76749911  0.11884397  0.24873270  1
  F  F19  1  0.54504825  0.90030290  0.74953607  1
  F  F20  1  0.87842646  0.23841365  0.75908849  1
  F  F21  1  0.79404429  0.42495054  0.24152993  1
  F  F22  1  0.78681301  0.78375854  0.24709954  1
  F  F23  1  0.90211254  0.54858891  0.74668701  1
