# generated using pymatgen
data_Zn3(GaS3)2
_symmetry_space_group_name_H-M   'P 1'
_cell_length_a   3.77974431
_cell_length_b   3.78061842
_cell_length_c   18.35039929
_cell_angle_alpha   89.99999999
_cell_angle_beta   90.00779665
_cell_angle_gamma   120.00764419
_symmetry_Int_Tables_number   1
_chemical_formula_structural   Zn3(GaS3)2
_chemical_formula_sum   'Zn3 Ga2 S6'
_cell_volume   227.07428460
_cell_formula_units_Z   1
loop_
 _symmetry_equiv_pos_site_id
 _symmetry_equiv_pos_as_xyz
  1  'x, y, z'
loop_
 _atom_site_type_symbol
 _atom_site_label
 _atom_site_symmetry_multiplicity
 _atom_site_fract_x
 _atom_site_fract_y
 _atom_site_fract_z
 _atom_site_occupancy
  Zn  Zn0  1  0.99994015  0.99997008  0.77579176  1
  Zn  Zn1  1  0.66669297  0.33334649  0.37749170  1
  Zn  Zn2  1  0.99975068  0.99987534  0.20308889  1
  Ga  Ga3  1  0.66658159  0.33329080  0.95156952  1
  Ga  Ga4  1  0.33338819  0.66669409  0.57893056  1
  S  S5  1  0.00008987  0.00004494  0.99799874  1
  S  S6  1  0.66665380  0.33332690  0.82471275  1
  S  S7  1  0.00003201  0.00001600  0.65277771  1
  S  S8  1  0.66661368  0.33330684  0.51326489  1
  S  S9  1  0.99994211  0.99997105  0.33833065  1
  S  S10  1  0.66671495  0.33335748  0.16164282  1
