# generated using pymatgen
data_Li7Mn4O12
_symmetry_space_group_name_H-M   'P 1'
_cell_length_a   4.99944477
_cell_length_b   4.99970934
_cell_length_c   9.73975397
_cell_angle_alpha   94.51922468
_cell_angle_beta   94.37889541
_cell_angle_gamma   119.54688512
_symmetry_Int_Tables_number   1
_chemical_formula_structural   Li7Mn4O12
_chemical_formula_sum   'Li7 Mn4 O12'
_cell_volume   209.26250838
_cell_formula_units_Z   1
loop_
 _symmetry_equiv_pos_site_id
 _symmetry_equiv_pos_as_xyz
  1  'x, y, z'
loop_
 _atom_site_type_symbol
 _atom_site_label
 _atom_site_symmetry_multiplicity
 _atom_site_fract_x
 _atom_site_fract_y
 _atom_site_fract_z
 _atom_site_occupancy
  Li  Li0  1  0.00392086  0.50243511  0.99951827  1
  Li  Li1  1  0.82284496  0.63332484  0.49390137  1
  Li  Li2  1  0.50217390  0.00444881  0.49970725  1
  Li  Li3  1  0.37354339  0.18248334  0.00758596  1
  Li  Li4  1  0.68400497  0.87132149  0.00667020  1
  Li  Li5  1  0.14859388  0.33778372  0.49992957  1
  Li  Li6  1  0.25287326  0.74772720  0.75158926  1
  Mn  Mn7  1  0.91944225  0.07807717  0.74996822  1
  Mn  Mn8  1  0.58366285  0.41432376  0.75037919  1
  Mn  Mn9  1  0.41763476  0.58646407  0.25041440  1
  Mn  Mn10  1  0.08313954  0.92061587  0.25074383  1
  O  O11  1  0.85715879  0.35208878  0.63547626  1
  O  O12  1  0.64704343  0.14204303  0.86535647  1
  O  O13  1  0.92643920  0.77907326  0.86130570  1
  O  O14  1  0.71779469  0.59178275  0.13652937  1
  O  O15  1  0.78306109  0.91365517  0.36445496  1
  O  O16  1  0.41127796  0.28686275  0.36471626  1
  O  O17  1  0.57452292  0.71229614  0.63877515  1
  O  O18  1  0.21902863  0.07064993  0.63893744  1
  O  O19  1  0.28362614  0.42117386  0.86130931  1
  O  O20  1  0.09041956  0.21947621  0.13617169  1
  O  O21  1  0.34257175  0.84465588  0.13429039  1
  O  O22  1  0.15911623  0.66210887  0.36682351  1
