# generated using pymatgen
data_Li5Fe8(BO3)8
_symmetry_space_group_name_H-M   'P 1'
_cell_length_a   5.27622340
_cell_length_b   9.08401301
_cell_length_c   11.37150743
_cell_angle_alpha   113.17468788
_cell_angle_beta   77.54342912
_cell_angle_gamma   89.94095371
_symmetry_Int_Tables_number   1
_chemical_formula_structural   Li5Fe8(BO3)8
_chemical_formula_sum   'Li5 Fe8 B8 O24'
_cell_volume   487.00860923
_cell_formula_units_Z   1
loop_
 _symmetry_equiv_pos_site_id
 _symmetry_equiv_pos_as_xyz
  1  'x, y, z'
loop_
 _atom_site_type_symbol
 _atom_site_label
 _atom_site_symmetry_multiplicity
 _atom_site_fract_x
 _atom_site_fract_y
 _atom_site_fract_z
 _atom_site_occupancy
  Li  Li0  1  0.17140311  0.16412084  0.34123207  1
  Li  Li1  1  0.61146568  0.05183312  0.09679133  1
  Li  Li2  1  0.92239836  0.43088994  0.83902823  1
  Li  Li3  1  0.11074039  0.55208364  0.10266359  1
  Li  Li4  1  0.42385164  0.92855446  0.83476654  1
  Fe  Fe5  1  0.40285777  0.27909405  0.86935203  1
  Fe  Fe6  1  0.09145478  0.23075977  0.12013984  1
  Fe  Fe7  1  0.84225914  0.14018993  0.62012380  1
  Fe  Fe8  1  0.65272901  0.35390303  0.37254891  1
  Fe  Fe9  1  0.34796384  0.63933137  0.61664291  1
  Fe  Fe10  1  0.15401913  0.84209005  0.36689796  1
  Fe  Fe11  1  0.90659565  0.77825604  0.87162924  1
  Fe  Fe12  1  0.60629370  0.71844319  0.12199178  1
  B  B13  1  0.63872784  0.01739687  0.37077987  1
  B  B14  1  0.90045380  0.10330379  0.87077342  1
  B  B15  1  0.14998527  0.51547900  0.37105366  1
  B  B16  1  0.40166046  0.60777015  0.87301105  1
  B  B17  1  0.84850787  0.48168516  0.62680309  1
  B  B18  1  0.60750261  0.39037779  0.11615237  1
  B  B19  1  0.34615124  0.97841125  0.62074406  1
  B  B20  1  0.09924183  0.89752600  0.12784820  1
  O  O21  1  0.14177077  0.11766082  0.90228768  1
  O  O22  1  0.47250971  0.11870971  0.65436444  1
  O  O23  1  0.23430423  0.02944403  0.13787983  1
  O  O24  1  0.52222257  0.14617480  0.36471995  1
  O  O25  1  0.88219168  0.02749892  0.40986425  1
  O  O26  1  0.81207570  0.20926720  0.82122092  1
  O  O27  1  0.24749335  0.48977025  0.88710481  1
  O  O28  1  0.05175584  0.36562124  0.33322767  1
  O  O29  1  0.69935518  0.27540279  0.15435002  1
  O  O30  1  0.62458438  0.47945933  0.58287727  1
  O  O31  1  0.94255426  0.34677241  0.63836228  1
  O  O32  1  0.36874311  0.37302114  0.07912832  1
  O  O33  1  0.64175790  0.62010217  0.90648399  1
  O  O34  1  0.36513048  0.53585388  0.42569404  1
  O  O35  1  0.31146727  0.71855722  0.82998198  1
  O  O36  1  0.97795947  0.61971758  0.66304045  1
  O  O37  1  0.75306347  0.51238916  0.11048848  1
  O  O38  1  0.19494604  0.78062065  0.16546184  1
  O  O39  1  0.12616216  0.97226201  0.56806722  1
  O  O40  1  0.43002829  0.85305862  0.64381089  1
  O  O41  1  0.04502335  0.64010446  0.35132926  1
  O  O42  1  0.74318728  0.98965495  0.88998871  1
  O  O43  1  0.52786918  0.87164896  0.33710572  1
  O  O44  1  0.86812722  0.87715425  0.08622803  1
