# generated using pymatgen
data_Li7Sc9Fe(SiO3)20
_symmetry_space_group_name_H-M   'P 1'
_cell_length_a   12.90077012
_cell_length_b   9.04978925
_cell_length_c   11.17835231
_cell_angle_alpha   66.12198204
_cell_angle_beta   75.28565267
_cell_angle_gamma   90.00000000
_symmetry_Int_Tables_number   1
_chemical_formula_structural   Li7Sc9Fe(SiO3)20
_chemical_formula_sum   'Li7 Sc9 Fe1 Si20 O60'
_cell_volume   1146.39947691
_cell_formula_units_Z   1
loop_
 _symmetry_equiv_pos_site_id
 _symmetry_equiv_pos_as_xyz
  1  'x, y, z'
loop_
 _atom_site_type_symbol
 _atom_site_label
 _atom_site_symmetry_multiplicity
 _atom_site_fract_x
 _atom_site_fract_y
 _atom_site_fract_z
 _atom_site_occupancy
  Li  Li0  1  0.05004157  0.69929279  0.09962608  1
  Li  Li1  1  0.15076045  0.09947319  0.29954270  1
  Li  Li2  1  0.25045376  0.49973348  0.50122788  1
  Li  Li3  1  0.45000000  0.30347639  0.90000000  1
  Li  Li4  1  0.64954624  0.10096136  0.29877212  1
  Li  Li5  1  0.74923955  0.49901589  0.50045730  1
  Li  Li6  1  0.84995843  0.89891887  0.70037392  1
  Sc  Sc7  1  0.04961290  0.06316273  0.09440995  1
  Sc  Sc8  1  0.15065046  0.74636358  0.29893915  1
  Sc  Sc9  1  0.25208893  0.85812522  0.50396094  1
  Sc  Sc10  1  0.35063139  0.55016695  0.70298413  1
  Sc  Sc11  1  0.54936861  0.35315209  0.09701587  1
  Sc  Sc12  1  0.64791107  0.46208616  0.29603906  1
  Sc  Sc13  1  0.74934954  0.14530273  0.50106085  1
  Sc  Sc14  1  0.85038710  0.25757268  0.70559005  1
  Sc  Sc15  1  0.95000000  0.94769300  0.90000000  1
  Fe  Fe16  1  0.45000000  0.65888213  0.90000000  1
  Si  Si17  1  0.01844434  0.59966079  0.62805543  1
  Si  Si18  1  0.08282072  0.12946012  0.56993973  1
  Si  Si19  1  0.21766426  0.40039173  0.03034434  1
  Si  Si20  1  0.11568611  0.66907384  0.83015528  1
  Si  Si21  1  0.18628423  0.19624307  0.76974745  1
  Si  Si22  1  0.31784861  0.47718212  0.22464936  1
  Si  Si23  1  0.38405983  0.00087851  0.17128735  1
  Si  Si24  1  0.28556172  0.92454781  0.97094102  1
  Si  Si25  1  0.41964221  0.20305778  0.42533503  1
  Si  Si26  1  0.48035779  0.72839280  0.37466497  1
  Si  Si27  1  0.51594017  0.27216586  0.62871265  1
  Si  Si28  1  0.58215139  0.80183148  0.57535064  1
  Si  Si29  1  0.71371577  0.06599052  0.03025255  1
  Si  Si30  1  0.61443828  0.99548983  0.82905898  1
  Si  Si31  1  0.68233574  0.53073507  0.76965566  1
  Si  Si32  1  0.81717928  0.79940085  0.23006027  1
  Si  Si33  1  0.88155566  0.32771621  0.17194457  1
  Si  Si34  1  0.78431389  0.59922912  0.96984472  1
  Si  Si35  1  0.91836638  0.87431837  0.42794303  1
  Si  Si36  1  0.98163362  0.40226140  0.37205697  1
  O  O37  1  0.02808226  0.59206037  0.31466605  1
  O  O38  1  0.03560881  0.93052076  0.30940871  1
  O  O39  1  0.07044125  0.28703739  0.43523103  1
  O  O40  1  0.16722684  0.86882182  0.08807693  1
  O  O41  1  0.17356907  0.21081803  0.08261529  1
  O  O42  1  0.02686958  0.62515009  0.76269844  1
  O  O43  1  0.12870633  0.99623240  0.51339947  1
  O  O44  1  0.13623266  0.66219173  0.51037993  1
  O  O45  1  0.22509035  0.42229272  0.16735334  1
  O  O46  1  0.07026073  0.12814711  0.88801980  1
  O  O47  1  0.07010239  0.80329788  0.88565313  1
  O  O48  1  0.17246502  0.18179670  0.63209053  1
  O  O49  1  0.26576556  0.94111278  0.28802737  1
  O  O50  1  0.27245236  0.60783658  0.28447471  1
  O  O51  1  0.12887589  0.51381781  0.96586673  1
  O  O52  1  0.37266367  0.97896580  0.03536643  1
  O  O53  1  0.23250475  0.38534793  0.71795646  1
  O  O54  1  0.23146049  0.71959622  0.71158320  1
  O  O55  1  0.33300797  0.31972929  0.35773497  1
  O  O56  1  0.42983131  0.19143816  0.11241241  1
  O  O57  1  0.43256133  0.52591835  0.10352419  1
  O  O58  1  0.27486456  0.08137692  0.83535472  1
  O  O59  1  0.36237857  0.67181626  0.49166072  1
  O  O60  1  0.37599766  0.01635510  0.46875276  1
  O  O61  1  0.47141896  0.88846059  0.24039567  1
  O  O62  1  0.32993052  0.77975410  0.92793606  1
  O  O63  1  0.33579991  0.46244577  0.91326838  1
  O  O64  1  0.42858104  0.22885625  0.55960433  1
  O  O65  1  0.52400234  0.58510786  0.33124724  1
  O  O66  1  0.53762143  0.26347697  0.30833928  1
  O  O67  1  0.46743867  0.72944354  0.69647581  1
  O  O68  1  0.47016869  0.40385057  0.68758759  1
  O  O69  1  0.56699203  0.77746426  0.44226503  1
  O  O70  1  0.66853951  0.53117942  0.08841680  1
  O  O71  1  0.66749525  0.20330439  0.08204354  1
  O  O72  1  0.52733633  0.11433223  0.76463257  1
  O  O73  1  0.62754764  0.99231128  0.51552529  1
  O  O74  1  0.63423444  0.32914115  0.51197263  1
  O  O75  1  0.56420009  0.47571515  0.88673162  1
  O  O76  1  0.72753498  0.91388723  0.16790947  1
  O  O77  1  0.57006948  0.80769016  0.87206394  1
  O  O78  1  0.67490965  0.68964607  0.63264666  1
  O  O79  1  0.76376734  0.27257266  0.28962007  1
  O  O80  1  0.77129367  0.60963187  0.28660053  1
  O  O81  1  0.62513544  0.01673164  0.96464528  1
  O  O82  1  0.87313042  0.48784854  0.03730156  1
  O  O83  1  0.72643093  0.39343432  0.71738471  1
  O  O84  1  0.73277316  0.05689875  0.71192307  1
  O  O85  1  0.82955875  0.82226842  0.36476897  1
  O  O86  1  0.92464480  0.18295851  0.13042363  1
  O  O87  1  0.77112411  0.57968454  0.83413327  1
  O  O88  1  0.93438171  0.85977078  0.11168708  1
  O  O89  1  0.86439119  0.33992947  0.49059129  1
  O  O90  1  0.87191774  0.00672642  0.48533395  1
  O  O91  1  0.96989221  0.37920470  0.23689399  1
  O  O92  1  0.82989761  0.78895101  0.91434687  1
  O  O93  1  0.82973927  0.11616691  0.91198020  1
  O  O94  1  0.93010779  0.71609870  0.56310601  1
  O  O95  1  0.96561829  0.07145887  0.68831292  1
  O  O96  1  0.97535520  0.41338114  0.66957637  1
