# generated using pymatgen
data_LiCoSiO4
_symmetry_space_group_name_H-M   'P 1'
_cell_length_a   8.55431854
_cell_length_b   8.55431855
_cell_length_c   8.55431812
_cell_angle_alpha   107.69632672
_cell_angle_beta   107.69632674
_cell_angle_gamma   107.69633189
_symmetry_Int_Tables_number   1
_chemical_formula_structural   LiCoSiO4
_chemical_formula_sum   'Li6 Co6 Si6 O24'
_cell_volume   511.09136321
_cell_formula_units_Z   6
loop_
 _symmetry_equiv_pos_site_id
 _symmetry_equiv_pos_as_xyz
  1  'x, y, z'
loop_
 _atom_site_type_symbol
 _atom_site_label
 _atom_site_symmetry_multiplicity
 _atom_site_fract_x
 _atom_site_fract_y
 _atom_site_fract_z
 _atom_site_occupancy
  Li  Li0  1  0.12359404  0.89436826  0.72166277  1
  Li  Li1  1  0.20943056  0.43134235  0.60707382  1
  Li  Li2  1  0.43134235  0.60707382  0.20943056  1
  Li  Li3  1  0.89436826  0.72166277  0.12359404  1
  Li  Li4  1  0.60707382  0.20943056  0.43134235  1
  Li  Li5  1  0.72166277  0.12359404  0.89436826  1
  Co  Co6  1  0.05281924  0.45714769  0.23316343  1
  Co  Co7  1  0.53446148  0.76766376  0.94345308  1
  Co  Co8  1  0.76766376  0.94345308  0.53446148  1
  Co  Co9  1  0.23316343  0.05281924  0.45714769  1
  Co  Co10  1  0.45714769  0.23316343  0.05281924  1
  Co  Co11  1  0.94345308  0.53446148  0.76766376  1
  Si  Si12  1  0.28012973  0.87559134  0.09488737  1
  Si  Si13  1  0.38742773  0.79467537  0.56859169  1
  Si  Si14  1  0.09488737  0.28012973  0.87559134  1
  Si  Si15  1  0.56859169  0.38742773  0.79467537  1
  Si  Si16  1  0.79467537  0.56859169  0.38742773  1
  Si  Si17  1  0.87559134  0.09488737  0.28012973  1
  O  O18  1  0.30522170  0.99035038  0.97279071  1
  O  O19  1  0.06542576  0.72644819  0.00543482  1
  O  O20  1  0.26771202  0.91319695  0.58245677  1
  O  O21  1  0.40848272  0.76621966  0.08669630  1
  O  O22  1  0.60208299  0.92938448  0.63704120  1
  O  O23  1  0.29522058  0.63567446  0.35812841  1
  O  O24  1  0.37440350  0.69318329  0.70324417  1
  O  O25  1  0.08669630  0.40848272  0.76621966  1
  O  O26  1  0.02334359  0.30372104  0.34906659  1
  O  O27  1  0.30372104  0.34906659  0.02334359  1
  O  O28  1  0.00543482  0.06542576  0.72644819  1
  O  O29  1  0.69318329  0.70324417  0.37440350  1
  O  O30  1  0.99035038  0.97279071  0.30522170  1
  O  O31  1  0.63704120  0.60208299  0.92938448  1
  O  O32  1  0.35812841  0.29522058  0.63567446  1
  O  O33  1  0.63567446  0.35812841  0.29522058  1
  O  O34  1  0.92938448  0.63704120  0.60208299  1
  O  O35  1  0.58245677  0.26771202  0.91319695  1
  O  O36  1  0.91319695  0.58245677  0.26771202  1
  O  O37  1  0.70324417  0.37440350  0.69318329  1
  O  O38  1  0.34906659  0.02334359  0.30372104  1
  O  O39  1  0.97279071  0.30522170  0.99035038  1
  O  O40  1  0.76621966  0.08669630  0.40848272  1
  O  O41  1  0.72644819  0.00543482  0.06542576  1
