# generated using pymatgen
data_LiCr(SiO3)2
_symmetry_space_group_name_H-M   'P 1'
_cell_length_a   7.33771376
_cell_length_b   7.40705979
_cell_length_c   7.01913447
_cell_angle_alpha   118.16199737
_cell_angle_beta   77.29038571
_cell_angle_gamma   99.07410318
_symmetry_Int_Tables_number   1
_chemical_formula_structural   LiCr(SiO3)2
_chemical_formula_sum   'Li3 Cr3 Si6 O18'
_cell_volume   327.44803677
_cell_formula_units_Z   3
loop_
 _symmetry_equiv_pos_site_id
 _symmetry_equiv_pos_as_xyz
  1  'x, y, z'
loop_
 _atom_site_type_symbol
 _atom_site_label
 _atom_site_symmetry_multiplicity
 _atom_site_fract_x
 _atom_site_fract_y
 _atom_site_fract_z
 _atom_site_occupancy
  Li  Li0  1  0.20308844  0.74421283  0.41055502  1
  Li  Li1  1  0.50000000  0.50000000  0.50000000  1
  Li  Li2  1  0.79691156  0.25578717  0.58944498  1
  Cr  Cr3  1  0.22837450  0.75000115  0.94715296  1
  Cr  Cr4  1  0.50000000  0.50000000  0.00000000  1
  Cr  Cr5  1  0.77162550  0.24999885  0.05284704  1
  Si  Si6  1  0.16122890  0.28346964  0.24384337  1
  Si  Si7  1  0.16482750  0.25354549  0.68627427  1
  Si  Si8  1  0.60576776  0.97500470  0.20407434  1
  Si  Si9  1  0.39423224  0.02499530  0.79592566  1
  Si  Si10  1  0.83517250  0.74645451  0.31372573  1
  Si  Si11  1  0.83877110  0.71653036  0.75615663  1
  O  O12  1  0.04907159  0.75813545  0.20314970  1
  O  O13  1  0.05227635  0.68659037  0.75001961  1
  O  O14  1  0.16357476  0.24208716  0.45111942  1
  O  O15  1  0.23665069  0.06347124  0.02512978  1
  O  O16  1  0.31097915  0.47004110  0.24279989  1
  O  O17  1  0.43436168  0.79796254  0.13903956  1
  O  O18  1  0.29557519  0.45734700  0.82614558  1
  O  O19  1  0.42877619  0.78826307  0.71047183  1
  O  O20  1  0.28179561  0.05271545  0.63186149  1
  O  O21  1  0.71820439  0.94728455  0.36813851  1
  O  O22  1  0.57122381  0.21173693  0.28952817  1
  O  O23  1  0.70442481  0.54265300  0.17385442  1
  O  O24  1  0.56563832  0.20203746  0.86096044  1
  O  O25  1  0.68902085  0.52995890  0.75720011  1
  O  O26  1  0.76334931  0.93652876  0.97487022  1
  O  O27  1  0.83642524  0.75791284  0.54888058  1
  O  O28  1  0.94772365  0.31340963  0.24998039  1
  O  O29  1  0.95092841  0.24186455  0.79685030  1
