# generated using pymatgen
data_Bi
_symmetry_space_group_name_H-M   'P 1'
_cell_length_a   6.34918987
_cell_length_b   6.92919890
_cell_length_c   6.46664923
_cell_angle_alpha   90.00000000
_cell_angle_beta   87.50461471
_cell_angle_gamma   90.00000000
_symmetry_Int_Tables_number   1
_chemical_formula_structural   Bi
_chemical_formula_sum   Bi8
_cell_volume   284.22915470
_cell_formula_units_Z   8
loop_
 _symmetry_equiv_pos_site_id
 _symmetry_equiv_pos_as_xyz
  1  'x, y, z'
loop_
 _atom_site_type_symbol
 _atom_site_label
 _atom_site_symmetry_multiplicity
 _atom_site_fract_x
 _atom_site_fract_y
 _atom_site_fract_z
 _atom_site_occupancy
  Bi  Bi0  1  0.05140099  0.00000000  0.25136782  1
  Bi  Bi1  1  0.05140099  0.50000000  0.25136782  1
  Bi  Bi2  1  0.55140099  -0.00000000  0.25136782  1
  Bi  Bi3  1  0.55140099  0.50000000  0.25136782  1
  Bi  Bi4  1  0.44859901  0.00000000  0.74863218  1
  Bi  Bi5  1  0.44859901  0.50000000  0.74863218  1
  Bi  Bi6  1  0.94859901  0.00000000  0.74863218  1
  Bi  Bi7  1  0.94859901  0.50000000  0.74863218  1
