# generated using pymatgen
data_LiVOF3
_symmetry_space_group_name_H-M   'P 1'
_cell_length_a   6.05911336
_cell_length_b   6.05911336
_cell_length_c   8.43931525
_cell_angle_alpha   90.00000000
_cell_angle_beta   90.00000000
_cell_angle_gamma   90.00000000
_symmetry_Int_Tables_number   1
_chemical_formula_structural   LiVOF3
_chemical_formula_sum   'Li4 V4 O4 F12'
_cell_volume   309.83135462
_cell_formula_units_Z   4
loop_
 _symmetry_equiv_pos_site_id
 _symmetry_equiv_pos_as_xyz
  1  'x, y, z'
loop_
 _atom_site_type_symbol
 _atom_site_label
 _atom_site_symmetry_multiplicity
 _atom_site_fract_x
 _atom_site_fract_y
 _atom_site_fract_z
 _atom_site_occupancy
  Li  Li0  1  0.24705433  0.25216394  0.37586789  1
  Li  Li1  1  0.25216394  0.75294567  0.12586789  1
  Li  Li2  1  0.74783606  0.24705433  0.62586789  1
  Li  Li3  1  0.75294567  0.74783606  0.87586789  1
  V  V4  1  0.00164358  0.26100495  0.01801896  1
  V  V5  1  0.26100495  0.99835642  0.76801896  1
  V  V6  1  0.73899505  0.00164358  0.26801896  1
  V  V7  1  0.99835642  0.73899505  0.51801896  1
  O  O8  1  0.01349061  0.78355334  0.72115880  1
  O  O9  1  0.21644666  0.01349061  0.97115880  1
  O  O10  1  0.78355334  0.98650939  0.47115880  1
  O  O11  1  0.98650939  0.21644666  0.22115880  1
  F  F12  1  0.00758963  0.22609223  0.76871574  1
  F  F13  1  0.21550915  0.53325975  0.46665661  1
  F  F14  1  0.21537514  0.48310291  0.01961200  1
  F  F15  1  0.22609223  0.99241037  0.51871574  1
  F  F16  1  0.46674025  0.21550915  0.71665661  1
  F  F17  1  0.48310291  0.78462486  0.76961200  1
  F  F18  1  0.51689709  0.21537514  0.26961200  1
  F  F19  1  0.53325975  0.78449085  0.21665661  1
  F  F20  1  0.77390777  0.00758963  0.01871574  1
  F  F21  1  0.78462486  0.51689709  0.51961200  1
  F  F22  1  0.78449085  0.46674025  0.96665661  1
  F  F23  1  0.99241037  0.77390777  0.26871574  1
