# generated using pymatgen
data_Mn6O11F
_symmetry_space_group_name_H-M   'P 1'
_cell_length_a   10.16936141
_cell_length_b   6.31942870
_cell_length_c   2.96680099
_cell_angle_alpha   90.00000000
_cell_angle_beta   90.00000000
_cell_angle_gamma   108.09793937
_symmetry_Int_Tables_number   1
_chemical_formula_structural   Mn6O11F
_chemical_formula_sum   'Mn6 O11 F1'
_cell_volume   181.22759601
_cell_formula_units_Z   1
loop_
 _symmetry_equiv_pos_site_id
 _symmetry_equiv_pos_as_xyz
  1  'x, y, z'
loop_
 _atom_site_type_symbol
 _atom_site_label
 _atom_site_symmetry_multiplicity
 _atom_site_fract_x
 _atom_site_fract_y
 _atom_site_fract_z
 _atom_site_occupancy
  Mn  Mn0  1  0.01472054  0.00733726  0.00000000  1
  Mn  Mn1  1  0.33995141  0.16997280  0.50000000  1
  Mn  Mn2  1  0.00014430  0.50005975  0.50000000  1
  Mn  Mn3  1  0.66706267  0.33352496  0.00000000  1
  Mn  Mn4  1  0.32913734  0.66461205  0.00000000  1
  Mn  Mn5  1  0.65204215  0.82603061  0.50000000  1
  O  O6  1  0.13602250  0.06807060  0.50000000  1
  O  O7  1  0.99727411  0.30167420  0.00000000  1
  O  O8  1  0.33354918  0.36130558  0.00000000  1
  O  O9  1  0.99731145  0.69559441  0.00000000  1
  O  O10  1  0.66800787  0.02706390  0.00000000  1
  O  O11  1  0.53900721  0.26951898  0.50000000  1
  O  O12  1  0.20111369  0.60051102  0.50000000  1
  O  O13  1  0.45858955  0.72926587  0.50000000  1
  O  O14  1  0.79605478  0.39812279  0.50000000  1
  O  O15  1  0.66799428  0.64097003  0.00000000  1
  O  O16  1  0.33357858  0.97226248  0.00000000  1
  F  F17  1  0.86843740  0.93410268  0.50000000  1
