# generated using pymatgen
data_W2OF8
_symmetry_space_group_name_H-M   'P 1'
_cell_length_a   9.23492042
_cell_length_b   5.50792134
_cell_length_c   15.97726866
_cell_angle_alpha   90.00000000
_cell_angle_beta   105.65947948
_cell_angle_gamma   90.00000000
_symmetry_Int_Tables_number   1
_chemical_formula_structural   W2OF8
_chemical_formula_sum   'W8 O4 F32'
_cell_volume   782.52260009
_cell_formula_units_Z   4
loop_
 _symmetry_equiv_pos_site_id
 _symmetry_equiv_pos_as_xyz
  1  'x, y, z'
loop_
 _atom_site_type_symbol
 _atom_site_label
 _atom_site_symmetry_multiplicity
 _atom_site_fract_x
 _atom_site_fract_y
 _atom_site_fract_z
 _atom_site_occupancy
  W  W0  1  0.11196780  0.19144243  0.87612454  1
  W  W1  1  0.11196780  0.80855757  0.37612454  1
  W  W2  1  0.47946362  0.92208936  0.84310617  1
  W  W3  1  0.52053638  0.92208936  0.65689383  1
  W  W4  1  0.47946362  0.07791064  0.34310617  1
  W  W5  1  0.52053638  0.07791064  0.15689383  1
  W  W6  1  0.88803220  0.19144243  0.62387546  1
  W  W7  1  0.88803220  0.80855757  0.12387546  1
  O  O8  1  0.28911773  0.06716148  0.86758960  1
  O  O9  1  0.28911773  0.93283852  0.36758960  1
  O  O10  1  0.71088227  0.06716148  0.63241040  1
  O  O11  1  0.71088227  0.93283852  0.13241040  1
  F  F12  1  0.00000000  0.06997804  0.75000000  1
  F  F13  1  0.05034546  0.89009947  0.91128326  1
  F  F14  1  0.18708384  0.32856328  0.98567469  1
  F  F15  1  0.13242642  0.47482722  0.81375463  1
  F  F16  1  0.08376345  0.30189267  0.62338779  1
  F  F17  1  0.00000000  0.93002196  0.25000000  1
  F  F18  1  0.05034546  0.10990053  0.41128326  1
  F  F19  1  0.18708384  0.67143672  0.48567469  1
  F  F20  1  0.13242642  0.52517278  0.31375463  1
  F  F21  1  0.08376345  0.69810733  0.12338779  1
  F  F22  1  0.35377212  0.80003215  0.71970305  1
  F  F23  1  0.45894961  0.61977070  0.89759478  1
  F  F24  1  0.38766102  0.09771888  0.56357715  1
  F  F25  1  0.50000000  0.18685706  0.75000000  1
  F  F26  1  0.35377212  0.19996785  0.21970305  1
  F  F27  1  0.61233898  0.09771888  0.93642285  1
  F  F28  1  0.45894961  0.38022930  0.39759478  1
  F  F29  1  0.54105039  0.61977070  0.60240522  1
  F  F30  1  0.38766102  0.90228112  0.06357715  1
  F  F31  1  0.64622788  0.80003215  0.78029695  1
  F  F32  1  0.50000000  0.81314294  0.25000000  1
  F  F33  1  0.61233898  0.90228112  0.43642285  1
  F  F34  1  0.54105039  0.38022930  0.10240522  1
  F  F35  1  0.64622788  0.19996785  0.28029695  1
  F  F36  1  0.91623655  0.30189267  0.87661221  1
  F  F37  1  0.86757358  0.47482722  0.68624537  1
  F  F38  1  0.81291616  0.32856328  0.51432531  1
  F  F39  1  0.94965454  0.89009947  0.58871674  1
  F  F40  1  0.91623655  0.69810733  0.37661221  1
  F  F41  1  0.86757358  0.52517278  0.18624537  1
  F  F42  1  0.81291616  0.67143672  0.01432531  1
  F  F43  1  0.94965454  0.10990053  0.08871674  1
