# generated using pymatgen
data_Li4Ni3O3F4
_symmetry_space_group_name_H-M   'P 1'
_cell_length_a   2.94239434
_cell_length_b   2.94239434
_cell_length_c   14.67827869
_cell_angle_alpha   95.75238875
_cell_angle_beta   95.75238875
_cell_angle_gamma   90.00000000
_symmetry_Int_Tables_number   1
_chemical_formula_structural   Li4Ni3O3F4
_chemical_formula_sum   'Li4 Ni3 O3 F4'
_cell_volume   125.79678753
_cell_formula_units_Z   1
loop_
 _symmetry_equiv_pos_site_id
 _symmetry_equiv_pos_as_xyz
  1  'x, y, z'
loop_
 _atom_site_type_symbol
 _atom_site_label
 _atom_site_symmetry_multiplicity
 _atom_site_fract_x
 _atom_site_fract_y
 _atom_site_fract_z
 _atom_site_occupancy
  Li  Li0  1  0.49792082  0.49792082  0.99584163  1
  Li  Li1  1  0.78779318  0.78779318  0.57558637  1
  Li  Li2  1  0.35868648  0.35868648  0.71737397  1
  Li  Li3  1  0.92702752  0.92702752  0.85405503  1
  Ni  Ni4  1  0.07070465  0.07070465  0.14140830  1
  Ni  Ni5  1  0.64285700  0.64285700  0.28571400  1
  Ni  Ni6  1  0.21501035  0.21501035  0.43001970  1
  O  O7  1  0.56962850  0.56962850  0.13925599  1
  O  O8  1  0.14285700  0.14285700  0.28571400  1
  O  O9  1  0.71608650  0.71608650  0.43217201  1
  F  F10  1  0.99611749  0.99611749  0.99223499  1
  F  F11  1  0.28959651  0.28959651  0.57919301  1
  F  F12  1  0.85822450  0.85822450  0.71644900  1
  F  F13  1  0.42748950  0.42748950  0.85498000  1
