# generated using pymatgen
data_Li2Mn2F7
_symmetry_space_group_name_H-M   'P 1'
_cell_length_a   8.45638634
_cell_length_b   6.85647380
_cell_length_c   5.48469724
_cell_angle_alpha   85.56657515
_cell_angle_beta   103.58098458
_cell_angle_gamma   109.28429348
_symmetry_Int_Tables_number   1
_chemical_formula_structural   Li2Mn2F7
_chemical_formula_sum   'Li4 Mn4 F14'
_cell_volume   291.77229273
_cell_formula_units_Z   2
loop_
 _symmetry_equiv_pos_site_id
 _symmetry_equiv_pos_as_xyz
  1  'x, y, z'
loop_
 _atom_site_type_symbol
 _atom_site_label
 _atom_site_symmetry_multiplicity
 _atom_site_fract_x
 _atom_site_fract_y
 _atom_site_fract_z
 _atom_site_occupancy
  Li  Li0  1  0.09354336  0.74870208  0.32488579  1
  Li  Li1  1  0.26909063  0.99475540  0.86905985  1
  Li  Li2  1  0.73090937  0.00524460  0.13094015  1
  Li  Li3  1  0.90645664  0.25129792  0.67511421  1
  Mn  Mn4  1  0.17436344  0.27186289  0.28174854  1
  Mn  Mn5  1  0.33346749  0.52573496  0.80192280  1
  Mn  Mn6  1  0.66653251  0.47426504  0.19807720  1
  Mn  Mn7  1  0.82563656  0.72813711  0.71825146  1
  F  F8  1  0.04873030  0.82558137  0.63883052  1
  F  F9  1  0.10531091  0.39072998  0.91265167  1
  F  F10  1  0.21219633  0.54992760  0.42398485  1
  F  F11  1  0.38057715  0.80328426  0.91891508  1
  F  F12  1  0.29956761  0.24156120  0.66885614  1
  F  F13  1  0.17444049  0.01145739  0.16558701  1
  F  F14  1  0.40504476  0.39630392  0.19434812  1
  F  F15  1  0.59495524  0.60369608  0.80565188  1
  F  F16  1  0.82555951  0.98854261  0.83441299  1
  F  F17  1  0.70043239  0.75843880  0.33114386  1
  F  F18  1  0.61942285  0.19671574  0.08108492  1
  F  F19  1  0.78780367  0.45007240  0.57601515  1
  F  F20  1  0.89468909  0.60927002  0.08734833  1
  F  F21  1  0.95126970  0.17441863  0.36116948  1
