# generated using pymatgen
data_LiNiOF
_symmetry_space_group_name_H-M   'P 1'
_cell_length_a   2.95617030
_cell_length_b   2.95617030
_cell_length_c   16.66515472
_cell_angle_alpha   90.00000000
_cell_angle_beta   90.00000000
_cell_angle_gamma   90.00067200
_symmetry_Int_Tables_number   1
_chemical_formula_structural   LiNiOF
_chemical_formula_sum   'Li4 Ni4 O4 F4'
_cell_volume   145.63583493
_cell_formula_units_Z   4
loop_
 _symmetry_equiv_pos_site_id
 _symmetry_equiv_pos_as_xyz
  1  'x, y, z'
loop_
 _atom_site_type_symbol
 _atom_site_label
 _atom_site_symmetry_multiplicity
 _atom_site_fract_x
 _atom_site_fract_y
 _atom_site_fract_z
 _atom_site_occupancy
  Li  Li0  1  0.50000000  0.50000000  0.50296770  1
  Li  Li1  1  0.00000000  0.00000000  0.62738568  1
  Li  Li2  1  0.50000000  0.50000000  0.74761432  1
  Li  Li3  1  0.00000000  0.00000000  0.87203230  1
  Ni  Ni4  1  0.50000000  0.50000000  0.99798797  1
  Ni  Ni5  1  0.00000000  0.00000000  0.12303115  1
  Ni  Ni6  1  0.50000000  0.50000000  0.25196885  1
  Ni  Ni7  1  0.00000000  0.00000000  0.37701203  1
  O  O8  1  0.00000000  0.00000000  0.99612410  1
  O  O9  1  0.50000000  0.50000000  0.12391331  1
  O  O10  1  0.00000000  0.00000000  0.25108569  1
  O  O11  1  0.50000000  0.50000000  0.37887590  1
  F  F12  1  0.00000000  0.00000000  0.50664402  1
  F  F13  1  0.50000000  0.50000000  0.62650990  1
  F  F14  1  0.00000000  0.00000000  0.74849010  1
  F  F15  1  0.50000000  0.50000000  0.86835598  1
