# generated using pymatgen
data_LiV2F7
_symmetry_space_group_name_H-M   'P 1'
_cell_length_a   7.12570188
_cell_length_b   7.46947673
_cell_length_c   7.46947673
_cell_angle_alpha   60.61031416
_cell_angle_beta   61.51113085
_cell_angle_gamma   61.51113088
_symmetry_Int_Tables_number   1
_chemical_formula_structural   LiV2F7
_chemical_formula_sum   'Li2 V4 F14'
_cell_volume   288.73158556
_cell_formula_units_Z   2
loop_
 _symmetry_equiv_pos_site_id
 _symmetry_equiv_pos_as_xyz
  1  'x, y, z'
loop_
 _atom_site_type_symbol
 _atom_site_label
 _atom_site_symmetry_multiplicity
 _atom_site_fract_x
 _atom_site_fract_y
 _atom_site_fract_z
 _atom_site_occupancy
  Li  Li0  1  0.50000000  0.50000000  0.50000000  1
  Li  Li1  1  0.00000000  0.00000000  0.00000000  1
  V  V2  1  0.50000000  0.50000000  0.00000000  1
  V  V3  1  0.50000000  0.00000000  0.50000000  1
  V  V4  1  0.50000000  0.00000000  0.00000000  1
  V  V5  1  0.00000000  0.50000000  0.50000000  1
  F  F6  1  0.80540679  0.95011521  0.95011521  1
  F  F7  1  0.81516148  0.42357799  0.81862718  1
  F  F8  1  0.81516148  0.81862718  0.42357799  1
  F  F9  1  0.79436178  0.45011521  0.45011521  1
  F  F10  1  0.40546446  0.75000000  0.75000000  1
  F  F11  1  0.44263235  0.92357799  0.31862718  1
  F  F12  1  0.44263235  0.31862718  0.92357799  1
  F  F13  1  0.55736765  0.68137282  0.07642201  1
  F  F14  1  0.55736765  0.07642201  0.68137282  1
  F  F15  1  0.59453654  0.25000000  0.25000000  1
  F  F16  1  0.20563822  0.54988479  0.54988479  1
  F  F17  1  0.18483852  0.18137282  0.57642201  1
  F  F18  1  0.18483852  0.57642201  0.18137282  1
  F  F19  1  0.19459321  0.04988479  0.04988479  1
