# generated using pymatgen
data_Li4V3P8O29
_symmetry_space_group_name_H-M   'P 1'
_cell_length_a   9.74317326
_cell_length_b   9.74243379
_cell_length_c   14.28338443
_cell_angle_alpha   90.13270043
_cell_angle_beta   90.12006133
_cell_angle_gamma   60.08716871
_symmetry_Int_Tables_number   1
_chemical_formula_structural   Li4V3P8O29
_chemical_formula_sum   'Li8 V6 P16 O58'
_cell_volume   1175.19254209
_cell_formula_units_Z   2
loop_
 _symmetry_equiv_pos_site_id
 _symmetry_equiv_pos_as_xyz
  1  'x, y, z'
loop_
 _atom_site_type_symbol
 _atom_site_label
 _atom_site_symmetry_multiplicity
 _atom_site_fract_x
 _atom_site_fract_y
 _atom_site_fract_z
 _atom_site_occupancy
  Li  Li0  1  0.90529220  0.76391509  0.06001109  1
  Li  Li1  1  0.76404206  0.90526195  0.55996291  1
  Li  Li2  1  0.90238530  0.33590056  0.55696697  1
  Li  Li3  1  0.76419211  0.33261370  0.05861916  1
  Li  Li4  1  0.33600149  0.90247495  0.05682120  1
  Li  Li5  1  0.33254436  0.76426091  0.55861186  1
  Li  Li6  1  0.01135260  0.99897859  0.99372477  1
  Li  Li7  1  0.99924413  0.01144330  0.49373698  1
  V  V8  1  0.56332769  0.43602074  0.25143899  1
  V  V9  1  0.43606338  0.56340336  0.75139825  1
  V  V10  1  0.56399776  -0.00007032  0.74839812  1
  V  V11  1  0.43693567  0.00162279  0.25036049  1
  V  V12  1  -0.00000825  0.56384315  0.24833632  1
  V  V13  1  0.00171197  0.43684522  0.75027779  1
  P  P14  1  0.91235318  0.77660410  0.84298550  1
  P  P15  1  0.77669120  0.91238796  0.34296612  1
  P  P16  1  0.91384377  0.31023552  0.34391115  1
  P  P17  1  0.66294055  0.66812185  0.13078676  1
  P  P18  1  0.66814864  0.66294570  0.63077249  1
  P  P19  1  0.77669774  0.31144217  0.84308608  1
  P  P20  1  0.69523226  0.22109826  0.66147757  1
  P  P21  1  0.31018110  0.91390488  0.84390749  1
  P  P22  1  0.69711271  0.08442463  0.16164623  1
  P  P23  1  0.31129045  0.77679265  0.34308766  1
  P  P24  1  0.22106508  0.69522280  0.16145380  1
  P  P25  1  0.33396578  0.33420165  0.36550104  1
  P  P26  1  0.33423127  0.33400563  0.86543423  1
  P  P27  1  0.08442552  0.69716478  0.66164511  1
  P  P28  1  0.21923022  0.08389483  0.66267195  1
  P  P29  1  0.08392734  0.21904859  0.16265565  1
  O  O30  1  0.99065588  0.80323298  0.58307106  1
  O  O31  1  0.91267643  0.74200350  0.32612072  1
  O  O32  1  0.80325274  0.99063496  0.08308157  1
  O  O33  1  0.74202585  0.91271033  0.82619413  1
  O  O34  1  0.91313703  0.61760287  0.82629253  1
  O  O35  1  0.81079205  0.67547794  0.16533858  1
  O  O36  1  0.91519125  0.46492584  0.33153248  1
  O  O37  1  0.99106239  0.20362312  0.08429200  1
  O  O38  1  0.91487026  0.34540010  0.82709569  1
  O  O39  1  0.67560056  0.81071380  0.66547449  1
  O  O40  1  0.61767944  0.91317123  0.32632179  1
  O  O41  1  0.81644737  0.51136104  0.67284004  1
  O  O42  1  0.64981889  0.66561984  0.02674327  1
  O  O43  1  0.66550672  0.65015825  0.52671534  1
  O  O44  1  0.67044367  0.51638598  0.17552734  1
  O  O45  1  0.46486699  0.91533292  0.83162056  1
  O  O46  1  0.51147605  0.81639378  0.17299172  1
  O  O47  1  0.74226438  0.34084275  0.32495441  1
  O  O48  1  0.78958143  0.19530302  0.76024957  1
  O  O49  1  0.80023716  0.21335065  0.58353542  1
  O  O50  1  0.79311114  0.23303982  0.93507397  1
  O  O51  1  0.61729654  0.46842558  0.82842368  1
  O  O52  1  0.51636219  0.67054614  0.67551725  1
  O  O53  1  0.65636757  0.26024719  0.15878968  1
  O  O54  1  0.46834218  0.61734724  0.32839050  1
  O  O55  1  0.34532527  0.91492381  0.32717015  1
  O  O56  1  0.78890167  0.01756383  0.26042822  1
  O  O57  1  0.78836002  0.97727838  0.43505359  1
  O  O58  1  0.20380829  0.99117531  0.58422307  1
  O  O59  1  0.65934723  0.08363623  0.65818799  1
  O  O60  1  0.53937345  0.38187214  0.67293245  1
  O  O61  1  0.34082474  0.74229829  0.82499207  1
  O  O62  1  0.48257065  0.33307984  0.31773481  1
  O  O63  1  0.38174896  0.53924450  0.17303168  1
  O  O64  1  0.21354141  0.80005720  0.08351461  1
  O  O65  1  0.23291832  0.79316277  0.43507044  1
  O  O66  1  0.19524946  0.78962787  0.26024428  1
  O  O67  1  0.26015282  0.65654355  0.65881268  1
  O  O68  1  0.47810208  0.18995599  0.82198804  1
  O  O69  1  0.54225607  0.07636862  0.17138352  1
  O  O70  1  0.33321022  0.48259578  0.81772633  1
  O  O71  1  0.32060322  0.34824703  0.96802126  1
  O  O72  1  0.34839568  0.32050598  0.46808819  1
  O  O73  1  0.18979024  0.47798608  0.32218928  1
  O  O74  1  0.38173848  0.07494977  0.67115060  1
  O  O75  1  0.33783532  0.18393062  0.31744400  1
  O  O76  1  0.08359404  0.65938962  0.15817513  1
  O  O77  1  0.01747826  0.78887824  0.76044656  1
  O  O78  1  0.97725772  0.78825552  0.93505113  1
  O  O79  1  0.07632903  0.54228696  0.67137480  1
  O  O80  1  0.18398954  0.33780678  0.81740734  1
  O  O81  1  0.07498007  0.38163557  0.17104952  1
  O  O82  1  0.26052446  0.08464698  0.15971819  1
  O  O83  1  0.22601709  0.97300071  0.93491691  1
  O  O84  1  0.19149574  0.01896853  0.76115158  1
  O  O85  1  0.08481162  0.26052567  0.65973536  1
  O  O86  1  0.97279419  0.22623387  0.43494859  1
  O  O87  1  0.01897122  0.19151611  0.26117211  1
