# generated using pymatgen
data_Sr5(IrO3)6
_symmetry_space_group_name_H-M   'P 1'
_cell_length_a   8.14657297
_cell_length_b   8.14656543
_cell_length_c   8.14653231
_cell_angle_alpha   109.50054033
_cell_angle_beta   109.45055113
_cell_angle_gamma   109.46253469
_symmetry_Int_Tables_number   1
_chemical_formula_structural   Sr5(IrO3)6
_chemical_formula_sum   'Sr5 Ir6 O18'
_cell_volume   416.19850828
_cell_formula_units_Z   1
loop_
 _symmetry_equiv_pos_site_id
 _symmetry_equiv_pos_as_xyz
  1  'x, y, z'
loop_
 _atom_site_type_symbol
 _atom_site_label
 _atom_site_symmetry_multiplicity
 _atom_site_fract_x
 _atom_site_fract_y
 _atom_site_fract_z
 _atom_site_occupancy
  Sr  Sr0  1  0.50002630  0.00001941  0.00005380  1
  Sr  Sr1  1  0.99998972  0.99999092  0.00000008  1
  Sr  Sr2  1  0.99994145  0.49996111  0.99993023  1
  Sr  Sr3  1  0.50002484  0.49996059  0.50002272  1
  Sr  Sr4  1  0.99996948  0.00003061  0.49999814  1
  Ir  Ir5  1  0.84470606  0.50003765  0.34467166  1
  Ir  Ir6  1  0.65544408  0.15543742  0.49999399  1
  Ir  Ir7  1  0.49998751  0.65538042  0.15539791  1
  Ir  Ir8  1  0.49998760  0.34459279  0.84461062  1
  Ir  Ir9  1  0.15536368  0.50003719  0.65532998  1
  Ir  Ir10  1  0.34454536  0.84454033  0.49999376  1
  O  O11  1  0.71135403  0.33495851  0.04630946  1
  O  O12  1  0.62359400  0.28875440  0.33484054  1
  O  O13  1  0.34786609  0.99993155  0.34793208  1
  O  O14  1  0.65200127  0.99993151  0.65206752  1
  O  O15  1  0.95390975  0.28874543  0.66516362  1
  O  O16  1  0.34797339  0.34798410  0.00001279  1
  O  O17  1  0.65204931  0.65205946  0.00001128  1
  O  O18  1  0.71133825  0.66503935  0.37637358  1
  O  O19  1  0.66521547  0.37664536  0.71143054  1
  O  O20  1  0.33480043  0.04612292  0.71132242  1
  O  O21  1  0.33481115  0.62348666  0.28867116  1
  O  O22  1  0.66520329  0.95376841  0.28856357  1
  O  O23  1  0.28865122  0.33495299  0.62359935  1
  O  O24  1  0.00000246  0.34801813  0.34800305  1
  O  O25  1  0.04620308  0.71128261  0.33492113  1
  O  O26  1  0.37637216  0.71128832  0.66508326  1
  O  O27  1  0.00000177  0.65199616  0.65198092  1
  O  O28  1  0.28866681  0.66504569  0.95371083  1
