# generated using pymatgen
data_Ba2CaI6
_symmetry_space_group_name_H-M   'P 1'
_cell_length_a   23.73917009
_cell_length_b   9.44043885
_cell_length_c   8.29486944
_cell_angle_alpha   90.00000000
_cell_angle_beta   90.00000000
_cell_angle_gamma   90.00000000
_symmetry_Int_Tables_number   1
_chemical_formula_structural   Ba2CaI6
_chemical_formula_sum   'Ba8 Ca4 I24'
_cell_volume   1858.94812327
_cell_formula_units_Z   4
loop_
 _symmetry_equiv_pos_site_id
 _symmetry_equiv_pos_as_xyz
  1  'x, y, z'
loop_
 _atom_site_type_symbol
 _atom_site_label
 _atom_site_symmetry_multiplicity
 _atom_site_fract_x
 _atom_site_fract_y
 _atom_site_fract_z
 _atom_site_occupancy
  Ba  Ba0  1  0.15866236  0.33425260  0.26738467  1
  Ba  Ba1  1  0.15866236  0.66574740  0.76738467  1
  Ba  Ba2  1  0.34133764  0.16574740  0.76738467  1
  Ba  Ba3  1  0.34133764  0.83425260  0.26738467  1
  Ba  Ba4  1  0.65866236  0.16574740  0.73261533  1
  Ba  Ba5  1  0.65866236  0.83425260  0.23261533  1
  Ba  Ba6  1  0.84133764  0.33425260  0.23261533  1
  Ba  Ba7  1  0.84133764  0.66574740  0.73261533  1
  Ca  Ca8  1  0.00000000  0.14871346  0.75000000  1
  Ca  Ca9  1  0.00000000  0.85128654  0.25000000  1
  Ca  Ca10  1  0.50000000  0.35128654  0.25000000  1
  Ca  Ca11  1  0.50000000  0.64871346  0.75000000  1
  I  I12  1  0.07590515  0.92058801  0.94877927  1
  I  I13  1  0.07590515  0.07941199  0.44877927  1
  I  I14  1  0.07638560  0.38302608  0.92060742  1
  I  I15  1  0.07638560  0.61697392  0.42060742  1
  I  I16  1  0.23882396  0.60974402  0.11277834  1
  I  I17  1  0.23882396  0.39025598  0.61277834  1
  I  I18  1  0.26117604  0.10974402  0.11277834  1
  I  I19  1  0.26117604  0.89025598  0.61277834  1
  I  I20  1  0.42361440  0.11697392  0.42060742  1
  I  I21  1  0.42361440  0.88302608  0.92060742  1
  I  I22  1  0.42409485  0.42058801  0.94877927  1
  I  I23  1  0.42409485  0.57941199  0.44877927  1
  I  I24  1  0.57590515  0.42058801  0.55122073  1
  I  I25  1  0.57590515  0.57941199  0.05122073  1
  I  I26  1  0.57638560  0.11697392  0.07939258  1
  I  I27  1  0.57638560  0.88302608  0.57939258  1
  I  I28  1  0.73882396  0.10974402  0.38722166  1
  I  I29  1  0.73882396  0.89025598  0.88722166  1
  I  I30  1  0.76117604  0.39025598  0.88722166  1
  I  I31  1  0.76117604  0.60974402  0.38722166  1
  I  I32  1  0.92361440  0.38302608  0.57939258  1
  I  I33  1  0.92361440  0.61697392  0.07939258  1
  I  I34  1  0.92409485  0.07941199  0.05122073  1
  I  I35  1  0.92409485  0.92058801  0.55122073  1
