# generated using pymatgen
data_Li4Mn3O6F
_symmetry_space_group_name_H-M   'P 1'
_cell_length_a   6.47722094
_cell_length_b   4.37182165
_cell_length_c   5.14940656
_cell_angle_alpha   64.88112530
_cell_angle_beta   96.84284471
_cell_angle_gamma   90.00000000
_symmetry_Int_Tables_number   1
_chemical_formula_structural   Li4Mn3O6F
_chemical_formula_sum   'Li4 Mn3 O6 F1'
_cell_volume   130.87889636
_cell_formula_units_Z   1
loop_
 _symmetry_equiv_pos_site_id
 _symmetry_equiv_pos_as_xyz
  1  'x, y, z'
loop_
 _atom_site_type_symbol
 _atom_site_label
 _atom_site_symmetry_multiplicity
 _atom_site_fract_x
 _atom_site_fract_y
 _atom_site_fract_z
 _atom_site_occupancy
  Li  Li0  1  0.14033483  0.28059988  0.43880025  1
  Li  Li1  1  0.28914648  0.57664006  0.84672088  1
  Li  Li2  1  0.56799652  0.13764594  0.72470812  1
  Li  Li3  1  0.71680817  0.43368512  0.13262875  1
  Mn  Mn4  1  0.00049142  0.00193557  0.99612887  1
  Mn  Mn5  1  0.42857100  0.85714300  0.28571400  1
  Mn  Mn6  1  0.85665158  0.71235043  0.57530013  1
  O  O7  1  0.28541138  0.05661385  0.88677329  1
  O  O8  1  0.13353579  0.79763061  0.40473779  1
  O  O9  1  0.99033253  0.51413924  0.97172152  1
  O  O10  1  0.57173162  0.65767215  0.68465571  1
  O  O11  1  0.86681047  0.20014676  0.59970648  1
  O  O12  1  0.72360721  0.91665439  0.16669021  1
  F  F13  1  0.42857100  0.35714300  0.28571400  1
