# generated using pymatgen
data_LiFeSi3O8
_symmetry_space_group_name_H-M   'P 1'
_cell_length_a   7.82257767
_cell_length_b   13.04974899
_cell_length_c   7.43968486
_cell_angle_alpha   90.00000000
_cell_angle_beta   63.40407943
_cell_angle_gamma   90.00000000
_symmetry_Int_Tables_number   1
_chemical_formula_structural   LiFeSi3O8
_chemical_formula_sum   'Li4 Fe4 Si12 O32'
_cell_volume   679.10120834
_cell_formula_units_Z   4
loop_
 _symmetry_equiv_pos_site_id
 _symmetry_equiv_pos_as_xyz
  1  'x, y, z'
loop_
 _atom_site_type_symbol
 _atom_site_label
 _atom_site_symmetry_multiplicity
 _atom_site_fract_x
 _atom_site_fract_y
 _atom_site_fract_z
 _atom_site_occupancy
  Li  Li0  1  0.26489098  0.05233046  0.88542695  1
  Li  Li1  1  0.23510902  0.55233046  0.61457305  1
  Li  Li2  1  0.76489098  0.44766954  0.38542695  1
  Li  Li3  1  0.73510902  0.94766954  0.11457305  1
  Fe  Fe4  1  0.97602916  0.17415185  0.20234103  1
  Fe  Fe5  1  0.47602916  0.32584815  0.70234103  1
  Fe  Fe6  1  0.52397084  0.67415185  0.29765897  1
  Fe  Fe7  1  0.02396984  0.82584815  0.79765897  1
  Si  Si8  1  0.01236228  0.83837556  0.24406582  1
  Si  Si9  1  0.34750041  0.89633402  0.35444882  1
  Si  Si10  1  0.32453979  0.11956045  0.31824699  1
  Si  Si11  1  0.51236228  0.66162444  0.74406582  1
  Si  Si12  1  0.15249959  0.39633402  0.14555118  1
  Si  Si13  1  0.17546021  0.61956045  0.18175301  1
  Si  Si14  1  0.82453979  0.38043955  0.81824699  1
  Si  Si15  1  0.84750041  0.60366598  0.85444882  1
  Si  Si16  1  0.48763772  0.33837556  0.25593418  1
  Si  Si17  1  0.65249959  0.10366598  0.64555118  1
  Si  Si18  1  0.67546021  0.88043955  0.68175301  1
  Si  Si19  1  0.98763772  0.16162444  0.75593418  1
  O  O20  1  0.26594732  0.38932315  0.90393839  1
  O  O21  1  0.31931985  0.62570135  0.94141653  1
  O  O22  1  0.18068015  0.12570135  0.55858347  1
  O  O23  1  0.23405268  0.88932315  0.59606161  1
  O  O24  1  0.02117013  0.71283213  0.24363035  1
  O  O25  1  0.97142446  0.31791786  0.24170230  1
  O  O26  1  0.00437586  0.11808409  0.95207393  1
  O  O27  1  0.99562414  0.88191591  0.04792607  1
  O  O28  1  0.20314462  0.88436607  0.25055285  1
  O  O29  1  0.20816317  0.11933162  0.18423622  1
  O  O30  1  0.05085383  0.51158501  0.21966395  1
  O  O31  1  0.44914617  0.01158501  0.28033605  1
  O  O32  1  0.47142446  0.18208214  0.74170230  1
  O  O33  1  0.52117013  0.78716787  0.74363035  1
  O  O34  1  0.29183683  0.61933162  0.31576378  1
  O  O35  1  0.29685538  0.38436607  0.24944715  1
  O  O36  1  0.49562414  0.61808409  0.54792607  1
  O  O37  1  0.50437586  0.38191591  0.45207393  1
  O  O38  1  0.70816317  0.38066838  0.68423622  1
  O  O39  1  0.70314462  0.61563393  0.75055285  1
  O  O40  1  0.47882987  0.21283213  0.25636965  1
  O  O41  1  0.52857554  0.81791786  0.25829770  1
  O  O42  1  0.55085383  0.98841499  0.71966395  1
  O  O43  1  0.94914617  0.48841499  0.78033605  1
  O  O44  1  0.79685538  0.11563393  0.74944715  1
  O  O45  1  0.79183683  0.88066838  0.81576378  1
  O  O46  1  0.97882987  0.28716787  0.75636965  1
  O  O47  1  0.02857554  0.68208214  0.75829770  1
  O  O48  1  0.76594732  0.11067685  0.40393839  1
  O  O49  1  0.81931985  0.87429865  0.44141653  1
  O  O50  1  0.68068015  0.37429865  0.05858347  1
  O  O51  1  0.73405268  0.61067685  0.09606161  1
