# generated using pymatgen
data_La6Cu6O17
_symmetry_space_group_name_H-M   'P 1'
_cell_length_a   6.75233011
_cell_length_b   6.76437491
_cell_length_c   10.46943997
_cell_angle_alpha   89.90195533
_cell_angle_beta   90.03426129
_cell_angle_gamma   120.05958252
_symmetry_Int_Tables_number   1
_chemical_formula_structural   La6Cu6O17
_chemical_formula_sum   'La6 Cu6 O17'
_cell_volume   413.87929739
_cell_formula_units_Z   1
loop_
 _symmetry_equiv_pos_site_id
 _symmetry_equiv_pos_as_xyz
  1  'x, y, z'
loop_
 _atom_site_type_symbol
 _atom_site_label
 _atom_site_symmetry_multiplicity
 _atom_site_fract_x
 _atom_site_fract_y
 _atom_site_fract_z
 _atom_site_occupancy
  La  La0  1  0.33392581  0.66535081  0.48058061  1
  La  La1  1  0.99938064  0.00140335  0.00355655  1
  La  La2  1  0.00027233  0.99832374  0.49648366  1
  La  La3  1  0.33321983  0.66828612  0.01945463  1
  La  La4  1  0.66651640  0.33478956  0.95966728  1
  La  La5  1  0.66693142  0.33194708  0.54037374  1
  Cu  Cu6  1  0.16941615  0.83191295  0.75013132  1
  Cu  Cu7  1  0.16900522  0.33724097  0.74997736  1
  Cu  Cu8  1  0.34173878  0.17093022  0.24993618  1
  Cu  Cu9  1  0.66217328  0.83146643  0.74986925  1
  Cu  Cu10  1  0.82911323  0.65788956  0.24981883  1
  Cu  Cu11  1  0.82920371  0.17109481  0.25012805  1
  O  O12  1  0.03460687  0.69485290  0.90639944  1
  O  O13  1  0.30807837  0.96393422  0.59358592  1
  O  O14  1  0.03477512  0.33970601  0.59367999  1
  O  O15  1  0.00003900  0.99979643  0.25000567  1
  O  O16  1  0.00065595  0.00057341  0.75004178  1
  O  O17  1  0.33269264  0.66597998  0.75000596  1
  O  O18  1  0.30703437  0.34346702  0.90651260  1
  O  O19  1  0.65777630  0.96770744  0.90494665  1
  O  O20  1  0.34260324  0.32965715  0.39690942  1
  O  O21  1  0.65842999  0.69083481  0.59494745  1
  O  O22  1  0.34128784  0.01216253  0.10315443  1
  O  O23  1  0.67010321  0.65863393  0.10273351  1
  O  O24  1  0.66587984  0.33355810  0.75001110  1
  O  O25  1  0.66659715  0.33323305  0.24993059  1
  O  O26  1  0.98766486  0.65712044  0.39707429  1
  O  O27  1  0.67060621  0.01121446  0.39731158  1
  O  O28  1  0.98727325  0.33063452  0.10276815  1
