# generated using pymatgen
data_Li3Cr(Si2O5)3
_symmetry_space_group_name_H-M   'P 1'
_cell_length_a   9.80678370
_cell_length_b   7.88768128
_cell_length_c   14.93311395
_cell_angle_alpha   90.00000000
_cell_angle_beta   90.00000000
_cell_angle_gamma   90.00000000
_symmetry_Int_Tables_number   1
_chemical_formula_structural   Li3Cr(Si2O5)3
_chemical_formula_sum   'Li12 Cr4 Si24 O60'
_cell_volume   1155.11794092
_cell_formula_units_Z   4
loop_
 _symmetry_equiv_pos_site_id
 _symmetry_equiv_pos_as_xyz
  1  'x, y, z'
loop_
 _atom_site_type_symbol
 _atom_site_label
 _atom_site_symmetry_multiplicity
 _atom_site_fract_x
 _atom_site_fract_y
 _atom_site_fract_z
 _atom_site_occupancy
  Li  Li0  1  0.92125349  0.25000000  0.05843220  1
  Li  Li1  1  0.57874651  0.25000000  0.55843220  1
  Li  Li2  1  0.49892170  0.00036141  0.24165628  1
  Li  Li3  1  0.49892170  0.49963859  0.24165628  1
  Li  Li4  1  0.50107830  0.99963859  0.75834372  1
  Li  Li5  1  0.50107830  0.50036141  0.75834372  1
  Li  Li6  1  0.42125349  0.75000000  0.44156780  1
  Li  Li7  1  0.07874651  0.75000000  0.94156780  1
  Li  Li8  1  0.99892170  0.99963859  0.25834372  1
  Li  Li9  1  0.99892170  0.50036141  0.25834372  1
  Li  Li10  1  0.00107830  0.00036141  0.74165628  1
  Li  Li11  1  0.00107830  0.49963859  0.74165628  1
  Cr  Cr12  1  0.74803480  0.25000000  0.25004502  1
  Cr  Cr13  1  0.75196520  0.25000000  0.75004502  1
  Cr  Cr14  1  0.24803480  0.75000000  0.24995498  1
  Cr  Cr15  1  0.25196520  0.75000000  0.74995498  1
  Si  Si16  1  0.97371837  0.75000000  0.40211677  1
  Si  Si17  1  0.97606783  0.75000000  0.59883065  1
  Si  Si18  1  0.79375714  0.55971511  0.10059532  1
  Si  Si19  1  0.79375714  0.94028489  0.10059532  1
  Si  Si20  1  0.79648084  0.94328182  0.89989100  1
  Si  Si21  1  0.79648084  0.55671818  0.89989100  1
  Si  Si22  1  0.70351916  0.94328182  0.39989100  1
  Si  Si23  1  0.70351916  0.55671818  0.39989100  1
  Si  Si24  1  0.70624286  0.55971511  0.60059532  1
  Si  Si25  1  0.70624286  0.94028489  0.60059532  1
  Si  Si26  1  0.52393217  0.75000000  0.09883065  1
  Si  Si27  1  0.52628163  0.75000000  0.90211677  1
  Si  Si28  1  0.47606783  0.25000000  0.90116935  1
  Si  Si29  1  0.47371837  0.25000000  0.09788323  1
  Si  Si30  1  0.29375714  0.44028489  0.39940468  1
  Si  Si31  1  0.29375714  0.05971511  0.39940468  1
  Si  Si32  1  0.29648084  0.05671818  0.60010900  1
  Si  Si33  1  0.29648084  0.44328182  0.60010900  1
  Si  Si34  1  0.20351916  0.05671818  0.10010900  1
  Si  Si35  1  0.20624286  0.44028489  0.89940468  1
  Si  Si36  1  0.20624286  0.05971511  0.89940468  1
  Si  Si37  1  0.20351916  0.44328182  0.10010900  1
  Si  Si38  1  0.02628163  0.25000000  0.59788323  1
  Si  Si39  1  0.02393217  0.25000000  0.40116935  1
  O  O40  1  0.95136659  0.25000000  0.49987665  1
  O  O41  1  0.92523104  0.25000000  0.31685361  1
  O  O42  1  0.92856156  0.25000000  0.68265691  1
  O  O43  1  0.86906640  0.58586130  0.39583563  1
  O  O44  1  0.86906640  0.91413870  0.39583563  1
  O  O45  1  0.87210977  0.58471828  0.60581083  1
  O  O46  1  0.87210977  0.91528172  0.60581083  1
  O  O47  1  0.86321513  0.75000000  0.10893574  1
  O  O48  1  0.86995064  0.75000000  0.89851340  1
  O  O49  1  0.84916675  0.07418822  0.17229638  1
  O  O50  1  0.84916675  0.42581178  0.17229638  1
  O  O51  1  0.84611103  0.06153902  0.82010963  1
  O  O52  1  0.84611103  0.43846098  0.82010963  1
  O  O53  1  0.83677823  0.47938411  0.00068235  1
  O  O54  1  0.83677823  0.02061589  0.00068235  1
  O  O55  1  0.66322177  0.47938411  0.50068235  1
  O  O56  1  0.66322177  0.02061589  0.50068235  1
  O  O57  1  0.65083325  0.07418822  0.67229638  1
  O  O58  1  0.65388897  0.06153902  0.32010963  1
  O  O59  1  0.65388897  0.43846098  0.32010963  1
  O  O60  1  0.65083325  0.42581178  0.67229638  1
  O  O61  1  0.63004936  0.75000000  0.39851340  1
  O  O62  1  0.63678487  0.75000000  0.60893574  1
  O  O63  1  0.62789023  0.91528172  0.10581083  1
  O  O64  1  0.63093360  0.91413870  0.89583563  1
  O  O65  1  0.63093360  0.58586130  0.89583563  1
  O  O66  1  0.62789023  0.58471828  0.10581083  1
  O  O67  1  0.57143844  0.25000000  0.18265691  1
  O  O68  1  0.57476896  0.25000000  0.81685361  1
  O  O69  1  0.54863341  0.25000000  0.99987665  1
  O  O70  1  0.45136659  0.75000000  0.00012335  1
  O  O71  1  0.42523104  0.75000000  0.18314639  1
  O  O72  1  0.42856156  0.75000000  0.81734309  1
  O  O73  1  0.37210977  0.08471828  0.89418917  1
  O  O74  1  0.37210977  0.41528172  0.89418917  1
  O  O75  1  0.36906640  0.08586130  0.10416437  1
  O  O76  1  0.36906640  0.41413870  0.10416437  1
  O  O77  1  0.36995064  0.25000000  0.60148660  1
  O  O78  1  0.36321513  0.25000000  0.39106426  1
  O  O79  1  0.34611103  0.56153902  0.67989037  1
  O  O80  1  0.34611103  0.93846098  0.67989037  1
  O  O81  1  0.34916675  0.57418822  0.32770362  1
  O  O82  1  0.34916675  0.92581178  0.32770362  1
  O  O83  1  0.33677823  0.97938411  0.49931765  1
  O  O84  1  0.33677823  0.52061589  0.49931765  1
  O  O85  1  0.16322177  0.97938411  0.99931765  1
  O  O86  1  0.16322177  0.52061589  0.99931765  1
  O  O87  1  0.15388897  0.56153902  0.17989037  1
  O  O88  1  0.15388897  0.93846098  0.17989037  1
  O  O89  1  0.15083325  0.57418822  0.82770362  1
  O  O90  1  0.15083325  0.92581178  0.82770362  1
  O  O91  1  0.13004936  0.25000000  0.10148660  1
  O  O92  1  0.13678487  0.25000000  0.89106426  1
  O  O93  1  0.13093360  0.41413870  0.60416437  1
  O  O94  1  0.12789023  0.08471828  0.39418917  1
  O  O95  1  0.12789023  0.41528172  0.39418917  1
  O  O96  1  0.13093360  0.08586130  0.60416437  1
  O  O97  1  0.07143844  0.75000000  0.31734309  1
  O  O98  1  0.07476896  0.75000000  0.68314639  1
  O  O99  1  0.04863341  0.75000000  0.50012335  1
