# generated using pymatgen
data_LiCuS
_symmetry_space_group_name_H-M   'P 1'
_cell_length_a   12.38011453
_cell_length_b   5.29985605
_cell_length_c   16.11785164
_cell_angle_alpha   90.00000000
_cell_angle_beta   90.00000000
_cell_angle_gamma   90.00000000
_symmetry_Int_Tables_number   1
_chemical_formula_structural   LiCuS
_chemical_formula_sum   'Li24 Cu24 S24'
_cell_volume   1057.53777728
_cell_formula_units_Z   24
loop_
 _symmetry_equiv_pos_site_id
 _symmetry_equiv_pos_as_xyz
  1  'x, y, z'
loop_
 _atom_site_type_symbol
 _atom_site_label
 _atom_site_symmetry_multiplicity
 _atom_site_fract_x
 _atom_site_fract_y
 _atom_site_fract_z
 _atom_site_occupancy
  Li  Li0  1  0.07792502  0.84020727  0.17793858  1
  Li  Li1  1  0.07792502  0.15979273  0.67793858  1
  Li  Li2  1  0.07478044  0.33298260  0.33733343  1
  Li  Li3  1  0.07478044  0.66701740  0.83733343  1
  Li  Li4  1  0.07828036  0.26928039  0.01069842  1
  Li  Li5  1  0.07828036  0.73071961  0.51069842  1
  Li  Li6  1  0.42171964  0.76928039  0.01069842  1
  Li  Li7  1  0.42171964  0.23071961  0.51069842  1
  Li  Li8  1  0.42521956  0.83298260  0.33733343  1
  Li  Li9  1  0.42521956  0.16701740  0.83733343  1
  Li  Li10  1  0.42207498  0.34020727  0.17793858  1
  Li  Li11  1  0.42207498  0.65979273  0.67793858  1
  Li  Li12  1  0.57792502  0.65979273  0.82206142  1
  Li  Li13  1  0.57792502  0.34020727  0.32206142  1
  Li  Li14  1  0.57478044  0.83298260  0.16266657  1
  Li  Li15  1  0.57478044  0.16701740  0.66266657  1
  Li  Li16  1  0.57828036  0.23071961  0.98930158  1
  Li  Li17  1  0.57828036  0.76928039  0.48930158  1
  Li  Li18  1  0.92171964  0.26928039  0.48930158  1
  Li  Li19  1  0.92171964  0.73071961  0.98930158  1
  Li  Li20  1  0.92521956  0.66701740  0.66266657  1
  Li  Li21  1  0.92521956  0.33298260  0.16266657  1
  Li  Li22  1  0.92207498  0.84020727  0.32206142  1
  Li  Li23  1  0.92207498  0.15979273  0.82206142  1
  Cu  Cu24  1  0.23533475  0.59695004  0.09695851  1
  Cu  Cu25  1  0.23533475  0.40304996  0.59695851  1
  Cu  Cu26  1  0.25800567  0.40468055  0.76589173  1
  Cu  Cu27  1  0.25800567  0.59531945  0.26589173  1
  Cu  Cu28  1  0.23805768  0.96871876  0.42847211  1
  Cu  Cu29  1  0.23805768  0.03128124  0.92847211  1
  Cu  Cu30  1  0.26194232  0.46871876  0.42847211  1
  Cu  Cu31  1  0.26194232  0.53128124  0.92847211  1
  Cu  Cu32  1  0.24199433  0.09531945  0.26589173  1
  Cu  Cu33  1  0.24199433  0.90468055  0.76589173  1
  Cu  Cu34  1  0.26466525  0.09695004  0.09695851  1
  Cu  Cu35  1  0.26466525  0.90304996  0.59695851  1
  Cu  Cu36  1  0.73533475  0.90304996  0.90304149  1
  Cu  Cu37  1  0.73533475  0.09695004  0.40304149  1
  Cu  Cu38  1  0.75800567  0.90468055  0.73410827  1
  Cu  Cu39  1  0.75800567  0.09531945  0.23410827  1
  Cu  Cu40  1  0.73805768  0.46871876  0.07152789  1
  Cu  Cu41  1  0.73805768  0.53128124  0.57152789  1
  Cu  Cu42  1  0.76194232  0.03128124  0.57152789  1
  Cu  Cu43  1  0.76194232  0.96871876  0.07152789  1
  Cu  Cu44  1  0.74199433  0.40468055  0.73410827  1
  Cu  Cu45  1  0.74199433  0.59531945  0.23410827  1
  Cu  Cu46  1  0.76466525  0.59695004  0.40304149  1
  Cu  Cu47  1  0.76466525  0.40304996  0.90304149  1
  S  S48  1  0.11815102  0.19950445  0.83096888  1
  S  S49  1  0.11815102  0.80049555  0.33096888  1
  S  S50  1  0.12606149  0.29559197  0.16793210  1
  S  S51  1  0.12606149  0.70440803  0.66793210  1
  S  S52  1  0.12137058  0.25586927  0.49512417  1
  S  S53  1  0.12137058  0.74413073  0.99512417  1
  S  S54  1  0.37862942  0.24413073  0.99512417  1
  S  S55  1  0.37862942  0.75586927  0.49512417  1
  S  S56  1  0.37393851  0.79559197  0.16793210  1
  S  S57  1  0.37393851  0.20440803  0.66793210  1
  S  S58  1  0.38184898  0.30049555  0.33096888  1
  S  S59  1  0.38184898  0.69950445  0.83096888  1
  S  S60  1  0.61815102  0.69950445  0.66903112  1
  S  S61  1  0.61815102  0.30049555  0.16903112  1
  S  S62  1  0.62606149  0.79559197  0.33206790  1
  S  S63  1  0.62606149  0.20440803  0.83206790  1
  S  S64  1  0.62137058  0.24413073  0.50487583  1
  S  S65  1  0.62137058  0.75586927  0.00487583  1
  S  S66  1  0.87862942  0.74413073  0.50487583  1
  S  S67  1  0.87862942  0.25586927  0.00487583  1
  S  S68  1  0.87393851  0.29559197  0.33206790  1
  S  S69  1  0.87393851  0.70440803  0.83206790  1
  S  S70  1  0.88184898  0.19950445  0.66903112  1
  S  S71  1  0.88184898  0.80049555  0.16903112  1
