# generated using pymatgen
data_LiVCO4
_symmetry_space_group_name_H-M   'P 1'
_cell_length_a   3.18176207
_cell_length_b   9.39640227
_cell_length_c   9.37604495
_cell_angle_alpha   90.00000000
_cell_angle_beta   90.00000000
_cell_angle_gamma   88.48424103
_symmetry_Int_Tables_number   1
_chemical_formula_structural   LiVCO4
_chemical_formula_sum   'Li4 V4 C4 O16'
_cell_volume   280.21861984
_cell_formula_units_Z   4
loop_
 _symmetry_equiv_pos_site_id
 _symmetry_equiv_pos_as_xyz
  1  'x, y, z'
loop_
 _atom_site_type_symbol
 _atom_site_label
 _atom_site_symmetry_multiplicity
 _atom_site_fract_x
 _atom_site_fract_y
 _atom_site_fract_z
 _atom_site_occupancy
  Li  Li0  1  0.25245868  0.40421031  0.80899318  1
  Li  Li1  1  0.25245868  0.90421031  0.69100682  1
  Li  Li2  1  0.74752438  0.09580654  0.30896676  1
  Li  Li3  1  0.74752438  0.59580654  0.19103324  1
  V  V4  1  0.23943836  0.38132305  0.43759705  1
  V  V5  1  0.23943836  0.88132305  0.06240295  1
  V  V6  1  0.76062028  0.11865396  0.93761296  1
  V  V7  1  0.76062028  0.61865396  0.56238704  1
  C  C8  1  0.25537209  0.33466978  0.12994120  1
  C  C9  1  0.25537209  0.83466978  0.37005880  1
  C  C10  1  0.74460644  0.16527001  0.62991409  1
  C  C11  1  0.74460644  0.66527001  0.87008591  1
  O  O12  1  0.25236805  0.99763922  0.88689328  1
  O  O13  1  0.24261540  0.26149721  0.24886341  1
  O  O14  1  0.26542303  0.26027402  0.00731365  1
  O  O15  1  0.25236805  0.49763922  0.61310672  1
  O  O16  1  0.25421394  0.46788470  0.12754263  1
  O  O17  1  0.24261540  0.76149721  0.25113659  1
  O  O18  1  0.26542303  0.76027402  0.49268635  1
  O  O19  1  0.25421394  0.96788470  0.37245737  1
  O  O20  1  0.74575774  0.03216875  0.62754930  1
  O  O21  1  0.73457626  0.23972817  0.50731224  1
  O  O22  1  0.75735382  0.23852858  0.74888813  1
  O  O23  1  0.74575774  0.53216875  0.87245070  1
  O  O24  1  0.74767955  0.50234770  0.38688398  1
  O  O25  1  0.73457626  0.73972817  0.99268776  1
  O  O26  1  0.75735382  0.73852858  0.75111187  1
  O  O27  1  0.74767955  0.00234770  0.11311602  1
