# generated using pymatgen
data_LiMn2O2F3
_symmetry_space_group_name_H-M   'P 1'
_cell_length_a   5.46340266
_cell_length_b   5.82734320
_cell_length_c   7.13044268
_cell_angle_alpha   69.65575113
_cell_angle_beta   90.00000000
_cell_angle_gamma   62.04532496
_symmetry_Int_Tables_number   1
_chemical_formula_structural   LiMn2O2F3
_chemical_formula_sum   'Li2 Mn4 O4 F6'
_cell_volume   184.34004128
_cell_formula_units_Z   2
loop_
 _symmetry_equiv_pos_site_id
 _symmetry_equiv_pos_as_xyz
  1  'x, y, z'
loop_
 _atom_site_type_symbol
 _atom_site_label
 _atom_site_symmetry_multiplicity
 _atom_site_fract_x
 _atom_site_fract_y
 _atom_site_fract_z
 _atom_site_occupancy
  Li  Li0  1  0.00000000  0.00000000  0.50000000  1
  Li  Li1  1  0.00000000  0.00000000  0.00000000  1
  Mn  Mn2  1  0.62428519  0.76696457  0.70354756  1
  Mn  Mn3  1  0.60875025  0.76696457  0.20354756  1
  Mn  Mn4  1  0.39124975  0.23303543  0.79645244  1
  Mn  Mn5  1  0.37571481  0.23303543  0.29645244  1
  O  O6  1  0.70773685  0.84001209  0.93747419  1
  O  O7  1  0.45225106  0.84001209  0.43747419  1
  O  O8  1  0.54774894  0.15998791  0.56252581  1
  O  O9  1  0.29226315  0.15998791  0.06252581  1
  F  F10  1  0.06194798  0.60279709  0.66126366  1
  F  F11  1  0.66474508  0.39720291  0.83873634  1
  F  F12  1  0.33525492  0.60279709  0.16126366  1
  F  F13  1  0.93805202  0.39720291  0.33873634  1
  F  F14  1  0.18044863  1.00000000  0.75000000  1
  F  F15  1  0.81955137  0.00000000  0.25000000  1
