# generated using pymatgen
data_Li6Mn2OF11
_symmetry_space_group_name_H-M   'P 1'
_cell_length_a   5.08568743
_cell_length_b   5.52872434
_cell_length_c   8.85955228
_cell_angle_alpha   86.28450581
_cell_angle_beta   73.13237038
_cell_angle_gamma   117.06514964
_symmetry_Int_Tables_number   1
_chemical_formula_structural   Li6Mn2OF11
_chemical_formula_sum   'Li6 Mn2 O1 F11'
_cell_volume   206.54400936
_cell_formula_units_Z   1
loop_
 _symmetry_equiv_pos_site_id
 _symmetry_equiv_pos_as_xyz
  1  'x, y, z'
loop_
 _atom_site_type_symbol
 _atom_site_label
 _atom_site_symmetry_multiplicity
 _atom_site_fract_x
 _atom_site_fract_y
 _atom_site_fract_z
 _atom_site_occupancy
  Li  Li0  1  0.14060269  0.34427717  0.06472788  1
  Li  Li1  1  0.35865062  0.40410316  0.69374554  1
  Li  Li2  1  0.64290145  0.60487900  0.32824488  1
  Li  Li3  1  0.86261447  0.14441926  0.40292544  1
  Li  Li4  1  0.81690760  0.61078153  0.93886380  1
  Li  Li5  1  0.63011381  0.12785191  0.83002064  1
  Mn  Mn6  1  0.16792850  0.90061482  0.56776231  1
  Mn  Mn7  1  0.33791894  0.85851698  0.18001798  1
  O  O8  1  0.40861403  0.87030820  0.37884800  1
  F  F9  1  0.06162988  0.02137359  0.22329507  1
  F  F10  1  0.08654720  0.57116655  0.69211330  1
  F  F11  1  0.55121619  0.63482558  0.13665649  1
  F  F12  1  0.23912138  0.25072011  0.47330262  1
  F  F13  1  0.25945790  0.78899211  0.98289957  1
  F  F14  1  0.78427398  0.72568183  0.53444940  1
  F  F15  1  0.74874248  0.21504362  0.02855001  1
  F  F16  1  0.45671717  0.37777314  0.87357892  1
  F  F17  1  0.53790955  0.10163278  0.61401425  1
  F  F18  1  0.93321835  0.47046748  0.28126490  1
  F  F19  1  0.95724180  0.97099517  0.76546001  1
