# generated using pymatgen
data_Li4Fe3(BO3)4
_symmetry_space_group_name_H-M   'P 1'
_cell_length_a   5.25241219
_cell_length_b   8.94871565
_cell_length_c   9.95071348
_cell_angle_alpha   90.00000000
_cell_angle_beta   92.42734227
_cell_angle_gamma   90.00000000
_symmetry_Int_Tables_number   1
_chemical_formula_structural   Li4Fe3(BO3)4
_chemical_formula_sum   'Li8 Fe6 B8 O24'
_cell_volume   467.28719140
_cell_formula_units_Z   2
loop_
 _symmetry_equiv_pos_site_id
 _symmetry_equiv_pos_as_xyz
  1  'x, y, z'
loop_
 _atom_site_type_symbol
 _atom_site_label
 _atom_site_symmetry_multiplicity
 _atom_site_fract_x
 _atom_site_fract_y
 _atom_site_fract_z
 _atom_site_occupancy
  Li  Li0  1  0.16070908  0.98708027  0.68055461  1
  Li  Li1  1  0.16387445  0.66332818  0.61799763  1
  Li  Li2  1  0.18438672  0.98667450  0.07838559  1
  Li  Li3  1  0.30067702  0.48578669  0.38922840  1
  Li  Li4  1  0.66070908  0.51291973  0.18055461  1
  Li  Li5  1  0.68438672  0.51332550  0.57838559  1
  Li  Li6  1  0.66387445  0.83667182  0.11799763  1
  Li  Li7  1  0.80067702  0.01421331  0.88922840  1
  Fe  Fe8  1  0.15508725  0.32028159  0.12994299  1
  Fe  Fe9  1  0.35975459  0.44910687  0.83049914  1
  Fe  Fe10  1  0.35655643  0.81180333  0.37645418  1
  Fe  Fe11  1  0.65508725  0.17971841  0.62994299  1
  Fe  Fe12  1  0.85655643  0.68819667  0.87645418  1
  Fe  Fe13  1  0.85975459  0.05089313  0.33049914  1
  B  B14  1  0.16563607  0.32269671  0.61474660  1
  B  B15  1  0.16042955  0.66069758  0.13309619  1
  B  B16  1  0.31992300  0.80879002  0.88068162  1
  B  B17  1  0.35099865  0.15901844  0.37297408  1
  B  B18  1  0.66042955  0.83930242  0.63309619  1
  B  B19  1  0.66563607  0.17730329  0.11474660  1
  B  B20  1  0.85099865  0.34098156  0.87297408  1
  B  B21  1  0.81992300  0.69120998  0.38068162  1
  O  O22  1  0.10096389  0.33389056  0.92555950  1
  O  O23  1  0.07720729  0.66838662  0.40840658  1
  O  O24  1  0.13752777  0.91769516  0.88595904  1
  O  O25  1  0.22819833  0.66505998  0.84535736  1
  O  O26  1  0.21571405  0.28303784  0.32986527  1
  O  O27  1  0.23363034  0.01969932  0.35991280  1
  O  O28  1  0.28205609  0.18511466  0.63435262  1
  O  O29  1  0.29404919  0.78882243  0.17204082  1
  O  O30  1  0.31880743  0.45199410  0.61818061  1
  O  O31  1  0.28438251  0.52260317  0.14801704  1
  O  O32  1  0.40985634  0.83070683  0.58187532  1
  O  O33  1  0.40558896  0.16320935  0.10226803  1
  O  O34  1  0.57720729  0.83161338  0.90840658  1
  O  O35  1  0.60096389  0.16610944  0.42555950  1
  O  O36  1  0.71571405  0.21696216  0.82986527  1
  O  O37  1  0.63752777  0.58230484  0.38595904  1
  O  O38  1  0.73363034  0.48030068  0.85991280  1
  O  O39  1  0.72819833  0.83494002  0.34535736  1
  O  O40  1  0.79404919  0.71117757  0.67204082  1
  O  O41  1  0.78205609  0.31488534  0.13435262  1
  O  O42  1  0.78438251  0.97739683  0.64801704  1
  O  O43  1  0.81880743  0.04800590  0.11818061  1
  O  O44  1  0.90558896  0.33679065  0.60226803  1
  O  O45  1  0.90985634  0.66929317  0.08187532  1
