# generated using pymatgen
data_Li12MnFe3P4(CO7)4
_symmetry_space_group_name_H-M   'P 1'
_cell_length_a   8.53595582
_cell_length_b   10.04057305
_cell_length_c   6.51363464
_cell_angle_alpha   90.00000000
_cell_angle_beta   90.00000000
_cell_angle_gamma   85.20514944
_symmetry_Int_Tables_number   1
_chemical_formula_structural   Li12MnFe3P4(CO7)4
_chemical_formula_sum   'Li12 Mn1 Fe3 P4 C4 O28'
_cell_volume   556.30315203
_cell_formula_units_Z   1
loop_
 _symmetry_equiv_pos_site_id
 _symmetry_equiv_pos_as_xyz
  1  'x, y, z'
loop_
 _atom_site_type_symbol
 _atom_site_label
 _atom_site_symmetry_multiplicity
 _atom_site_fract_x
 _atom_site_fract_y
 _atom_site_fract_z
 _atom_site_occupancy
  Li  Li0  1  0.09203126  0.37964243  0.25000000  1
  Li  Li1  1  0.09047591  0.87932724  0.25000000  1
  Li  Li2  1  0.27443311  0.12431088  0.02469440  1
  Li  Li3  1  0.27443311  0.12431088  0.47530560  1
  Li  Li4  1  0.27363258  0.62345018  0.02386386  1
  Li  Li5  1  0.27363258  0.62345018  0.47613614  1
  Li  Li6  1  0.72543386  0.37644373  0.52578752  1
  Li  Li7  1  0.72543386  0.37644373  0.97421248  1
  Li  Li8  1  0.72598832  0.87694217  0.52534319  1
  Li  Li9  1  0.72598832  0.87694217  0.97465681  1
  Li  Li10  1  0.90825389  0.12026989  0.75000000  1
  Li  Li11  1  0.90703412  0.61978742  0.75000000  1
  Mn  Mn12  1  0.65940670  0.61098058  0.25000000  1
  Fe  Fe13  1  0.33465622  0.39422173  0.75000000  1
  Fe  Fe14  1  0.33531926  0.89365760  0.75000000  1
  Fe  Fe15  1  0.66600112  0.10551708  0.25000000  1
  P  P16  1  0.41300167  0.35835014  0.25000000  1
  P  P17  1  0.41033770  0.86033215  0.25000000  1
  P  P18  1  0.58779194  0.14073440  0.75000000  1
  P  P19  1  0.58882122  0.63998744  0.75000000  1
  C  C20  1  0.03434062  0.35116625  0.75000000  1
  C  C21  1  0.03411606  0.85143366  0.75000000  1
  C  C22  1  0.96526783  0.14867303  0.25000000  1
  C  C23  1  0.96726448  0.64824936  0.25000000  1
  O  O24  1  0.07126208  0.47375763  0.75000000  1
  O  O25  1  0.11133505  0.17799995  0.25000000  1
  O  O26  1  0.07088949  0.97399685  0.75000000  1
  O  O27  1  0.14723809  0.25468118  0.75000000  1
  O  O28  1  0.11341374  0.67781960  0.25000000  1
  O  O29  1  0.14717873  0.75499035  0.75000000  1
  O  O30  1  0.31145445  0.41198305  0.06334156  1
  O  O31  1  0.31145445  0.41198305  0.43665844  1
  O  O32  1  0.31014718  0.91396490  0.06295765  1
  O  O33  1  0.31014718  0.91396490  0.43704235  1
  O  O34  1  0.42173598  0.09038900  0.75000000  1
  O  O35  1  0.42804333  0.20214847  0.25000000  1
  O  O36  1  0.42177411  0.59060940  0.75000000  1
  O  O37  1  0.42360230  0.70431443  0.25000000  1
  O  O38  1  0.57178690  0.29684013  0.75000000  1
  O  O39  1  0.57908395  0.40798261  0.25000000  1
  O  O40  1  0.57190382  0.79652243  0.75000000  1
  O  O41  1  0.57828610  0.90702923  0.25000000  1
  O  O42  1  0.68916989  0.08744964  0.93672695  1
  O  O43  1  0.68916989  0.08744964  0.56327305  1
  O  O44  1  0.69060115  0.58650550  0.56519174  1
  O  O45  1  0.69060115  0.58650550  0.93480826  1
  O  O46  1  0.85294107  0.24511926  0.25000000  1
  O  O47  1  0.88898089  0.32177342  0.75000000  1
  O  O48  1  0.85579658  0.74538985  0.25000000  1
  O  O49  1  0.92869342  0.02630602  0.25000000  1
  O  O50  1  0.88877719  0.82205542  0.75000000  1
  O  O51  1  0.93143612  0.52584629  0.25000000  1
