# generated using pymatgen
data_Li3Co2(CO3)4
_symmetry_space_group_name_H-M   'P 1'
_cell_length_a   5.40339306
_cell_length_b   6.45054764
_cell_length_c   8.41144002
_cell_angle_alpha   81.35111511
_cell_angle_beta   72.75743351
_cell_angle_gamma   64.49959960
_symmetry_Int_Tables_number   1
_chemical_formula_structural   Li3Co2(CO3)4
_chemical_formula_sum   'Li3 Co2 C4 O12'
_cell_volume   252.63802876
_cell_formula_units_Z   1
loop_
 _symmetry_equiv_pos_site_id
 _symmetry_equiv_pos_as_xyz
  1  'x, y, z'
loop_
 _atom_site_type_symbol
 _atom_site_label
 _atom_site_symmetry_multiplicity
 _atom_site_fract_x
 _atom_site_fract_y
 _atom_site_fract_z
 _atom_site_occupancy
  Li  Li0  1  0.51733050  0.95435605  0.31769498  1
  Li  Li1  1  0.79135481  0.04983495  0.67233249  1
  Li  Li2  1  0.21858087  0.54379208  0.83567810  1
  Co  Co3  1  0.13115774  0.99668164  0.00376677  1
  Co  Co4  1  0.87014074  0.50761159  0.49131552  1
  C  C5  1  0.04652437  0.60873156  0.20727249  1
  C  C6  1  0.97382728  0.11415131  0.30023039  1
  C  C7  1  0.39161123  0.88800058  0.69786578  1
  C  C8  1  0.85391660  0.39104079  0.79306165  1
  O  O9  1  0.15771461  0.65891241  0.05947530  1
  O  O10  1  0.79412261  0.60915314  0.25808387  1
  O  O11  1  0.79961368  0.07803091  0.24496470  1
  O  O12  1  0.22502495  0.07365592  0.19958032  1
  O  O13  1  0.91362336  0.18440276  0.45000404  1
  O  O14  1  0.17464603  0.55378743  0.32658715  1
  O  O15  1  0.54507230  0.83020207  0.54782774  1
  O  O16  1  0.64597385  0.39233841  0.74483928  1
  O  O17  1  0.48499540  0.94928968  0.80010363  1
  O  O18  1  0.03188920  0.45952306  0.67758821  1
  O  O19  1  0.14056487  0.88590021  0.75409588  1
  O  O20  1  0.89837700  0.33005544  0.93544771  1
