# generated using pymatgen
data_Li6FeNiP2(CO7)2
_symmetry_space_group_name_H-M   'P 1'
_cell_length_a   8.41186496
_cell_length_b   4.96889569
_cell_length_c   6.50224070
_cell_angle_alpha   90.00000000
_cell_angle_beta   90.00000000
_cell_angle_gamma   85.41489497
_symmetry_Int_Tables_number   1
_chemical_formula_structural   Li6FeNiP2(CO7)2
_chemical_formula_sum   'Li6 Fe1 Ni1 P2 C2 O14'
_cell_volume   270.90879859
_cell_formula_units_Z   1
loop_
 _symmetry_equiv_pos_site_id
 _symmetry_equiv_pos_as_xyz
  1  'x, y, z'
loop_
 _atom_site_type_symbol
 _atom_site_label
 _atom_site_symmetry_multiplicity
 _atom_site_fract_x
 _atom_site_fract_y
 _atom_site_fract_z
 _atom_site_occupancy
  Li  Li0  1  0.09576312  0.76152957  0.25000000  1
  Li  Li1  1  0.27491063  0.24597358  0.02090982  1
  Li  Li2  1  0.27491063  0.24597358  0.47909018  1
  Li  Li3  1  0.72372314  0.75551846  0.52386294  1
  Li  Li4  1  0.72372314  0.75551846  0.97613706  1
  Li  Li5  1  0.90353815  0.23601809  0.75000000  1
  Fe  Fe6  1  0.66191158  0.21942454  0.25000000  1
  Ni  Ni7  1  0.33276546  0.79262660  0.75000000  1
  P  P8  1  0.41160159  0.71980272  0.25000000  1
  P  P9  1  0.58568025  0.27872804  0.75000000  1
  C  C10  1  0.03911658  0.70426920  0.75000000  1
  C  C11  1  0.96586244  0.29496218  0.25000000  1
  O  O12  1  0.07584137  0.95263631  0.75000000  1
  O  O13  1  0.11267428  0.35681948  0.25000000  1
  O  O14  1  0.15540881  0.51423510  0.75000000  1
  O  O15  1  0.30924907  0.82548483  0.06327659  1
  O  O16  1  0.30924907  0.82548483  0.43672341  1
  O  O17  1  0.41861662  0.16953590  0.75000000  1
  O  O18  1  0.42889390  0.40352150  0.25000000  1
  O  O19  1  0.56284842  0.59427763  0.75000000  1
  O  O20  1  0.58139490  0.81921445  0.25000000  1
  O  O21  1  0.69037882  0.17579911  0.93520727  1
  O  O22  1  0.69037882  0.17579911  0.56479273  1
  O  O23  1  0.85073102  0.48718131  0.25000000  1
  O  O24  1  0.89209718  0.64221086  0.75000000  1
  O  O25  1  0.92873000  0.04745660  0.25000000  1
