# generated using pymatgen
data_Mg3Mn4O7
_symmetry_space_group_name_H-M   'P 1'
_cell_length_a   3.12000822
_cell_length_b   11.27474296
_cell_length_c   4.41198867
_cell_angle_alpha   78.71445325
_cell_angle_beta   90.00059346
_cell_angle_gamma   97.98033901
_symmetry_Int_Tables_number   1
_chemical_formula_structural   Mg3Mn4O7
_chemical_formula_sum   'Mg3 Mn4 O7'
_cell_volume   150.66793554
_cell_formula_units_Z   1
loop_
 _symmetry_equiv_pos_site_id
 _symmetry_equiv_pos_as_xyz
  1  'x, y, z'
loop_
 _atom_site_type_symbol
 _atom_site_label
 _atom_site_symmetry_multiplicity
 _atom_site_fract_x
 _atom_site_fract_y
 _atom_site_fract_z
 _atom_site_occupancy
  Mg  Mg0  1  0.71520677  0.42920932  0.28658892  1
  Mg  Mg1  1  0.57434831  0.14696882  0.42944011  1
  Mg  Mg2  1  0.85996264  0.71149904  0.14513114  1
  Mn  Mn3  1  0.00223905  0.00082687  0.00244913  1
  Mn  Mn4  1  0.14401019  0.28696276  0.85865410  1
  Mn  Mn5  1  0.28790863  0.57144830  0.71508305  1
  Mn  Mn6  1  0.43318256  0.85763884  0.57309690  1
  O  O7  1  0.14503896  0.28889927  0.35770212  1
  O  O8  1  0.28659476  0.56951187  0.21605676  1
  O  O9  1  0.42840965  0.84730312  0.07811389  1
  O  O10  1  0.00732308  0.01116080  0.49745037  1
  O  O11  1  0.71559658  0.42920034  0.78673679  1
  O  O12  1  0.57267453  0.14356262  0.93122589  1
  O  O13  1  0.86134028  0.71488204  0.64362983  1
