# generated using pymatgen
data_LiV2OF5
_symmetry_space_group_name_H-M   'P 1'
_cell_length_a   8.73687421
_cell_length_b   8.72186684
_cell_length_c   4.58979573
_cell_angle_alpha   91.76552214
_cell_angle_beta   89.03711653
_cell_angle_gamma   119.91273535
_symmetry_Int_Tables_number   1
_chemical_formula_structural   LiV2OF5
_chemical_formula_sum   'Li3 V6 O3 F15'
_cell_volume   303.01485973
_cell_formula_units_Z   3
loop_
 _symmetry_equiv_pos_site_id
 _symmetry_equiv_pos_as_xyz
  1  'x, y, z'
loop_
 _atom_site_type_symbol
 _atom_site_label
 _atom_site_symmetry_multiplicity
 _atom_site_fract_x
 _atom_site_fract_y
 _atom_site_fract_z
 _atom_site_occupancy
  Li  Li0  1  0.33125700  0.66542635  0.51054518  1
  Li  Li1  1  0.99685824  0.99738824  0.99552615  1
  Li  Li2  1  0.66459725  0.33529773  0.49708795  1
  V  V3  1  0.00856979  0.64766487  0.98729296  1
  V  V4  1  0.00493857  0.33179837  0.51316180  1
  V  V5  1  0.35307726  0.33808630  0.98645477  1
  V  V6  1  0.32686258  0.01261820  0.51113734  1
  V  V7  1  0.68829839  0.69523588  0.51311100  1
  V  V8  1  0.65998812  0.99415103  0.98796097  1
  O  O9  1  0.09798130  0.53761266  0.74472034  1
  O  O10  1  0.43133967  0.22134215  0.73295960  1
  O  O11  1  0.76441541  0.88905560  0.76481298  1
  F  F12  1  0.10806088  0.88038115  0.75920524  1
  F  F13  1  0.21339430  0.77680582  0.26698637  1
  F  F14  1  0.43398497  0.89269071  0.74679453  1
  F  F15  1  0.11861177  0.22798454  0.77390805  1
  F  F16  1  0.22653445  0.43552692  0.26405252  1
  F  F17  1  0.55685001  0.78742109  0.26566548  1
  F  F18  1  0.22262250  0.11367298  0.23399614  1
  F  F19  1  0.45931800  0.56255051  0.73375169  1
  F  F20  1  0.56256158  0.46071801  0.25646236  1
  F  F21  1  0.54528638  0.10481057  0.25257839  1
  F  F22  1  0.89042720  0.76915143  0.23410851  1
  F  F23  1  0.78795658  0.56359033  0.74219037  1
  F  F24  1  0.77180084  0.21325125  0.73057698  1
  F  F25  1  0.88932030  0.43306779  0.25579083  1
  F  F26  1  0.88498564  0.11269850  0.23916053  1
