# generated using pymatgen
data_Li12FeNi3P4(CO7)4
_symmetry_space_group_name_H-M   'P 1'
_cell_length_a   8.37766594
_cell_length_b   9.94177689
_cell_length_c   6.44684568
_cell_angle_alpha   90.00000000
_cell_angle_beta   90.00000000
_cell_angle_gamma   85.41734914
_symmetry_Int_Tables_number   1
_chemical_formula_structural   Li12FeNi3P4(CO7)4
_chemical_formula_sum   'Li12 Fe1 Ni3 P4 C4 O28'
_cell_volume   535.23402403
_cell_formula_units_Z   1
loop_
 _symmetry_equiv_pos_site_id
 _symmetry_equiv_pos_as_xyz
  1  'x, y, z'
loop_
 _atom_site_type_symbol
 _atom_site_label
 _atom_site_symmetry_multiplicity
 _atom_site_fract_x
 _atom_site_fract_y
 _atom_site_fract_z
 _atom_site_occupancy
  Li  Li0  1  0.09834717  0.38144996  0.25000000  1
  Li  Li1  1  0.09511054  0.88220466  0.25000000  1
  Li  Li2  1  0.27642652  0.12353567  0.02055691  1
  Li  Li3  1  0.27642652  0.12353567  0.47944309  1
  Li  Li4  1  0.27532068  0.62293300  0.01997976  1
  Li  Li5  1  0.27532068  0.62293300  0.48002024  1
  Li  Li6  1  0.72340474  0.37664721  0.52127614  1
  Li  Li7  1  0.72340474  0.37664721  0.97872386  1
  Li  Li8  1  0.72354181  0.87783425  0.52243260  1
  Li  Li9  1  0.72354181  0.87783425  0.97756740  1
  Li  Li10  1  0.90312865  0.11777811  0.75000000  1
  Li  Li11  1  0.90285121  0.61716841  0.75000000  1
  Fe  Fe12  1  0.66272305  0.60957610  0.25000000  1
  Ni  Ni13  1  0.33272844  0.39559761  0.75000000  1
  Ni  Ni14  1  0.33221589  0.89668445  0.75000000  1
  Ni  Ni15  1  0.66732363  0.10310491  0.25000000  1
  P  P16  1  0.41424107  0.35866260  0.25000000  1
  P  P17  1  0.41162108  0.86167043  0.25000000  1
  P  P18  1  0.58499505  0.13941538  0.75000000  1
  P  P19  1  0.58578551  0.63951092  0.75000000  1
  C  C20  1  0.03924295  0.35156920  0.75000000  1
  C  C21  1  0.03896834  0.85154798  0.75000000  1
  C  C22  1  0.96063893  0.14851151  0.25000000  1
  C  C23  1  0.96653220  0.64774685  0.25000000  1
  O  O24  1  0.07657190  0.47560819  0.75000000  1
  O  O25  1  0.10805800  0.17895321  0.25000000  1
  O  O26  1  0.07583613  0.97555474  0.75000000  1
  O  O27  1  0.15571314  0.25649525  0.75000000  1
  O  O28  1  0.11342743  0.67910314  0.25000000  1
  O  O29  1  0.15561196  0.75644465  0.75000000  1
  O  O30  1  0.30946884  0.41070329  0.06289157  1
  O  O31  1  0.30946884  0.41070329  0.43710843  1
  O  O32  1  0.30802681  0.91424613  0.06262753  1
  O  O33  1  0.30802681  0.91424613  0.43737247  1
  O  O34  1  0.41766401  0.08520731  0.75000000  1
  O  O35  1  0.43690498  0.20113588  0.25000000  1
  O  O36  1  0.41840933  0.58451568  0.75000000  1
  O  O37  1  0.43012039  0.70422991  0.25000000  1
  O  O38  1  0.56242793  0.29708457  0.75000000  1
  O  O39  1  0.58182408  0.41354150  0.25000000  1
  O  O40  1  0.56260141  0.79707987  0.75000000  1
  O  O41  1  0.58223946  0.91175684  0.25000000  1
  O  O42  1  0.69065470  0.08789574  0.93714642  1
  O  O43  1  0.69065470  0.08789574  0.56285358  1
  O  O44  1  0.69131140  0.58784464  0.56427904  1
  O  O45  1  0.69131140  0.58784464  0.93572096  1
  O  O46  1  0.84392554  0.24371070  0.25000000  1
  O  O47  1  0.89158129  0.32090565  0.75000000  1
  O  O48  1  0.85054201  0.74400715  0.25000000  1
  O  O49  1  0.92274948  0.02458088  0.25000000  1
  O  O50  1  0.89130639  0.82051859  0.75000000  1
  O  O51  1  0.92971841  0.52408930  0.25000000  1
