# generated using pymatgen
data_Li12CoNi3P4(CO7)4
_symmetry_space_group_name_H-M   'P 1'
_cell_length_a   8.35023271
_cell_length_b   9.95830218
_cell_length_c   6.41612180
_cell_angle_alpha   90.00000000
_cell_angle_beta   90.00000000
_cell_angle_gamma   85.32533417
_symmetry_Int_Tables_number   1
_chemical_formula_structural   Li12CoNi3P4(CO7)4
_chemical_formula_sum   'Li12 Co1 Ni3 P4 C4 O28'
_cell_volume   531.75232673
_cell_formula_units_Z   1
loop_
 _symmetry_equiv_pos_site_id
 _symmetry_equiv_pos_as_xyz
  1  'x, y, z'
loop_
 _atom_site_type_symbol
 _atom_site_label
 _atom_site_symmetry_multiplicity
 _atom_site_fract_x
 _atom_site_fract_y
 _atom_site_fract_z
 _atom_site_occupancy
  Li  Li0  1  0.09591501  0.38137146  0.25000000  1
  Li  Li1  1  0.09516016  0.88152364  0.25000000  1
  Li  Li2  1  0.27630107  0.12290589  0.02156524  1
  Li  Li3  1  0.27630107  0.12290589  0.47843476  1
  Li  Li4  1  0.27625061  0.62297749  0.02206063  1
  Li  Li5  1  0.27625061  0.62297749  0.47793937  1
  Li  Li6  1  0.72376719  0.37579412  0.52093368  1
  Li  Li7  1  0.72376719  0.37579412  0.97906632  1
  Li  Li8  1  0.72397788  0.87757059  0.52128211  1
  Li  Li9  1  0.72397788  0.87757059  0.97871789  1
  Li  Li10  1  0.90446242  0.11852638  0.75000000  1
  Li  Li11  1  0.90463455  0.61847697  0.75000000  1
  Co  Co12  1  0.66702077  0.60506573  0.25000000  1
  Ni  Ni13  1  0.33253993  0.39576965  0.75000000  1
  Ni  Ni14  1  0.33252487  0.89640790  0.75000000  1
  Ni  Ni15  1  0.66668108  0.10371635  0.25000000  1
  P  P16  1  0.41402387  0.35928753  0.25000000  1
  P  P17  1  0.41344298  0.86123652  0.25000000  1
  P  P18  1  0.58512873  0.13972953  0.75000000  1
  P  P19  1  0.58510921  0.63982905  0.75000000  1
  C  C20  1  0.03847934  0.35183851  0.75000000  1
  C  C21  1  0.03850890  0.85180541  0.75000000  1
  C  C22  1  0.96127755  0.14824681  0.25000000  1
  C  C23  1  0.96405300  0.64868813  0.25000000  1
  O  O24  1  0.07597938  0.47548204  0.75000000  1
  O  O25  1  0.10915623  0.17868850  0.25000000  1
  O  O26  1  0.07579984  0.97540152  0.75000000  1
  O  O27  1  0.15472203  0.25658566  0.75000000  1
  O  O28  1  0.11174795  0.67899747  0.25000000  1
  O  O29  1  0.15493449  0.75655965  0.75000000  1
  O  O30  1  0.30859996  0.41138995  0.06258648  1
  O  O31  1  0.30859996  0.41138995  0.43741352  1
  O  O32  1  0.30846164  0.91309484  0.06249958  1
  O  O33  1  0.30846164  0.91309484  0.43750042  1
  O  O34  1  0.41729496  0.08562940  0.75000000  1
  O  O35  1  0.43620138  0.20199647  0.25000000  1
  O  O36  1  0.41778835  0.58507368  0.75000000  1
  O  O37  1  0.43420660  0.70349162  0.25000000  1
  O  O38  1  0.56251129  0.29701663  0.75000000  1
  O  O39  1  0.58206944  0.41311796  0.25000000  1
  O  O40  1  0.56252891  0.79664831  0.75000000  1
  O  O41  1  0.58223888  0.91359766  0.25000000  1
  O  O42  1  0.69097396  0.08814881  0.93738577  1
  O  O43  1  0.69097396  0.08814881  0.56261423  1
  O  O44  1  0.69144571  0.58816648  0.56274350  1
  O  O45  1  0.69144571  0.58816648  0.93725650  1
  O  O46  1  0.84482297  0.24350725  0.25000000  1
  O  O47  1  0.89043882  0.32150567  0.75000000  1
  O  O48  1  0.84809000  0.74432014  0.25000000  1
  O  O49  1  0.92373372  0.02463402  0.25000000  1
  O  O50  1  0.89047032  0.82121895  0.75000000  1
  O  O51  1  0.92675003  0.52490952  0.25000000  1
