# generated using pymatgen
data_Li12Co3NiP4(CO7)4
_symmetry_space_group_name_H-M   'P 1'
_cell_length_a   8.39961485
_cell_length_b   9.98563820
_cell_length_c   6.43653530
_cell_angle_alpha   90.00000000
_cell_angle_beta   90.00000000
_cell_angle_gamma   85.01264424
_symmetry_Int_Tables_number   1
_chemical_formula_structural   Li12Co3NiP4(CO7)4
_chemical_formula_sum   'Li12 Co3 Ni1 P4 C4 O28'
_cell_volume   537.82372387
_cell_formula_units_Z   1
loop_
 _symmetry_equiv_pos_site_id
 _symmetry_equiv_pos_as_xyz
  1  'x, y, z'
loop_
 _atom_site_type_symbol
 _atom_site_label
 _atom_site_symmetry_multiplicity
 _atom_site_fract_x
 _atom_site_fract_y
 _atom_site_fract_z
 _atom_site_occupancy
  Li  Li0  1  0.09739779  0.38280831  0.25000000  1
  Li  Li1  1  0.09814976  0.88257216  0.25000000  1
  Li  Li2  1  0.27726665  0.12517193  0.02131169  1
  Li  Li3  1  0.27726665  0.12517193  0.47868831  1
  Li  Li4  1  0.27693062  0.62426802  0.02010375  1
  Li  Li5  1  0.27693062  0.62426802  0.47989625  1
  Li  Li6  1  0.72274307  0.37703180  0.52134649  1
  Li  Li7  1  0.72274307  0.37703180  0.97865351  1
  Li  Li8  1  0.72280333  0.87533262  0.52058873  1
  Li  Li9  1  0.72280333  0.87533262  0.97941127  1
  Li  Li10  1  0.90209734  0.11713147  0.75000000  1
  Li  Li11  1  0.90190060  0.61718970  0.75000000  1
  Co  Co12  1  0.33168929  0.39544760  0.75000000  1
  Co  Co13  1  0.33164140  0.89483750  0.75000000  1
  Co  Co14  1  0.66915805  0.10522581  0.25000000  1
  Ni  Ni15  1  0.66795311  0.60333238  0.25000000  1
  P  P16  1  0.41424830  0.36163247  0.25000000  1
  P  P17  1  0.41486904  0.85977895  0.25000000  1
  P  P18  1  0.58710212  0.13964467  0.75000000  1
  P  P19  1  0.58741933  0.63928898  0.75000000  1
  C  C20  1  0.03708436  0.35062192  0.75000000  1
  C  C21  1  0.03656063  0.85071162  0.75000000  1
  C  C22  1  0.96324130  0.14909434  0.25000000  1
  C  C23  1  0.96009805  0.64899307  0.25000000  1
  O  O24  1  0.07296165  0.47398664  0.75000000  1
  O  O25  1  0.11018179  0.18006311  0.25000000  1
  O  O26  1  0.07312641  0.97390020  0.75000000  1
  O  O27  1  0.15464189  0.25571146  0.75000000  1
  O  O28  1  0.10739833  0.67956857  0.25000000  1
  O  O29  1  0.15416380  0.75570078  0.75000000  1
  O  O30  1  0.30821176  0.41303420  0.06268851  1
  O  O31  1  0.30821176  0.41303420  0.43731149  1
  O  O32  1  0.30852729  0.91102387  0.06245704  1
  O  O33  1  0.30852729  0.91102387  0.43754296  1
  O  O34  1  0.41966592  0.08570930  0.75000000  1
  O  O35  1  0.43467665  0.20493608  0.25000000  1
  O  O36  1  0.41968663  0.58644680  0.75000000  1
  O  O37  1  0.43702093  0.70329488  0.25000000  1
  O  O38  1  0.56633630  0.29618441  0.75000000  1
  O  O39  1  0.58091975  0.41515620  0.25000000  1
  O  O40  1  0.56606767  0.79656228  0.75000000  1
  O  O41  1  0.58025526  0.91498367  0.25000000  1
  O  O42  1  0.69213931  0.08775841  0.93731384  1
  O  O43  1  0.69213931  0.08775841  0.56268616  1
  O  O44  1  0.69172772  0.58699589  0.56277207  1
  O  O45  1  0.69172772  0.58699589  0.93722793  1
  O  O46  1  0.84610189  0.24390317  0.25000000  1
  O  O47  1  0.89056963  0.31958494  0.75000000  1
  O  O48  1  0.84304134  0.74366702  0.25000000  1
  O  O49  1  0.92758594  0.02569831  0.25000000  1
  O  O50  1  0.89017221  0.81998294  0.75000000  1
  O  O51  1  0.92411504  0.52541583  0.25000000  1
