# generated using pymatgen
data_Li2SiNiO4
_symmetry_space_group_name_H-M   'P 1'
_cell_length_a   4.97647567
_cell_length_b   6.36139664
_cell_length_c   10.86224358
_cell_angle_alpha   88.30356647
_cell_angle_beta   90.00000000
_cell_angle_gamma   90.00000000
_symmetry_Int_Tables_number   1
_chemical_formula_structural   Li2SiNiO4
_chemical_formula_sum   'Li8 Si4 Ni4 O16'
_cell_volume   343.71897411
_cell_formula_units_Z   4
loop_
 _symmetry_equiv_pos_site_id
 _symmetry_equiv_pos_as_xyz
  1  'x, y, z'
loop_
 _atom_site_type_symbol
 _atom_site_label
 _atom_site_symmetry_multiplicity
 _atom_site_fract_x
 _atom_site_fract_y
 _atom_site_fract_z
 _atom_site_occupancy
  Li  Li0  1  0.80681452  0.99195766  0.91489576  1
  Li  Li1  1  0.69318548  0.99195766  0.41489576  1
  Li  Li2  1  0.80351136  0.23584497  0.67178084  1
  Li  Li3  1  0.69648864  0.23584497  0.17178084  1
  Li  Li4  1  0.30345124  0.76159269  0.82838737  1
  Li  Li5  1  0.19654876  0.76159269  0.32838737  1
  Li  Li6  1  0.30716217  0.00549361  0.58526582  1
  Li  Li7  1  0.19283783  0.00549361  0.08526582  1
  Si  Si8  1  0.30689170  0.23646955  0.83374373  1
  Si  Si9  1  0.19310830  0.23646955  0.33374373  1
  Si  Si10  1  0.80720001  0.76086440  0.66648413  1
  Si  Si11  1  0.69279999  0.76086440  0.16648413  1
  Ni  Ni12  1  0.79002560  0.49327550  0.91016962  1
  Ni  Ni13  1  0.70997440  0.49327550  0.41016962  1
  Ni  Ni14  1  0.29027660  0.50405923  0.59002870  1
  Ni  Ni15  1  0.20972340  0.50405923  0.09002870  1
  O  O16  1  0.20320588  0.02500558  0.90346652  1
  O  O17  1  0.29679412  0.02500558  0.40346652  1
  O  O18  1  0.64041667  0.24826906  0.83534177  1
  O  O19  1  0.85958333  0.24826906  0.33534177  1
  O  O20  1  0.20448801  0.25206243  0.68825263  1
  O  O21  1  0.29551199  0.25206243  0.18825263  1
  O  O22  1  0.19532892  0.45232067  0.90591191  1
  O  O23  1  0.30467108  0.45232067  0.40591191  1
  O  O24  1  0.69566219  0.54513528  0.59428332  1
  O  O25  1  0.80433781  0.54513528  0.09428332  1
  O  O26  1  0.14056564  0.74916490  0.66482564  1
  O  O27  1  0.35943436  0.74916490  0.16482564  1
  O  O28  1  0.70454907  0.74532484  0.81183746  1
  O  O29  1  0.79545093  0.74532484  0.31183746  1
  O  O30  1  0.70341672  0.97273463  0.59663076  1
  O  O31  1  0.79658328  0.97273463  0.09663076  1
