# generated using pymatgen
data_Li3Fe3NiO8
_symmetry_space_group_name_H-M   'P 1'
_cell_length_a   5.97447394
_cell_length_b   5.94538596
_cell_length_c   5.91709587
_cell_angle_alpha   120.19913939
_cell_angle_beta   60.08227169
_cell_angle_gamma   90.05938866
_symmetry_Int_Tables_number   1
_chemical_formula_structural   Li3Fe3NiO8
_chemical_formula_sum   'Li3 Fe3 Ni1 O8'
_cell_volume   148.43209853
_cell_formula_units_Z   1
loop_
 _symmetry_equiv_pos_site_id
 _symmetry_equiv_pos_as_xyz
  1  'x, y, z'
loop_
 _atom_site_type_symbol
 _atom_site_label
 _atom_site_symmetry_multiplicity
 _atom_site_fract_x
 _atom_site_fract_y
 _atom_site_fract_z
 _atom_site_occupancy
  Li  Li0  1  0.50000057  -0.00000081  0.49999963  1
  Li  Li1  1  0.49999985  0.49999908  0.49999831  1
  Li  Li2  1  0.49999819  0.49999864  -0.00000025  1
  Fe  Fe3  1  -0.00000422  -0.00001997  0.49998118  1
  Fe  Fe4  1  0.00001596  0.50000748  0.50000571  1
  Fe  Fe5  1  -0.00000713  0.50002206  0.00002040  1
  Ni  Ni6  1  -0.00000094  -0.00000305  -0.00000024  1
  O  O7  1  0.21792391  0.27782347  0.01277082  1
  O  O8  1  0.22337567  0.26678990  0.53357306  1
  O  O9  1  0.22357002  0.75564145  0.51140645  1
  O  O10  1  0.21764661  0.73442729  0.01254032  1
  O  O11  1  0.78235152  0.26557264  0.98746058  1
  O  O12  1  0.77642901  0.24435783  0.48859350  1
  O  O13  1  0.77662571  0.73320911  0.46642349  1
  O  O14  1  0.78207525  0.72217487  0.98722704  1
