# generated using pymatgen
data_Li3FePCO7
_symmetry_space_group_name_H-M   'P 1'
_cell_length_a   8.53980203
_cell_length_b   10.02614099
_cell_length_c   6.46614705
_cell_angle_alpha   89.80836734
_cell_angle_beta   90.52334729
_cell_angle_gamma   84.59596150
_symmetry_Int_Tables_number   1
_chemical_formula_structural   Li3FePCO7
_chemical_formula_sum   'Li12 Fe4 P4 C4 O28'
_cell_volume   551.15099692
_cell_formula_units_Z   4
loop_
 _symmetry_equiv_pos_site_id
 _symmetry_equiv_pos_as_xyz
  1  'x, y, z'
loop_
 _atom_site_type_symbol
 _atom_site_label
 _atom_site_symmetry_multiplicity
 _atom_site_fract_x
 _atom_site_fract_y
 _atom_site_fract_z
 _atom_site_occupancy
  Li  Li0  1  0.09754429  0.38695969  0.25458825  1
  Li  Li1  1  0.09682243  0.88001936  0.25931184  1
  Li  Li2  1  0.27857428  0.10761638  0.48757958  1
  Li  Li3  1  0.27442734  0.63916786  0.01533964  1
  Li  Li4  1  0.27518550  0.63858127  0.48402078  1
  Li  Li5  1  0.34464195  0.87785976  0.74040303  1
  Li  Li6  1  0.72173882  0.37727201  0.52359401  1
  Li  Li7  1  0.72215373  0.37828057  0.97919965  1
  Li  Li8  1  0.72008315  0.87060167  0.52929553  1
  Li  Li9  1  0.72140445  0.87191141  0.97118171  1
  Li  Li10  1  0.89559504  0.11057539  0.74902930  1
  Li  Li11  1  0.91067635  0.62347290  0.74865687  1
  Fe  Fe12  1  0.25917811  0.11519739  0.99087363  1
  Fe  Fe13  1  0.33623457  0.39841906  0.75024447  1
  Fe  Fe14  1  0.66599098  0.10270423  0.25034676  1
  Fe  Fe15  1  0.66530704  0.60778944  0.25046438  1
  P  P16  1  0.41004314  0.35913520  0.24868960  1
  P  P17  1  0.41168557  0.86261019  0.25122826  1
  P  P18  1  0.58684849  0.14203930  0.74896020  1
  P  P19  1  0.58924674  0.64100723  0.74991432  1
  C  C20  1  0.03517862  0.34700823  0.75804087  1
  C  C21  1  0.03887265  0.85379756  0.75509568  1
  C  C22  1  0.96397659  0.15082624  0.24782824  1
  C  C23  1  0.96483957  0.65105601  0.25057523  1
  O  O24  1  0.06847234  0.46965188  0.74789851  1
  O  O25  1  0.11062836  0.18183341  0.24134418  1
  O  O26  1  0.07069156  0.97743609  0.76042973  1
  O  O27  1  0.15516480  0.25299872  0.76918920  1
  O  O28  1  0.11071357  0.67955149  0.24997685  1
  O  O29  1  0.14997876  0.75578645  0.75316907  1
  O  O30  1  0.30719238  0.41567439  0.06230924  1
  O  O31  1  0.30804552  0.40850805  0.43711252  1
  O  O32  1  0.31386573  0.91688300  0.05717878  1
  O  O33  1  0.30936231  0.91089660  0.43685699  1
  O  O34  1  0.42241957  0.09064275  0.74287323  1
  O  O35  1  0.42668566  0.20171870  0.24030988  1
  O  O36  1  0.42243509  0.59200996  0.74867959  1
  O  O37  1  0.42948983  0.70579728  0.24401891  1
  O  O38  1  0.57108574  0.29862092  0.74867446  1
  O  O39  1  0.57524888  0.40847203  0.25202630  1
  O  O40  1  0.57448738  0.79541464  0.74856084  1
  O  O41  1  0.57880326  0.91060236  0.25381273  1
  O  O42  1  0.68920785  0.08852150  0.93748114  1
  O  O43  1  0.68909955  0.08816632  0.56360310  1
  O  O44  1  0.68988509  0.58406197  0.56339607  1
  O  O45  1  0.69104946  0.58438305  0.93821136  1
  O  O46  1  0.85096232  0.24704311  0.25189434  1
  O  O47  1  0.89369773  0.31292774  0.75316230  1
  O  O48  1  0.85125516  0.74730315  0.25130067  1
  O  O49  1  0.93256637  0.02823944  0.25108899  1
  O  O50  1  0.89169218  0.82489952  0.75024795  1
  O  O51  1  0.92956115  0.52804714  0.25072826  1
