# generated using pymatgen
data_Mn(CoO2)2
_symmetry_space_group_name_H-M   'P 1'
_cell_length_a   5.85743201
_cell_length_b   5.79979316
_cell_length_c   10.16106733
_cell_angle_alpha   107.00629680
_cell_angle_beta   105.10568190
_cell_angle_gamma   61.18791109
_symmetry_Int_Tables_number   1
_chemical_formula_structural   Mn(CoO2)2
_chemical_formula_sum   'Mn4 Co8 O16'
_cell_volume   286.26827907
_cell_formula_units_Z   4
loop_
 _symmetry_equiv_pos_site_id
 _symmetry_equiv_pos_as_xyz
  1  'x, y, z'
loop_
 _atom_site_type_symbol
 _atom_site_label
 _atom_site_symmetry_multiplicity
 _atom_site_fract_x
 _atom_site_fract_y
 _atom_site_fract_z
 _atom_site_occupancy
  Mn  Mn0  1  0.74161900  0.75530045  0.74647305  1
  Mn  Mn1  1  0.81982833  0.31333272  0.43882757  1
  Mn  Mn2  1  0.26100924  0.24586585  0.25453138  1
  Mn  Mn3  1  -0.00003386  0.49911569  0.00037720  1
  Co  Co4  1  0.31109490  0.81804155  0.93965183  1
  Co  Co5  1  0.18277580  0.69166143  0.56159614  1
  Co  Co6  1  0.75180907  0.74794418  0.25123028  1
  Co  Co7  1  0.74364116  0.25321668  0.74690046  1
  Co  Co8  1  0.24837221  0.25208550  0.74852066  1
  Co  Co9  1  0.25640633  0.74769483  0.25270846  1
  Co  Co10  1  0.50010302  0.00075814  0.49912965  1
  Co  Co11  1  0.68812318  0.18124169  0.06012803  1
  O  O12  1  0.36614651  0.91378545  0.62083467  1
  O  O13  1  0.83184842  0.89955600  0.62523315  1
  O  O14  1  0.63707857  0.61232281  0.85864342  1
  O  O15  1  0.12561146  0.59598362  0.87663205  1
  O  O16  1  0.09451729  0.14955680  0.85953007  1
  O  O17  1  0.89518622  0.37748063  0.64894875  1
  O  O18  1  0.59511792  0.66316295  0.36640122  1
  O  O19  1  0.40055187  0.86317112  0.14515479  1
  O  O20  1  0.60208005  0.13016308  0.85238971  1
  O  O21  1  0.40002642  0.34492124  0.63158214  1
  O  O22  1  0.90635886  0.84916732  0.14003947  1
  O  O23  1  0.10396176  0.63133548  0.35666299  1
  O  O24  1  0.87818210  0.40032520  0.12563552  1
  O  O25  1  0.36430687  0.38616834  0.14350164  1
  O  O26  1  0.17386770  0.09898538  0.37161307  1
  O  O27  1  0.62996858  0.08521288  0.37567463  1
