# generated using pymatgen
data_Na3Ni2P2(CO7)2
_symmetry_space_group_name_H-M   'P 1'
_cell_length_a   10.20747571
_cell_length_b   10.44694476
_cell_length_c   6.49486281
_cell_angle_alpha   90.84238471
_cell_angle_beta   91.01697775
_cell_angle_gamma   59.93068810
_symmetry_Int_Tables_number   1
_chemical_formula_structural   Na3Ni2P2(CO7)2
_chemical_formula_sum   'Na6 Ni4 P4 C4 O28'
_cell_volume   599.27521297
_cell_formula_units_Z   2
loop_
 _symmetry_equiv_pos_site_id
 _symmetry_equiv_pos_as_xyz
  1  'x, y, z'
loop_
 _atom_site_type_symbol
 _atom_site_label
 _atom_site_symmetry_multiplicity
 _atom_site_fract_x
 _atom_site_fract_y
 _atom_site_fract_z
 _atom_site_occupancy
  Na  Na0  1  0.00210368  0.24410422  0.48443983  1
  Na  Na1  1  0.00503312  0.24060641  0.00928242  1
  Na  Na2  1  0.49496688  0.25939359  0.99071758  1
  Na  Na3  1  0.49789632  0.25589578  0.51556017  1
  Na  Na4  1  0.50473081  0.74629259  0.03221247  1
  Na  Na5  1  0.99526919  0.75370741  0.96778753  1
  Ni  Ni6  1  0.28499639  0.06268350  0.74653154  1
  Ni  Ni7  1  0.21500361  0.43731650  0.25346846  1
  Ni  Ni8  1  0.77806428  0.56747280  0.74595420  1
  Ni  Ni9  1  0.72193572  0.93252720  0.25404580  1
  P  P10  1  0.35669743  0.07307145  0.24823967  1
  P  P11  1  0.14330257  0.42692855  0.75176033  1
  P  P12  1  0.85515686  0.57238811  0.24934996  1
  P  P13  1  0.64484314  0.92761189  0.75065004  1
  C  C14  1  0.82081186  0.10190585  0.24725187  1
  C  C15  1  0.31598531  0.60453489  0.25305788  1
  C  C16  1  0.67918814  0.39809415  0.75274813  1
  C  C17  1  0.18401469  0.89546511  0.74694212  1
  O  O18  1  0.09888281  0.03929115  0.73826275  1
  O  O19  1  0.26686597  0.05978200  0.06234375  1
  O  O20  1  0.26846484  0.06600225  0.43378386  1
  O  O21  1  0.13960199  0.28065710  0.75298341  1
  O  O22  1  0.02190103  0.44015791  0.24033719  1
  O  O23  1  0.47809897  0.05984209  0.75966281  1
  O  O24  1  0.36039801  0.21934290  0.24701659  1
  O  O25  1  0.23313403  0.44021800  0.93765625  1
  O  O26  1  0.23153516  0.43399775  0.56621614  1
  O  O27  1  0.67612724  0.14578063  0.25246945  1
  O  O28  1  0.17249298  0.64826754  0.24932727  1
  O  O29  1  0.40111719  0.46070885  0.26173725  1
  O  O30  1  0.63021742  0.30970512  0.75854656  1
  O  O31  1  0.13243179  0.81023250  0.75288115  1
  O  O32  1  0.86978258  0.19029488  0.24145344  1
  O  O33  1  0.36756821  0.68976750  0.24711885  1
  O  O34  1  0.59517703  0.53998753  0.75100793  1
  O  O35  1  0.82387276  0.35421937  0.74753055  1
  O  O36  1  0.32750702  0.85173246  0.75067273  1
  O  O37  1  0.76547217  0.55805031  0.06390601  1
  O  O38  1  0.77677884  0.55189332  0.43573721  1
  O  O39  1  0.64127697  0.78259521  0.75461363  1
  O  O40  1  0.52315533  0.94408863  0.24050066  1
  O  O41  1  0.97684467  0.55591137  0.75949934  1
  O  O42  1  0.85872303  0.71740479  0.24538637  1
  O  O43  1  0.72322116  0.94810668  0.56426279  1
  O  O44  1  0.73452783  0.94194969  0.93609399  1
  O  O45  1  0.90482297  0.96001247  0.24899207  1
