# generated using pymatgen
data_LiFe2(PO4)2
_symmetry_space_group_name_H-M   'P 1'
_cell_length_a   10.34140741
_cell_length_b   13.73841789
_cell_length_c   5.18869943
_cell_angle_alpha   90.00000000
_cell_angle_beta   90.00000000
_cell_angle_gamma   90.00000000
_symmetry_Int_Tables_number   1
_chemical_formula_structural   LiFe2(PO4)2
_chemical_formula_sum   'Li4 Fe8 P8 O32'
_cell_volume   737.18227446
_cell_formula_units_Z   4
loop_
 _symmetry_equiv_pos_site_id
 _symmetry_equiv_pos_as_xyz
  1  'x, y, z'
loop_
 _atom_site_type_symbol
 _atom_site_label
 _atom_site_symmetry_multiplicity
 _atom_site_fract_x
 _atom_site_fract_y
 _atom_site_fract_z
 _atom_site_occupancy
  Li  Li0  1  0.21284889  0.00175744  0.54183254  1
  Li  Li1  1  0.28715211  0.50175744  0.54183254  1
  Li  Li2  1  0.71284889  0.00175744  0.45816746  1
  Li  Li3  1  0.78715111  0.50175744  0.45816746  1
  Fe  Fe4  1  0.03437467  0.50209565  0.91876235  1
  Fe  Fe5  1  0.21501928  0.74920493  0.54567968  1
  Fe  Fe6  1  0.28498072  0.24920493  0.54567968  1
  Fe  Fe7  1  0.46562533  0.00209565  0.91876235  1
  Fe  Fe8  1  0.53437467  0.50209565  0.08123765  1
  Fe  Fe9  1  0.71501928  0.74920493  0.45432032  1
  Fe  Fe10  1  0.78498072  0.24920493  0.45432032  1
  Fe  Fe11  1  0.96562533  0.00209565  0.08123765  1
  P  P12  1  0.03628872  0.37609122  0.43573624  1
  P  P13  1  0.21756505  0.12793486  0.04647439  1
  P  P14  1  0.28243495  0.62793486  0.04647439  1
  P  P15  1  0.46371128  0.87609122  0.43573624  1
  P  P16  1  0.53628872  0.37609122  0.56426376  1
  P  P17  1  0.71756505  0.12793486  0.95352561  1
  P  P18  1  0.78243495  0.62793486  0.95352561  1
  P  P19  1  0.96371128  0.87609122  0.56426376  1
  O  O20  1  0.01015666  0.39795479  0.14591155  1
  O  O21  1  0.02756763  0.78114276  0.48622698  1
  O  O22  1  0.02738102  0.96530377  0.41567484  1
  O  O23  1  0.07063343  0.10852491  0.99865362  1
  O  O24  1  0.18299380  0.37760471  0.49632892  1
  O  O25  1  0.24158295  0.72347276  0.92569513  1
  O  O26  1  0.21239091  0.53933550  0.90668268  1
  O  O27  1  0.24758725  0.12356570  0.33902841  1
  O  O28  1  0.25241275  0.62356570  0.33902841  1
  O  O29  1  0.28760909  0.03933550  0.90668268  1
  O  O30  1  0.25841705  0.22347276  0.92569513  1
  O  O31  1  0.31700620  0.87760471  0.49632892  1
  O  O32  1  0.42936657  0.60852491  0.99865362  1
  O  O33  1  0.47261898  0.46530377  0.41567484  1
  O  O34  1  0.47243237  0.28114276  0.48622698  1
  O  O35  1  0.48984334  0.89795479  0.14591155  1
  O  O36  1  0.51015666  0.39795479  0.85408845  1
  O  O37  1  0.52756763  0.78114276  0.51377302  1
  O  O38  1  0.52738102  0.96530377  0.58432516  1
  O  O39  1  0.57063343  0.10852491  0.00134638  1
  O  O40  1  0.68299380  0.37760471  0.50367108  1
  O  O41  1  0.74158295  0.72347276  0.07430487  1
  O  O42  1  0.71239091  0.53933550  0.09331732  1
  O  O43  1  0.74758725  0.12356570  0.66097159  1
  O  O44  1  0.75241275  0.62356570  0.66097159  1
  O  O45  1  0.78760909  0.03933550  0.09331732  1
  O  O46  1  0.75841705  0.22347276  0.07430487  1
  O  O47  1  0.81700620  0.87760471  0.50367108  1
  O  O48  1  0.92936657  0.60852491  0.00134638  1
  O  O49  1  0.97261898  0.46530377  0.58432516  1
  O  O50  1  0.97243237  0.28114276  0.51377302  1
  O  O51  1  0.98984334  0.89795479  0.85408845  1
