# generated using pymatgen
data_LiLa2Ti2CrO9
_symmetry_space_group_name_H-M   'P 1'
_cell_length_a   5.47594472
_cell_length_b   5.55451618
_cell_length_c   23.41397228
_cell_angle_alpha   90.00000000
_cell_angle_beta   89.98113439
_cell_angle_gamma   90.00000000
_symmetry_Int_Tables_number   1
_chemical_formula_structural   LiLa2Ti2CrO9
_chemical_formula_sum   'Li4 La8 Ti8 Cr4 O36'
_cell_volume   712.16457576
_cell_formula_units_Z   4
loop_
 _symmetry_equiv_pos_site_id
 _symmetry_equiv_pos_as_xyz
  1  'x, y, z'
loop_
 _atom_site_type_symbol
 _atom_site_label
 _atom_site_symmetry_multiplicity
 _atom_site_fract_x
 _atom_site_fract_y
 _atom_site_fract_z
 _atom_site_occupancy
  Li  Li0  1  0.00015120  0.91894886  0.08304855  1
  Li  Li1  1  0.00886949  0.93765579  0.75107049  1
  Li  Li2  1  0.49113051  0.43765579  0.41559651  1
  Li  Li3  1  0.49984880  0.41894886  0.08361845  1
  La  La4  1  0.00853813  0.03289563  0.41582072  1
  La  La5  1  0.49146187  0.53289563  0.75084628  1
  La  La6  1  0.50572072  0.47068789  0.24989475  1
  La  La7  1  0.50656851  0.47165112  0.58102086  1
  La  La8  1  0.50586437  0.47325950  0.91938092  1
  La  La9  1  0.99413563  0.97325950  0.24728608  1
  La  La10  1  0.99427928  0.97068789  0.91677125  1
  La  La11  1  0.99343149  0.97165112  0.58564514  1
  Ti  Ti12  1  0.00357357  0.48479827  0.00700983  1
  Ti  Ti13  1  0.00345978  0.48413391  0.15964500  1
  Ti  Ti14  1  0.99981787  0.50885871  0.49424541  1
  Ti  Ti15  1  0.00040935  0.49594230  0.83054352  1
  Ti  Ti16  1  0.49654022  0.98413391  0.00702100  1
  Ti  Ti17  1  0.50018213  0.00885971  0.67242159  1
  Ti  Ti18  1  0.49959065  0.99594230  0.33612348  1
  Ti  Ti19  1  0.49642643  0.98479827  0.15965717  1
  Cr  Cr20  1  0.99912599  0.50516526  0.33335800  1
  Cr  Cr21  1  0.99961521  0.50012054  0.66782183  1
  Cr  Cr22  1  0.50038479  0.00012054  0.49884417  1
  Cr  Cr23  1  0.50087401  0.00516526  0.83330800  1
  O  O24  1  0.89578371  0.50940259  0.08334895  1
  O  O25  1  0.90804970  0.49518436  0.41674854  1
  O  O26  1  0.93239817  0.49165946  0.75176858  1
  O  O27  1  0.21156641  0.80581245  0.01425432  1
  O  O28  1  0.20756639  0.80671204  0.15330026  1
  O  O29  1  0.21070858  0.79943884  0.34051409  1
  O  O30  1  0.20469978  0.79327812  0.48998727  1
  O  O31  1  0.21855551  0.79320534  0.68224797  1
  O  O32  1  0.21340461  0.78725928  0.81911021  1
  O  O33  1  0.29243361  0.30671204  0.01336674  1
  O  O34  1  0.28843359  0.30581245  0.15241168  1
  O  O35  1  0.28659539  0.28725928  0.34755679  1
  O  O36  1  0.28144449  0.29320534  0.48441903  1
  O  O37  1  0.29530022  0.29327812  0.67667973  1
  O  O38  1  0.28929142  0.29943884  0.82615291  1
  O  O39  1  0.60421629  0.00940259  0.08331805  1
  O  O40  1  0.56760183  0.99165946  0.41489842  1
  O  O41  1  0.59195030  0.99518436  0.74991846  1
  O  O42  1  0.43020504  0.02542195  0.24781615  1
  O  O43  1  0.42867387  0.01380907  0.91900551  1
  O  O44  1  0.43009433  0.01404188  0.58352994  1
  O  O45  1  0.71747659  0.73836893  0.18159227  1
  O  O46  1  0.71734789  0.71837210  0.84649326  1
  O  O47  1  0.72921417  0.72806001  0.51549180  1
  O  O48  1  0.71127969  0.72151896  0.65462705  1
  O  O49  1  0.72157599  0.73459778  0.31654250  1
  O  O50  1  0.72372018  0.73973902  0.98569933  1
  O  O51  1  0.77627982  0.23973902  0.18096767  1
  O  O52  1  0.77842401  0.23459778  0.85012450  1
  O  O53  1  0.78872031  0.22151896  0.51203895  1
  O  O54  1  0.78265211  0.21837210  0.32017374  1
  O  O55  1  0.77078583  0.22806001  0.65117520  1
  O  O56  1  0.78252341  0.23836893  0.98507373  1
  O  O57  1  0.07132613  0.51380907  0.24766149  1
  O  O58  1  0.06990567  0.51404188  0.58313606  1
  O  O59  1  0.06979496  0.52542195  0.91885085  1
