# generated using pymatgen
data_Co9Cu3O16
_symmetry_space_group_name_H-M   'P 1'
_cell_length_a   5.80995554
_cell_length_b   5.80995554
_cell_length_c   8.20472702
_cell_angle_alpha   90.00000000
_cell_angle_beta   90.00000000
_cell_angle_gamma   89.09052889
_symmetry_Int_Tables_number   1
_chemical_formula_structural   Co9Cu3O16
_chemical_formula_sum   'Co9 Cu3 O16'
_cell_volume   276.92045663
_cell_formula_units_Z   1
loop_
 _symmetry_equiv_pos_site_id
 _symmetry_equiv_pos_as_xyz
  1  'x, y, z'
loop_
 _atom_site_type_symbol
 _atom_site_label
 _atom_site_symmetry_multiplicity
 _atom_site_fract_x
 _atom_site_fract_y
 _atom_site_fract_z
 _atom_site_occupancy
  Co  Co0  1  0.24921526  0.49974041  0.12715038  1
  Co  Co1  1  0.75078474  0.50025959  0.12715038  1
  Co  Co2  1  0.00025959  0.25078474  0.37284962  1
  Co  Co3  1  0.99974041  0.74921526  0.37284962  1
  Co  Co4  1  0.75169143  0.00026788  0.62238630  1
  Co  Co5  1  0.24830857  0.99973212  0.62238630  1
  Co  Co6  1  0.00000000  0.50000000  0.75000000  1
  Co  Co7  1  0.50026788  0.25169143  0.87761370  1
  Co  Co8  1  0.49973212  0.74830857  0.87761370  1
  Cu  Cu9  1  0.00000000  0.00000000  0.00096886  1
  Cu  Cu10  1  0.50000000  0.00000000  0.25000000  1
  Cu  Cu11  1  0.50000000  0.50000000  0.49903114  1
  O  O12  1  0.49614758  0.71920038  0.11391103  1
  O  O13  1  0.50385242  0.28079962  0.11391103  1
  O  O14  1  0.00346340  0.27951800  0.14087250  1
  O  O15  1  0.99653660  0.72048200  0.14087250  1
  O  O16  1  0.77951800  0.50346340  0.35912750  1
  O  O17  1  0.22048200  0.49653660  0.35912750  1
  O  O18  1  0.78079962  0.00385242  0.38608897  1
  O  O19  1  0.21920038  0.99614758  0.38608897  1
  O  O20  1  0.99636870  0.23022010  0.60922401  1
  O  O21  1  0.00363130  0.76977990  0.60922401  1
  O  O22  1  0.49583526  0.22953855  0.63667749  1
  O  O23  1  0.50416474  0.77046145  0.63667749  1
  O  O24  1  0.72953855  0.99583526  0.86332251  1
  O  O25  1  0.27046145  0.00416474  0.86332251  1
  O  O26  1  0.26978090  0.50363130  0.89077599  1
  O  O27  1  0.73022010  0.49636870  0.89077599  1
