# generated using pymatgen
data_Mg30MnCO32
_symmetry_space_group_name_H-M   'P 1'
_cell_length_a   8.53664368
_cell_length_b   8.52654069
_cell_length_c   8.52654069
_cell_angle_alpha   90.00000000
_cell_angle_beta   90.00000000
_cell_angle_gamma   90.00000000
_symmetry_Int_Tables_number   1
_chemical_formula_structural   Mg30MnCO32
_chemical_formula_sum   'Mg30 Mn1 C1 O32'
_cell_volume   620.63018219
_cell_formula_units_Z   1
loop_
 _symmetry_equiv_pos_site_id
 _symmetry_equiv_pos_as_xyz
  1  'x, y, z'
loop_
 _atom_site_type_symbol
 _atom_site_label
 _atom_site_symmetry_multiplicity
 _atom_site_fract_x
 _atom_site_fract_y
 _atom_site_fract_z
 _atom_site_occupancy
  Mg  Mg0  1  -0.00000000  -0.00000000  0.50000000  1
  Mg  Mg1  1  -0.00000000  0.50000000  0.00000000  1
  Mg  Mg2  1  0.50000000  -0.00000000  0.00000000  1
  Mg  Mg3  1  0.50000000  -0.00000000  0.50000000  1
  Mg  Mg4  1  0.50000000  0.50000000  0.00000000  1
  Mg  Mg5  1  0.50000000  0.50000000  0.50000000  1
  Mg  Mg6  1  -0.00000000  0.25201795  0.25201795  1
  Mg  Mg7  1  -0.00000000  0.25201795  0.74798205  1
  Mg  Mg8  1  -0.00000000  0.74798205  0.25201795  1
  Mg  Mg9  1  -0.00000000  0.74798205  0.74798205  1
  Mg  Mg10  1  0.50000000  0.25014109  0.25014109  1
  Mg  Mg11  1  0.50000000  0.25014109  0.74985891  1
  Mg  Mg12  1  0.50000000  0.74985891  0.25014109  1
  Mg  Mg13  1  0.50000000  0.74985891  0.74985891  1
  Mg  Mg14  1  0.24991877  -0.00000000  0.24974759  1
  Mg  Mg15  1  0.24991877  -0.00000000  0.75025241  1
  Mg  Mg16  1  0.24835851  0.50000000  0.25158675  1
  Mg  Mg17  1  0.24835851  0.50000000  0.74841325  1
  Mg  Mg18  1  0.75008123  -0.00000000  0.24974759  1
  Mg  Mg19  1  0.75008123  -0.00000000  0.75025241  1
  Mg  Mg20  1  0.75164149  0.50000000  0.25158675  1
  Mg  Mg21  1  0.75164149  0.50000000  0.74841325  1
  Mg  Mg22  1  0.24991877  0.24974759  -0.00000000  1
  Mg  Mg23  1  0.24835851  0.25158675  0.50000000  1
  Mg  Mg24  1  0.24991877  0.75025241  0.00000000  1
  Mg  Mg25  1  0.24835851  0.74841325  0.50000000  1
  Mg  Mg26  1  0.75008123  0.24974759  -0.00000000  1
  Mg  Mg27  1  0.75164149  0.25158675  0.50000000  1
  Mg  Mg28  1  0.75008123  0.75025241  0.00000000  1
  Mg  Mg29  1  0.75164149  0.74841325  0.50000000  1
  Mn  Mn30  1  -0.00000000  -0.00000000  0.00000000  1
  C  C31  1  -0.00000000  0.50000000  0.50000000  1
  O  O32  1  0.25635472  -0.00000000  0.00000000  1
  O  O33  1  0.24925989  -0.00000000  0.50000000  1
  O  O34  1  0.24925989  0.50000000  -0.00000000  1
  O  O35  1  0.25151777  0.50000000  0.50000000  1
  O  O36  1  0.74364528  -0.00000000  -0.00000000  1
  O  O37  1  0.75074011  -0.00000000  0.50000000  1
  O  O38  1  0.75074011  0.50000000  0.00000000  1
  O  O39  1  0.74848223  0.50000000  0.50000000  1
  O  O40  1  0.24932273  0.25025009  0.25025009  1
  O  O41  1  0.24932273  0.25025009  0.74974991  1
  O  O42  1  0.24932273  0.74974991  0.25025009  1
  O  O43  1  0.24932273  0.74974991  0.74974991  1
  O  O44  1  0.75067727  0.25025009  0.25025009  1
  O  O45  1  0.75067727  0.25025009  0.74974991  1
  O  O46  1  0.75067727  0.74974991  0.25025009  1
  O  O47  1  0.75067727  0.74974991  0.74974991  1
  O  O48  1  -0.00000000  -0.00000000  0.25387621  1
  O  O49  1  -0.00000000  -0.00000000  0.74612379  1
  O  O50  1  -0.00000000  0.50000000  0.24837112  1
  O  O51  1  -0.00000000  0.50000000  0.75162888  1
  O  O52  1  0.50000000  -0.00000000  0.25055891  1
  O  O53  1  0.50000000  -0.00000000  0.74944109  1
  O  O54  1  0.50000000  0.50000000  0.25068670  1
  O  O55  1  0.50000000  0.50000000  0.74931330  1
  O  O56  1  -0.00000000  0.25387621  0.00000000  1
  O  O57  1  -0.00000000  0.24837112  0.50000000  1
  O  O58  1  -0.00000000  0.74612379  -0.00000000  1
  O  O59  1  -0.00000000  0.75162888  0.50000000  1
  O  O60  1  0.50000000  0.25055891  -0.00000000  1
  O  O61  1  0.50000000  0.25068670  0.50000000  1
  O  O62  1  0.50000000  0.74944109  0.00000000  1
  O  O63  1  0.50000000  0.74931330  0.50000000  1
