# generated using pymatgen
data_CaCeMg14
_symmetry_space_group_name_H-M   'P 1'
_cell_length_a   6.52293154
_cell_length_b   6.68340985
_cell_length_c   10.50363205
_cell_angle_alpha   90.00000000
_cell_angle_beta   90.00000000
_cell_angle_gamma   120.81722538
_symmetry_Int_Tables_number   1
_chemical_formula_structural   CaCeMg14
_chemical_formula_sum   'Ca1 Ce1 Mg14'
_cell_volume   393.25607688
_cell_formula_units_Z   1
loop_
 _symmetry_equiv_pos_site_id
 _symmetry_equiv_pos_as_xyz
  1  'x, y, z'
loop_
 _atom_site_type_symbol
 _atom_site_label
 _atom_site_symmetry_multiplicity
 _atom_site_fract_x
 _atom_site_fract_y
 _atom_site_fract_z
 _atom_site_occupancy
  Ca  Ca0  1  0.17094620  0.33547260  0.12500000  1
  Ce  Ce1  1  0.17281698  0.83640799  0.12500000  1
  Mg  Mg2  1  0.16718975  0.33359437  0.62500000  1
  Mg  Mg3  1  0.16620119  0.83310009  0.62500000  1
  Mg  Mg4  1  0.66335115  0.33426750  0.12500000  1
  Mg  Mg5  1  0.66675796  0.33401194  0.62500000  1
  Mg  Mg6  1  0.66335115  0.82908265  0.12500000  1
  Mg  Mg7  1  0.66675796  0.83274502  0.62500000  1
  Mg  Mg8  1  0.33412683  0.16470304  0.37880456  1
  Mg  Mg9  1  0.33412683  0.16470304  0.87119544  1
  Mg  Mg10  1  0.33412683  0.66942479  0.37880456  1
  Mg  Mg11  1  0.33412683  0.66942479  0.87119544  1
  Mg  Mg12  1  0.83000330  0.16500215  0.37552839  1
  Mg  Mg13  1  0.83000330  0.16500215  0.87447161  1
  Mg  Mg14  1  0.83305687  0.66652893  0.37508106  1
  Mg  Mg15  1  0.83305687  0.66652893  0.87491894  1
