# generated using pymatgen
data_Li5Cu(HO2)2
_symmetry_space_group_name_H-M   'P 1'
_cell_length_a   5.50873076
_cell_length_b   7.47306685
_cell_length_c   10.79269303
_cell_angle_alpha   90.00000000
_cell_angle_beta   90.00000000
_cell_angle_gamma   90.00000000
_symmetry_Int_Tables_number   1
_chemical_formula_structural   Li5Cu(HO2)2
_chemical_formula_sum   'Li20 Cu4 H8 O16'
_cell_volume   444.30401600
_cell_formula_units_Z   4
loop_
 _symmetry_equiv_pos_site_id
 _symmetry_equiv_pos_as_xyz
  1  'x, y, z'
loop_
 _atom_site_type_symbol
 _atom_site_label
 _atom_site_symmetry_multiplicity
 _atom_site_fract_x
 _atom_site_fract_y
 _atom_site_fract_z
 _atom_site_occupancy
  Li  Li0  1  0.04748969  0.75000000  0.04697099  1
  Li  Li1  1  0.06586875  0.25000000  0.21748608  1
  Li  Li2  1  0.05282105  0.25000000  0.72612227  1
  Li  Li3  1  0.27838008  0.50602337  0.34555606  1
  Li  Li4  1  0.27838008  0.99397663  0.34555606  1
  Li  Li5  1  0.22161992  0.00602337  0.84555606  1
  Li  Li6  1  0.22161992  0.49397663  0.84555606  1
  Li  Li7  1  0.44717895  0.75000000  0.22612227  1
  Li  Li8  1  0.43413125  0.75000000  0.71748608  1
  Li  Li9  1  0.45251031  0.25000000  0.54697099  1
  Li  Li10  1  0.54748969  0.75000000  0.45302901  1
  Li  Li11  1  0.56586875  0.25000000  0.28251392  1
  Li  Li12  1  0.55282105  0.25000000  0.77387773  1
  Li  Li13  1  0.77838008  0.50602337  0.15444394  1
  Li  Li14  1  0.77838008  0.99397663  0.15444394  1
  Li  Li15  1  0.72161992  0.00602337  0.65444394  1
  Li  Li16  1  0.72161992  0.49397663  0.65444394  1
  Li  Li17  1  0.94717895  0.75000000  0.27387773  1
  Li  Li18  1  0.93413125  0.75000000  0.78251392  1
  Li  Li19  1  0.95251031  0.25000000  0.95302901  1
  Cu  Cu20  1  0.99705195  0.75000000  0.52383368  1
  Cu  Cu21  1  0.50294805  0.25000000  0.02383368  1
  Cu  Cu22  1  0.49705195  0.75000000  0.97616632  1
  Cu  Cu23  1  0.00294805  0.25000000  0.47616632  1
  H  H24  1  0.24815223  0.48784915  0.10980999  1
  H  H25  1  0.24815223  0.01215085  0.10980999  1
  H  H26  1  0.25184777  0.98784915  0.60980999  1
  H  H27  1  0.25184777  0.51215085  0.60980999  1
  H  H28  1  0.74815223  0.48784915  0.39019001  1
  H  H29  1  0.74815223  0.01215085  0.39019001  1
  H  H30  1  0.75184777  0.98784915  0.89019001  1
  H  H31  1  0.75184777  0.51215085  0.89019001  1
  O  O32  1  0.14548742  0.54315280  0.17375754  1
  O  O33  1  0.14548742  0.95684720  0.17375754  1
  O  O34  1  0.21678628  0.75000000  0.40108162  1
  O  O35  1  0.26345985  0.25000000  0.37237265  1
  O  O36  1  0.23654015  0.75000000  0.87237265  1
  O  O37  1  0.28321372  0.25000000  0.90108162  1
  O  O38  1  0.35451258  0.04315280  0.67375754  1
  O  O39  1  0.35451258  0.45684720  0.67375754  1
  O  O40  1  0.64548742  0.95684720  0.32624246  1
  O  O41  1  0.64548742  0.54315280  0.32624246  1
  O  O42  1  0.71678628  0.75000000  0.09891838  1
  O  O43  1  0.76345985  0.25000000  0.12762735  1
  O  O44  1  0.73654015  0.75000000  0.62762735  1
  O  O45  1  0.78321372  0.25000000  0.59891838  1
  O  O46  1  0.85451258  0.04315280  0.82624246  1
  O  O47  1  0.85451258  0.45684720  0.82624246  1
