# generated using pymatgen
data_Sr3La2Cl12
_symmetry_space_group_name_H-M   'P 1'
_cell_length_a   8.68947273
_cell_length_b   8.68947273
_cell_length_c   15.57131143
_cell_angle_alpha   79.28207941
_cell_angle_beta   100.71792059
_cell_angle_gamma   70.06113331
_symmetry_Int_Tables_number   1
_chemical_formula_structural   Sr3La2Cl12
_chemical_formula_sum   'Sr6 La4 Cl24'
_cell_volume   1045.64755041
_cell_formula_units_Z   2
loop_
 _symmetry_equiv_pos_site_id
 _symmetry_equiv_pos_as_xyz
  1  'x, y, z'
loop_
 _atom_site_type_symbol
 _atom_site_label
 _atom_site_symmetry_multiplicity
 _atom_site_fract_x
 _atom_site_fract_y
 _atom_site_fract_z
 _atom_site_occupancy
  Sr  Sr0  1  0.47156633  0.78441124  0.92326470  1
  Sr  Sr1  1  0.21558876  0.52843367  0.42326470  1
  Sr  Sr2  1  0.86911031  0.86911031  0.75000000  1
  Sr  Sr3  1  0.13088969  0.13088969  0.25000000  1
  Sr  Sr4  1  0.78441124  0.47156633  0.57673530  1
  Sr  Sr5  1  0.52843367  0.21558876  0.07673530  1
  La  La6  1  0.29465053  0.94872511  0.59417642  1
  La  La7  1  0.05127489  0.70534947  0.09417642  1
  La  La8  1  0.94872511  0.29465053  0.90582358  1
  La  La9  1  0.70534947  0.05127489  0.40582358  1
  Cl  Cl10  1  0.24178014  0.78845179  0.75715944  1
  Cl  Cl11  1  0.51228429  0.98633516  0.74546126  1
  Cl  Cl12  1  0.03750640  0.91413998  0.91997278  1
  Cl  Cl13  1  0.39780593  0.60364910  0.57978602  1
  Cl  Cl14  1  0.83305933  0.64366590  0.92609578  1
  Cl  Cl15  1  0.13776570  0.30176034  0.57398844  1
  Cl  Cl16  1  0.21154821  0.75821986  0.25715944  1
  Cl  Cl17  1  0.30176034  0.13776570  0.92601156  1
  Cl  Cl18  1  0.64366590  0.83305933  0.57390422  1
  Cl  Cl19  1  0.60364910  0.39780593  0.92021398  1
  Cl  Cl20  1  0.91413998  0.03750640  0.58002722  1
  Cl  Cl21  1  0.01366484  0.48771571  0.24546126  1
  Cl  Cl22  1  0.98633516  0.51228429  0.75453874  1
  Cl  Cl23  1  0.08586002  0.96249360  0.41997278  1
  Cl  Cl24  1  0.39635090  0.60219407  0.07978602  1
  Cl  Cl25  1  0.35633410  0.16694067  0.42609578  1
  Cl  Cl26  1  0.69823966  0.86223430  0.07398844  1
  Cl  Cl27  1  0.78845179  0.24178014  0.74284056  1
  Cl  Cl28  1  0.86223430  0.69823966  0.42601156  1
  Cl  Cl29  1  0.16694067  0.35633410  0.07390422  1
  Cl  Cl30  1  0.60219407  0.39635090  0.42021398  1
  Cl  Cl31  1  0.96249360  0.08586002  0.08002722  1
  Cl  Cl32  1  0.48771571  0.01366484  0.25453874  1
  Cl  Cl33  1  0.75821986  0.21154821  0.24284056  1
