# generated using pymatgen
data_Li5BiO4
_symmetry_space_group_name_H-M   'P 1'
_cell_length_a   13.65635207
_cell_length_b   13.65635207
_cell_length_c   4.87800496
_cell_angle_alpha   90.00000000
_cell_angle_beta   90.00000000
_cell_angle_gamma   90.00000000
_symmetry_Int_Tables_number   1
_chemical_formula_structural   Li5BiO4
_chemical_formula_sum   'Li40 Bi8 O32'
_cell_volume   909.72817819
_cell_formula_units_Z   8
loop_
 _symmetry_equiv_pos_site_id
 _symmetry_equiv_pos_as_xyz
  1  'x, y, z'
loop_
 _atom_site_type_symbol
 _atom_site_label
 _atom_site_symmetry_multiplicity
 _atom_site_fract_x
 _atom_site_fract_y
 _atom_site_fract_z
 _atom_site_occupancy
  Li  Li0  1  0.99030439  0.00969561  0.25000000  1
  Li  Li1  1  0.00969561  0.99030439  0.75000000  1
  Li  Li2  1  0.99030439  0.49030439  0.25000000  1
  Li  Li3  1  0.00969561  0.50969561  0.75000000  1
  Li  Li4  1  0.10553774  0.36024449  0.82263480  1
  Li  Li5  1  0.10553774  0.13975551  0.82263480  1
  Li  Li6  1  0.12193793  0.62193793  0.25000000  1
  Li  Li7  1  0.12193793  0.87806207  0.25000000  1
  Li  Li8  1  0.13975551  0.10553774  0.32263480  1
  Li  Li9  1  0.13975551  0.39446226  0.32263480  1
  Li  Li10  1  0.25000000  0.25000000  0.34410098  1
  Li  Li11  1  0.25000000  0.75000000  0.75000000  1
  Li  Li12  1  0.25000000  0.75000000  0.25000000  1
  Li  Li13  1  0.25000000  0.25000000  0.84410098  1
  Li  Li14  1  0.36024449  0.10553774  0.32263480  1
  Li  Li15  1  0.36024449  0.39446226  0.32263480  1
  Li  Li16  1  0.37806207  0.62193793  0.25000000  1
  Li  Li17  1  0.37806207  0.87806207  0.25000000  1
  Li  Li18  1  0.39446226  0.13975551  0.82263480  1
  Li  Li19  1  0.39446226  0.36024449  0.82263480  1
  Li  Li20  1  0.50969561  0.49030439  0.25000000  1
  Li  Li21  1  0.49030439  0.50969561  0.75000000  1
  Li  Li22  1  0.50969561  0.00969561  0.25000000  1
  Li  Li23  1  0.49030439  0.99030439  0.75000000  1
  Li  Li24  1  0.60553774  0.63975551  0.17736520  1
  Li  Li25  1  0.60553774  0.86024449  0.17736520  1
  Li  Li26  1  0.62193793  0.12193793  0.75000000  1
  Li  Li27  1  0.62193793  0.37806207  0.75000000  1
  Li  Li28  1  0.63975551  0.60553774  0.67736520  1
  Li  Li29  1  0.63975551  0.89446226  0.67736520  1
  Li  Li30  1  0.75000000  0.25000000  0.25000000  1
  Li  Li31  1  0.75000000  0.25000000  0.75000000  1
  Li  Li32  1  0.75000000  0.75000000  0.15589902  1
  Li  Li33  1  0.75000000  0.75000000  0.65589902  1
  Li  Li34  1  0.86024449  0.60553774  0.67736520  1
  Li  Li35  1  0.86024449  0.89446226  0.67736520  1
  Li  Li36  1  0.87806207  0.12193793  0.75000000  1
  Li  Li37  1  0.87806207  0.37806207  0.75000000  1
  Li  Li38  1  0.89446226  0.63975551  0.17736520  1
  Li  Li39  1  0.89446226  0.86024449  0.17736520  1
  Bi  Bi40  1  0.02257083  0.75000000  0.69896648  1
  Bi  Bi41  1  0.25000000  0.52257083  0.80103352  1
  Bi  Bi42  1  0.25000000  0.97742917  0.80103352  1
  Bi  Bi43  1  0.47742917  0.75000000  0.69896648  1
  Bi  Bi44  1  0.52257083  0.25000000  0.30103352  1
  Bi  Bi45  1  0.75000000  0.02257083  0.19896648  1
  Bi  Bi46  1  0.75000000  0.47742917  0.19896648  1
  Bi  Bi47  1  0.97742917  0.25000000  0.30103352  1
  O  O48  1  0.01391595  0.11108992  0.53173982  1
  O  O49  1  0.01391595  0.38891008  0.53173982  1
  O  O50  1  0.11108992  0.01391595  0.03173982  1
  O  O51  1  0.11108992  0.48608405  0.03173982  1
  O  O52  1  0.13067831  0.25000000  0.09139175  1
  O  O53  1  0.13325047  0.75000000  0.03449531  1
  O  O54  1  0.25000000  0.13067831  0.59139175  1
  O  O55  1  0.25000000  0.63325047  0.46550469  1
  O  O56  1  0.25000000  0.86674953  0.46550469  1
  O  O57  1  0.25000000  0.36932169  0.59139175  1
  O  O58  1  0.36674953  0.75000000  0.03449531  1
  O  O59  1  0.36932169  0.25000000  0.09139175  1
  O  O60  1  0.38891008  0.48608405  0.03173982  1
  O  O61  1  0.38891008  0.01391595  0.03173982  1
  O  O62  1  0.48608405  0.11108992  0.53173982  1
  O  O63  1  0.48608405  0.38891008  0.53173982  1
  O  O64  1  0.51391595  0.61108992  0.46826018  1
  O  O65  1  0.51391595  0.88891008  0.46826018  1
  O  O66  1  0.61108992  0.98608405  0.96826018  1
  O  O67  1  0.61108992  0.51391595  0.96826018  1
  O  O68  1  0.63067831  0.75000000  0.90860825  1
  O  O69  1  0.63325047  0.25000000  0.96550469  1
  O  O70  1  0.75000000  0.13325047  0.53449531  1
  O  O71  1  0.75000000  0.36674953  0.53449531  1
  O  O72  1  0.75000000  0.63067831  0.40860825  1
  O  O73  1  0.75000000  0.86932169  0.40860825  1
  O  O74  1  0.86674953  0.25000000  0.96550469  1
  O  O75  1  0.86932169  0.75000000  0.90860825  1
  O  O76  1  0.88891008  0.98608405  0.96826018  1
  O  O77  1  0.88891008  0.51391595  0.96826018  1
  O  O78  1  0.98608405  0.61108992  0.46826018  1
  O  O79  1  0.98608405  0.88891008  0.46826018  1
