# generated using pymatgen
data_Na4Bi2C4SO16
_symmetry_space_group_name_H-M   'P 1'
_cell_length_a   10.31829280
_cell_length_b   10.30570744
_cell_length_c   10.44563976
_cell_angle_alpha   120.37009340
_cell_angle_beta   59.51085986
_cell_angle_gamma   119.14076646
_symmetry_Int_Tables_number   1
_chemical_formula_structural   Na4Bi2C4SO16
_chemical_formula_sum   'Na8 Bi4 C8 S2 O32'
_cell_volume   785.15784522
_cell_formula_units_Z   2
loop_
 _symmetry_equiv_pos_site_id
 _symmetry_equiv_pos_as_xyz
  1  'x, y, z'
loop_
 _atom_site_type_symbol
 _atom_site_label
 _atom_site_symmetry_multiplicity
 _atom_site_fract_x
 _atom_site_fract_y
 _atom_site_fract_z
 _atom_site_occupancy
  Na  Na0  1  0.92060320  0.17060320  0.32939680  1
  Na  Na1  1  0.92039159  0.17039159  0.92039159  1
  Na  Na2  1  0.92172293  0.57827707  0.32827707  1
  Na  Na3  1  0.32827707  0.17172293  0.92172293  1
  Na  Na4  1  0.68263884  0.81736116  0.06736116  1
  Na  Na5  1  0.32939680  0.57939680  0.92060320  1
  Na  Na6  1  0.32960841  0.57960841  0.32960841  1
  Na  Na7  1  0.06736116  0.43263884  0.68263884  1
  Bi  Bi8  1  0.49506698  0.00354182  0.99915106  1
  Bi  Bi9  1  0.49645818  0.00493302  0.50932478  1
  Bi  Bi10  1  0.50932478  0.50084894  0.49645818  1
  Bi  Bi11  1  0.99915106  0.99067522  0.49506698  1
  C  C12  1  0.72117453  0.16203769  0.71949253  1
  C  C13  1  0.67315350  0.21622481  0.27070095  1
  C  C14  1  0.27236936  0.22929905  0.28377519  1
  C  C15  1  0.27070095  0.22763064  0.67315350  1
  C  C16  1  0.71949253  0.77862838  0.72117453  1
  C  C17  1  0.72137162  0.78050747  0.33796231  1
  C  C18  1  0.33796231  0.77882547  0.72137162  1
  C  C19  1  0.28377519  0.82684650  0.27236936  1
  S  S20  1  0.87500000  0.62500000  0.87500000  1
  S  S21  1  0.12500000  0.37500000  0.12500000  1
  O  O22  1  0.85339689  0.17109530  0.71686363  1
  O  O23  1  0.67348197  0.09765016  0.28533308  1
  O  O24  1  0.71682849  0.15652561  0.59506130  1
  O  O25  1  0.67256088  0.20070010  0.14019662  1
  O  O26  1  0.59426524  0.15463852  0.84359521  1
  O  O27  1  0.93629354  0.56339334  0.69737705  1
  O  O28  1  0.93660666  0.56370646  0.92972275  1
  O  O29  1  0.67762687  0.35060070  0.38685363  1
  O  O30  1  0.28612020  0.11314637  0.14939930  1
  O  O31  1  0.38685363  0.21387980  0.67762687  1
  O  O32  1  0.92972275  0.80262295  0.93660666  1
  O  O33  1  0.69737705  0.57027725  0.93629354  1
  O  O34  1  0.71677807  0.65640479  0.34536148  1
  O  O35  1  0.84359521  0.78322193  0.59426524  1
  O  O36  1  0.14019662  0.11205740  0.67256088  1
  O  O37  1  0.38794260  0.35980338  0.29929990  1
  O  O38  1  0.59506130  0.65536418  0.71682849  1
  O  O39  1  0.84463582  0.90493870  0.34347439  1
  O  O40  1  0.28533308  0.36116590  0.67348197  1
  O  O41  1  0.13883410  0.21466692  0.40234984  1
  O  O42  1  0.30195827  0.43245969  0.06523924  1
  O  O43  1  0.06754031  0.19804173  0.06526219  1
  O  O44  1  0.71686363  0.89916522  0.85339689  1
  O  O45  1  0.60083478  0.78313637  0.32890470  1
  O  O46  1  0.32890470  0.64660311  0.60083478  1
  O  O47  1  0.06523924  0.43473781  0.30195827  1
  O  O48  1  0.06526219  0.43476076  0.06754031  1
  O  O49  1  0.40234984  0.82651803  0.13883410  1
  O  O50  1  0.34347439  0.78317151  0.84463582  1
  O  O51  1  0.29929990  0.82743912  0.38794260  1
  O  O52  1  0.34536148  0.90573476  0.71677807  1
  O  O53  1  0.14939930  0.82237313  0.28612020  1
