# generated using pymatgen
data_Ba4Ta2O9
_symmetry_space_group_name_H-M   'P 1'
_cell_length_a   10.57127632
_cell_length_b   6.08987771
_cell_length_c   15.68870794
_cell_angle_alpha   90.00000000
_cell_angle_beta   90.10007490
_cell_angle_gamma   90.00000000
_symmetry_Int_Tables_number   1
_chemical_formula_structural   Ba4Ta2O9
_chemical_formula_sum   'Ba16 Ta8 O36'
_cell_volume   1010.00264831
_cell_formula_units_Z   4
loop_
 _symmetry_equiv_pos_site_id
 _symmetry_equiv_pos_as_xyz
  1  'x, y, z'
loop_
 _atom_site_type_symbol
 _atom_site_label
 _atom_site_symmetry_multiplicity
 _atom_site_fract_x
 _atom_site_fract_y
 _atom_site_fract_z
 _atom_site_occupancy
  Ba  Ba0  1  0.00000000  0.00000000  0.50000000  1
  Ba  Ba1  1  0.00000000  0.00000000  0.00000000  1
  Ba  Ba2  1  0.00196562  0.00657907  0.24218236  1
  Ba  Ba3  1  0.15610938  0.48739207  0.60324024  1
  Ba  Ba4  1  0.18058653  0.50908087  0.09075287  1
  Ba  Ba5  1  0.31941347  0.00908087  0.40924713  1
  Ba  Ba6  1  0.34389062  0.98739207  0.89675976  1
  Ba  Ba7  1  0.49803438  0.50657907  0.25781764  1
  Ba  Ba8  1  0.50000000  0.50000000  0.50000000  1
  Ba  Ba9  1  0.50196562  0.49342093  0.74218236  1
  Ba  Ba10  1  0.50000000  0.50000000  0.00000000  1
  Ba  Ba11  1  0.65610938  0.01260793  0.10324024  1
  Ba  Ba12  1  0.68058653  0.99091913  0.59075287  1
  Ba  Ba13  1  0.81941347  0.49091913  0.90924713  1
  Ba  Ba14  1  0.84389062  0.51260793  0.39675976  1
  Ba  Ba15  1  0.99803438  0.99342093  0.75781764  1
  Ta  Ta16  1  0.16413305  0.49370592  0.83042126  1
  Ta  Ta17  1  0.16817876  0.51002323  0.32944048  1
  Ta  Ta18  1  0.33586695  0.99370592  0.66957874  1
  Ta  Ta19  1  0.33182124  0.01002323  0.17056052  1
  Ta  Ta20  1  0.66817876  0.98997677  0.82944048  1
  Ta  Ta21  1  0.66413305  0.00629408  0.33042126  1
  Ta  Ta22  1  0.83182124  0.48997677  0.67055952  1
  Ta  Ta23  1  0.83586695  0.50629408  0.16957874  1
  O  O24  1  0.00252091  0.54101392  0.74438524  1
  O  O25  1  0.04914294  0.30918356  0.89235621  1
  O  O26  1  0.08149506  0.76509245  0.37567297  1
  O  O27  1  0.10959631  0.32118672  0.42013017  1
  O  O28  1  0.12447642  0.75549387  0.89468845  1
  O  O29  1  0.17667243  0.07756339  0.11042462  1
  O  O30  1  0.19347046  0.92646223  0.59672029  1
  O  O31  1  0.22845421  0.22675138  0.75070235  1
  O  O32  1  0.24475185  0.74175065  0.23231838  1
  O  O33  1  0.25524815  0.24175065  0.26768162  1
  O  O34  1  0.27154579  0.72675138  0.74929765  1
  O  O35  1  0.30652954  0.42646223  0.90327971  1
  O  O36  1  0.32332757  0.57756339  0.38957538  1
  O  O37  1  0.37552358  0.25549387  0.60531155  1
  O  O38  1  0.39040369  0.82118672  0.07986983  1
  O  O39  1  0.41850494  0.26509245  0.12432703  1
  O  O40  1  0.45085706  0.80918356  0.60764379  1
  O  O41  1  0.49747909  0.04101392  0.75561476  1
  O  O42  1  0.50252091  0.95898608  0.24438524  1
  O  O43  1  0.54914294  0.19081644  0.39235621  1
  O  O44  1  0.58149506  0.73490755  0.87567297  1
  O  O45  1  0.60959631  0.17881328  0.92013017  1
  O  O46  1  0.62447642  0.74450613  0.39468845  1
  O  O47  1  0.67667243  0.42243661  0.61042462  1
  O  O48  1  0.69347046  0.57353777  0.09672029  1
  O  O49  1  0.72845421  0.27324862  0.25070235  1
  O  O50  1  0.74475185  0.75824935  0.73231838  1
  O  O51  1  0.75524815  0.25824935  0.76768162  1
  O  O52  1  0.77154579  0.77324862  0.24929765  1
  O  O53  1  0.80652954  0.07353777  0.40327971  1
  O  O54  1  0.82332757  0.92243661  0.88957538  1
  O  O55  1  0.87552358  0.24450613  0.10531155  1
  O  O56  1  0.89040369  0.67881328  0.57986983  1
  O  O57  1  0.91850494  0.23490755  0.62432703  1
  O  O58  1  0.95085706  0.69081644  0.10764379  1
  O  O59  1  0.99747909  0.45898608  0.25561476  1
