# generated using pymatgen
data_Na3Ni2P2(CO7)2
_symmetry_space_group_name_H-M   'P 1'
_cell_length_a   10.16177871
_cell_length_b   10.43515911
_cell_length_c   6.51938368
_cell_angle_alpha   90.74965749
_cell_angle_beta   90.86376949
_cell_angle_gamma   60.20510911
_symmetry_Int_Tables_number   1
_chemical_formula_structural   Na3Ni2P2(CO7)2
_chemical_formula_sum   'Na6 Ni4 P4 C4 O28'
_cell_volume   599.84840289
_cell_formula_units_Z   2
loop_
 _symmetry_equiv_pos_site_id
 _symmetry_equiv_pos_as_xyz
  1  'x, y, z'
loop_
 _atom_site_type_symbol
 _atom_site_label
 _atom_site_symmetry_multiplicity
 _atom_site_fract_x
 _atom_site_fract_y
 _atom_site_fract_z
 _atom_site_occupancy
  Na  Na0  1  0.00580699  0.25042219  0.03050220  1
  Na  Na1  1  0.49562004  0.25027669  0.98955825  1
  Na  Na2  1  0.49845324  0.24734417  0.51554672  1
  Na  Na3  1  0.50437996  0.74972331  0.01044175  1
  Na  Na4  1  0.50154676  0.75265583  0.48445328  1
  Na  Na5  1  0.99419301  0.74957781  0.96949780  1
  Ni  Ni6  1  0.27719511  0.06526052  0.74434736  1
  Ni  Ni7  1  0.21413100  0.43935565  0.25470026  1
  Ni  Ni8  1  0.78586900  0.56064435  0.74529974  1
  Ni  Ni9  1  0.72280489  0.93473948  0.25565264  1
  P  P10  1  0.35328471  0.06922140  0.24987937  1
  P  P11  1  0.14725545  0.42587210  0.75070592  1
  P  P12  1  0.85274455  0.57412790  0.24929408  1
  P  P13  1  0.64671529  0.93077860  0.75012063  1
  C  C14  1  0.82107506  0.10770482  0.25102090  1
  C  C15  1  0.31950927  0.60602470  0.25049121  1
  C  C16  1  0.68048973  0.39397530  0.74950879  1
  C  C17  1  0.17892494  0.89229518  0.74897910  1
  O  O18  1  0.09269706  0.03423838  0.75000589  1
  O  O19  1  0.26739046  0.05494582  0.06077975  1
  O  O20  1  0.27478958  0.04890007  0.43659408  1
  O  O21  1  0.14509412  0.27926568  0.75886529  1
  O  O22  1  0.01921547  0.44510332  0.24328458  1
  O  O23  1  0.47810322  0.06021425  0.75370844  1
  O  O24  1  0.35409119  0.21731690  0.25098033  1
  O  O25  1  0.23387493  0.44269437  0.93840579  1
  O  O26  1  0.23481587  0.43408590  0.56446740  1
  O  O27  1  0.67559496  0.14992197  0.25423724  1
  O  O28  1  0.17574554  0.64995515  0.24989048  1
  O  O29  1  0.40272559  0.46250439  0.25670014  1
  O  O30  1  0.62674103  0.30831114  0.75504842  1
  O  O31  1  0.13143691  0.80289220  0.75115703  1
  O  O32  1  0.86856309  0.19710780  0.24884297  1
  O  O33  1  0.37325897  0.69168886  0.24495158  1
  O  O34  1  0.59727441  0.53749561  0.74329986  1
  O  O35  1  0.82425446  0.35004485  0.75010952  1
  O  O36  1  0.32440504  0.85007803  0.74576276  1
  O  O37  1  0.76612507  0.55730563  0.06159421  1
  O  O38  1  0.76518413  0.56591410  0.43553260  1
  O  O39  1  0.64590881  0.78268310  0.74901967  1
  O  O40  1  0.52189678  0.93978575  0.24629156  1
  O  O41  1  0.98078453  0.55489668  0.75671542  1
  O  O42  1  0.85490588  0.72073432  0.24113471  1
  O  O43  1  0.72521042  0.95109993  0.56340592  1
  O  O44  1  0.73260954  0.94505418  0.93922025  1
  O  O45  1  0.90730294  0.96576162  0.24999411  1
