# generated using pymatgen
data_Li3CoO3
_symmetry_space_group_name_H-M   'P 1'
_cell_length_a   5.21665384
_cell_length_b   5.58476986
_cell_length_c   5.70442104
_cell_angle_alpha   58.10938518
_cell_angle_beta   89.05877894
_cell_angle_gamma   89.98820497
_symmetry_Int_Tables_number   1
_chemical_formula_structural   Li3CoO3
_chemical_formula_sum   'Li6 Co2 O6'
_cell_volume   141.08021770
_cell_formula_units_Z   2
loop_
 _symmetry_equiv_pos_site_id
 _symmetry_equiv_pos_as_xyz
  1  'x, y, z'
loop_
 _atom_site_type_symbol
 _atom_site_label
 _atom_site_symmetry_multiplicity
 _atom_site_fract_x
 _atom_site_fract_y
 _atom_site_fract_z
 _atom_site_occupancy
  Li  Li0  1  0.08559790  0.72795798  0.47377595  1
  Li  Li1  1  0.12785662  0.79807059  0.99322863  1
  Li  Li2  1  0.44526907  0.25581938  0.73491663  1
  Li  Li3  1  0.55473093  0.74418062  0.26508337  1
  Li  Li4  1  0.87214338  0.20192941  0.00677137  1
  Li  Li5  1  0.91440210  0.27204202  0.52622405  1
  Co  Co6  1  0.34951885  0.21262906  0.28803989  1
  Co  Co7  1  0.65048115  0.78737094  0.71196011  1
  O  O8  1  0.23531940  0.09774921  0.06739213  1
  O  O9  1  0.25038701  0.48153474  0.35902818  1
  O  O10  1  0.28967727  0.86997835  0.65553054  1
  O  O11  1  0.71032173  0.13002165  0.34446946  1
  O  O12  1  0.74961299  0.51846526  0.64097182  1
  O  O13  1  0.76468060  0.90225079  0.93260787  1
