# generated using pymatgen
data_Li3FePCO7
_symmetry_space_group_name_H-M   'P 1'
_cell_length_a   5.07471218
_cell_length_b   6.35142306
_cell_length_c   8.75265012
_cell_angle_alpha   94.92072731
_cell_angle_beta   85.54105210
_cell_angle_gamma   90.47652834
_symmetry_Int_Tables_number   1
_chemical_formula_structural   Li3FePCO7
_chemical_formula_sum   'Li6 Fe2 P2 C2 O14'
_cell_volume   280.22142005
_cell_formula_units_Z   2
loop_
 _symmetry_equiv_pos_site_id
 _symmetry_equiv_pos_as_xyz
  1  'x, y, z'
loop_
 _atom_site_type_symbol
 _atom_site_label
 _atom_site_symmetry_multiplicity
 _atom_site_fract_x
 _atom_site_fract_y
 _atom_site_fract_z
 _atom_site_occupancy
  Li  Li0  1  0.14098301  0.39653178  0.14443001  1
  Li  Li1  1  0.06941700  0.10418976  0.78320576  1
  Li  Li2  1  0.19538056  0.59545471  0.80963215  1
  Li  Li3  1  0.61223809  0.65709239  0.26415649  1
  Li  Li4  1  0.73970560  0.14796695  0.29187833  1
  Li  Li5  1  0.66770173  0.85660623  0.92961897  1
  Fe  Fe6  1  0.10363435  0.86790800  0.40089134  1
  Fe  Fe7  1  0.70450807  0.38309343  0.67426171  1
  P  P8  1  0.25019025  0.37029683  0.44848226  1
  P  P9  1  0.55814068  0.88048157  0.62629946  1
  C  C10  1  0.13436430  0.86344088  0.06950978  1
  C  C11  1  0.67476458  0.38774027  0.00508328  1
  O  O12  1  0.11404215  0.18488010  0.35563340  1
  O  O13  1  0.10850178  0.42208496  0.61112836  1
  O  O14  1  0.23820948  0.56062340  0.34618686  1
  O  O15  1  0.06501899  0.88139776  0.93087825  1
  O  O16  1  0.26626762  0.93469837  0.61113333  1
  O  O17  1  0.37899491  0.86085756  0.09896439  1
  O  O18  1  0.43027683  0.39029551  0.97544193  1
  O  O19  1  0.54200436  0.31584181  0.46402025  1
  O  O20  1  0.74370234  0.37055128  0.14400200  1
  O  O21  1  0.57037506  0.68990462  0.72840543  1
  O  O22  1  0.69970789  0.82905481  0.46356034  1
  O  O23  1  0.69441363  0.06561743  0.71945060  1
  O  O24  1  0.94448024  0.84398087  0.17822978  1
  O  O25  1  0.86491852  0.40641669  0.89651753  1
