# generated using pymatgen
data_MnCrO4
_symmetry_space_group_name_H-M   'P 1'
_cell_length_a   5.13405366
_cell_length_b   5.13405366
_cell_length_c   6.69347599
_cell_angle_alpha   90.00000000
_cell_angle_beta   90.00000000
_cell_angle_gamma   113.38352832
_symmetry_Int_Tables_number   1
_chemical_formula_structural   MnCrO4
_chemical_formula_sum   'Mn2 Cr2 O8'
_cell_volume   161.93961655
_cell_formula_units_Z   2
loop_
 _symmetry_equiv_pos_site_id
 _symmetry_equiv_pos_as_xyz
  1  'x, y, z'
loop_
 _atom_site_type_symbol
 _atom_site_label
 _atom_site_symmetry_multiplicity
 _atom_site_fract_x
 _atom_site_fract_y
 _atom_site_fract_z
 _atom_site_occupancy
  Mn  Mn0  1  0.00000000  -0.00000000  0.50000000  1
  Mn  Mn1  1  0.00000000  -0.00000000  -0.00000000  1
  Cr  Cr2  1  0.64311824  0.35688176  0.75000000  1
  Cr  Cr3  1  0.35688176  0.64311824  0.25000000  1
  O  O4  1  0.75555460  0.24444540  0.55146527  1
  O  O5  1  0.24444540  0.75555460  0.44853473  1
  O  O6  1  0.75555460  0.24444540  0.94853473  1
  O  O7  1  0.24444540  0.75555460  0.05146527  1
  O  O8  1  0.78381952  0.71971253  0.75000000  1
  O  O9  1  0.71971253  0.78381952  0.25000000  1
  O  O10  1  0.21618048  0.28028747  0.25000000  1
  O  O11  1  0.28028747  0.21618048  0.75000000  1
