# generated using pymatgen
data_Li3Bi(BO3)2
_symmetry_space_group_name_H-M   'P 1'
_cell_length_a   5.32127991
_cell_length_b   9.18829435
_cell_length_c   10.88415490
_cell_angle_alpha   90.00000000
_cell_angle_beta   91.31614408
_cell_angle_gamma   90.00000000
_symmetry_Int_Tables_number   1
_chemical_formula_structural   Li3Bi(BO3)2
_chemical_formula_sum   'Li12 Bi4 B8 O24'
_cell_volume   532.02387933
_cell_formula_units_Z   4
loop_
 _symmetry_equiv_pos_site_id
 _symmetry_equiv_pos_as_xyz
  1  'x, y, z'
loop_
 _atom_site_type_symbol
 _atom_site_label
 _atom_site_symmetry_multiplicity
 _atom_site_fract_x
 _atom_site_fract_y
 _atom_site_fract_z
 _atom_site_occupancy
  Li  Li0  1  0.15740075  0.97336177  0.67586692  1
  Li  Li1  1  0.16907282  0.65186526  0.61328645  1
  Li  Li2  1  0.17013327  0.98508134  0.09543983  1
  Li  Li3  1  0.33092718  0.15186526  0.88671355  1
  Li  Li4  1  0.32986673  0.48508134  0.40456017  1
  Li  Li5  1  0.34259925  0.47336177  0.82413308  1
  Li  Li6  1  0.65740075  0.52663823  0.17586692  1
  Li  Li7  1  0.67013327  0.51491866  0.59543983  1
  Li  Li8  1  0.66907282  0.84813474  0.11328645  1
  Li  Li9  1  0.82986673  0.01491866  0.90456017  1
  Li  Li10  1  0.83092718  0.34813474  0.38671355  1
  Li  Li11  1  0.84259925  0.02663823  0.32413308  1
  Bi  Bi12  1  0.15065758  0.32651812  0.12386358  1
  Bi  Bi13  1  0.34934242  0.82651812  0.37613642  1
  Bi  Bi14  1  0.65065758  0.17348188  0.62386358  1
  Bi  Bi15  1  0.84934242  0.67348188  0.87613642  1
  B  B16  1  0.15842453  0.33098669  0.61967905  1
  B  B17  1  0.16784171  0.67586613  0.13162007  1
  B  B18  1  0.34157547  0.83098669  0.88032095  1
  B  B19  1  0.33215829  0.17586613  0.36837993  1
  B  B20  1  0.66784171  0.82413387  0.63162007  1
  B  B21  1  0.65842453  0.16901331  0.11967905  1
  B  B22  1  0.83215829  0.32413387  0.86837993  1
  B  B23  1  0.84157547  0.66901331  0.38032095  1
  O  O24  1  0.08768518  0.33059798  0.90116587  1
  O  O25  1  0.08602615  0.63494850  0.41987613  1
  O  O26  1  0.16105314  0.93966045  0.87591832  1
  O  O27  1  0.18702147  0.05161588  0.36073204  1
  O  O28  1  0.21018587  0.30697864  0.33984047  1
  O  O29  1  0.28843992  0.68663961  0.84659033  1
  O  O30  1  0.21156008  0.18663961  0.65340967  1
  O  O31  1  0.28981413  0.80697864  0.16015953  1
  O  O32  1  0.31297853  0.55161588  0.13926796  1
  O  O33  1  0.33894686  0.43966045  0.62408168  1
  O  O34  1  0.41231482  0.83059798  0.59883413  1
  O  O35  1  0.41397385  0.13494850  0.08012387  1
  O  O36  1  0.58602615  0.86505150  0.91987613  1
  O  O37  1  0.58768518  0.16940202  0.40116587  1
  O  O38  1  0.66105314  0.56033955  0.37591832  1
  O  O39  1  0.68702147  0.44838412  0.86073204  1
  O  O40  1  0.71018587  0.19302136  0.83984047  1
  O  O41  1  0.78843992  0.81336039  0.34659033  1
  O  O42  1  0.71156008  0.31336039  0.15340967  1
  O  O43  1  0.78981413  0.69302136  0.66015953  1
  O  O44  1  0.81297853  0.94838412  0.63926796  1
  O  O45  1  0.83894686  0.06033955  0.12408168  1
  O  O46  1  0.91397385  0.36505150  0.58012387  1
  O  O47  1  0.91231482  0.66940202  0.09883413  1
