# generated using pymatgen
data_Li8Mn3V(PO4)6
_symmetry_space_group_name_H-M   'P 1'
_cell_length_a   9.26895098
_cell_length_b   8.50505409
_cell_length_c   8.39469117
_cell_angle_alpha   60.96080415
_cell_angle_beta   63.60306313
_cell_angle_gamma   91.53629359
_symmetry_Int_Tables_number   1
_chemical_formula_structural   Li8Mn3V(PO4)6
_chemical_formula_sum   'Li8 Mn3 V1 P6 O24'
_cell_volume   492.76078532
_cell_formula_units_Z   1
loop_
 _symmetry_equiv_pos_site_id
 _symmetry_equiv_pos_as_xyz
  1  'x, y, z'
loop_
 _atom_site_type_symbol
 _atom_site_label
 _atom_site_symmetry_multiplicity
 _atom_site_fract_x
 _atom_site_fract_y
 _atom_site_fract_z
 _atom_site_occupancy
  Li  Li0  1  0.86442167  0.27084306  0.80339078  1
  Li  Li1  1  0.90047622  0.93901314  0.37328777  1
  Li  Li2  1  0.84999979  0.65775911  0.06921789  1
  Li  Li3  1  0.58815647  0.79847668  0.67842042  1
  Li  Li4  1  0.40931922  0.21351595  0.32872153  1
  Li  Li5  1  0.14599886  0.33436077  0.93329045  1
  Li  Li6  1  0.10046533  0.06314423  0.62879375  1
  Li  Li7  1  0.13604974  0.73371051  0.19096035  1
  Mn  Mn8  1  0.96817584  0.64912428  0.68716255  1
  Mn  Mn9  1  0.43780203  0.15044546  0.71065012  1
  Mn  Mn10  1  0.03377789  0.35074437  0.31182376  1
  V  V11  1  0.55930638  0.85079691  0.29217368  1
  P  P12  1  0.74608849  0.94786195  0.79701632  1
  P  P13  1  0.75309251  0.55384979  0.49989473  1
  P  P14  1  0.75888244  0.24556599  0.19608153  1
  P  P15  1  0.24205733  0.74733349  0.79589111  1
  P  P16  1  0.25052639  0.45890703  0.49213886  1
  P  P17  1  0.25139817  0.04429673  0.21552852  1
  O  O18  1  0.89031095  0.13914549  0.66136732  1
  O  O19  1  0.81601798  0.51245724  0.65935319  1
  O  O20  1  0.80756702  0.83160774  0.69398825  1
  O  O21  1  0.89922200  0.57368356  0.29626402  1
  O  O22  1  0.90031052  0.19892642  0.24825059  1
  O  O23  1  0.71916989  0.75138264  0.42831778  1
  O  O24  1  0.58224656  0.96920591  0.79946902  1
  O  O25  1  0.59455877  0.39523904  0.61766081  1
  O  O26  1  0.81874074  0.45992088  0.01581890  1
  O  O27  1  0.73470085  0.11964808  0.11651935  1
  O  O28  1  0.59010289  0.20231404  0.38757776  1
  O  O29  1  0.72163371  0.84320199  0.02445360  1
  O  O30  1  0.26355866  0.14756236  0.99866700  1
  O  O31  1  0.41429175  0.80814829  0.59339026  1
  O  O32  1  0.25309065  0.87023597  0.87964825  1
  O  O33  1  0.19011577  0.53596826  0.96495794  1
  O  O34  1  0.41260201  0.60985289  0.39816276  1
  O  O35  1  0.41791797  0.01143438  0.20065234  1
  O  O36  1  0.27979593  0.26218136  0.56202951  1
  O  O37  1  0.09551743  0.78890171  0.74355822  1
  O  O38  1  0.10213921  0.43837315  0.69777840  1
  O  O39  1  0.20067769  0.15783646  0.32073287  1
  O  O40  1  0.19674806  0.51294957  0.32843109  1
  O  O41  1  0.10296923  0.85007111  0.35850665  1
