# generated using pymatgen
data_Mn2P4O13
_symmetry_space_group_name_H-M   'P 1'
_cell_length_a   7.15245054
_cell_length_b   8.79443874
_cell_length_c   8.25885187
_cell_angle_alpha   90.00000000
_cell_angle_beta   90.00000000
_cell_angle_gamma   66.00567103
_symmetry_Int_Tables_number   1
_chemical_formula_structural   Mn2P4O13
_chemical_formula_sum   'Mn4 P8 O26'
_cell_volume   474.60462541
_cell_formula_units_Z   2
loop_
 _symmetry_equiv_pos_site_id
 _symmetry_equiv_pos_as_xyz
  1  'x, y, z'
loop_
 _atom_site_type_symbol
 _atom_site_label
 _atom_site_symmetry_multiplicity
 _atom_site_fract_x
 _atom_site_fract_y
 _atom_site_fract_z
 _atom_site_occupancy
  Mn  Mn0  1  0.41508525  0.70920640  0.38714540  1
  Mn  Mn1  1  0.87570835  0.70920640  0.61285460  1
  Mn  Mn2  1  0.12429165  0.29079360  0.11285460  1
  Mn  Mn3  1  0.58491475  0.29079360  0.88714540  1
  P  P4  1  0.27832041  0.88108502  0.02900353  1
  P  P5  1  0.84059457  0.88108502  0.97099647  1
  P  P6  1  0.94183732  0.67205469  0.25773198  1
  P  P7  1  0.38610799  0.67205469  0.74226802  1
  P  P8  1  0.61389201  0.32794531  0.24226802  1
  P  P9  1  0.05816268  0.32794531  0.75773198  1
  P  P10  1  0.72167959  0.11891498  0.52900353  1
  P  P11  1  0.15940543  0.11891498  0.47099647  1
  O  O12  1  0.74616693  0.94453275  0.56345733  1
  O  O13  1  0.30930032  0.94453275  0.43654267  1
  O  O14  1  0.06107946  0.87784209  0.00000000  1
  O  O15  1  0.79105218  0.82850520  0.14380529  1
  O  O16  1  0.38044162  0.82850520  0.85619471  1
  O  O17  1  0.84470987  0.75282560  0.84853443  1
  O  O18  1  0.40246453  0.75282560  0.15146557  1
  O  O19  1  0.10811582  0.71211023  0.33072427  1
  O  O20  1  0.17977495  0.71211023  0.66927573  1
  O  O21  1  0.53868782  0.66850211  0.60807527  1
  O  O22  1  0.79281008  0.66850211  0.39192473  1
  O  O23  1  0.47244384  0.52629584  0.85968618  1
  O  O24  1  0.00126132  0.52629584  0.14031382  1
  O  O25  1  0.52755616  0.47370416  0.35968618  1
  O  O26  1  0.99873868  0.47370416  0.64031382  1
  O  O27  1  0.46131218  0.33149789  0.10807527  1
  O  O28  1  0.20718992  0.33149789  0.89192473  1
  O  O29  1  0.89188418  0.28788977  0.83072427  1
  O  O30  1  0.82022505  0.28788977  0.16927573  1
  O  O31  1  0.15529013  0.24717440  0.34853443  1
  O  O32  1  0.59753547  0.24717440  0.65146557  1
  O  O33  1  0.61955838  0.17149480  0.35619471  1
  O  O34  1  0.20894782  0.17149480  0.64380529  1
  O  O35  1  0.93892054  0.12215791  0.50000000  1
  O  O36  1  0.69069968  0.05546725  0.93654267  1
  O  O37  1  0.25383307  0.05546725  0.06345733  1
