# generated using pymatgen
data_Li3Fe2P2(CO7)2
_symmetry_space_group_name_H-M   'P 1'
_cell_length_a   8.38793870
_cell_length_b   8.27055909
_cell_length_c   8.25697741
_cell_angle_alpha   77.01429273
_cell_angle_beta   86.39900455
_cell_angle_gamma   93.52605111
_symmetry_Int_Tables_number   1
_chemical_formula_structural   Li3Fe2P2(CO7)2
_chemical_formula_sum   'Li6 Fe4 P4 C4 O28'
_cell_volume   555.37337856
_cell_formula_units_Z   2
loop_
 _symmetry_equiv_pos_site_id
 _symmetry_equiv_pos_as_xyz
  1  'x, y, z'
loop_
 _atom_site_type_symbol
 _atom_site_label
 _atom_site_symmetry_multiplicity
 _atom_site_fract_x
 _atom_site_fract_y
 _atom_site_fract_z
 _atom_site_occupancy
  Li  Li0  1  0.89032284  0.26438634  0.49009194  1
  Li  Li1  1  0.90110488  0.75522797  0.99191425  1
  Li  Li2  1  0.71988083  0.39671740  0.13508055  1
  Li  Li3  1  0.28798636  0.40058969  0.64626314  1
  Li  Li4  1  0.10370270  0.74073363  0.51296574  1
  Li  Li5  1  0.10793222  0.23667267  0.01133133  1
  Fe  Fe6  1  0.67701497  0.52793979  0.72031191  1
  Fe  Fe7  1  0.65941845  0.02016122  0.22383973  1
  Fe  Fe8  1  0.33580617  0.96898127  0.77875077  1
  Fe  Fe9  1  0.32504721  0.47753039  0.26806770  1
  P  P10  1  0.57410846  0.24252385  0.51231504  1
  P  P11  1  0.58083879  0.73986444  0.00574619  1
  P  P12  1  0.42200065  0.26050436  0.98619511  1
  P  P13  1  0.41911110  0.75936267  0.49454481  1
  C  C14  1  0.96318477  0.46495248  0.77487220  1
  C  C15  1  0.95328630  0.98041972  0.27820125  1
  C  C16  1  0.05189784  0.03062223  0.72404829  1
  C  C17  1  0.03577963  0.51875099  0.22324318  1
  O  O18  1  0.93292781  0.58532275  0.65022172  1
  O  O19  1  0.92700248  0.10248679  0.15483445  1
  O  O20  1  0.91770014  0.07216961  0.67795576  1
  O  O21  1  0.83753609  0.39762100  0.87452359  1
  O  O22  1  0.89525325  0.54284605  0.17862010  1
  O  O23  1  0.82425753  0.89741530  0.36047487  1
  O  O24  1  0.69343033  0.36036315  0.57694953  1
  O  O25  1  0.67784777  0.19714297  0.36724640  1
  O  O26  1  0.69580345  0.68253261  0.87881227  1
  O  O27  1  0.68807357  0.87093360  0.06619220  1
  O  O28  1  0.52428514  0.08642216  0.65257257  1
  O  O29  1  0.57927074  0.20377646  0.06216605  1
  O  O30  1  0.57155617  0.69029631  0.56637859  1
  O  O31  1  0.52806816  0.58461183  0.15043760  1
  O  O32  1  0.46874085  0.40152585  0.82678078  1
  O  O33  1  0.42215553  0.32810386  0.45403139  1
  O  O34  1  0.42695148  0.80621598  0.93587533  1
  O  O35  1  0.46875169  0.90438464  0.34086512  1
  O  O36  1  0.31575437  0.12150411  0.93818812  1
  O  O37  1  0.30591611  0.82065693  0.62021699  1
  O  O38  1  0.30844290  0.32022769  0.11347064  1
  O  O39  1  0.30551574  0.62236378  0.44686894  1
  O  O40  1  0.18117547  0.11943854  0.64637053  1
  O  O41  1  0.10088605  0.41245499  0.79832577  1
  O  O42  1  0.15881899  0.61469381  0.14527017  1
  O  O43  1  0.08805813  0.93765645  0.32178311  1
  O  O44  1  0.06986121  0.39808212  0.34566649  1
  O  O45  1  0.07753068  0.90480256  0.84310378  1
