# generated using pymatgen
data_Li3Fe2P2(CO7)2
_symmetry_space_group_name_H-M   'P 1'
_cell_length_a   8.38482226
_cell_length_b   5.14189590
_cell_length_c   12.96955038
_cell_angle_alpha   90.06349169
_cell_angle_beta   90.90135265
_cell_angle_gamma   84.90932275
_symmetry_Int_Tables_number   1
_chemical_formula_structural   Li3Fe2P2(CO7)2
_chemical_formula_sum   'Li6 Fe4 P4 C4 O28'
_cell_volume   556.89311223
_cell_formula_units_Z   2
loop_
 _symmetry_equiv_pos_site_id
 _symmetry_equiv_pos_as_xyz
  1  'x, y, z'
loop_
 _atom_site_type_symbol
 _atom_site_label
 _atom_site_symmetry_multiplicity
 _atom_site_fract_x
 _atom_site_fract_y
 _atom_site_fract_z
 _atom_site_occupancy
  Li  Li0  1  0.10869738  0.77571424  0.12645662  1
  Li  Li1  1  0.10089773  0.75758144  0.63178981  1
  Li  Li2  1  0.28581489  0.24719000  0.52069839  1
  Li  Li3  1  0.71418511  0.75281000  0.97930161  1
  Li  Li4  1  0.89130262  0.22428576  0.37354338  1
  Li  Li5  1  0.89910227  0.24241856  0.86821019  1
  Fe  Fe6  1  0.33444309  0.80261125  0.37069014  1
  Fe  Fe7  1  0.32798302  0.80000896  0.87418127  1
  Fe  Fe8  1  0.66555691  0.19738875  0.12930986  1
  Fe  Fe9  1  0.67201698  0.19999104  0.62581873  1
  P  P10  1  0.42134599  0.72429260  0.12118701  1
  P  P11  1  0.42263806  0.72950939  0.62395211  1
  P  P12  1  0.57865401  0.27570740  0.37881299  1
  P  P13  1  0.57736194  0.27049061  0.87604789  1
  C  C14  1  0.03645278  0.70783112  0.88007273  1
  C  C15  1  0.04552110  0.69974479  0.37774073  1
  C  C16  1  0.95447890  0.30025521  0.12225927  1
  C  C17  1  0.96354722  0.29216888  0.61992727  1
  O  O18  1  0.07494254  0.94528380  0.37263968  1
  O  O19  1  0.06958671  0.95032748  0.87500961  1
  O  O20  1  0.08968332  0.38489146  0.12439562  1
  O  O21  1  0.10267358  0.36691084  0.60621656  1
  O  O22  1  0.15835326  0.53537541  0.87058113  1
  O  O23  1  0.17476833  0.53432364  0.38375128  1
  O  O24  1  0.30603246  0.83358820  0.53422585  1
  O  O25  1  0.30380364  0.79205133  0.02993784  1
  O  O26  1  0.31920671  0.80302775  0.21685727  1
  O  O27  1  0.31440248  0.77412301  0.71967829  1
  O  O28  1  0.42316590  0.13520509  0.38758379  1
  O  O29  1  0.42528300  0.12734141  0.87055820  1
  O  O30  1  0.47558136  0.42868628  0.12253803  1
  O  O31  1  0.46690317  0.43077038  0.60792622  1
  O  O32  1  0.52441864  0.57131372  0.37746197  1
  O  O33  1  0.53309683  0.56922962  0.89207378  1
  O  O34  1  0.57683410  0.86479491  0.11241621  1
  O  O35  1  0.57471700  0.87265859  0.62944180  1
  O  O36  1  0.68079329  0.19697225  0.28314273  1
  O  O37  1  0.69619636  0.20794867  0.47006216  1
  O  O38  1  0.68559752  0.22587699  0.78032171  1
  O  O39  1  0.69396754  0.16641180  0.96577415  1
  O  O40  1  0.82523167  0.46567636  0.11624872  1
  O  O41  1  0.84164674  0.46462459  0.62941887  1
  O  O42  1  0.91031668  0.61510854  0.37560438  1
  O  O43  1  0.89732642  0.63308916  0.89378344  1
  O  O44  1  0.92505746  0.05471620  0.12736032  1
  O  O45  1  0.93041329  0.04967252  0.62499039  1
