# generated using pymatgen
data_NaCaMg6
_symmetry_space_group_name_H-M   'P 1'
_cell_length_a   6.67203469
_cell_length_b   6.67203452
_cell_length_c   5.43489595
_cell_angle_alpha   90.00000000
_cell_angle_beta   90.00000000
_cell_angle_gamma   120.36349882
_symmetry_Int_Tables_number   1
_chemical_formula_structural   NaCaMg6
_chemical_formula_sum   'Na1 Ca1 Mg6'
_cell_volume   208.75457700
_cell_formula_units_Z   1
loop_
 _symmetry_equiv_pos_site_id
 _symmetry_equiv_pos_as_xyz
  1  'x, y, z'
loop_
 _atom_site_type_symbol
 _atom_site_label
 _atom_site_symmetry_multiplicity
 _atom_site_fract_x
 _atom_site_fract_y
 _atom_site_fract_z
 _atom_site_occupancy
  Na  Na0  1  0.33507270  0.16492730  0.75000000  1
  Ca  Ca1  1  0.16538678  0.33461322  0.25000000  1
  Mg  Mg2  1  0.16864863  0.83355841  0.25000000  1
  Mg  Mg3  1  0.66644159  0.33135137  0.25000000  1
  Mg  Mg4  1  0.66558230  0.83441770  0.25000000  1
  Mg  Mg5  1  0.33358102  0.66778436  0.75000000  1
  Mg  Mg6  1  0.83221564  0.16641898  0.75000000  1
  Mg  Mg7  1  0.83307133  0.66692867  0.75000000  1
