# generated using pymatgen
data_Li8TiMn3(PO4)6
_symmetry_space_group_name_H-M   'P 1'
_cell_length_a   9.25212342
_cell_length_b   8.51529780
_cell_length_c   8.44641230
_cell_angle_alpha   60.77219564
_cell_angle_beta   63.02636137
_cell_angle_gamma   90.63229258
_symmetry_Int_Tables_number   1
_chemical_formula_structural   Li8TiMn3(PO4)6
_chemical_formula_sum   'Li8 Ti1 Mn3 P6 O24'
_cell_volume   493.88294708
_cell_formula_units_Z   1
loop_
 _symmetry_equiv_pos_site_id
 _symmetry_equiv_pos_as_xyz
  1  'x, y, z'
loop_
 _atom_site_type_symbol
 _atom_site_label
 _atom_site_symmetry_multiplicity
 _atom_site_fract_x
 _atom_site_fract_y
 _atom_site_fract_z
 _atom_site_occupancy
  Li  Li0  1  0.86172105  0.26355157  0.81310912  1
  Li  Li1  1  0.89714195  0.93482861  0.37422909  1
  Li  Li2  1  0.85278093  0.66456476  0.06616803  1
  Li  Li3  1  0.58572721  0.77904398  0.67097183  1
  Li  Li4  1  0.41524048  0.19685992  0.31768866  1
  Li  Li5  1  0.14808238  0.34710371  0.93393593  1
  Li  Li6  1  0.10142206  0.06952885  0.62027093  1
  Li  Li7  1  0.14383818  0.72418783  0.19526596  1
  Ti  Ti8  1  0.44607697  0.15375876  0.70272211  1
  Mn  Mn9  1  0.96439538  0.64605587  0.69328123  1
  Mn  Mn10  1  0.55985257  0.84902874  0.28988067  1
  Mn  Mn11  1  0.03421149  0.35274999  0.30885191  1
  P  P12  1  0.74602011  0.95517224  0.78869080  1
  P  P13  1  0.75094895  0.54085354  0.50701869  1
  P  P14  1  0.75873396  0.24880585  0.20260336  1
  P  P15  1  0.24334783  0.76225967  0.79662138  1
  P  P16  1  0.25128172  0.44879845  0.50393103  1
  P  P17  1  0.25595298  0.05078650  0.19900216  1
  O  O18  1  0.89220766  0.14082118  0.65605304  1
  O  O19  1  0.79988230  0.48290770  0.67425237  1
  O  O20  1  0.78855803  0.84310297  0.68110170  1
  O  O21  1  0.89738856  0.56686281  0.29942895  1
  O  O22  1  0.90282063  0.19996074  0.24916355  1
  O  O23  1  0.71177804  0.73164014  0.44724065  1
  O  O24  1  0.57980505  0.00507090  0.79661566  1
  O  O25  1  0.59047674  0.38237355  0.60093239  1
  O  O26  1  0.80526378  0.46157422  0.04072701  1
  O  O27  1  0.73190793  0.13291347  0.11948154  1
  O  O28  1  0.58582606  0.18961768  0.41427785  1
  O  O29  1  0.72024011  0.83851580  0.01098790  1
  O  O30  1  0.28598399  0.15816787  0.96579180  1
  O  O31  1  0.41313906  0.81647186  0.59804047  1
  O  O32  1  0.27035711  0.88737390  0.87689688  1
  O  O33  1  0.19009539  0.55132082  0.96915985  1
  O  O34  1  0.41129001  0.59380092  0.40800732  1
  O  O35  1  0.41998854  0.02505140  0.19183208  1
  O  O36  1  0.28630546  0.24643147  0.57926911  1
  O  O37  1  0.09696642  0.80783507  0.75144741  1
  O  O38  1  0.09897664  0.42484404  0.70971484  1
  O  O39  1  0.19908929  0.16976962  0.29726914  1
  O  O40  1  0.19561434  0.49260144  0.34440326  1
  O  O41  1  0.10925667  0.86303063  0.33365931  1
