# generated using pymatgen
data_Li3Fe2P2(CO7)2
_symmetry_space_group_name_H-M   'P 1'
_cell_length_a   9.44364456
_cell_length_b   8.27949367
_cell_length_c   8.26249050
_cell_angle_alpha   76.78580626
_cell_angle_beta   72.73203229
_cell_angle_gamma   106.58364631
_symmetry_Int_Tables_number   1
_chemical_formula_structural   Li3Fe2P2(CO7)2
_chemical_formula_sum   'Li6 Fe4 P4 C4 O28'
_cell_volume   555.52618761
_cell_formula_units_Z   2
loop_
 _symmetry_equiv_pos_site_id
 _symmetry_equiv_pos_as_xyz
  1  'x, y, z'
loop_
 _atom_site_type_symbol
 _atom_site_label
 _atom_site_symmetry_multiplicity
 _atom_site_fract_x
 _atom_site_fract_y
 _atom_site_fract_z
 _atom_site_occupancy
  Li  Li0  1  0.89435997  0.19233249  0.06886421  1
  Li  Li1  1  0.89622964  0.69348546  0.56037665  1
  Li  Li2  1  0.71881860  0.75323447  0.28302001  1
  Li  Li3  1  0.28118140  0.24676553  0.71697999  1
  Li  Li4  1  0.10564003  0.80766751  0.93113579  1
  Li  Li5  1  0.10377036  0.30651454  0.43962335  1
  Fe  Fe6  1  0.66617217  0.80813828  0.93439726  1
  Fe  Fe7  1  0.67099994  0.30542689  0.44298904  1
  Fe  Fe8  1  0.33382783  0.19186172  0.06560274  1
  Fe  Fe9  1  0.32900006  0.69457311  0.55701096  1
  P  P10  1  0.57606269  0.54755668  0.69275912  1
  P  P11  1  0.57952594  0.05032295  0.20024991  1
  P  P12  1  0.42393731  0.45244332  0.30724088  1
  P  P13  1  0.42047406  0.94967705  0.79975009  1
  C  C14  1  0.95913788  0.50522081  0.24723765  1
  C  C15  1  0.96022231  0.00628016  0.75650700  1
  C  C16  1  0.03977769  0.99371984  0.24349300  1
  C  C17  1  0.04086212  0.49477919  0.75276235  1
  O  O18  1  0.92570232  0.86368757  0.89233183  1
  O  O19  1  0.92960508  0.36366724  0.37956854  1
  O  O20  1  0.90008358  0.87517831  0.33869282  1
  O  O21  1  0.83152067  0.52995859  0.23178721  1
  O  O22  1  0.90473968  0.38450273  0.86466714  1
  O  O23  1  0.83729370  0.02116313  0.72225094  1
  O  O24  1  0.69244536  0.96771104  0.09967315  1
  O  O25  1  0.68903214  0.17191950  0.26858851  1
  O  O26  1  0.67630432  0.65838500  0.77620921  1
  O  O27  1  0.69690079  0.48177277  0.58010817  1
  O  O28  1  0.57990318  0.60852875  0.16830486  1
  O  O29  1  0.52737047  0.16404370  0.07113950  1
  O  O30  1  0.53158736  0.66991517  0.55773420  1
  O  O31  1  0.57453588  0.09477997  0.64781618  1
  O  O32  1  0.42546412  0.90522003  0.35218382  1
  O  O33  1  0.46841264  0.33008483  0.44226580  1
  O  O34  1  0.47262953  0.83595630  0.92886050  1
  O  O35  1  0.42009682  0.39147125  0.83169514  1
  O  O36  1  0.30309921  0.51822723  0.41989183  1
  O  O37  1  0.32369568  0.34161500  0.22379079  1
  O  O38  1  0.31096786  0.82808150  0.73141149  1
  O  O39  1  0.30755464  0.03228896  0.90032685  1
  O  O40  1  0.16270630  0.97883687  0.27774906  1
  O  O41  1  0.09526032  0.61549727  0.13533286  1
  O  O42  1  0.16847933  0.47004141  0.76821279  1
  O  O43  1  0.09991642  0.12482169  0.66130718  1
  O  O44  1  0.07039492  0.63633276  0.62043146  1
  O  O45  1  0.07429768  0.13631243  0.10766817  1
