# generated using pymatgen
data_LiAlVO4
_symmetry_space_group_name_H-M   'P 1'
_cell_length_a   5.82186350
_cell_length_b   5.82186350
_cell_length_c   8.14207898
_cell_angle_alpha   90.00000000
_cell_angle_beta   90.00000000
_cell_angle_gamma   90.00000000
_symmetry_Int_Tables_number   1
_chemical_formula_structural   LiAlVO4
_chemical_formula_sum   'Li4 Al4 V4 O16'
_cell_volume   275.96839529
_cell_formula_units_Z   4
loop_
 _symmetry_equiv_pos_site_id
 _symmetry_equiv_pos_as_xyz
  1  'x, y, z'
loop_
 _atom_site_type_symbol
 _atom_site_label
 _atom_site_symmetry_multiplicity
 _atom_site_fract_x
 _atom_site_fract_y
 _atom_site_fract_z
 _atom_site_occupancy
  Li  Li0  1  0.00000000  0.22591829  0.00000000  1
  Li  Li1  1  0.00000000  0.77408171  0.50000000  1
  Li  Li2  1  0.22591829  0.00000000  0.25000000  1
  Li  Li3  1  0.77408171  0.00000000  0.75000000  1
  Al  Al4  1  0.25840192  0.25840192  0.62500000  1
  Al  Al5  1  0.25840192  0.74159808  0.87500000  1
  Al  Al6  1  0.74159808  0.25840192  0.37500000  1
  Al  Al7  1  0.74159808  0.74159808  0.12500000  1
  V  V8  1  0.22441249  0.50000000  0.25000000  1
  V  V9  1  0.50000000  0.22441249  0.00000000  1
  V  V10  1  0.50000000  0.77558751  0.50000000  1
  V  V11  1  0.77558751  0.50000000  0.75000000  1
  O  O12  1  0.00379013  0.26717958  0.26170713  1
  O  O13  1  0.00379013  0.73282042  0.23829287  1
  O  O14  1  0.26717958  0.00379013  0.98829287  1
  O  O15  1  0.26717958  0.99620987  0.51170713  1
  O  O16  1  0.26626279  0.49322241  0.01016064  1
  O  O17  1  0.26626279  0.50677759  0.48983936  1
  O  O18  1  0.49322241  0.26626279  0.23983936  1
  O  O19  1  0.49322241  0.73373721  0.26016064  1
  O  O20  1  0.50677759  0.26626279  0.76016064  1
  O  O21  1  0.50677759  0.73373721  0.73983936  1
  O  O22  1  0.73373721  0.50677759  0.51016064  1
  O  O23  1  0.73373721  0.49322241  0.98983936  1
  O  O24  1  0.73282042  0.99620987  0.48829287  1
  O  O25  1  0.73282042  0.00379013  0.01170713  1
  O  O26  1  0.99620987  0.26717958  0.73829287  1
  O  O27  1  0.99620987  0.73282042  0.76170713  1
