# generated using pymatgen
data_LiV2(SO4)3
_symmetry_space_group_name_H-M   'P 1'
_cell_length_a   8.78555612
_cell_length_b   8.78555612
_cell_length_c   8.78555601
_cell_angle_alpha   59.48414205
_cell_angle_beta   59.48414205
_cell_angle_gamma   59.48413769
_symmetry_Int_Tables_number   1
_chemical_formula_structural   LiV2(SO4)3
_chemical_formula_sum   'Li2 V4 S6 O24'
_cell_volume   473.87848827
_cell_formula_units_Z   2
loop_
 _symmetry_equiv_pos_site_id
 _symmetry_equiv_pos_as_xyz
  1  'x, y, z'
loop_
 _atom_site_type_symbol
 _atom_site_label
 _atom_site_symmetry_multiplicity
 _atom_site_fract_x
 _atom_site_fract_y
 _atom_site_fract_z
 _atom_site_occupancy
  Li  Li0  1  0.00000000  0.00000000  0.00000000  1
  Li  Li1  1  0.50000000  0.50000000  0.50000000  1
  V  V2  1  0.35717356  0.35717356  0.35717356  1
  V  V3  1  0.14282644  0.14282644  0.14282644  1
  V  V4  1  0.64282644  0.64282644  0.64282644  1
  V  V5  1  0.85717356  0.85717356  0.85717356  1
  S  S6  1  0.04402480  0.75000000  0.45597520  1
  S  S7  1  0.54402480  0.95597520  0.25000000  1
  S  S8  1  0.25000000  0.54402480  0.95597520  1
  S  S9  1  0.75000000  0.45597520  0.04402480  1
  S  S10  1  0.45597520  0.04402480  0.75000000  1
  S  S11  1  0.95597520  0.25000000  0.54402480  1
  O  O12  1  0.05943718  0.90727772  0.27186079  1
  O  O13  1  0.09272228  0.72813921  0.94056282  1
  O  O14  1  0.49301683  0.89495580  0.69191275  1
  O  O15  1  0.60504420  0.00698317  0.80808725  1
  O  O16  1  0.22813921  0.59272228  0.44056282  1
  O  O17  1  0.55943718  0.77186079  0.40727772  1
  O  O18  1  0.72813921  0.94056282  0.09272228  1
  O  O19  1  0.99301683  0.19191275  0.39495580  1
  O  O20  1  0.30808725  0.50698317  0.10504420  1
  O  O21  1  0.10504420  0.30808725  0.50698317  1
  O  O22  1  0.19191275  0.39495580  0.99301683  1
  O  O23  1  0.40727772  0.55943718  0.77186079  1
  O  O24  1  0.59272228  0.44056282  0.22813921  1
  O  O25  1  0.89495580  0.69191275  0.49301683  1
  O  O26  1  0.80808725  0.60504420  0.00698317  1
  O  O27  1  0.00698317  0.80808725  0.60504420  1
  O  O28  1  0.69191275  0.49301683  0.89495580  1
  O  O29  1  0.27186079  0.05943718  0.90727772  1
  O  O30  1  0.44056282  0.22813921  0.59272228  1
  O  O31  1  0.77186079  0.40727772  0.55943718  1
  O  O32  1  0.50698317  0.10504420  0.30808725  1
  O  O33  1  0.39495580  0.99301683  0.19191275  1
  O  O34  1  0.90727772  0.27186079  0.05943718  1
  O  O35  1  0.94056282  0.09272228  0.72813921  1
