# generated using pymatgen
data_Li3Fe2P2(CO7)2
_symmetry_space_group_name_H-M   'P 1'
_cell_length_a   8.39209600
_cell_length_b   8.26726234
_cell_length_c   8.25822409
_cell_angle_alpha   76.92022859
_cell_angle_beta   87.27725456
_cell_angle_gamma   93.78981453
_symmetry_Int_Tables_number   1
_chemical_formula_structural   Li3Fe2P2(CO7)2
_chemical_formula_sum   'Li6 Fe4 P4 C4 O28'
_cell_volume   555.71650596
_cell_formula_units_Z   2
loop_
 _symmetry_equiv_pos_site_id
 _symmetry_equiv_pos_as_xyz
  1  'x, y, z'
loop_
 _atom_site_type_symbol
 _atom_site_label
 _atom_site_symmetry_multiplicity
 _atom_site_fract_x
 _atom_site_fract_y
 _atom_site_fract_z
 _atom_site_occupancy
  Li  Li0  1  0.89099972  0.25680094  0.48825058  1
  Li  Li1  1  0.89688920  0.75314471  0.98649408  1
  Li  Li2  1  0.71900713  0.11252097  0.85384424  1
  Li  Li3  1  0.28099287  0.38747903  0.64615576  1
  Li  Li4  1  0.10311080  0.74685529  0.51350592  1
  Li  Li5  1  0.10900028  0.24319906  0.01174942  1
  Fe  Fe6  1  0.67462801  0.53066696  0.72316840  1
  Fe  Fe7  1  0.66044370  0.02443117  0.22936278  1
  Fe  Fe8  1  0.32537199  0.96933304  0.77683160  1
  Fe  Fe9  1  0.33955630  0.47556883  0.27063722  1
  P  P10  1  0.57722940  0.24019900  0.51812372  1
  P  P11  1  0.57989713  0.74060363  0.00971949  1
  P  P12  1  0.42277060  0.25980100  0.98187628  1
  P  P13  1  0.42010287  0.75939637  0.49028051  1
  C  C14  1  0.96169969  0.46701129  0.76809244  1
  C  C15  1  0.95569224  0.97911074  0.26966700  1
  C  C16  1  0.03830031  0.03298871  0.73190756  1
  C  C17  1  0.04430776  0.52088926  0.23033300  1
  O  O18  1  0.92977104  0.59744311  0.65569160  1
  O  O19  1  0.92665402  0.10171152  0.14863353  1
  O  O20  1  0.89833410  0.07825160  0.70495773  1
  O  O21  1  0.83667745  0.38235439  0.85475182  1
  O  O22  1  0.90779959  0.56429370  0.18998189  1
  O  O23  1  0.82929096  0.89641991  0.35607482  1
  O  O24  1  0.69673236  0.36729230  0.57049438  1
  O  O25  1  0.67595007  0.17929095  0.38329459  1
  O  O26  1  0.69127077  0.67231826  0.88969692  1
  O  O27  1  0.69326072  0.88033698  0.05462260  1
  O  O28  1  0.52956881  0.09657886  0.67430014  1
  O  O29  1  0.57845238  0.18246485  0.04288818  1
  O  O30  1  0.57254648  0.69246532  0.56566226  1
  O  O31  1  0.53010417  0.60049586  0.16694947  1
  O  O32  1  0.47043119  0.40342114  0.82569986  1
  O  O33  1  0.42154762  0.31753515  0.45711182  1
  O  O34  1  0.42745352  0.80753468  0.93433774  1
  O  O35  1  0.46989583  0.89950414  0.33305053  1
  O  O36  1  0.30326764  0.13270770  0.92950562  1
  O  O37  1  0.30872923  0.82768174  0.61030308  1
  O  O38  1  0.32404993  0.32070905  0.11670541  1
  O  O39  1  0.30673928  0.61966302  0.44537740  1
  O  O40  1  0.16332255  0.11764561  0.64524818  1
  O  O41  1  0.10166590  0.42174840  0.79504227  1
  O  O42  1  0.17070904  0.60358009  0.14392518  1
  O  O43  1  0.09220041  0.93570630  0.31001811  1
  O  O44  1  0.07334598  0.39828848  0.35136647  1
  O  O45  1  0.07022896  0.90255689  0.84430840  1
