# generated using pymatgen
data_Ba3(BrO)2
_symmetry_space_group_name_H-M   'P 1'
_cell_length_a   13.24494291
_cell_length_b   6.37538311
_cell_length_c   11.02944939
_cell_angle_alpha   90.00000000
_cell_angle_beta   90.00000000
_cell_angle_gamma   90.00000000
_symmetry_Int_Tables_number   1
_chemical_formula_structural   Ba3(BrO)2
_chemical_formula_sum   'Ba12 Br8 O8'
_cell_volume   931.34419171
_cell_formula_units_Z   4
loop_
 _symmetry_equiv_pos_site_id
 _symmetry_equiv_pos_as_xyz
  1  'x, y, z'
loop_
 _atom_site_type_symbol
 _atom_site_label
 _atom_site_symmetry_multiplicity
 _atom_site_fract_x
 _atom_site_fract_y
 _atom_site_fract_z
 _atom_site_occupancy
  Ba  Ba0  1  0.05061889  0.25000000  0.70994525  1
  Ba  Ba1  1  0.07614484  0.25000000  0.06056810  1
  Ba  Ba2  1  0.20891241  0.75000000  0.86422150  1
  Ba  Ba3  1  0.29108759  0.25000000  0.36422150  1
  Ba  Ba4  1  0.42385516  0.75000000  0.56056810  1
  Ba  Ba5  1  0.44938111  0.75000000  0.20994525  1
  Ba  Ba6  1  0.55061889  0.25000000  0.79005475  1
  Ba  Ba7  1  0.57614484  0.25000000  0.43943190  1
  Ba  Ba8  1  0.70891241  0.75000000  0.63577850  1
  Ba  Ba9  1  0.79108759  0.25000000  0.13577850  1
  Ba  Ba10  1  0.92385516  0.75000000  0.93943190  1
  Ba  Ba11  1  0.94938111  0.75000000  0.29005475  1
  Br  Br12  1  0.13150212  0.75000000  0.55823094  1
  Br  Br13  1  0.19234941  0.75000000  0.18543103  1
  Br  Br14  1  0.30765059  0.25000000  0.68543103  1
  Br  Br15  1  0.36849788  0.25000000  0.05823094  1
  Br  Br16  1  0.63150212  0.75000000  0.94176906  1
  Br  Br17  1  0.69234941  0.75000000  0.31456897  1
  Br  Br18  1  0.80765059  0.25000000  0.81456897  1
  Br  Br19  1  0.86849788  0.25000000  0.44176906  1
  O  O20  1  0.07351355  0.00037462  0.87698713  1
  O  O21  1  0.07351355  0.49962538  0.87698713  1
  O  O22  1  0.42648645  0.99962538  0.37698713  1
  O  O23  1  0.42648645  0.50037462  0.37698713  1
  O  O24  1  0.57351355  0.00037462  0.62301287  1
  O  O25  1  0.57351355  0.49962538  0.62301287  1
  O  O26  1  0.92648645  0.50037462  0.12301287  1
  O  O27  1  0.92648645  0.99962538  0.12301287  1
