# generated using pymatgen
data_Li2CrH8Cl5O4
_symmetry_space_group_name_H-M   'P 1'
_cell_length_a   6.36365903
_cell_length_b   8.49730304
_cell_length_c   13.08361506
_cell_angle_alpha   105.20633132
_cell_angle_beta   104.07500474
_cell_angle_gamma   68.00957585
_symmetry_Int_Tables_number   1
_chemical_formula_structural   Li2CrH8Cl5O4
_chemical_formula_sum   'Li4 Cr2 H16 Cl10 O8'
_cell_volume   624.67781219
_cell_formula_units_Z   2
loop_
 _symmetry_equiv_pos_site_id
 _symmetry_equiv_pos_as_xyz
  1  'x, y, z'
loop_
 _atom_site_type_symbol
 _atom_site_label
 _atom_site_symmetry_multiplicity
 _atom_site_fract_x
 _atom_site_fract_y
 _atom_site_fract_z
 _atom_site_occupancy
  Li  Li0  1  0.60427400  0.90974225  0.38948057  1
  Li  Li1  1  0.12453567  0.59025775  0.11051943  1
  Li  Li2  1  0.87546433  0.40974225  0.88948057  1
  Li  Li3  1  0.39572600  0.09025775  0.61051943  1
  Cr  Cr4  1  -0.00000000  0.50000000  0.50000000  1
  Cr  Cr5  1  -0.00000000  -0.00000000  0.00000000  1
  H  H6  1  0.67573108  0.86644502  0.88261429  1
  H  H7  1  0.11319895  0.77518354  0.52792516  1
  H  H8  1  0.27727246  0.78458521  0.86089181  1
  H  H9  1  0.74998539  0.80806628  0.99595593  1
  H  H10  1  0.56209574  0.69193372  0.50404407  1
  H  H11  1  0.20096585  0.71541479  0.63910819  1
  H  H12  1  0.36045834  0.72481646  0.97207484  1
  H  H13  1  0.65956081  0.63355498  0.61738571  1
  H  H14  1  0.34043919  0.36644502  0.38261429  1
  H  H15  1  0.63954166  0.27518354  0.02792516  1
  H  H16  1  0.79903415  0.28458521  0.36089181  1
  H  H17  1  0.43790426  0.30806628  0.49595593  1
  H  H18  1  0.25001461  0.19193372  0.00404407  1
  H  H19  1  0.72272754  0.21541479  0.13910819  1
  H  H20  1  0.88680105  0.22481646  0.47207484  1
  H  H21  1  0.32426892  0.13355498  0.11738571  1
  Cl  Cl22  1  0.13158781  0.88182257  0.15772571  1
  Cl  Cl23  1  0.29895034  0.89139732  0.45822806  1
  Cl  Cl24  1  0.73211959  0.60860268  0.04177194  1
  Cl  Cl25  1  0.49161701  0.75000000  0.75000000  1
  Cl  Cl26  1  0.85568467  0.61817743  0.34227429  1
  Cl  Cl27  1  0.14431533  0.38182257  0.65772571  1
  Cl  Cl28  1  0.50838299  0.25000000  0.25000000  1
  Cl  Cl29  1  0.26788041  0.39139732  0.95822806  1
  Cl  Cl30  1  0.70104966  0.10860268  0.54177194  1
  Cl  Cl31  1  0.86841219  0.11817743  0.84227429  1
  O  O32  1  0.74441110  0.89930851  0.95864414  1
  O  O33  1  0.21954257  0.77935091  0.92394371  1
  O  O34  1  0.07494977  0.72064909  0.57605629  1
  O  O35  1  0.68507447  0.60069149  0.54135586  1
  O  O36  1  0.31492553  0.39930851  0.45864414  1
  O  O37  1  0.92505023  0.27935091  0.42394371  1
  O  O38  1  0.78045743  0.22064909  0.07605629  1
  O  O39  1  0.25558890  0.10069149  0.04135586  1
