# generated using pymatgen
data_Mn(IO3)2
_symmetry_space_group_name_H-M   'P 1'
_cell_length_a   14.96534624
_cell_length_b   6.83178952
_cell_length_c   5.46038642
_cell_angle_alpha   90.00000000
_cell_angle_beta   90.00000000
_cell_angle_gamma   90.00000000
_symmetry_Int_Tables_number   1
_chemical_formula_structural   Mn(IO3)2
_chemical_formula_sum   'Mn4 I8 O24'
_cell_volume   558.27042962
_cell_formula_units_Z   4
loop_
 _symmetry_equiv_pos_site_id
 _symmetry_equiv_pos_as_xyz
  1  'x, y, z'
loop_
 _atom_site_type_symbol
 _atom_site_label
 _atom_site_symmetry_multiplicity
 _atom_site_fract_x
 _atom_site_fract_y
 _atom_site_fract_z
 _atom_site_occupancy
  Mn  Mn0  1  0.00000000  0.14507871  0.75000000  1
  Mn  Mn1  1  0.00000000  0.85492129  0.25000000  1
  Mn  Mn2  1  0.50000000  0.35492129  0.25000000  1
  Mn  Mn3  1  0.50000000  0.64507871  0.75000000  1
  I  I4  1  0.15162374  0.28719711  0.24823172  1
  I  I5  1  0.15162374  0.71280289  0.74823172  1
  I  I6  1  0.34837626  0.21280289  0.74823172  1
  I  I7  1  0.34837626  0.78719711  0.24823172  1
  I  I8  1  0.65162374  0.21280289  0.75176828  1
  I  I9  1  0.65162374  0.78719711  0.25176828  1
  I  I10  1  0.84837626  0.28719711  0.25176828  1
  I  I11  1  0.84837626  0.71280289  0.75176828  1
  O  O12  1  0.07888139  0.10723151  0.41084383  1
  O  O13  1  0.07888139  0.89276849  0.91084383  1
  O  O14  1  0.08362616  0.33699207  0.97126378  1
  O  O15  1  0.08362616  0.66300793  0.47126378  1
  O  O16  1  0.26243944  0.37363300  0.62741387  1
  O  O17  1  0.26243944  0.62636700  0.12741387  1
  O  O18  1  0.23756056  0.12636700  0.12741387  1
  O  O19  1  0.23756056  0.87363300  0.62741387  1
  O  O20  1  0.41637384  0.16300793  0.47126378  1
  O  O21  1  0.41637384  0.83699207  0.97126378  1
  O  O22  1  0.42111861  0.39276849  0.91084383  1
  O  O23  1  0.42111861  0.60723151  0.41084383  1
  O  O24  1  0.57888139  0.39276849  0.58915617  1
  O  O25  1  0.57888139  0.60723151  0.08915617  1
  O  O26  1  0.58362616  0.16300793  0.02873622  1
  O  O27  1  0.58362616  0.83699207  0.52873622  1
  O  O28  1  0.76243944  0.12636700  0.37258613  1
  O  O29  1  0.76243944  0.87363300  0.87258613  1
  O  O30  1  0.73756056  0.37363300  0.87258613  1
  O  O31  1  0.73756056  0.62636700  0.37258613  1
  O  O32  1  0.91637384  0.33699207  0.52873622  1
  O  O33  1  0.91637384  0.66300793  0.02873622  1
  O  O34  1  0.92111861  0.10723151  0.08915617  1
  O  O35  1  0.92111861  0.89276849  0.58915617  1
