# generated using pymatgen
data_YMg6Cu
_symmetry_space_group_name_H-M   'P 1'
_cell_length_a   6.47072134
_cell_length_b   6.47072122
_cell_length_c   4.96579981
_cell_angle_alpha   90.00000000
_cell_angle_beta   90.00000000
_cell_angle_gamma   120.96747772
_symmetry_Int_Tables_number   1
_chemical_formula_structural   YMg6Cu
_chemical_formula_sum   'Y1 Mg6 Cu1'
_cell_volume   178.28229463
_cell_formula_units_Z   1
loop_
 _symmetry_equiv_pos_site_id
 _symmetry_equiv_pos_as_xyz
  1  'x, y, z'
loop_
 _atom_site_type_symbol
 _atom_site_label
 _atom_site_symmetry_multiplicity
 _atom_site_fract_x
 _atom_site_fract_y
 _atom_site_fract_z
 _atom_site_occupancy
  Y  Y0  1  0.17958188  0.32041812  0.25000000  1
  Mg  Mg1  1  0.18123238  0.83781883  0.25000000  1
  Mg  Mg2  1  0.66218117  0.31876762  0.25000000  1
  Mg  Mg3  1  0.66302193  0.83697807  0.25000000  1
  Mg  Mg4  1  0.33454801  0.68270756  0.75000000  1
  Mg  Mg5  1  0.81729244  0.16545199  0.75000000  1
  Mg  Mg6  1  0.83055481  0.66944519  0.75000000  1
  Cu  Cu7  1  0.33158738  0.16841262  0.75000000  1
