# generated using pymatgen
data_CsLa3O5
_symmetry_space_group_name_H-M   'P 1'
_cell_length_a   10.95194620
_cell_length_b   3.80008044
_cell_length_c   18.68272906
_cell_angle_alpha   90.00000000
_cell_angle_beta   90.00000000
_cell_angle_gamma   90.00000000
_symmetry_Int_Tables_number   1
_chemical_formula_structural   CsLa3O5
_chemical_formula_sum   'Cs4 La12 O20'
_cell_volume   777.54298444
_cell_formula_units_Z   4
loop_
 _symmetry_equiv_pos_site_id
 _symmetry_equiv_pos_as_xyz
  1  'x, y, z'
loop_
 _atom_site_type_symbol
 _atom_site_label
 _atom_site_symmetry_multiplicity
 _atom_site_fract_x
 _atom_site_fract_y
 _atom_site_fract_z
 _atom_site_occupancy
  Cs  Cs0  1  0.03116042  0.75000000  0.62583531  1
  Cs  Cs1  1  0.46883958  0.25000000  0.12583531  1
  Cs  Cs2  1  0.53116042  0.75000000  0.87416469  1
  Cs  Cs3  1  0.96883958  0.25000000  0.37416469  1
  La  La4  1  0.11140880  0.75000000  0.16412808  1
  La  La5  1  0.15415038  0.25000000  0.98914121  1
  La  La6  1  0.18465108  0.75000000  0.81678956  1
  La  La7  1  0.31534892  0.25000000  0.31678956  1
  La  La8  1  0.34584962  0.75000000  0.48914121  1
  La  La9  1  0.38859120  0.25000000  0.66412808  1
  La  La10  1  0.61140880  0.75000000  0.33587192  1
  La  La11  1  0.65415038  0.25000000  0.51085879  1
  La  La12  1  0.68465108  0.75000000  0.68321044  1
  La  La13  1  0.81534892  0.25000000  0.18321044  1
  La  La14  1  0.84584962  0.75000000  0.01085879  1
  La  La15  1  0.88859120  0.25000000  0.83587192  1
  O  O16  1  0.02324797  0.75000000  0.92043860  1
  O  O17  1  0.06981658  0.25000000  0.77128250  1
  O  O18  1  0.19278691  0.25000000  0.21426308  1
  O  O19  1  0.22518934  0.75000000  0.05223343  1
  O  O20  1  0.22980172  0.75000000  0.38476709  1
  O  O21  1  0.27019828  0.25000000  0.88476709  1
  O  O22  1  0.27481066  0.25000000  0.55223343  1
  O  O23  1  0.30721309  0.75000000  0.71426308  1
  O  O24  1  0.43018342  0.75000000  0.27128250  1
  O  O25  1  0.47675203  0.25000000  0.42043860  1
  O  O26  1  0.52324797  0.75000000  0.57956140  1
  O  O27  1  0.56981658  0.25000000  0.72871750  1
  O  O28  1  0.69278691  0.25000000  0.28573692  1
  O  O29  1  0.72518934  0.75000000  0.44776657  1
  O  O30  1  0.72980172  0.75000000  0.11523291  1
  O  O31  1  0.77019828  0.25000000  0.61523291  1
  O  O32  1  0.77481066  0.25000000  0.94776657  1
  O  O33  1  0.80721309  0.75000000  0.78573692  1
  O  O34  1  0.93018342  0.75000000  0.22871750  1
  O  O35  1  0.97675203  0.25000000  0.07956140  1
