# generated using pymatgen
data_Li2VGaO4
_symmetry_space_group_name_H-M   'P 1'
_cell_length_a   5.16681001
_cell_length_b   6.00158199
_cell_length_c   7.84495084
_cell_angle_alpha   79.18154304
_cell_angle_beta   71.53771886
_cell_angle_gamma   89.94363713
_symmetry_Int_Tables_number   1
_chemical_formula_structural   Li2VGaO4
_chemical_formula_sum   'Li6 V3 Ga3 O12'
_cell_volume   226.19648913
_cell_formula_units_Z   3
loop_
 _symmetry_equiv_pos_site_id
 _symmetry_equiv_pos_as_xyz
  1  'x, y, z'
loop_
 _atom_site_type_symbol
 _atom_site_label
 _atom_site_symmetry_multiplicity
 _atom_site_fract_x
 _atom_site_fract_y
 _atom_site_fract_z
 _atom_site_occupancy
  Li  Li0  1  0.00076799  0.50276844  0.99976453  1
  Li  Li1  1  0.00154500  0.33676505  0.66394737  1
  Li  Li2  1  0.00060915  0.99330265  0.99879467  1
  Li  Li3  1  0.99905319  0.66398386  0.33353485  1
  Li  Li4  1  0.99964795  0.17328514  0.33461552  1
  Li  Li5  1  0.99841878  0.82980785  0.66939876  1
  V  V6  1  0.50041335  0.24663033  0.00047035  1
  V  V7  1  0.49959604  0.92010953  0.33274752  1
  V  V8  1  0.49990155  0.08335659  0.66652869  1
  Ga  Ga9  1  0.49954746  0.74391608  0.99969641  1
  Ga  Ga10  1  0.50043271  0.42281689  0.33371227  1
  Ga  Ga11  1  0.50005046  0.58324026  0.66675626  1
  O  O12  1  0.27267146  0.95705923  0.16014399  1
  O  O13  1  0.27532225  0.46125366  0.16301729  1
  O  O14  1  0.27309286  0.13670036  0.49389045  1
  O  O15  1  0.27489758  0.62975937  0.49502703  1
  O  O16  1  0.27499674  0.29153036  0.82595204  1
  O  O17  1  0.27440721  0.78269264  0.82987717  1
  O  O18  1  0.72482857  0.70481845  0.16998630  1
  O  O19  1  0.72712688  0.20891702  0.17365288  1
  O  O20  1  0.72569411  0.38402567  0.50337955  1
  O  O21  1  0.72518555  0.87526141  0.50733039  1
  O  O22  1  0.72547536  0.53734285  0.83802689  1
  O  O23  1  0.72631679  0.03065533  0.83974681  1
