# generated using pymatgen
data_Dy2Cu2O5
_symmetry_space_group_name_H-M   'P 1'
_cell_length_a   6.26829495
_cell_length_b   11.21290685
_cell_length_c   7.19793830
_cell_angle_alpha   90.00000000
_cell_angle_beta   90.00000000
_cell_angle_gamma   90.00000000
_symmetry_Int_Tables_number   1
_chemical_formula_structural   Dy2Cu2O5
_chemical_formula_sum   'Dy8 Cu8 O20'
_cell_volume   505.91290491
_cell_formula_units_Z   4
loop_
 _symmetry_equiv_pos_site_id
 _symmetry_equiv_pos_as_xyz
  1  'x, y, z'
loop_
 _atom_site_type_symbol
 _atom_site_label
 _atom_site_symmetry_multiplicity
 _atom_site_fract_x
 _atom_site_fract_y
 _atom_site_fract_z
 _atom_site_occupancy
  Dy  Dy0  1  0.24994080  0.52273656  0.88056438  1
  Dy  Dy1  1  0.24994080  0.97726344  0.88056438  1
  Dy  Dy2  1  0.25005920  0.02273656  0.38056438  1
  Dy  Dy3  1  0.25005920  0.47726344  0.38056438  1
  Dy  Dy4  1  0.74994080  0.52273656  0.61943562  1
  Dy  Dy5  1  0.74994080  0.97726344  0.61943562  1
  Dy  Dy6  1  0.75005920  0.02273656  0.11943562  1
  Dy  Dy7  1  0.75005920  0.47726344  0.11943562  1
  Cu  Cu8  1  0.07216901  0.25000000  0.14887571  1
  Cu  Cu9  1  0.08659985  0.25000000  0.62782130  1
  Cu  Cu10  1  0.41340015  0.75000000  0.12782130  1
  Cu  Cu11  1  0.42783099  0.75000000  0.64887571  1
  Cu  Cu12  1  0.57216901  0.25000000  0.35112429  1
  Cu  Cu13  1  0.58659985  0.25000000  0.87217870  1
  Cu  Cu14  1  0.91340015  0.75000000  0.37217870  1
  Cu  Cu15  1  0.92783099  0.75000000  0.85112429  1
  O  O16  1  0.06912839  0.08552713  0.64379049  1
  O  O17  1  0.06912839  0.41447287  0.64379049  1
  O  O18  1  0.09750756  0.08797557  0.11288464  1
  O  O19  1  0.09750756  0.41202443  0.11288464  1
  O  O20  1  0.25365506  0.25000000  0.38089092  1
  O  O21  1  0.24634494  0.75000000  0.88089092  1
  O  O22  1  0.40249244  0.91202443  0.61288464  1
  O  O23  1  0.40249244  0.58797557  0.61288464  1
  O  O24  1  0.43087161  0.91447287  0.14379049  1
  O  O25  1  0.43087161  0.58552713  0.14379049  1
  O  O26  1  0.56912839  0.08552713  0.85620951  1
  O  O27  1  0.56912839  0.41447287  0.85620951  1
  O  O28  1  0.59750756  0.08797557  0.38711536  1
  O  O29  1  0.59750756  0.41202443  0.38711536  1
  O  O30  1  0.75365506  0.25000000  0.11910908  1
  O  O31  1  0.74634494  0.75000000  0.61910908  1
  O  O32  1  0.90249244  0.58797557  0.88711536  1
  O  O33  1  0.90249244  0.91202443  0.88711536  1
  O  O34  1  0.93087161  0.58552713  0.35620951  1
  O  O35  1  0.93087161  0.91447287  0.35620951  1
