# generated using pymatgen
data_Li2CoH12(SO7)2
_symmetry_space_group_name_H-M   'P 1'
_cell_length_a   8.61304951
_cell_length_b   12.12637380
_cell_length_c   5.73253457
_cell_angle_alpha   90.00000000
_cell_angle_beta   100.15356115
_cell_angle_gamma   90.00000000
_symmetry_Int_Tables_number   1
_chemical_formula_structural   Li2CoH12(SO7)2
_chemical_formula_sum   'Li4 Co2 H24 S4 O28'
_cell_volume   589.35800618
_cell_formula_units_Z   2
loop_
 _symmetry_equiv_pos_site_id
 _symmetry_equiv_pos_as_xyz
  1  'x, y, z'
loop_
 _atom_site_type_symbol
 _atom_site_label
 _atom_site_symmetry_multiplicity
 _atom_site_fract_x
 _atom_site_fract_y
 _atom_site_fract_z
 _atom_site_occupancy
  Li  Li0  1  0.17155191  0.38225627  0.35001841  1
  Li  Li1  1  0.32844809  0.88225627  0.64998159  1
  Li  Li2  1  0.67155191  0.11774373  0.35001841  1
  Li  Li3  1  0.82844809  0.61774373  0.64998159  1
  Co  Co4  1  0.00000000  0.00000000  0.00000000  1
  Co  Co5  1  0.50000000  0.50000000  0.00000000  1
  H  H6  1  0.11240082  0.06820842  0.65128224  1
  H  H7  1  0.14444872  0.80521263  0.95784084  1
  H  H8  1  0.03687492  0.84899904  0.34972902  1
  H  H9  1  0.22358212  0.38766943  0.92435323  1
  H  H10  1  0.24109435  0.62846085  0.91147277  1
  H  H11  1  0.21813308  0.08715647  0.33052916  1
  H  H12  1  0.28186692  0.58715647  0.66947084  1
  H  H13  1  0.25890565  0.12846085  0.08852723  1
  H  H14  1  0.27641788  0.88766943  0.07564677  1
  H  H15  1  0.46312508  0.34899904  0.65027098  1
  H  H16  1  0.35555128  0.30521263  0.04215916  1
  H  H17  1  0.38759918  0.56820842  0.34871776  1
  H  H18  1  0.61240082  0.43179158  0.65128224  1
  H  H19  1  0.64444872  0.69478737  0.95784084  1
  H  H20  1  0.53687492  0.65100096  0.34972902  1
  H  H21  1  0.72358212  0.11233057  0.92435323  1
  H  H22  1  0.74109435  0.87153915  0.91147277  1
  H  H23  1  0.71813308  0.41284353  0.33052916  1
  H  H24  1  0.78186692  0.91284353  0.66947084  1
  H  H25  1  0.75890565  0.37153915  0.08852723  1
  H  H26  1  0.77641788  0.61233057  0.07564677  1
  H  H27  1  0.96312508  0.15100096  0.65027098  1
  H  H28  1  0.85555128  0.19478737  0.04215916  1
  H  H29  1  0.88759918  0.93179158  0.34871776  1
  S  S30  1  0.07735138  0.63947674  0.28503442  1
  S  S31  1  0.42264862  0.13947674  0.71496558  1
  S  S32  1  0.57735138  0.86052326  0.28503442  1
  S  S33  1  0.92264862  0.36052326  0.71496558  1
  O  O34  1  0.00539892  0.07491259  0.69155544  1
  O  O35  1  0.08253802  0.39534857  0.67822979  1
  O  O36  1  0.19212622  0.87775324  0.93241474  1
  O  O37  1  0.12944232  0.73818375  0.43331149  1
  O  O38  1  0.07451815  0.66339735  0.02846163  1
  O  O39  1  0.16880197  0.11169530  0.16992430  1
  O  O40  1  0.19323544  0.54816376  0.36387087  1
  O  O41  1  0.30676456  0.04816376  0.63612913  1
  O  O42  1  0.33119803  0.61169530  0.83007570  1
  O  O43  1  0.42548185  0.16339735  0.97153837  1
  O  O44  1  0.37055768  0.23818375  0.56668851  1
  O  O45  1  0.30787378  0.37775324  0.06758526  1
  O  O46  1  0.50539892  0.42508741  0.69155544  1
  O  O47  1  0.41746198  0.89534857  0.32177021  1
  O  O48  1  0.58253802  0.10465143  0.67822979  1
  O  O49  1  0.49460108  0.57491259  0.30844456  1
  O  O50  1  0.69212622  0.62224676  0.93241474  1
  O  O51  1  0.62944232  0.76181625  0.43331149  1
  O  O52  1  0.57451815  0.83660265  0.02846163  1
  O  O53  1  0.66880197  0.38830470  0.16992430  1
  O  O54  1  0.69323544  0.95183624  0.36387087  1
  O  O55  1  0.80676456  0.45183624  0.63612913  1
  O  O56  1  0.83119803  0.88830470  0.83007570  1
  O  O57  1  0.92548185  0.33660265  0.97153837  1
  O  O58  1  0.87055768  0.26181625  0.56668851  1
  O  O59  1  0.80787378  0.12224676  0.06758526  1
  O  O60  1  0.91746198  0.60465143  0.32177021  1
  O  O61  1  0.99460108  0.92508741  0.30844456  1
