# generated using pymatgen
data_Hg2W2O7
_symmetry_space_group_name_H-M   'P 1'
_cell_length_a   9.09400443
_cell_length_b   8.55690949
_cell_length_c   5.31424104
_cell_angle_alpha   97.42922248
_cell_angle_beta   105.92332280
_cell_angle_gamma   105.56430075
_symmetry_Int_Tables_number   1
_chemical_formula_structural   Hg2W2O7
_chemical_formula_sum   'Hg4 W4 O14'
_cell_volume   373.78274973
_cell_formula_units_Z   2
loop_
 _symmetry_equiv_pos_site_id
 _symmetry_equiv_pos_as_xyz
  1  'x, y, z'
loop_
 _atom_site_type_symbol
 _atom_site_label
 _atom_site_symmetry_multiplicity
 _atom_site_fract_x
 _atom_site_fract_y
 _atom_site_fract_z
 _atom_site_occupancy
  Hg  Hg0  1  0.18473147  0.81044103  0.24667129  1
  Hg  Hg1  1  0.28662697  0.01114202  0.71412108  1
  Hg  Hg2  1  0.71337303  0.98885798  0.28587892  1
  Hg  Hg3  1  0.81526853  0.18955897  0.75332871  1
  W  W4  1  0.20758745  0.31916413  0.21950287  1
  W  W5  1  0.34398188  0.54671923  0.82019705  1
  W  W6  1  0.65601812  0.45328077  0.17980295  1
  W  W7  1  0.79241255  0.68083587  0.78049713  1
  O  O8  1  0.00806906  0.74423874  0.82984999  1
  O  O9  1  0.16092295  0.44588789  0.91707270  1
  O  O10  1  0.25990101  0.56285001  0.46444512  1
  O  O11  1  0.39114283  0.75983422  0.98748165  1
  O  O12  1  0.29314296  0.29791674  0.57174843  1
  O  O13  1  0.22385856  0.12940581  0.04688511  1
  O  O14  1  0.43180873  0.44307331  0.15385299  1
  O  O15  1  0.56819127  0.55692669  0.84614701  1
  O  O16  1  0.77614144  0.87059419  0.95311489  1
  O  O17  1  0.70685704  0.70208326  0.42825157  1
  O  O18  1  0.60885717  0.24016578  0.01251835  1
  O  O19  1  0.74009899  0.43714999  0.53555488  1
  O  O20  1  0.83907705  0.55411211  0.08292730  1
  O  O21  1  0.99193094  0.25576126  0.17015001  1
