# generated using pymatgen
data_CrFe5(PO4)6
_symmetry_space_group_name_H-M   'P 1'
_cell_length_a   8.43030178
_cell_length_b   8.63395217
_cell_length_c   8.63395198
_cell_angle_alpha   60.00000195
_cell_angle_beta   59.19762060
_cell_angle_gamma   59.19761834
_symmetry_Int_Tables_number   1
_chemical_formula_structural   CrFe5(PO4)6
_chemical_formula_sum   'Cr1 Fe5 P6 O24'
_cell_volume   438.90690301
_cell_formula_units_Z   1
loop_
 _symmetry_equiv_pos_site_id
 _symmetry_equiv_pos_as_xyz
  1  'x, y, z'
loop_
 _atom_site_type_symbol
 _atom_site_label
 _atom_site_symmetry_multiplicity
 _atom_site_fract_x
 _atom_site_fract_y
 _atom_site_fract_z
 _atom_site_occupancy
  Cr  Cr0  1  0.57329493  0.14223502  0.14223502  1
  Fe  Fe1  1  0.00553805  0.99815432  0.99815432  1
  Fe  Fe2  1  0.06078012  0.64640663  0.64640663  1
  Fe  Fe3  1  0.49848584  0.50050505  0.50050505  1
  Fe  Fe4  1  0.43887921  0.85370726  0.85370726  1
  Fe  Fe5  1  0.93805714  0.35398095  0.35398095  1
  P  P6  1  0.25125264  0.25069008  0.54427353  1
  P  P7  1  0.25125264  0.95378375  0.25069008  1
  P  P8  1  0.25125264  0.54427353  0.95378375  1
  P  P9  1  0.74812010  0.45258968  0.04832764  1
  P  P10  1  0.74812010  0.04832764  0.75096258  1
  P  P11  1  0.74812010  0.75096258  0.45258968  1
  O  O12  1  0.06416405  0.10700572  0.32462452  1
  O  O13  1  0.06416405  0.50420472  0.10700572  1
  O  O14  1  0.06416405  0.32462452  0.50420472  1
  O  O15  1  0.21723149  0.09422607  0.74809377  1
  O  O16  1  0.43569807  0.17945392  0.39046451  1
  O  O17  1  0.28364169  0.40559012  0.56104875  1
  O  O18  1  0.21723149  0.94044967  0.09422607  1
  O  O19  1  0.28364169  0.74971844  0.40559012  1
  O  O20  1  0.56339047  0.60677991  0.00546709  1
  O  O21  1  0.28364169  0.56104875  0.74971844  1
  O  O22  1  0.78233628  0.24892605  0.06238916  1
  O  O23  1  0.56339047  0.00546709  0.82436153  1
  O  O24  1  0.43569807  0.99438349  0.17945392  1
  O  O25  1  0.21723149  0.74809377  0.94044967  1
  O  O26  1  0.71494530  0.43808876  0.25112907  1
  O  O27  1  0.43569807  0.39046451  0.99438349  1
  O  O28  1  0.71494530  0.25112907  0.59583587  1
  O  O29  1  0.78233628  0.06238916  0.90634951  1
  O  O30  1  0.71494530  0.59583587  0.43808876  1
  O  O31  1  0.56339047  0.82436153  0.60677991  1
  O  O32  1  0.78233628  0.90634951  0.24892605  1
  O  O33  1  0.93420915  0.68024192  0.49279235  1
  O  O34  1  0.93420915  0.49279235  0.89275759  1
  O  O35  1  0.93420915  0.89275759  0.68024192  1
