# generated using pymatgen
data_Li4NbFe3O8
_symmetry_space_group_name_H-M   'P 1'
_cell_length_a   10.47721524
_cell_length_b   10.49933911
_cell_length_c   14.82345060
_cell_angle_alpha   19.59106242
_cell_angle_beta   19.66305012
_cell_angle_gamma   33.83232253
_symmetry_Int_Tables_number   1
_chemical_formula_structural   Li4NbFe3O8
_chemical_formula_sum   'Li4 Nb1 Fe3 O8'
_cell_volume   159.24522068
_cell_formula_units_Z   1
loop_
 _symmetry_equiv_pos_site_id
 _symmetry_equiv_pos_as_xyz
  1  'x, y, z'
loop_
 _atom_site_type_symbol
 _atom_site_label
 _atom_site_symmetry_multiplicity
 _atom_site_fract_x
 _atom_site_fract_y
 _atom_site_fract_z
 _atom_site_occupancy
  Li  Li0  1  -0.00000059  0.00000009  0.50000014  1
  Li  Li1  1  0.00000110  0.50000432  0.49999587  1
  Li  Li2  1  0.50000799  0.00000369  0.49999159  1
  Li  Li3  1  0.49999577  0.49999565  0.50000517  1
  Nb  Nb4  1  0.00000497  0.99999697  -0.00000154  1
  Fe  Fe5  1  -0.00000342  0.49998982  0.00000985  1
  Fe  Fe6  1  0.49999144  0.99999399  0.00001063  1
  Fe  Fe7  1  0.50000894  0.50001776  -0.00001728  1
  O  O8  1  0.01319375  0.00004579  0.25229290  1
  O  O9  1  0.97723848  0.51200109  0.26139639  1
  O  O10  1  0.53763754  -0.00004483  0.22726584  1
  O  O11  1  0.98680594  0.99995591  0.74770739  1
  O  O12  1  0.46548002  0.48835773  0.28500981  1
  O  O13  1  0.02275741  0.48799339  0.73860868  1
  O  O14  1  0.46235930  0.00004666  0.77273385  1
  O  O15  1  0.53452135  0.51164195  0.71498871  1
