# generated using pymatgen
data_Li5Mn8Fe11O32
_symmetry_space_group_name_H-M   'P 1'
_cell_length_a   6.05262561
_cell_length_b   5.97968930
_cell_length_c   19.91084305
_cell_angle_alpha   97.17366594
_cell_angle_beta   98.74245561
_cell_angle_gamma   59.59568825
_symmetry_Int_Tables_number   1
_chemical_formula_structural   Li5Mn8Fe11O32
_chemical_formula_sum   'Li5 Mn8 Fe11 O32'
_cell_volume   613.33149607
_cell_formula_units_Z   1
loop_
 _symmetry_equiv_pos_site_id
 _symmetry_equiv_pos_as_xyz
  1  'x, y, z'
loop_
 _atom_site_type_symbol
 _atom_site_label
 _atom_site_symmetry_multiplicity
 _atom_site_fract_x
 _atom_site_fract_y
 _atom_site_fract_z
 _atom_site_occupancy
  Li  Li0  1  0.83830085  0.85799590  0.03459660  1
  Li  Li1  1  0.91256674  0.89316899  0.21830146  1
  Li  Li2  1  0.66365993  0.64598702  0.47330687  1
  Li  Li3  1  0.34259322  0.34172020  0.52690664  1
  Li  Li4  1  0.09204009  0.08981717  0.77389635  1
  Mn  Mn5  1  0.37578655  0.87472731  0.12630140  1
  Mn  Mn6  1  0.49790778  0.50718275  0.00299832  1
  Mn  Mn7  1  0.12167656  0.63417041  0.37752452  1
  Mn  Mn8  1  0.25036774  0.24931348  0.25004796  1
  Mn  Mn9  1  0.87750165  0.36688928  0.62189258  1
  Mn  Mn10  1  0.00361760  0.99292258  0.50015778  1
  Mn  Mn11  1  0.74934305  0.75020122  0.74888833  1
  Mn  Mn12  1  0.62752228  0.11932745  0.87437101  1
  Fe  Fe13  1  0.87361967  0.37776758  0.12656903  1
  Fe  Fe14  1  0.37518178  0.37776758  0.12656903  1
  Fe  Fe15  1  0.59048842  0.60438994  0.28536779  1
  Fe  Fe16  1  0.87772348  0.86965591  0.62153010  1
  Fe  Fe17  1  0.37415071  0.86965591  0.62153010  1
  Fe  Fe18  1  0.62502742  0.13272739  0.37826616  1
  Fe  Fe19  1  0.12051135  0.13272739  0.37826616  1
  Fe  Fe20  1  0.40745232  0.40463944  0.71954308  1
  Fe  Fe21  1  0.11570445  0.62669924  0.87229815  1
  Fe  Fe22  1  0.62989446  0.62669924  0.87229815  1
  Fe  Fe23  1  0.15921211  0.15095808  0.96938330  1
  O  O24  1  0.21649838  0.69293665  0.07015168  1
  O  O25  1  0.66071565  0.69293665  0.07015168  1
  O  O26  1  0.41629907  0.98400443  0.31660358  1
  O  O27  1  0.55649594  0.56764244  0.18063332  1
  O  O28  1  0.66438290  0.23579172  0.06455652  1
  O  O29  1  0.94112827  0.94123027  0.32348582  1
  O  O30  1  0.19211826  0.18381375  0.06805027  1
  O  O31  1  0.08411688  0.51764257  0.18587532  1
  O  O32  1  0.84372430  0.81831698  0.43643011  1
  O  O33  1  0.08794959  0.06160145  0.18117454  1
  O  O34  1  0.27438984  0.81831698  0.43643011  1
  O  O35  1  0.53162350  0.06160145  0.18117454  1
  O  O36  1  0.96472518  0.44803201  0.31950083  1
  O  O37  1  0.40674364  0.44803201  0.31950083  1
  O  O38  1  0.17477616  0.71332745  0.56287978  1
  O  O39  1  0.30315128  0.32154810  0.42784966  1
  O  O40  1  0.69709070  0.67852983  0.57271124  1
  O  O41  1  0.83200874  0.27405577  0.43807326  1
  O  O42  1  0.58388966  0.57916140  0.68922436  1
  O  O43  1  0.02617229  0.57916140  0.68922436  1
  O  O44  1  0.47453744  0.91445796  0.80918816  1
  O  O45  1  0.72674782  0.15783745  0.55743261  1
  O  O46  1  0.17284734  0.15783745  0.55743261  1
  O  O47  1  0.92019276  0.91445796  0.80918816  1
  O  O48  1  0.92049019  0.47131797  0.81229935  1
  O  O49  1  0.80571046  0.81561063  0.92703255  1
  O  O50  1  0.05605263  0.06214560  0.67424986  1
  O  O51  1  0.44483259  0.43526522  0.82493041  1
  O  O52  1  0.32451690  0.78728538  0.93631818  1
  O  O53  1  0.57893775  0.02649161  0.68436812  1
  O  O54  1  0.31396100  0.32124848  0.93653316  1
  O  O55  1  0.80132467  0.32124848  0.93653316  1
