# generated using pymatgen
data_Na3VPCO7
_symmetry_space_group_name_H-M   'P 1'
_cell_length_a   8.91563930
_cell_length_b   5.40030030
_cell_length_c   6.77614684
_cell_angle_alpha   90.00000000
_cell_angle_beta   90.00000000
_cell_angle_gamma   88.96572374
_symmetry_Int_Tables_number   1
_chemical_formula_structural   Na3VPCO7
_chemical_formula_sum   'Na6 V2 P2 C2 O14'
_cell_volume   326.19886569
_cell_formula_units_Z   2
loop_
 _symmetry_equiv_pos_site_id
 _symmetry_equiv_pos_as_xyz
  1  'x, y, z'
loop_
 _atom_site_type_symbol
 _atom_site_label
 _atom_site_symmetry_multiplicity
 _atom_site_fract_x
 _atom_site_fract_y
 _atom_site_fract_z
 _atom_site_occupancy
  Na  Na0  1  0.00209855  0.99940272  0.48885738  1
  Na  Na1  1  0.16218525  0.45051189  0.21398192  1
  Na  Na2  1  0.49535409  0.50309201  0.48466264  1
  Na  Na3  1  0.50464591  0.49690799  0.98466264  1
  Na  Na4  1  0.83781475  0.54948811  0.71398192  1
  Na  Na5  1  0.99790145  0.00059728  0.98885738  1
  V  V6  1  0.27881144  0.04176276  0.73992126  1
  V  V7  1  0.72118856  0.95823724  0.23992126  1
  P  P8  1  0.34573854  0.98429751  0.23758206  1
  P  P9  1  0.65426146  0.01570249  0.73758206  1
  C  C10  1  0.16373602  0.49028872  0.73988476  1
  C  C11  1  0.83626398  0.50971128  0.23988376  1
  O  O12  1  0.06885798  0.30509669  0.74035282  1
  O  O13  1  0.11316403  0.71788960  0.74398459  1
  O  O14  1  0.25143855  0.08340257  0.05678647  1
  O  O15  1  0.25199065  0.06907007  0.42232420  1
  O  O16  1  0.30492358  0.43882538  0.73675694  1
  O  O17  1  0.36136864  0.69918373  0.22900493  1
  O  O18  1  0.50007500  0.11281370  0.24050103  1
  O  O19  1  0.49992500  0.88718630  0.74050103  1
  O  O20  1  0.63863136  0.30081627  0.72900493  1
  O  O21  1  0.69507642  0.56117462  0.23675694  1
  O  O22  1  0.74800935  0.93092993  0.92232420  1
  O  O23  1  0.74856145  0.91659743  0.55678647  1
  O  O24  1  0.88683597  0.28211040  0.24398459  1
  O  O25  1  0.93114202  0.69490331  0.24035282  1
