# generated using pymatgen
data_Li3Zn(Fe5O8)4
_symmetry_space_group_name_H-M   'P 1'
_cell_length_a   8.45917656
_cell_length_b   8.48662576
_cell_length_c   8.47713854
_cell_angle_alpha   90.37358106
_cell_angle_beta   89.61412981
_cell_angle_gamma   89.60690141
_symmetry_Int_Tables_number   1
_chemical_formula_structural   Li3Zn(Fe5O8)4
_chemical_formula_sum   'Li3 Zn1 Fe20 O32'
_cell_volume   608.53139291
_cell_formula_units_Z   1
loop_
 _symmetry_equiv_pos_site_id
 _symmetry_equiv_pos_as_xyz
  1  'x, y, z'
loop_
 _atom_site_type_symbol
 _atom_site_label
 _atom_site_symmetry_multiplicity
 _atom_site_fract_x
 _atom_site_fract_y
 _atom_site_fract_z
 _atom_site_occupancy
  Li  Li0  1  0.12607734  0.37445969  0.87534771  1
  Li  Li1  1  0.62275213  0.37533453  0.37388102  1
  Li  Li2  1  0.62539159  0.87411068  0.87710624  1
  Zn  Zn3  1  0.00551524  0.99650748  0.99348984  1
  Fe  Fe4  1  0.00199412  0.49510895  0.49629530  1
  Fe  Fe5  1  0.12690456  0.87490965  0.37312965  1
  Fe  Fe6  1  0.12363930  0.12968880  0.63232638  1
  Fe  Fe7  1  0.13122591  0.62353194  0.12099581  1
  Fe  Fe8  1  0.24784280  0.25487174  0.25062489  1
  Fe  Fe9  1  0.24878328  0.75307551  0.76107322  1
  Fe  Fe10  1  0.37506440  0.37666258  0.62311698  1
  Fe  Fe11  1  0.37671404  0.87348847  0.12298295  1
  Fe  Fe12  1  0.37438026  0.12524592  0.87676619  1
  Fe  Fe13  1  0.38039472  0.62085233  0.37316571  1
  Fe  Fe14  1  0.50375147  0.99640999  0.49578171  1
  Fe  Fe15  1  0.50486740  0.49626720  0.99334762  1
  Fe  Fe16  1  0.62462078  0.12456248  0.12442629  1
  Fe  Fe17  1  0.62354439  0.62373412  0.62492256  1
  Fe  Fe18  1  0.74350907  0.25720717  0.75733884  1
  Fe  Fe19  1  0.74231652  0.75238092  0.25200818  1
  Fe  Fe20  1  0.87100126  0.12888631  0.37371731  1
  Fe  Fe21  1  0.87386978  0.62589935  0.87559389  1
  Fe  Fe22  1  0.87322071  0.37519112  0.12385349  1
  Fe  Fe23  1  0.87020779  0.87610377  0.63291090  1
  O  O24  1  0.11602491  0.11455256  0.38244663  1
  O  O25  1  0.11450426  0.38727286  0.12634955  1
  O  O26  1  0.11814857  0.88284996  0.61572935  1
  O  O27  1  0.13677137  0.36654968  0.62187651  1
  O  O28  1  0.11231730  0.62609653  0.88628846  1
  O  O29  1  0.12670037  0.63680033  0.36587326  1
  O  O30  1  0.14099564  0.12964502  0.85898601  1
  O  O31  1  0.14398133  0.86327182  0.13575066  1
  O  O32  1  0.37185234  0.12995478  0.62994450  1
  O  O33  1  0.36581855  0.87609911  0.35936486  1
  O  O34  1  0.37590729  0.36549227  0.86563010  1
  O  O35  1  0.37350085  0.37264762  0.38719301  1
  O  O36  1  0.37059250  0.63896985  0.12143195  1
  O  O37  1  0.37956003  0.11381496  0.11890849  1
  O  O38  1  0.38117354  0.61896431  0.63172410  1
  O  O39  1  0.37413309  0.88488270  0.89144198  1
  O  O40  1  0.61477265  0.38411598  0.62453580  1
  O  O41  1  0.61322936  0.12405288  0.88504264  1
  O  O42  1  0.62424901  0.62487726  0.38950647  1
  O  O43  1  0.63548644  0.12474729  0.36545720  1
  O  O44  1  0.60770606  0.88339456  0.12576666  1
  O  O45  1  0.63265133  0.86277212  0.62276571  1
  O  O46  1  0.63497245  0.36641413  0.12604824  1
  O  O47  1  0.63585654  0.62285160  0.86438208  1
  O  O48  1  0.87663005  0.36563030  0.36354371  1
  O  O49  1  0.86914430  0.62774196  0.63030108  1
  O  O50  1  0.86543752  0.13389448  0.13460100  1
  O  O51  1  0.88049902  0.11926989  0.61869982  1
  O  O52  1  0.87084701  0.85964107  0.85992275  1
  O  O53  1  0.87539067  0.38490844  0.88473556  1
  O  O54  1  0.88486589  0.88296989  0.38235379  1
  O  O55  1  0.87869186  0.62046704  0.11929640  1
