# generated using pymatgen
data_Li5V3Cr2O10
_symmetry_space_group_name_H-M   'P 1'
_cell_length_a   5.18495757
_cell_length_b   5.12399228
_cell_length_c   7.93718186
_cell_angle_alpha   109.32068955
_cell_angle_beta   101.90176680
_cell_angle_gamma   99.86581324
_symmetry_Int_Tables_number   1
_chemical_formula_structural   Li5V3Cr2O10
_chemical_formula_sum   'Li5 V3 Cr2 O10'
_cell_volume   188.05076048
_cell_formula_units_Z   1
loop_
 _symmetry_equiv_pos_site_id
 _symmetry_equiv_pos_as_xyz
  1  'x, y, z'
loop_
 _atom_site_type_symbol
 _atom_site_label
 _atom_site_symmetry_multiplicity
 _atom_site_fract_x
 _atom_site_fract_y
 _atom_site_fract_z
 _atom_site_occupancy
  Li  Li0  1  0.21513414  0.91243175  0.41623310  1
  Li  Li1  1  0.38259933  0.28819221  0.77041590  1
  Li  Li2  1  0.50000000  0.50000000  0.50000000  1
  Li  Li3  1  0.61740067  0.71180779  0.22958410  1
  Li  Li4  1  0.78486586  0.08756825  0.58376690  1
  V  V5  1  0.00000000  0.50000000  0.00000000  1
  V  V6  1  0.68917761  0.89115690  0.88934886  1
  V  V7  1  0.31082239  0.10884310  0.11065114  1
  Cr  Cr8  1  0.09624998  0.69751584  0.69040099  1
  Cr  Cr9  1  0.90375002  0.30248416  0.30959901  1
  O  O10  1  0.05384935  0.09882176  0.86138947  1
  O  O11  1  0.32616731  0.70823882  0.94213728  1
  O  O12  1  0.13366955  0.31547101  0.54538392  1
  O  O13  1  0.23339286  0.48038709  0.23565319  1
  O  O14  1  0.44897600  0.89642063  0.66767310  1
  O  O15  1  0.55102400  0.10357937  0.33232690  1
  O  O16  1  0.76660714  0.51961291  0.76434681  1
  O  O17  1  0.86633045  0.68452899  0.45461608  1
  O  O18  1  0.67383269  0.29176118  0.05786272  1
  O  O19  1  0.94615065  0.90117824  0.13861053  1
