# generated using pymatgen
data_Li4V3CoO8
_symmetry_space_group_name_H-M   'P 1'
_cell_length_a   10.36434831
_cell_length_b   10.36461410
_cell_length_c   14.64940711
_cell_angle_alpha   19.42696849
_cell_angle_beta   19.40504653
_cell_angle_gamma   33.52500095
_symmetry_Int_Tables_number   1
_chemical_formula_structural   Li4V3CoO8
_chemical_formula_sum   'Li4 V3 Co1 O8'
_cell_volume   150.05718143
_cell_formula_units_Z   1
loop_
 _symmetry_equiv_pos_site_id
 _symmetry_equiv_pos_as_xyz
  1  'x, y, z'
loop_
 _atom_site_type_symbol
 _atom_site_label
 _atom_site_symmetry_multiplicity
 _atom_site_fract_x
 _atom_site_fract_y
 _atom_site_fract_z
 _atom_site_occupancy
  Li  Li0  1  0.00000032  0.00000122  0.49999872  1
  Li  Li1  1  0.99999901  0.50000006  0.50000092  1
  Li  Li2  1  0.49999916  0.99999909  0.50000109  1
  Li  Li3  1  0.50000036  0.49999949  0.49999997  1
  V  V4  1  0.00000038  0.50000218  0.99999778  1
  V  V5  1  0.50000162  0.99999853  0.99999985  1
  V  V6  1  0.49999882  0.50000096  0.00000026  1
  Co  Co7  1  0.99999914  0.99999867  0.00000152  1
  O  O8  1  0.01351295  -0.00002171  0.24651988  1
  O  O9  1  -0.01983099  0.46577988  0.29290082  1
  O  O10  1  0.48793674  0.00347892  0.26396109  1
  O  O11  1  0.98648881  0.00002166  0.75347951  1
  O  O12  1  0.51604459  0.53035628  0.22617270  1
  O  O13  1  0.01983022  0.53421886  0.70709985  1
  O  O14  1  0.51206481  0.99652428  0.73603571  1
  O  O15  1  0.48395405  0.46964062  0.77382934  1
