# generated using pymatgen
data_Na3VAsCO7
_symmetry_space_group_name_H-M   'P 1'
_cell_length_a   9.21368537
_cell_length_b   6.99988850
_cell_length_c   5.28698801
_cell_angle_alpha   90.00000000
_cell_angle_beta   88.69591957
_cell_angle_gamma   90.00000000
_symmetry_Int_Tables_number   1
_chemical_formula_structural   Na3VAsCO7
_chemical_formula_sum   'Na6 V2 As2 C2 O14'
_cell_volume   340.89475941
_cell_formula_units_Z   2
loop_
 _symmetry_equiv_pos_site_id
 _symmetry_equiv_pos_as_xyz
  1  'x, y, z'
loop_
 _atom_site_type_symbol
 _atom_site_label
 _atom_site_symmetry_multiplicity
 _atom_site_fract_x
 _atom_site_fract_y
 _atom_site_fract_z
 _atom_site_occupancy
  Na  Na0  1  0.08087024  0.25000000  0.76330461  1
  Na  Na1  1  0.26072036  0.00670832  0.25039752  1
  Na  Na2  1  0.26072036  0.49329168  0.25039752  1
  Na  Na3  1  0.73927964  0.50670832  0.74960248  1
  Na  Na4  1  0.73927964  0.99329168  0.74960248  1
  Na  Na5  1  0.91912976  0.75000000  0.23669539  1
  V  V6  1  0.33954802  0.75000000  0.78094474  1
  V  V7  1  0.66045198  0.25000000  0.21905526  1
  As  As8  1  0.41445892  0.25000000  0.70435061  1
  As  As9  1  0.58554108  0.75000000  0.29564939  1
  C  C10  1  0.05773405  0.75000000  0.72677317  1
  C  C11  1  0.94226595  0.25000000  0.27322683  1
  O  O12  1  0.08158579  0.25000000  0.29361937  1
  O  O13  1  0.11762666  0.75000000  0.94874194  1
  O  O14  1  0.14393152  0.75000000  0.52626086  1
  O  O15  1  0.30539359  0.05746635  0.78655230  1
  O  O16  1  0.30539359  0.44253365  0.78655230  1
  O  O17  1  0.44140467  0.25000000  0.37845334  1
  O  O18  1  0.41800108  0.75000000  0.15987347  1
  O  O19  1  0.58199892  0.25000000  0.84012653  1
  O  O20  1  0.55859533  0.75000000  0.62154666  1
  O  O21  1  0.69460641  0.55746635  0.21344770  1
  O  O22  1  0.69460641  0.94253365  0.21344770  1
  O  O23  1  0.85606848  0.25000000  0.47373914  1
  O  O24  1  0.88237334  0.25000000  0.05125806  1
  O  O25  1  0.91841321  0.75000000  0.70638063  1
