# generated using pymatgen
data_CeMg6Cu
_symmetry_space_group_name_H-M   'P 1'
_cell_length_a   7.00695635
_cell_length_b   6.01887765
_cell_length_c   4.97926630
_cell_angle_alpha   90.00000000
_cell_angle_beta   90.00000000
_cell_angle_gamma   115.43539243
_symmetry_Int_Tables_number   1
_chemical_formula_structural   CeMg6Cu
_chemical_formula_sum   'Ce1 Mg6 Cu1'
_cell_volume   189.64079767
_cell_formula_units_Z   1
loop_
 _symmetry_equiv_pos_site_id
 _symmetry_equiv_pos_as_xyz
  1  'x, y, z'
loop_
 _atom_site_type_symbol
 _atom_site_label
 _atom_site_symmetry_multiplicity
 _atom_site_fract_x
 _atom_site_fract_y
 _atom_site_fract_z
 _atom_site_occupancy
  Ce  Ce0  1  0.11265825  0.80632863  0.25000000  1
  Mg  Mg1  1  0.62342955  0.31167970  0.25000000  1
  Mg  Mg2  1  0.62342955  0.81174885  0.25000000  1
  Mg  Mg3  1  0.34290106  0.17533434  0.75000000  1
  Mg  Mg4  1  0.34290106  0.66756772  0.75000000  1
  Mg  Mg5  1  0.90707012  0.20353556  0.75000000  1
  Mg  Mg6  1  0.80109417  0.65054758  0.75000000  1
  Cu  Cu7  1  0.24651622  0.37325761  0.25000000  1
