# generated using pymatgen
data_Li3FeAsCO7
_symmetry_space_group_name_H-M   'P 1'
_cell_length_a   8.65928233
_cell_length_b   6.65631244
_cell_length_c   5.11443082
_cell_angle_alpha   90.00000000
_cell_angle_beta   86.02460298
_cell_angle_gamma   90.00000000
_symmetry_Int_Tables_number   1
_chemical_formula_structural   Li3FeAsCO7
_chemical_formula_sum   'Li6 Fe2 As2 C2 O14'
_cell_volume   294.08081774
_cell_formula_units_Z   2
loop_
 _symmetry_equiv_pos_site_id
 _symmetry_equiv_pos_as_xyz
  1  'x, y, z'
loop_
 _atom_site_type_symbol
 _atom_site_label
 _atom_site_symmetry_multiplicity
 _atom_site_fract_x
 _atom_site_fract_y
 _atom_site_fract_z
 _atom_site_occupancy
  Li  Li0  1  0.08944128  0.25000000  0.74671052  1
  Li  Li1  1  0.26889626  0.02659843  0.22934449  1
  Li  Li2  1  0.26889626  0.47340157  0.22934449  1
  Li  Li3  1  0.73110374  0.52659843  0.77065551  1
  Li  Li4  1  0.73110374  0.97340157  0.77065551  1
  Li  Li5  1  0.91055872  0.75000000  0.25328948  1
  Fe  Fe6  1  0.32451107  0.75000000  0.78955321  1
  Fe  Fe7  1  0.67548893  0.25000000  0.21044679  1
  As  As8  1  0.41673432  0.25000000  0.70712425  1
  As  As9  1  0.58326568  0.75000000  0.29287575  1
  C  C10  1  0.02787281  0.75000000  0.71427592  1
  C  C11  1  0.97212719  0.25000000  0.28572408  1
  O  O12  1  0.11673556  0.25000000  0.34296756  1
  O  O13  1  0.06583704  0.75000000  0.95554237  1
  O  O14  1  0.13573880  0.75000000  0.52460397  1
  O  O15  1  0.29876100  0.05512488  0.82078293  1
  O  O16  1  0.29876100  0.44487512  0.82078293  1
  O  O17  1  0.43581599  0.25000000  0.36807915  1
  O  O18  1  0.40099812  0.75000000  0.18246022  1
  O  O19  1  0.59900188  0.25000000  0.81753978  1
  O  O20  1  0.56418401  0.75000000  0.63192085  1
  O  O21  1  0.70123900  0.55512488  0.17921707  1
  O  O22  1  0.70123900  0.94487512  0.17921707  1
  O  O23  1  0.86426120  0.25000000  0.47539603  1
  O  O24  1  0.93416296  0.25000000  0.04445763  1
  O  O25  1  0.88326444  0.75000000  0.65703244  1
