# generated using pymatgen
data_Li2NiH12(SO7)2
_symmetry_space_group_name_H-M   'P 1'
_cell_length_a   8.60100582
_cell_length_b   11.84040125
_cell_length_c   5.85036604
_cell_angle_alpha   90.00000000
_cell_angle_beta   101.11992268
_cell_angle_gamma   90.00000000
_symmetry_Int_Tables_number   1
_chemical_formula_structural   Li2NiH12(SO7)2
_chemical_formula_sum   'Li4 Ni2 H24 S4 O28'
_cell_volume   584.61182917
_cell_formula_units_Z   2
loop_
 _symmetry_equiv_pos_site_id
 _symmetry_equiv_pos_as_xyz
  1  'x, y, z'
loop_
 _atom_site_type_symbol
 _atom_site_label
 _atom_site_symmetry_multiplicity
 _atom_site_fract_x
 _atom_site_fract_y
 _atom_site_fract_z
 _atom_site_occupancy
  Li  Li0  1  0.16409428  0.37852593  0.34558035  1
  Li  Li1  1  0.33590572  0.87852593  0.65441965  1
  Li  Li2  1  0.66409428  0.12147407  0.34558035  1
  Li  Li3  1  0.83590572  0.62147407  0.65441965  1
  Ni  Ni4  1  0.00000000  0.00000000  0.00000000  1
  Ni  Ni5  1  0.50000000  0.50000000  0.00000000  1
  H  H6  1  0.13986599  0.80555052  0.97084329  1
  H  H7  1  0.03275956  0.84843548  0.34812792  1
  H  H8  1  0.10674039  0.06006162  0.65119356  1
  H  H9  1  0.22813064  0.39416567  0.92491041  1
  H  H10  1  0.24546498  0.62966487  0.91144594  1
  H  H11  1  0.21297272  0.08712833  0.32352353  1
  H  H12  1  0.28702728  0.58712833  0.67647647  1
  H  H13  1  0.25453502  0.12966487  0.08855406  1
  H  H14  1  0.27186936  0.89416567  0.07508959  1
  H  H15  1  0.39325961  0.56006162  0.34880644  1
  H  H16  1  0.46724044  0.34843548  0.65187208  1
  H  H17  1  0.36013401  0.30555052  0.02915671  1
  H  H18  1  0.63986599  0.69444948  0.97084329  1
  H  H19  1  0.53275956  0.65156452  0.34812792  1
  H  H20  1  0.60674039  0.43993838  0.65119356  1
  H  H21  1  0.72813064  0.10583433  0.92491041  1
  H  H22  1  0.74546498  0.87033513  0.91144594  1
  H  H23  1  0.71297272  0.41287167  0.32352353  1
  H  H24  1  0.78702728  0.91287167  0.67647647  1
  H  H25  1  0.75453502  0.37033513  0.08855406  1
  H  H26  1  0.77186936  0.60583433  0.07508959  1
  H  H27  1  0.89325961  0.93993838  0.34880644  1
  H  H28  1  0.96724044  0.15156452  0.65187208  1
  H  H29  1  0.86013401  0.19444948  0.02915671  1
  S  S30  1  0.07729927  0.63274162  0.28092324  1
  S  S31  1  0.42270073  0.13274162  0.71907676  1
  S  S32  1  0.57729927  0.86725838  0.28092324  1
  S  S33  1  0.92270073  0.36725838  0.71907676  1
  O  O34  1  0.08278039  0.40821279  0.69736619  1
  O  O35  1  0.99844215  0.92796783  0.30897045  1
  O  O36  1  0.18191948  0.88099201  0.94036646  1
  O  O37  1  0.12201791  0.73162199  0.43606199  1
  O  O38  1  0.07888364  0.66241342  0.03238841  1
  O  O39  1  0.16448541  0.11504188  0.16786293  1
  O  O40  1  0.19630925  0.54089283  0.35871841  1
  O  O41  1  0.30369075  0.04089283  0.64128159  1
  O  O42  1  0.33551459  0.61504188  0.83213707  1
  O  O43  1  0.42111636  0.16241342  0.96761159  1
  O  O44  1  0.37798209  0.23162199  0.56393701  1
  O  O45  1  0.31808052  0.38099201  0.05963354  1
  O  O46  1  0.50155785  0.42796783  0.69102955  1
  O  O47  1  0.41721961  0.90821279  0.30263381  1
  O  O48  1  0.58278039  0.09178721  0.69736619  1
  O  O49  1  0.49844215  0.57203217  0.30897045  1
  O  O50  1  0.68191948  0.61900799  0.94036646  1
  O  O51  1  0.62201791  0.76837801  0.43606199  1
  O  O52  1  0.57888364  0.83758658  0.03238841  1
  O  O53  1  0.66448541  0.38495812  0.16786293  1
  O  O54  1  0.69630925  0.95910717  0.35871841  1
  O  O55  1  0.80369075  0.45910717  0.64128159  1
  O  O56  1  0.83551459  0.88495812  0.83213707  1
  O  O57  1  0.92111636  0.33758658  0.96761159  1
  O  O58  1  0.87798209  0.26837801  0.56393701  1
  O  O59  1  0.81808052  0.11900799  0.05963354  1
  O  O60  1  0.00155785  0.07203217  0.69102955  1
  O  O61  1  0.91721961  0.59178721  0.30263381  1
