# generated using pymatgen
data_Cs3GaO3
_symmetry_space_group_name_H-M   'P 1'
_cell_length_a   9.33009459
_cell_length_b   9.33009459
_cell_length_c   9.33009459
_cell_angle_alpha   90.00000000
_cell_angle_beta   90.00000000
_cell_angle_gamma   90.00000000
_symmetry_Int_Tables_number   1
_chemical_formula_structural   Cs3GaO3
_chemical_formula_sum   'Cs12 Ga4 O12'
_cell_volume   812.19093912
_cell_formula_units_Z   4
loop_
 _symmetry_equiv_pos_site_id
 _symmetry_equiv_pos_as_xyz
  1  'x, y, z'
loop_
 _atom_site_type_symbol
 _atom_site_label
 _atom_site_symmetry_multiplicity
 _atom_site_fract_x
 _atom_site_fract_y
 _atom_site_fract_z
 _atom_site_occupancy
  Cs  Cs0  1  0.01010969  0.01010969  0.01010969  1
  Cs  Cs1  1  0.22222333  0.27777667  0.72222333  1
  Cs  Cs2  1  0.24500371  0.74500371  0.75499629  1
  Cs  Cs3  1  0.25499629  0.25499629  0.25499629  1
  Cs  Cs4  1  0.27777667  0.72222333  0.22222333  1
  Cs  Cs5  1  0.48989031  0.98989031  0.51010969  1
  Cs  Cs6  1  0.51010969  0.48989031  0.98989031  1
  Cs  Cs7  1  0.72222333  0.22222333  0.27777667  1
  Cs  Cs8  1  0.74500371  0.75499629  0.24500371  1
  Cs  Cs9  1  0.75499629  0.24500371  0.74500371  1
  Cs  Cs10  1  0.77777667  0.77777667  0.77777667  1
  Cs  Cs11  1  0.98989031  0.51010969  0.48989031  1
  Ga  Ga12  1  0.96482281  0.03517719  0.53517719  1
  Ga  Ga13  1  0.53517719  0.96482281  0.03517719  1
  Ga  Ga14  1  0.46482281  0.46482281  0.46482281  1
  Ga  Ga15  1  0.03517719  0.53517719  0.96482281  1
  O  O16  1  0.01415763  0.19970224  0.44357904  1
  O  O17  1  0.05642096  0.98584237  0.69970224  1
  O  O18  1  0.19970224  0.44357904  0.01415763  1
  O  O19  1  0.30029776  0.55642096  0.51415763  1
  O  O20  1  0.44357904  0.01415763  0.19970224  1
  O  O21  1  0.48584237  0.80029776  0.94357904  1
  O  O22  1  0.51415763  0.30029776  0.55642096  1
  O  O23  1  0.55642096  0.51415763  0.30029776  1
  O  O24  1  0.69970224  0.05642096  0.98584237  1
  O  O25  1  0.80029776  0.94357904  0.48584237  1
  O  O26  1  0.94357904  0.48584237  0.80029776  1
  O  O27  1  0.98584237  0.69970224  0.05642096  1
