# generated using pymatgen
data_Ba3La2Cl12
_symmetry_space_group_name_H-M   'P 1'
_cell_length_a   11.75990585
_cell_length_b   11.75990585
_cell_length_c   7.16450167
_cell_angle_alpha   90.00000000
_cell_angle_beta   90.00000000
_cell_angle_gamma   90.00000000
_symmetry_Int_Tables_number   1
_chemical_formula_structural   Ba3La2Cl12
_chemical_formula_sum   'Ba6 La4 Cl24'
_cell_volume   990.81752109
_cell_formula_units_Z   2
loop_
 _symmetry_equiv_pos_site_id
 _symmetry_equiv_pos_as_xyz
  1  'x, y, z'
loop_
 _atom_site_type_symbol
 _atom_site_label
 _atom_site_symmetry_multiplicity
 _atom_site_fract_x
 _atom_site_fract_y
 _atom_site_fract_z
 _atom_site_occupancy
  Ba  Ba0  1  0.00000000  0.00000000  0.00000000  1
  Ba  Ba1  1  0.18244038  0.68244038  0.50000000  1
  Ba  Ba2  1  0.31755962  0.18244038  0.50000000  1
  Ba  Ba3  1  0.50000000  0.50000000  0.00000000  1
  Ba  Ba4  1  0.68244038  0.81755962  0.50000000  1
  Ba  Ba5  1  0.81755962  0.31755962  0.50000000  1
  La  La6  1  0.13597008  0.36402992  0.00000000  1
  La  La7  1  0.36402992  0.86402992  0.00000000  1
  La  La8  1  0.63597008  0.13597008  0.00000000  1
  La  La9  1  0.86402992  0.63597008  0.00000000  1
  Cl  Cl10  1  0.00000000  0.50000000  0.25626822  1
  Cl  Cl11  1  0.00000000  0.50000000  0.74373178  1
  Cl  Cl12  1  0.06163753  0.20789857  0.27041007  1
  Cl  Cl13  1  0.06163753  0.20789857  0.72958993  1
  Cl  Cl14  1  0.18890461  0.68890461  0.00000000  1
  Cl  Cl15  1  0.20789857  0.93836247  0.27041007  1
  Cl  Cl16  1  0.20789857  0.93836247  0.72958993  1
  Cl  Cl17  1  0.29210143  0.43836247  0.27041007  1
  Cl  Cl18  1  0.29210143  0.43836247  0.72958993  1
  Cl  Cl19  1  0.31109539  0.18890461  0.00000000  1
  Cl  Cl20  1  0.43836247  0.70789857  0.27041007  1
  Cl  Cl21  1  0.43836247  0.70789857  0.72958993  1
  Cl  Cl22  1  0.50000000  0.00000000  0.74373178  1
  Cl  Cl23  1  0.50000000  0.00000000  0.25626822  1
  Cl  Cl24  1  0.56163753  0.29210143  0.27041007  1
  Cl  Cl25  1  0.56163753  0.29210143  0.72958993  1
  Cl  Cl26  1  0.68890461  0.81109539  0.00000000  1
  Cl  Cl27  1  0.70789857  0.56163753  0.27041007  1
  Cl  Cl28  1  0.70789857  0.56163753  0.72958993  1
  Cl  Cl29  1  0.79210143  0.06163753  0.27041007  1
  Cl  Cl30  1  0.79210143  0.06163753  0.72958993  1
  Cl  Cl31  1  0.81109539  0.31109539  0.00000000  1
  Cl  Cl32  1  0.93836247  0.79210143  0.27041007  1
  Cl  Cl33  1  0.93836247  0.79210143  0.72958993  1
