# generated using pymatgen
data_LiMnO2
_symmetry_space_group_name_H-M   'P 1'
_cell_length_a   5.21148668
_cell_length_b   5.20210555
_cell_length_c   7.85785692
_cell_angle_alpha   108.64055892
_cell_angle_beta   101.41931195
_cell_angle_gamma   100.89521099
_symmetry_Int_Tables_number   1
_chemical_formula_structural   LiMnO2
_chemical_formula_sum   'Li5 Mn5 O10'
_cell_volume   190.42117697
_cell_formula_units_Z   5
loop_
 _symmetry_equiv_pos_site_id
 _symmetry_equiv_pos_as_xyz
  1  'x, y, z'
loop_
 _atom_site_type_symbol
 _atom_site_label
 _atom_site_symmetry_multiplicity
 _atom_site_fract_x
 _atom_site_fract_y
 _atom_site_fract_z
 _atom_site_occupancy
  Li  Li0  1  0.21136908  0.89942293  0.40653710  1
  Li  Li1  1  0.37643180  0.27926235  0.77223095  1
  Li  Li2  1  0.50000000  0.50000000  0.50000000  1
  Li  Li3  1  0.62356820  0.72073765  0.22776905  1
  Li  Li4  1  0.78863092  0.10057707  0.59346290  1
  Mn  Mn5  1  0.09649003  0.69528324  0.69018377  1
  Mn  Mn6  1  0.00000000  0.50000000  0.00000000  1
  Mn  Mn7  1  0.68856487  0.88851275  0.89124872  1
  Mn  Mn8  1  0.31143513  0.11148725  0.10875128  1
  Mn  Mn9  1  0.90350997  0.30471676  0.30981623  1
  O  O10  1  0.05224229  0.06820142  0.83808125  1
  O  O11  1  0.31883502  0.68458414  0.92610953  1
  O  O12  1  0.13090156  0.32520415  0.54009927  1
  O  O13  1  0.21594908  0.49662899  0.23892402  1
  O  O14  1  0.42105749  0.88558208  0.65490478  1
  O  O15  1  0.57894251  0.11441792  0.34509522  1
  O  O16  1  0.78405092  0.50337101  0.76107598  1
  O  O17  1  0.86909844  0.67479585  0.45990073  1
  O  O18  1  0.68116498  0.31541586  0.07389047  1
  O  O19  1  0.94775771  0.93179858  0.16191875  1
