# generated using pymatgen
data_LuScO3
_symmetry_space_group_name_H-M   'P 1'
_cell_length_a   6.10898700
_cell_length_b   6.10904338
_cell_length_c   12.11425500
_cell_angle_alpha   89.99994117
_cell_angle_beta   89.99988224
_cell_angle_gamma   120.00034247
_symmetry_Int_Tables_number   1
_chemical_formula_structural   LuScO3
_chemical_formula_sum   'Lu6 Sc6 O18'
_cell_volume   391.53289348
_cell_formula_units_Z   6
loop_
 _symmetry_equiv_pos_site_id
 _symmetry_equiv_pos_as_xyz
  1  'x, y, z'
loop_
 _atom_site_type_symbol
 _atom_site_label
 _atom_site_symmetry_multiplicity
 _atom_site_fract_x
 _atom_site_fract_y
 _atom_site_fract_z
 _atom_site_occupancy
  Lu  Lu0  1  0.33332600  0.66666200  0.23265400  1
  Lu  Lu1  1  0.99999300  0.99999100  0.27083800  1
  Lu  Lu2  1  0.99999600  0.00000700  0.77083800  1
  Lu  Lu3  1  0.33333500  0.66667000  0.73265200  1
  Lu  Lu4  1  0.66666400  0.33332900  0.73265200  1
  Lu  Lu5  1  0.66666100  0.33333800  0.23265100  1
  Sc  Sc6  1  0.99999800  0.66655600  0.49871600  1
  Sc  Sc7  1  0.99999900  0.33344900  0.99871500  1
  Sc  Sc8  1  0.33344500  0.33344300  0.49871500  1
  Sc  Sc9  1  0.66655700  0.66656200  0.99871200  1
  Sc  Sc10  1  0.33344400  0.00000200  0.99871400  1
  Sc  Sc11  1  0.66655700  0.00000000  0.49871500  1
  O  O12  1  0.00000400  0.69372900  0.66904000  1
  O  O13  1  0.00000500  0.63870200  0.33012300  1
  O  O14  1  0.00000500  0.36130100  0.83012600  1
  O  O15  1  0.99999600  0.30628500  0.16904000  1
  O  O16  1  0.33333400  0.66667100  0.02178500  1
  O  O17  1  0.99999600  0.99999500  0.46992000  1
  O  O18  1  0.00000100  0.00000600  0.96991300  1
  O  O19  1  0.33333400  0.66666300  0.52178800  1
  O  O20  1  0.30628100  0.30627200  0.66904100  1
  O  O21  1  0.36129900  0.36129800  0.33012000  1
  O  O22  1  0.30629800  0.00000300  0.16903800  1
  O  O23  1  0.63869800  0.63869600  0.83012200  1
  O  O24  1  0.69371500  0.69371500  0.16903900  1
  O  O25  1  0.36129100  0.99999300  0.83012100  1
  O  O26  1  0.66666700  0.33333300  0.52178900  1
  O  O27  1  0.66666600  0.33333500  0.02178600  1
  O  O28  1  0.63869700  0.99999200  0.33012300  1
  O  O29  1  0.69371800  0.00000100  0.66904200  1
