# generated using pymatgen
data_BaLa2Br8
_symmetry_space_group_name_H-M   'P 1'
_cell_length_a   15.91452642
_cell_length_b   7.94857075
_cell_length_c   7.95878880
_cell_angle_alpha   90.00000000
_cell_angle_beta   113.12424283
_cell_angle_gamma   90.00000000
_symmetry_Int_Tables_number   1
_chemical_formula_structural   BaLa2Br8
_chemical_formula_sum   'Ba2 La4 Br16'
_cell_volume   925.88036497
_cell_formula_units_Z   2
loop_
 _symmetry_equiv_pos_site_id
 _symmetry_equiv_pos_as_xyz
  1  'x, y, z'
loop_
 _atom_site_type_symbol
 _atom_site_label
 _atom_site_symmetry_multiplicity
 _atom_site_fract_x
 _atom_site_fract_y
 _atom_site_fract_z
 _atom_site_occupancy
  Ba  Ba0  1  0.25000000  0.14012623  0.50000000  1
  Ba  Ba1  1  0.75000000  0.85987377  0.50000000  1
  La  La2  1  0.99588482  0.75156093  0.16526627  1
  La  La3  1  0.50411518  0.75156093  0.83473373  1
  La  La4  1  0.49588482  0.24843907  0.16526627  1
  La  La5  1  0.00411518  0.24843907  0.83473373  1
  Br  Br6  1  0.14910259  0.33639842  0.73503389  1
  Br  Br7  1  0.11712452  0.84161282  0.52980077  1
  Br  Br8  1  0.08708477  0.41555272  0.21288066  1
  Br  Br9  1  0.12631514  0.97012184  0.06599490  1
  Br  Br10  1  0.37368486  0.97012184  0.93400510  1
  Br  Br11  1  0.41291523  0.41555272  0.78711934  1
  Br  Br12  1  0.38287548  0.84161282  0.47019923  1
  Br  Br13  1  0.35089741  0.33639842  0.26496611  1
  Br  Br14  1  0.64910259  0.66360158  0.73503389  1
  Br  Br15  1  0.61712452  0.15838718  0.52980077  1
  Br  Br16  1  0.58708477  0.58444728  0.21288066  1
  Br  Br17  1  0.62631514  0.02987816  0.06599490  1
  Br  Br18  1  0.87368486  0.02987816  0.93400510  1
  Br  Br19  1  0.91291523  0.58444728  0.78711934  1
  Br  Br20  1  0.88287548  0.15838718  0.47019923  1
  Br  Br21  1  0.85089741  0.66360158  0.26496611  1
