# generated using pymatgen
data_Rb3ClO
_symmetry_space_group_name_H-M   'P 1'
_cell_length_a   7.74584015
_cell_length_b   7.74592091
_cell_length_c   19.74094370
_cell_angle_alpha   89.99945205
_cell_angle_beta   90.00035987
_cell_angle_gamma   119.99947491
_symmetry_Int_Tables_number   1
_chemical_formula_structural   Rb3ClO
_chemical_formula_sum   'Rb18 Cl6 O6'
_cell_volume   1025.75213181
_cell_formula_units_Z   6
loop_
 _symmetry_equiv_pos_site_id
 _symmetry_equiv_pos_as_xyz
  1  'x, y, z'
loop_
 _atom_site_type_symbol
 _atom_site_label
 _atom_site_symmetry_multiplicity
 _atom_site_fract_x
 _atom_site_fract_y
 _atom_site_fract_z
 _atom_site_occupancy
  Rb  Rb0  1  0.16565643  0.83429191  0.91770854  1
  Rb  Rb1  1  0.16568396  0.83430658  0.58229789  1
  Rb  Rb2  1  0.02763874  0.51382206  0.75000182  1
  Rb  Rb3  1  0.16570511  0.33137826  0.58229885  1
  Rb  Rb4  1  0.16569902  0.33138416  0.91769645  1
  Rb  Rb5  1  0.48617461  0.97235272  0.74999552  1
  Rb  Rb6  1  0.48617953  0.51384408  0.75000202  1
  Rb  Rb7  1  0.33136729  0.16566366  0.08229873  1
  Rb  Rb8  1  0.33138617  0.16567821  0.41770300  1
  Rb  Rb9  1  0.66863347  0.83431878  0.91770262  1
  Rb  Rb10  1  0.66862719  0.83431631  0.58230125  1
  Rb  Rb11  1  0.51383390  0.48619353  0.25000147  1
  Rb  Rb12  1  0.51382324  0.02767089  0.25000100  1
  Rb  Rb13  1  0.83431196  0.66862859  0.08229840  1
  Rb  Rb14  1  0.83430013  0.66862171  0.41770138  1
  Rb  Rb15  1  0.97234973  0.48618037  0.24999774  1
  Rb  Rb16  1  0.83433180  0.16571007  0.08229978  1
  Rb  Rb17  1  0.83435311  0.16573485  0.41769938  1
  Cl  Cl18  1  0.33329941  0.66671334  0.08898728  1
  Cl  Cl19  1  0.99999895  0.99999758  0.25000296  1
  Cl  Cl20  1  0.33330429  0.66660576  0.41101282  1
  Cl  Cl21  1  0.00000699  0.99998632  0.74999983  1
  Cl  Cl22  1  0.66669703  0.33338973  0.58898676  1
  Cl  Cl23  1  0.66669897  0.33340396  0.91101299  1
  O  O24  1  0.33333326  0.66669877  0.83957572  1
  O  O25  1  0.99999989  0.00003046  0.00000206  1
  O  O26  1  0.00000408  0.99999673  0.49999684  1
  O  O27  1  0.33333090  0.66665433  0.66041898  1
  O  O28  1  0.66666784  0.33333456  0.33957569  1
  O  O29  1  0.66666901  0.33335472  0.16042321  1
