# generated using pymatgen
data_Li3MnAl2O6
_symmetry_space_group_name_H-M   'P 1'
_cell_length_a   5.91750954
_cell_length_b   5.30485982
_cell_length_c   7.83578978
_cell_angle_alpha   100.54512784
_cell_angle_beta   89.96428656
_cell_angle_gamma   90.54887934
_symmetry_Int_Tables_number   1
_chemical_formula_structural   Li3MnAl2O6
_chemical_formula_sum   'Li6 Mn2 Al4 O12'
_cell_volume   241.81209792
_cell_formula_units_Z   2
loop_
 _symmetry_equiv_pos_site_id
 _symmetry_equiv_pos_as_xyz
  1  'x, y, z'
loop_
 _atom_site_type_symbol
 _atom_site_label
 _atom_site_symmetry_multiplicity
 _atom_site_fract_x
 _atom_site_fract_y
 _atom_site_fract_z
 _atom_site_occupancy
  Li  Li0  1  0.16605649  0.84152983  0.91701724  1
  Li  Li1  1  0.33827128  0.99905548  0.24344043  1
  Li  Li2  1  0.34561097  0.67717924  0.59777279  1
  Li  Li3  1  0.65438903  0.32282076  0.40222721  1
  Li  Li4  1  0.66172872  0.00094452  0.75655957  1
  Li  Li5  1  0.83394351  0.15847017  0.08298276  1
  Mn  Mn6  1  0.17138102  0.49569503  0.25798517  1
  Mn  Mn7  1  0.82861898  0.50430497  0.74201483  1
  Al  Al8  1  0.17444314  0.16519381  0.58139943  1
  Al  Al9  1  0.33247021  0.33278207  0.91260824  1
  Al  Al10  1  0.66752979  0.66721793  0.08739176  1
  Al  Al11  1  0.82555686  0.83480619  0.41860057  1
  O  O12  1  0.13738714  0.82871409  0.42167880  1
  O  O13  1  0.17131273  0.48053782  0.75769140  1
  O  O14  1  0.18164738  0.19937683  0.07942856  1
  O  O15  1  0.31607875  0.31806185  0.42627089  1
  O  O16  1  0.32170984  0.03277609  0.74492690  1
  O  O17  1  0.35530369  0.65248594  0.07997102  1
  O  O18  1  0.64469631  0.34751406  0.92002898  1
  O  O19  1  0.67829016  0.96722391  0.25507310  1
  O  O20  1  0.68392125  0.68193815  0.57372911  1
  O  O21  1  0.81835262  0.80062317  0.92057144  1
  O  O22  1  0.82868727  0.51946218  0.24230860  1
  O  O23  1  0.86261286  0.17128591  0.57832120  1
