# generated using pymatgen
data_Li3Co3TeO8
_symmetry_space_group_name_H-M   'P 1'
_cell_length_a   10.45531562
_cell_length_b   10.45276433
_cell_length_c   14.76629495
_cell_angle_alpha   19.66757799
_cell_angle_beta   19.66630068
_cell_angle_gamma   33.91773902
_symmetry_Int_Tables_number   1
_chemical_formula_structural   Li3Co3TeO8
_chemical_formula_sum   'Li3 Co3 Te1 O8'
_cell_volume   158.05512551
_cell_formula_units_Z   1
loop_
 _symmetry_equiv_pos_site_id
 _symmetry_equiv_pos_as_xyz
  1  'x, y, z'
loop_
 _atom_site_type_symbol
 _atom_site_label
 _atom_site_symmetry_multiplicity
 _atom_site_fract_x
 _atom_site_fract_y
 _atom_site_fract_z
 _atom_site_occupancy
  Li  Li0  1  -0.00003273  0.49996585  0.50005077  1
  Li  Li1  1  0.50004334  0.00002635  0.49994212  1
  Li  Li2  1  0.49996784  0.50002120  0.50000685  1
  Co  Co3  1  0.00014830  0.50010869  -0.00018003  1
  Co  Co4  1  0.49989269  -0.00010081  0.00015436  1
  Co  Co5  1  0.50016319  0.49984678  0.99999503  1
  Te  Te6  1  -0.00065842  0.00043572  0.00017888  1
  O  O7  1  0.96237361  0.96227060  0.31418168  1
  O  O8  1  0.00424264  0.54713579  0.22270210  1
  O  O9  1  0.54772904  0.00405946  0.22246686  1
  O  O10  1  0.03760921  0.03774554  0.68581698  1
  O  O11  1  0.45820873  0.45784029  0.31513598  1
  O  O12  1  0.99581765  0.45255580  0.77739323  1
  O  O13  1  0.45256831  0.99589847  0.77741917  1
  O  O14  1  0.54192659  0.54219026  0.68473403  1
