# generated using pymatgen
data_K2Na6V5(MoO8)3
_symmetry_space_group_name_H-M   'P 1'
_cell_length_a   7.74956239
_cell_length_b   7.74646024
_cell_length_c   7.74685352
_cell_angle_alpha   90.00000000
_cell_angle_beta   90.00000000
_cell_angle_gamma   90.03705909
_symmetry_Int_Tables_number   1
_chemical_formula_structural   K2Na6V5(MoO8)3
_chemical_formula_sum   'K2 Na6 V5 Mo3 O24'
_cell_volume   465.05651049
_cell_formula_units_Z   1
loop_
 _symmetry_equiv_pos_site_id
 _symmetry_equiv_pos_as_xyz
  1  'x, y, z'
loop_
 _atom_site_type_symbol
 _atom_site_label
 _atom_site_symmetry_multiplicity
 _atom_site_fract_x
 _atom_site_fract_y
 _atom_site_fract_z
 _atom_site_occupancy
  K  K0  1  0.25175205  0.74075199  0.25180848  1
  K  K1  1  0.74824795  0.25924801  0.25180848  1
  Na  Na2  1  0.25353845  0.26636985  0.25351159  1
  Na  Na3  1  0.25356837  0.26615687  0.74668109  1
  Na  Na4  1  0.25355044  0.73359541  0.74678240  1
  Na  Na5  1  0.74644956  0.26640459  0.74678240  1
  Na  Na6  1  0.74646155  0.73363015  0.25351159  1
  Na  Na7  1  0.74643163  0.73384313  0.74668109  1
  V  V8  1  -0.00000000  0.50000000  -0.00007754  1
  V  V9  1  -0.00000000  0.50000000  0.50453328  1
  V  V10  1  0.50000000  -0.00000000  0.50196715  1
  V  V11  1  0.50000000  0.50000000  0.99642012  1
  V  V12  1  0.50000000  0.50000000  0.50088970  1
  Mo  Mo13  1  -0.00000000  -0.00000000  0.99916679  1
  Mo  Mo14  1  -0.00000000  -0.00000000  0.50201926  1
  Mo  Mo15  1  0.50000000  -0.00000000  0.99824958  1
  O  O16  1  0.24795231  0.00032324  0.99694257  1
  O  O17  1  0.24507210  0.00083108  0.50337367  1
  O  O18  1  0.24242292  0.49748276  0.99501496  1
  O  O19  1  0.25458465  0.49777788  0.50473531  1
  O  O20  1  0.75204769  0.99967676  0.99694257  1
  O  O21  1  0.75492790  0.99916892  0.50337367  1
  O  O22  1  0.75757708  0.50251724  0.99501496  1
  O  O23  1  0.74541535  0.50222212  0.50473531  1
  O  O24  1  0.00080384  0.24567988  0.99660215  1
  O  O25  1  0.00143443  0.24922653  0.50394683  1
  O  O26  1  0.99919616  0.75432012  0.99660215  1
  O  O27  1  0.99856557  0.75077347  0.50394683  1
  O  O28  1  0.49816372  0.24832888  0.99580838  1
  O  O29  1  0.49824439  0.24541791  0.50441047  1
  O  O30  1  0.50183628  0.75167112  0.99580838  1
  O  O31  1  0.50175561  0.75458209  0.50441047  1
  O  O32  1  -0.00000000  -0.00000000  0.24836788  1
  O  O33  1  -0.00000000  -0.00000000  0.75215316  1
  O  O34  1  -0.00000000  0.50000000  0.24285525  1
  O  O35  1  -0.00000000  0.50000000  0.75312253  1
  O  O36  1  0.50000000  -0.00000000  0.24456568  1
  O  O37  1  0.50000000  -0.00000000  0.75360115  1
  O  O38  1  0.50000000  0.50000000  0.25284480  1
  O  O39  1  0.50000000  0.50000000  0.75008545  1
