# generated using pymatgen
data_Li3Nb4FeO12
_symmetry_space_group_name_H-M   'P 1'
_cell_length_a   5.64047125
_cell_length_b   11.24174723
_cell_length_c   9.93807167
_cell_angle_alpha   27.84448597
_cell_angle_beta   50.35073143
_cell_angle_gamma   55.65769769
_symmetry_Int_Tables_number   1
_chemical_formula_structural   Li3Nb4FeO12
_chemical_formula_sum   'Li3 Nb4 Fe1 O12'
_cell_volume   226.62471292
_cell_formula_units_Z   1
loop_
 _symmetry_equiv_pos_site_id
 _symmetry_equiv_pos_as_xyz
  1  'x, y, z'
loop_
 _atom_site_type_symbol
 _atom_site_label
 _atom_site_symmetry_multiplicity
 _atom_site_fract_x
 _atom_site_fract_y
 _atom_site_fract_z
 _atom_site_occupancy
  Li  Li0  1  0.28093485  0.49943542  0.28579203  1
  Li  Li1  1  0.78305133  0.00006560  0.78655157  1
  Li  Li2  1  0.78518503  0.49921827  0.78333659  1
  Nb  Nb3  1  0.01484348  0.00378804  0.98878294  1
  Nb  Nb4  1  0.98405238  0.49754003  0.00599319  1
  Nb  Nb5  1  0.49411789  0.99739883  0.50250096  1
  Nb  Nb6  1  0.50654837  0.50318734  0.49126649  1
  Fe  Fe7  1  0.29675233  0.00063371  0.28656009  1
  O  O8  1  0.35865552  0.30683673  0.11124362  1
  O  O9  1  0.22427523  0.12395075  0.61471658  1
  O  O10  1  0.11071810  0.31920873  0.72438319  1
  O  O11  1  0.86517496  0.19341284  0.22258278  1
  O  O12  1  0.36374710  0.80263390  0.11523543  1
  O  O13  1  0.72244109  0.37253933  0.36757632  1
  O  O14  1  0.22560081  0.62999107  0.60708110  1
  O  O15  1  0.60338778  0.17785458  0.86996403  1
  O  O16  1  0.11140285  0.82268603  0.71853233  1
  O  O17  1  0.86054658  0.69259726  0.22499264  1
  O  O18  1  0.72519743  0.87565513  0.35905000  1
  O  O19  1  0.61296790  0.68136743  0.86345911  1
