# generated using pymatgen
data_Ba8Ta7O24
_symmetry_space_group_name_H-M   'P 1'
_cell_length_a   5.91208899
_cell_length_b   5.91211857
_cell_length_c   19.18488986
_cell_angle_alpha   90.00233417
_cell_angle_beta   89.99823687
_cell_angle_gamma   120.00213639
_symmetry_Int_Tables_number   1
_chemical_formula_structural   Ba8Ta7O24
_chemical_formula_sum   'Ba8 Ta7 O24'
_cell_volume   580.71720104
_cell_formula_units_Z   1
loop_
 _symmetry_equiv_pos_site_id
 _symmetry_equiv_pos_as_xyz
  1  'x, y, z'
loop_
 _atom_site_type_symbol
 _atom_site_label
 _atom_site_symmetry_multiplicity
 _atom_site_fract_x
 _atom_site_fract_y
 _atom_site_fract_z
 _atom_site_occupancy
  Ba  Ba0  1  0.33322839  0.66678147  0.24986975  1
  Ba  Ba1  1  0.33334100  0.66668747  0.85276443  1
  Ba  Ba2  1  0.00002480  0.99999473  0.98312570  1
  Ba  Ba3  1  0.00002796  0.00001308  0.50334544  1
  Ba  Ba4  1  0.33341358  0.66669783  0.63348432  1
  Ba  Ba5  1  0.66666007  0.33335146  0.13181195  1
  Ba  Ba6  1  0.66669053  0.33335187  0.75817402  1
  Ba  Ba7  1  0.66661521  0.33333293  0.36597797  1
  Ta  Ta8  1  0.33335028  0.66666847  0.06093390  1
  Ta  Ta9  1  0.99997134  0.00001391  0.18301353  1
  Ta  Ta10  1  -0.00000983  0.00001747  0.31844753  1
  Ta  Ta11  1  0.00003387  0.00001866  0.69477830  1
  Ta  Ta12  1  0.33333245  0.66666460  0.43899606  1
  Ta  Ta13  1  0.66667514  0.33333632  0.56261354  1
  Ta  Ta14  1  0.66668987  0.33331450  0.93604405  1
  O  O15  1  0.16238738  0.83758783  0.74025518  1
  O  O16  1  0.00422102  0.50210470  0.00860829  1
  O  O17  1  0.99817890  0.49907418  0.49845606  1
  O  O18  1  0.17056702  0.82943948  0.12735663  1
  O  O19  1  0.16959504  0.83038401  0.37727896  1
  O  O20  1  0.17056876  0.34115060  0.12735024  1
  O  O21  1  0.16962678  0.33923206  0.37727714  1
  O  O22  1  0.16243067  0.32483236  0.74025518  1
  O  O23  1  0.32091479  0.16046731  0.25047664  1
  O  O24  1  0.66076491  0.83038434  0.37728460  1
  O  O25  1  0.65886366  0.82944973  0.12734739  1
  O  O26  1  0.49792960  0.50208279  0.00861546  1
  O  O27  1  0.50090121  0.49912854  0.49847941  1
  O  O28  1  0.33911737  0.16955298  0.61914595  1
  O  O29  1  0.35569436  0.17781295  0.88416469  1
  O  O30  1  0.67522001  0.83763448  0.74024196  1
  O  O31  1  0.83048421  0.66093041  0.61915183  1
  O  O32  1  0.49792048  0.99582936  0.00861163  1
  O  O33  1  0.50092164  0.00178450  0.49847503  1
  O  O34  1  0.82218504  0.64432493  0.88416173  1
  O  O35  1  0.83946858  0.67903227  0.25047567  1
  O  O36  1  0.82217406  0.17776818  0.88416780  1
  O  O37  1  0.83048119  0.16959794  0.61915829  1
  O  O38  1  0.83944965  0.16047033  0.25048276  1
