# generated using pymatgen
data_Er4(B2O5)3
_symmetry_space_group_name_H-M   'P 1'
_cell_length_a   4.38087654
_cell_length_b   6.22025788
_cell_length_c   18.84042221
_cell_angle_alpha   83.95384708
_cell_angle_beta   89.99640593
_cell_angle_gamma   69.38136822
_symmetry_Int_Tables_number   1
_chemical_formula_structural   Er4(B2O5)3
_chemical_formula_sum   'Er8 B12 O30'
_cell_volume   477.46755619
_cell_formula_units_Z   2
loop_
 _symmetry_equiv_pos_site_id
 _symmetry_equiv_pos_as_xyz
  1  'x, y, z'
loop_
 _atom_site_type_symbol
 _atom_site_label
 _atom_site_symmetry_multiplicity
 _atom_site_fract_x
 _atom_site_fract_y
 _atom_site_fract_z
 _atom_site_occupancy
  Er  Er0  1  0.34706734  0.72512234  0.80246312  1
  Er  Er1  1  0.33342004  0.73467181  0.59893200  1
  Er  Er2  1  0.06812325  0.26530054  0.90107175  1
  Er  Er3  1  0.07211514  0.27483066  0.69751461  1
  Er  Er4  1  0.92787227  0.72517916  0.30248260  1
  Er  Er5  1  0.93187816  0.73469812  0.09892794  1
  Er  Er6  1  0.66657834  0.26532904  0.40106704  1
  Er  Er7  1  0.65293648  0.27487745  0.19753159  1
  B  B8  1  0.35970942  0.66173850  0.97440580  1
  B  B9  1  0.80321763  0.80543009  0.91277104  1
  B  B10  1  0.79547886  0.86483275  0.69427418  1
  B  B11  1  0.39139325  0.80543886  0.41277369  1
  B  B12  1  0.33959703  0.86489099  0.19428951  1
  B  B13  1  0.02134449  0.33827167  0.52559208  1
  B  B14  1  0.97865522  0.66172706  0.47440955  1
  B  B15  1  0.66040263  0.13510592  0.80570993  1
  B  B16  1  0.60860936  0.19456162  0.58722707  1
  B  B17  1  0.20452484  0.13516737  0.30572564  1
  B  B18  1  0.19678203  0.19456937  0.08722908  1
  B  B19  1  0.64029517  0.33826311  0.02559523  1
  O  O20  1  0.00609723  0.74527082  0.97945193  1
  O  O21  1  0.45737550  0.83139017  0.92979032  1
  O  O22  1  0.46540219  0.87083112  0.69665204  1
  O  O23  1  0.84000358  0.97215928  0.62148671  1
  O  O24  1  0.18783305  0.97215997  0.12149338  1
  O  O25  1  0.04857180  0.63619717  0.70371907  1
  O  O26  1  0.24873171  0.74528950  0.47948031  1
  O  O27  1  0.71140965  0.83132817  0.42974283  1
  O  O28  1  0.66366016  0.87085164  0.19668022  1
  O  O29  1  0.92330771  0.63685524  0.86165562  1
  O  O30  1  0.49504315  0.41707402  0.95053283  1
  O  O31  1  0.43961521  0.63690049  0.36166193  1
  O  O32  1  0.31493897  0.63629421  0.20375279  1
  O  O33  1  0.08821192  0.41704057  0.45056080  1
  O  O34  1  0.91178188  0.58296413  0.54944277  1
  O  O35  1  0.68505485  0.36370409  0.79624560  1
  O  O36  1  0.56037604  0.36310290  0.63833885  1
  O  O37  1  0.50496029  0.58292916  0.04947011  1
  O  O38  1  0.07668893  0.36314112  0.13834282  1
  O  O39  1  0.33633977  0.12914367  0.80331823  1
  O  O40  1  0.28859015  0.16867287  0.57025800  1
  O  O41  1  0.75127402  0.25470299  0.52052091  1
  O  O42  1  0.95143032  0.36380111  0.29628103  1
  O  O43  1  0.81216720  0.02784228  0.87850542  1
  O  O44  1  0.15999937  0.02784363  0.37851404  1
  O  O45  1  0.53460238  0.12916423  0.30334591  1
  O  O46  1  0.13134240  0.00010690  0.24999425  1
  O  O47  1  0.86865951  0.99989327  0.75000485  1
  O  O48  1  0.54262843  0.16861265  0.07021141  1
  O  O49  1  0.99390568  0.25472323  0.02054762  1
