# generated using pymatgen
data_Li2VAsCO7
_symmetry_space_group_name_H-M   'P 1'
_cell_length_a   8.75650050
_cell_length_b   6.57769521
_cell_length_c   5.10502901
_cell_angle_alpha   90.00000000
_cell_angle_beta   86.93481790
_cell_angle_gamma   90.00000000
_symmetry_Int_Tables_number   1
_chemical_formula_structural   Li2VAsCO7
_chemical_formula_sum   'Li4 V2 As2 C2 O14'
_cell_volume   293.61671008
_cell_formula_units_Z   2
loop_
 _symmetry_equiv_pos_site_id
 _symmetry_equiv_pos_as_xyz
  1  'x, y, z'
loop_
 _atom_site_type_symbol
 _atom_site_label
 _atom_site_symmetry_multiplicity
 _atom_site_fract_x
 _atom_site_fract_y
 _atom_site_fract_z
 _atom_site_occupancy
  Li  Li0  1  0.20752333  0.50940021  0.22131184  1
  Li  Li1  1  0.20752333  0.99059979  0.22131184  1
  Li  Li2  1  0.79247667  0.49059979  0.77868816  1
  Li  Li3  1  0.79247667  0.00939921  0.77868816  1
  V  V4  1  0.33526215  0.75000000  0.79873523  1
  V  V5  1  0.66473785  0.25000000  0.20126477  1
  As  As6  1  0.41979819  0.25000000  0.70830581  1
  As  As7  1  0.58020181  0.75000000  0.29169419  1
  C  C8  1  0.05427957  0.75000000  0.73228509  1
  C  C9  1  0.94572043  0.25000000  0.26771491  1
  O  O10  1  0.08729183  0.25000000  0.30259360  1
  O  O11  1  0.11091371  0.75000000  0.96606242  1
  O  O12  1  0.16013537  0.75000000  0.53516722  1
  O  O13  1  0.31291004  0.04749479  0.82303982  1
  O  O14  1  0.31291004  0.45250521  0.82303982  1
  O  O15  1  0.39896273  0.75000000  0.17145341  1
  O  O16  1  0.44293740  0.25000000  0.37255957  1
  O  O17  1  0.55706260  0.75000000  0.62744043  1
  O  O18  1  0.60103727  0.25000000  0.82854659  1
  O  O19  1  0.68708996  0.54749479  0.17696018  1
  O  O20  1  0.68708996  0.95250521  0.17696018  1
  O  O21  1  0.83986463  0.25000000  0.46483278  1
  O  O22  1  0.88908629  0.25000000  0.03393758  1
  O  O23  1  0.91270817  0.75000000  0.69740640  1
