# generated using pymatgen
data_Mn5Nb(PO4)6
_symmetry_space_group_name_H-M   'P 1'
_cell_length_a   8.72608708
_cell_length_b   8.71629993
_cell_length_c   8.71630004
_cell_angle_alpha   59.99999831
_cell_angle_beta   60.03708912
_cell_angle_gamma   60.03709529
_symmetry_Int_Tables_number   1
_chemical_formula_structural   Mn5Nb(PO4)6
_chemical_formula_sum   'Mn5 Nb1 P6 O24'
_cell_volume   469.04243475
_cell_formula_units_Z   1
loop_
 _symmetry_equiv_pos_site_id
 _symmetry_equiv_pos_as_xyz
  1  'x, y, z'
loop_
 _atom_site_type_symbol
 _atom_site_label
 _atom_site_symmetry_multiplicity
 _atom_site_fract_x
 _atom_site_fract_y
 _atom_site_fract_z
 _atom_site_occupancy
  Mn  Mn0  1  0.01534862  0.99488413  0.99488413  1
  Mn  Mn1  1  0.06631655  0.64456082  0.64456082  1
  Mn  Mn2  1  0.50098900  0.49967000  0.49967000  1
  Mn  Mn3  1  0.44010887  0.85329704  0.85329704  1
  Mn  Mn4  1  0.93374417  0.35541828  0.35541828  1
  Nb  Nb5  1  0.56811277  0.14396208  0.14396208  1
  P  P6  1  0.24441481  0.25216247  0.54904140  1
  P  P7  1  0.24441481  0.95438131  0.25216247  1
  P  P8  1  0.24441481  0.54904140  0.95438131  1
  P  P9  1  0.75204204  0.46074606  0.04334398  1
  P  P10  1  0.75204204  0.04334398  0.74386692  1
  P  P11  1  0.75204204  0.74386692  0.46074606  1
  O  O12  1  0.06795585  0.11155983  0.30959162  1
  O  O13  1  0.06795585  0.51089170  0.11155983  1
  O  O14  1  0.06795585  0.30959162  0.51089170  1
  O  O15  1  0.23686346  0.08502947  0.73735687  1
  O  O16  1  0.42201340  0.18618122  0.38445449  1
  O  O17  1  0.27441193  0.40876555  0.55381099  1
  O  O18  1  0.23686346  0.94075020  0.08502947  1
  O  O19  1  0.27441193  0.76301053  0.40876555  1
  O  O20  1  0.56995864  0.61406919  0.01050052  1
  O  O21  1  0.27441193  0.55381099  0.76301053  1
  O  O22  1  0.75902937  0.26379977  0.06545733  1
  O  O23  1  0.56995864  0.01050052  0.80547165  1
  O  O24  1  0.42201340  0.00735189  0.18618122  1
  O  O25  1  0.23686346  0.73735687  0.94075020  1
  O  O26  1  0.73346899  0.43959916  0.23985741  1
  O  O27  1  0.42201340  0.38445449  0.00735189  1
  O  O28  1  0.73346899  0.23985741  0.58707444  1
  O  O29  1  0.75902937  0.06545733  0.91171354  1
  O  O30  1  0.73346899  0.58707444  0.43959916  1
  O  O31  1  0.56995864  0.80547165  0.61406919  1
  O  O32  1  0.75902937  0.91171354  0.26379977  1
  O  O33  1  0.93163384  0.69187703  0.48707414  1
  O  O34  1  0.93163384  0.48707414  0.88941399  1
  O  O35  1  0.93163384  0.88941399  0.69187703  1
