# generated using pymatgen
data_Tm2P4O13
_symmetry_space_group_name_H-M   'P 1'
_cell_length_a   6.74138483
_cell_length_b   6.84826266
_cell_length_c   12.89205653
_cell_angle_alpha   75.84092828
_cell_angle_beta   90.00000000
_cell_angle_gamma   60.51493677
_symmetry_Int_Tables_number   1
_chemical_formula_structural   Tm2P4O13
_chemical_formula_sum   'Tm4 P8 O26'
_cell_volume   497.22185890
_cell_formula_units_Z   2
loop_
 _symmetry_equiv_pos_site_id
 _symmetry_equiv_pos_as_xyz
  1  'x, y, z'
loop_
 _atom_site_type_symbol
 _atom_site_label
 _atom_site_symmetry_multiplicity
 _atom_site_fract_x
 _atom_site_fract_y
 _atom_site_fract_z
 _atom_site_occupancy
  Tm  Tm0  1  0.30765459  0.38928775  0.94944878  1
  Tm  Tm1  1  0.69694233  0.61071225  0.55055122  1
  Tm  Tm2  1  0.30305767  0.38928775  0.44944878  1
  Tm  Tm3  1  0.69234541  0.61071225  0.05055122  1
  P  P4  1  0.16301658  0.97563523  0.86703954  1
  P  P5  1  0.86134819  0.97563523  0.36703954  1
  P  P6  1  0.77348254  0.46710158  0.84011477  1
  P  P7  1  0.24058311  0.53289842  0.65988523  1
  P  P8  1  0.75941689  0.46710158  0.34011477  1
  P  P9  1  0.22651746  0.53289842  0.15988523  1
  P  P10  1  0.13865181  0.02436477  0.63296046  1
  P  P11  1  0.83698342  0.02436477  0.13296046  1
  O  O12  1  0.32925392  0.98819105  0.94201227  1
  O  O13  1  0.12436847  0.77315345  0.89742708  1
  O  O14  1  0.68255403  0.98819105  0.44201227  1
  O  O15  1  0.10254785  0.80649333  0.65291526  1
  O  O16  1  0.92596605  0.51359019  0.90662175  1
  O  O17  1  0.57389163  0.50192238  0.90525623  1
  O  O18  1  0.70462066  0.60197024  0.72203347  1
  O  O19  1  0.10247808  0.77315345  0.39742708  1
  O  O20  1  0.09095882  0.80649333  0.15291526  1
  O  O21  1  0.30659090  0.39802976  0.77796653  1
  O  O22  1  0.07581301  0.49807762  0.59474377  1
  O  O23  1  0.43955725  0.48640981  0.59337825  1
  O  O24  1  0.56044275  0.51359019  0.40662175  1
  O  O25  1  0.92418699  0.50192238  0.40525623  1
  O  O26  1  0.69340910  0.60197024  0.22203347  1
  O  O27  1  0.90904118  0.19350667  0.84708474  1
  O  O28  1  0.89752192  0.22684655  0.60257292  1
  O  O29  1  0.29537934  0.39802976  0.27796653  1
  O  O30  1  0.42610837  0.49807762  0.09474377  1
  O  O31  1  0.07403395  0.48640981  0.09337825  1
  O  O32  1  0.24813475  0.00000000  0.75000000  1
  O  O33  1  0.89745215  0.19350667  0.34708474  1
  O  O34  1  0.31744597  0.01180895  0.55798773  1
  O  O35  1  0.87563153  0.22684655  0.10257292  1
  O  O36  1  0.75186525  0.00000000  0.25000000  1
  O  O37  1  0.67074608  0.01180895  0.05798773  1
