# generated using pymatgen
data_Lu2B4O9
_symmetry_space_group_name_H-M   'P 1'
_cell_length_a   6.12642044
_cell_length_b   6.36865604
_cell_length_c   7.41135314
_cell_angle_alpha   102.74725125
_cell_angle_beta   97.30106857
_cell_angle_gamma   102.36141667
_symmetry_Int_Tables_number   1
_chemical_formula_structural   Lu2B4O9
_chemical_formula_sum   'Lu4 B8 O18'
_cell_volume   270.85266538
_cell_formula_units_Z   2
loop_
 _symmetry_equiv_pos_site_id
 _symmetry_equiv_pos_as_xyz
  1  'x, y, z'
loop_
 _atom_site_type_symbol
 _atom_site_label
 _atom_site_symmetry_multiplicity
 _atom_site_fract_x
 _atom_site_fract_y
 _atom_site_fract_z
 _atom_site_occupancy
  Lu  Lu0  1  0.11264946  0.32288334  0.63928415  1
  Lu  Lu1  1  0.44879004  0.91053631  0.71054662  1
  Lu  Lu2  1  0.55120996  0.08946369  0.28945338  1
  Lu  Lu3  1  0.88735054  0.67711666  0.36071585  1
  B  B4  1  0.00549830  0.85733057  0.80814833  1
  B  B5  1  0.26719304  0.66691264  0.01844124  1
  B  B6  1  0.37340307  0.64346191  0.35069528  1
  B  B7  1  0.33854275  0.31490066  0.07201829  1
  B  B8  1  0.66145725  0.68509934  0.92798171  1
  B  B9  1  0.62659693  0.35653809  0.64930472  1
  B  B10  1  0.73280696  0.33308736  0.98155876  1
  B  B11  1  0.99450170  0.14266943  0.19185167  1
  O  O12  1  0.07222150  0.95973384  0.67237364  1
  O  O13  1  0.13901242  0.71712589  0.85331458  1
  O  O14  1  0.22468902  0.42573182  0.95503412  1
  O  O15  1  0.21723802  0.59538867  0.48055643  1
  O  O16  1  0.23366322  0.73766913  0.21320669  1
  O  O17  1  0.18913714  0.12775134  0.12307101  1
  O  O18  1  0.41788892  0.17997637  0.55122714  1
  O  O19  1  0.49513202  0.20483455  0.97624142  1
  O  O20  1  0.53743202  0.53831904  0.74692801  1
  O  O21  1  0.46256798  0.46168096  0.25307199  1
  O  O22  1  0.50486798  0.79516545  0.02375858  1
  O  O23  1  0.58211108  0.82002363  0.44877286  1
  O  O24  1  0.81086286  0.87224866  0.87692899  1
  O  O25  1  0.76633678  0.26233087  0.78679331  1
  O  O26  1  0.78276198  0.40461133  0.51944357  1
  O  O27  1  0.77531098  0.57426818  0.04496588  1
  O  O28  1  0.86098758  0.28287411  0.14668542  1
  O  O29  1  0.92777850  0.04026616  0.32762636  1
