# generated using pymatgen
data_Na2MnCSO7
_symmetry_space_group_name_H-M   'P 1'
_cell_length_a   9.08266257
_cell_length_b   6.86513514
_cell_length_c   5.29202586
_cell_angle_alpha   90.00000000
_cell_angle_beta   89.74814044
_cell_angle_gamma   90.00000000
_symmetry_Int_Tables_number   1
_chemical_formula_structural   Na2MnCSO7
_chemical_formula_sum   'Na4 Mn2 C2 S2 O14'
_cell_volume   329.97423648
_cell_formula_units_Z   2
loop_
 _symmetry_equiv_pos_site_id
 _symmetry_equiv_pos_as_xyz
  1  'x, y, z'
loop_
 _atom_site_type_symbol
 _atom_site_label
 _atom_site_symmetry_multiplicity
 _atom_site_fract_x
 _atom_site_fract_y
 _atom_site_fract_z
 _atom_site_occupancy
  Na  Na0  1  0.20639801  0.51040123  0.23151782  1
  Na  Na1  1  0.20639801  0.98959877  0.23151782  1
  Na  Na2  1  0.79360199  0.48959877  0.76848218  1
  Na  Na3  1  0.79360199  0.01040123  0.76848218  1
  Mn  Mn4  1  0.35874377  0.75000000  0.76892036  1
  Mn  Mn5  1  0.64125623  0.25000000  0.23107964  1
  C  C6  1  0.07263990  0.75000000  0.72907829  1
  C  C7  1  0.92736010  0.25000000  0.27092171  1
  S  S8  1  0.42091136  0.25000000  0.71413031  1
  S  S9  1  0.57908864  0.75000000  0.28586969  1
  O  O10  1  0.06570934  0.25000000  0.29486149  1
  O  O11  1  0.13801281  0.75000000  0.95006478  1
  O  O12  1  0.16311900  0.75000000  0.53268777  1
  O  O13  1  0.34140703  0.07362445  0.80218161  1
  O  O14  1  0.34140703  0.42637555  0.80218161  1
  O  O15  1  0.42480789  0.75000000  0.18405398  1
  O  O16  1  0.43005201  0.25000000  0.42915120  1
  O  O17  1  0.56994799  0.75000000  0.57084880  1
  O  O18  1  0.57519211  0.25000000  0.81594602  1
  O  O19  1  0.65859297  0.57362445  0.19781839  1
  O  O20  1  0.65859297  0.92637555  0.19781839  1
  O  O21  1  0.83688100  0.25000000  0.46731223  1
  O  O22  1  0.86198719  0.25000000  0.04993522  1
  O  O23  1  0.93429066  0.75000000  0.70513851  1
