# generated using pymatgen
data_CrFe(PO4)2
_symmetry_space_group_name_H-M   'P 1'
_cell_length_a   8.39419807
_cell_length_b   8.60572970
_cell_length_c   8.60572995
_cell_angle_alpha   59.99999982
_cell_angle_beta   59.16283682
_cell_angle_gamma   59.16283906
_symmetry_Int_Tables_number   1
_chemical_formula_structural   CrFe(PO4)2
_chemical_formula_sum   'Cr3 Fe3 P6 O24'
_cell_volume   433.93701957
_cell_formula_units_Z   3
loop_
 _symmetry_equiv_pos_site_id
 _symmetry_equiv_pos_as_xyz
  1  'x, y, z'
loop_
 _atom_site_type_symbol
 _atom_site_label
 _atom_site_symmetry_multiplicity
 _atom_site_fract_x
 _atom_site_fract_y
 _atom_site_fract_z
 _atom_site_occupancy
  Cr  Cr0  1  0.00332721  0.99889060  0.99889060  1
  Cr  Cr1  1  0.57348009  0.14217364  0.14217364  1
  Cr  Cr2  1  0.49828687  0.50057138  0.50057138  1
  Fe  Fe3  1  0.05906153  0.64697982  0.64697982  1
  Fe  Fe4  1  0.43929427  0.85356858  0.85356858  1
  Fe  Fe5  1  0.94107899  0.35297367  0.35297367  1
  P  P6  1  0.25150914  0.25026035  0.54602084  1
  P  P7  1  0.25150914  0.95220967  0.25026035  1
  P  P8  1  0.25150914  0.54602084  0.95220967  1
  P  P9  1  0.74815509  0.45166490  0.04997706  1
  P  P10  1  0.74815509  0.04997706  0.75020295  1
  P  P11  1  0.74815509  0.75020295  0.45166490  1
  O  O12  1  0.06371572  0.10560647  0.32468621  1
  O  O13  1  0.06371572  0.50599159  0.10560647  1
  O  O14  1  0.06371572  0.32468621  0.50599159  1
  O  O15  1  0.21672409  0.09392795  0.74988794  1
  O  O16  1  0.43691935  0.17991201  0.39025879  1
  O  O17  1  0.28349203  0.40540851  0.56319230  1
  O  O18  1  0.21672409  0.93946101  0.09392795  1
  O  O19  1  0.28349203  0.74790615  0.40540851  1
  O  O20  1  0.56297812  0.60596283  0.00631622  1
  O  O21  1  0.28349203  0.56319230  0.74790615  1
  O  O22  1  0.78234655  0.24792753  0.06273391  1
  O  O23  1  0.56297812  0.00631622  0.82474183  1
  O  O24  1  0.43691935  0.99290985  0.17991201  1
  O  O25  1  0.21672409  0.74988794  0.93946101  1
  O  O26  1  0.71453527  0.43783771  0.25268520  1
  O  O27  1  0.43691935  0.39025879  0.99290985  1
  O  O28  1  0.71453527  0.25268520  0.59494282  1
  O  O29  1  0.78234655  0.06273391  0.90699301  1
  O  O30  1  0.71453527  0.59494282  0.43783771  1
  O  O31  1  0.56297812  0.82474183  0.60596283  1
  O  O32  1  0.78234655  0.90699301  0.24792753  1
  O  O33  1  0.93478232  0.67818328  0.49238745  1
  O  O34  1  0.93478232  0.49238745  0.89464696  1
  O  O35  1  0.93478232  0.89464696  0.67818328  1
