# generated using pymatgen
data_La2Hf2O7
_symmetry_space_group_name_H-M   'P 1'
_cell_length_a   8.08763115
_cell_length_b   13.81552556
_cell_length_c   5.74534131
_cell_angle_alpha   90.00000000
_cell_angle_beta   90.00000000
_cell_angle_gamma   98.46478588
_symmetry_Int_Tables_number   1
_chemical_formula_structural   La2Hf2O7
_chemical_formula_sum   'La8 Hf8 O28'
_cell_volume   634.96186887
_cell_formula_units_Z   4
loop_
 _symmetry_equiv_pos_site_id
 _symmetry_equiv_pos_as_xyz
  1  'x, y, z'
loop_
 _atom_site_type_symbol
 _atom_site_label
 _atom_site_symmetry_multiplicity
 _atom_site_fract_x
 _atom_site_fract_y
 _atom_site_fract_z
 _atom_site_occupancy
  La  La0  1  0.22787667  0.90435203  0.76105954  1
  La  La1  1  0.14350427  0.56860314  0.33209724  1
  La  La2  1  0.28215477  0.12230657  0.25215683  1
  La  La3  1  0.35578199  0.40087983  0.77439747  1
  La  La4  1  0.64421801  0.59912017  0.27439747  1
  La  La5  1  0.71784523  0.87769343  0.75215683  1
  La  La6  1  0.85649573  0.43139686  0.83209724  1
  La  La7  1  0.77212333  0.09564797  0.26105954  1
  Hf  Hf8  1  0.07655939  0.31749883  0.27584817  1
  Hf  Hf9  1  0.03013508  0.11416347  0.76623560  1
  Hf  Hf10  1  0.41613203  0.67853170  0.78414109  1
  Hf  Hf11  1  0.47308499  0.88374638  0.26678032  1
  Hf  Hf12  1  0.52691501  0.11625362  0.76678032  1
  Hf  Hf13  1  0.58386797  0.32146830  0.28414109  1
  Hf  Hf14  1  0.96986492  0.88583653  0.26623560  1
  Hf  Hf15  1  0.92344061  0.68250117  0.77584817  1
  O  O16  1  0.01837352  0.17919505  0.44753688  1
  O  O17  1  0.08581623  0.41155330  0.55070717  1
  O  O18  1  0.17547244  0.69896282  0.69269760  1
  O  O19  1  0.22357328  0.89288547  0.33646549  1
  O  O20  1  0.12578624  0.43157558  0.05730965  1
  O  O21  1  0.04700149  0.01946522  0.05133272  1
  O  O22  1  0.11821965  0.22506679  0.97828217  1
  O  O23  1  0.37973790  0.60616237  0.08221222  1
  O  O24  1  0.43033931  0.82125198  0.94514629  1
  O  O25  1  0.32577007  0.30253873  0.36244410  1
  O  O26  1  0.27119705  0.08410799  0.67744787  1
  O  O27  1  0.40505710  0.55814747  0.57522127  1
  O  O28  1  0.53669961  0.98018715  0.55001461  1
  O  O29  1  0.50545423  0.77306334  0.47880870  1
  O  O30  1  0.49454577  0.22693666  0.97880870  1
  O  O31  1  0.46330039  0.01981285  0.05001461  1
  O  O32  1  0.59494290  0.44185253  0.07522127  1
  O  O33  1  0.72880295  0.91589201  0.17744787  1
  O  O34  1  0.67422993  0.69746127  0.86244410  1
  O  O35  1  0.56966069  0.17874802  0.44514629  1
  O  O36  1  0.62026210  0.39383763  0.58221222  1
  O  O37  1  0.88178035  0.77493321  0.47828217  1
  O  O38  1  0.95299851  0.98053478  0.55133272  1
  O  O39  1  0.87421376  0.56842442  0.55730965  1
  O  O40  1  0.77642672  0.10711453  0.83646549  1
  O  O41  1  0.82452756  0.30103718  0.19269760  1
  O  O42  1  0.91418377  0.58844670  0.05070717  1
  O  O43  1  0.98162648  0.82080495  0.94753688  1
