# generated using pymatgen
data_Li4Fe3WO8
_symmetry_space_group_name_H-M   'P 1'
_cell_length_a   10.42789443
_cell_length_b   10.42570530
_cell_length_c   14.69502083
_cell_angle_alpha   20.01919467
_cell_angle_beta   20.01840901
_cell_angle_gamma   34.49221977
_symmetry_Int_Tables_number   1
_chemical_formula_structural   Li4Fe3WO8
_chemical_formula_sum   'Li4 Fe3 W1 O8'
_cell_volume   162.12690901
_cell_formula_units_Z   1
loop_
 _symmetry_equiv_pos_site_id
 _symmetry_equiv_pos_as_xyz
  1  'x, y, z'
loop_
 _atom_site_type_symbol
 _atom_site_label
 _atom_site_symmetry_multiplicity
 _atom_site_fract_x
 _atom_site_fract_y
 _atom_site_fract_z
 _atom_site_occupancy
  Li  Li0  1  0.00000906  0.00000816  0.49998728  1
  Li  Li1  1  0.00000210  0.50001746  0.49998849  1
  Li  Li2  1  0.50001281  0.00000290  0.49999156  1
  Li  Li3  1  0.49999947  0.49999884  0.50000121  1
  Fe  Fe4  1  0.00000342  0.49999279  0.00000062  1
  Fe  Fe5  1  0.50000150  0.99999490  0.00000041  1
  Fe  Fe6  1  0.49998130  0.49997675  0.00002520  1
  W  W7  1  0.00000187  0.00000734  -0.00000517  1
  O  O8  1  -0.00005573  0.99983383  0.26423971  1
  O  O9  1  0.00000193  0.55440007  0.21747050  1
  O  O10  1  0.55454123  0.99991692  0.21744491  1
  O  O11  1  0.00004215  0.00014738  0.73578720  1
  O  O12  1  0.44533617  0.44525343  0.32670148  1
  O  O13  1  -0.00000040  0.44559958  0.78252815  1
  O  O14  1  0.44545203  0.00009137  0.78255265  1
  O  O15  1  0.55467209  0.55475627  0.67328481  1
