# generated using pymatgen
data_Ti2Cr3O12
_symmetry_space_group_name_H-M   'P 1'
_cell_length_a   12.79563695
_cell_length_b   9.14817325
_cell_length_c   9.17829729
_cell_angle_alpha   89.99781947
_cell_angle_beta   90.00339530
_cell_angle_gamma   89.99455465
_symmetry_Int_Tables_number   1
_chemical_formula_structural   Ti2Cr3O12
_chemical_formula_sum   'Ti8 Cr12 O48'
_cell_volume   1074.38121822
_cell_formula_units_Z   4
loop_
 _symmetry_equiv_pos_site_id
 _symmetry_equiv_pos_as_xyz
  1  'x, y, z'
loop_
 _atom_site_type_symbol
 _atom_site_label
 _atom_site_symmetry_multiplicity
 _atom_site_fract_x
 _atom_site_fract_y
 _atom_site_fract_z
 _atom_site_occupancy
  Ti  Ti0  1  0.11914913  0.26530058  0.97155435  1
  Ti  Ti1  1  0.11911652  0.73467676  0.47141553  1
  Ti  Ti2  1  0.38083945  0.23462928  0.47145249  1
  Ti  Ti3  1  0.38087944  0.76525344  0.97161329  1
  Ti  Ti4  1  0.61913283  0.23469347  0.02834599  1
  Ti  Ti5  1  0.61921237  0.76530627  0.52866817  1
  Ti  Ti6  1  0.88089450  0.26541659  0.52837872  1
  Ti  Ti7  1  0.88088491  0.73477180  0.02854017  1
  Cr  Cr8  1  0.00001440  0.46475809  0.24992111  1
  Cr  Cr9  1  0.99998707  0.53534122  0.75003336  1
  Cr  Cr10  1  0.14251916  0.10927223  0.60351263  1
  Cr  Cr11  1  0.14251931  0.89055314  0.10367701  1
  Cr  Cr12  1  0.35745496  0.39053205  0.10348042  1
  Cr  Cr13  1  0.35741893  0.60951393  0.60380572  1
  Cr  Cr14  1  0.49990831  0.03525412  0.75002509  1
  Cr  Cr15  1  0.50011573  0.96462388  0.25002843  1
  Cr  Cr16  1  0.64259705  0.39062038  0.39635021  1
  Cr  Cr17  1  0.64256936  0.60936244  0.89639509  1
  Cr  Cr18  1  0.85742671  0.10928271  0.89650366  1
  Cr  Cr19  1  0.85750396  0.89047514  0.39629810  1
  O  O20  1  0.02409515  0.16532126  0.55517747  1
  O  O21  1  0.02431866  0.83454304  0.05532280  1
  O  O22  1  0.08067386  0.58030391  0.35787372  1
  O  O23  1  0.08058695  0.41957515  0.85799314  1
  O  O24  1  0.08050893  0.34943328  0.14255729  1
  O  O25  1  0.08036603  0.65041600  0.64239160  1
  O  O26  1  0.15279845  0.06997236  0.08226648  1
  O  O27  1  0.15266892  0.93012550  0.58240144  1
  O  O28  1  0.16258398  0.15082980  0.77684647  1
  O  O29  1  0.16263894  0.84913755  0.27675791  1
  O  O30  1  0.23206370  0.19101065  0.49443119  1
  O  O31  1  0.23214604  0.80897865  0.99442219  1
  O  O32  1  0.26794099  0.30889946  0.99424081  1
  O  O33  1  0.26785874  0.69110003  0.49450608  1
  O  O34  1  0.33730868  0.65088547  0.77675474  1
  O  O35  1  0.33726135  0.34902648  0.27668452  1
  O  O36  1  0.34731385  0.43008030  0.58229646  1
  O  O37  1  0.34721173  0.56988317  0.08227254  1
  O  O38  1  0.41948434  0.15056966  0.64256823  1
  O  O39  1  0.41951678  0.84951451  0.14267905  1
  O  O40  1  0.41940607  0.08031880  0.35791140  1
  O  O41  1  0.41926536  0.91967377  0.85801908  1
  O  O42  1  0.47580946  0.66550910  0.55526017  1
  O  O43  1  0.47579500  0.33455788  0.05521696  1
  O  O44  1  0.52420695  0.33464753  0.44480187  1
  O  O45  1  0.52418442  0.66544675  0.94473899  1
  O  O46  1  0.58063453  0.08037372  0.14206500  1
  O  O47  1  0.58070341  0.91973058  0.64212980  1
  O  O48  1  0.58044926  0.15046004  0.85735363  1
  O  O49  1  0.58056060  0.84947251  0.35753019  1
  O  O50  1  0.65272736  0.43014036  0.91774278  1
  O  O51  1  0.65281656  0.57000966  0.41764121  1
  O  O52  1  0.66279572  0.34912738  0.22342803  1
  O  O53  1  0.66260268  0.65079725  0.72301918  1
  O  O54  1  0.73215838  0.30897107  0.50569918  1
  O  O55  1  0.73210821  0.69103358  0.00533602  1
  O  O56  1  0.76789390  0.19113805  0.00551719  1
  O  O57  1  0.76789587  0.80899232  0.50575488  1
  O  O58  1  0.83722327  0.15099038  0.72307526  1
  O  O59  1  0.83738475  0.84918621  0.22341756  1
  O  O60  1  0.84717875  0.07008218  0.41781958  1
  O  O61  1  0.84731929  0.93027387  0.91761924  1
  O  O62  1  0.91951651  0.34941259  0.35732023  1
  O  O63  1  0.91959366  0.65048393  0.85752281  1
  O  O64  1  0.91941312  0.41961268  0.64196267  1
  O  O65  1  0.91927417  0.58029878  0.14211222  1
  O  O66  1  0.97582850  0.16541979  0.94473403  1
  O  O67  1  0.97576408  0.83459544  0.44480715  1
