# generated using pymatgen
data_LiFeNiO4
_symmetry_space_group_name_H-M   'P 1'
_cell_length_a   5.66303289
_cell_length_b   5.94280376
_cell_length_c   5.94280376
_cell_angle_alpha   57.79695809
_cell_angle_beta   61.54545737
_cell_angle_gamma   61.54545741
_symmetry_Int_Tables_number   1
_chemical_formula_structural   LiFeNiO4
_chemical_formula_sum   'Li2 Fe2 Ni2 O8'
_cell_volume   141.97621326
_cell_formula_units_Z   2
loop_
 _symmetry_equiv_pos_site_id
 _symmetry_equiv_pos_as_xyz
  1  'x, y, z'
loop_
 _atom_site_type_symbol
 _atom_site_label
 _atom_site_symmetry_multiplicity
 _atom_site_fract_x
 _atom_site_fract_y
 _atom_site_fract_z
 _atom_site_occupancy
  Li  Li0  1  0.13176356  0.11823644  0.11823644  1
  Li  Li1  1  0.86823644  0.88176356  0.88176356  1
  Fe  Fe2  1  0.50000000  0.00000000  0.50000000  1
  Fe  Fe3  1  0.50000000  0.50000000  0.00000000  1
  Ni  Ni4  1  0.00000000  0.50000000  0.50000000  1
  Ni  Ni5  1  0.50000000  0.50000000  0.50000000  1
  O  O6  1  0.26755211  0.25525885  0.25525885  1
  O  O7  1  0.26368147  0.26548278  0.70715528  1
  O  O8  1  0.26368147  0.70715528  0.26548278  1
  O  O9  1  0.72193019  0.25525885  0.25525885  1
  O  O10  1  0.27806981  0.74474115  0.74474115  1
  O  O11  1  0.73631853  0.73451722  0.29284472  1
  O  O12  1  0.73631853  0.29284472  0.73451722  1
  O  O13  1  0.73244789  0.74474115  0.74474115  1
