# generated using pymatgen
data_Li2V3O8
_symmetry_space_group_name_H-M   'P 1'
_cell_length_a   8.31496890
_cell_length_b   8.38498685
_cell_length_c   8.36822312
_cell_angle_alpha   89.99733901
_cell_angle_beta   89.99385549
_cell_angle_gamma   90.00121667
_symmetry_Int_Tables_number   1
_chemical_formula_structural   Li2V3O8
_chemical_formula_sum   'Li8 V12 O32'
_cell_volume   583.44008475
_cell_formula_units_Z   4
loop_
 _symmetry_equiv_pos_site_id
 _symmetry_equiv_pos_as_xyz
  1  'x, y, z'
loop_
 _atom_site_type_symbol
 _atom_site_label
 _atom_site_symmetry_multiplicity
 _atom_site_fract_x
 _atom_site_fract_y
 _atom_site_fract_z
 _atom_site_occupancy
  Li  Li0  1  -0.00000309  0.99618106  0.00024678  1
  Li  Li1  1  -0.00000771  0.49630335  0.49995725  1
  Li  Li2  1  0.25244175  0.25422992  0.24918433  1
  Li  Li3  1  0.24704425  0.74595790  0.74905277  1
  Li  Li4  1  0.50020957  0.00362968  0.50032193  1
  Li  Li5  1  0.50010772  0.50376888  0.99971747  1
  Li  Li6  1  0.75244992  0.24580353  0.75102214  1
  Li  Li7  1  0.74708797  0.75423018  0.25061522  1
  V  V8  1  0.12576206  0.13298668  0.62690138  1
  V  V9  1  0.11456606  0.62496559  0.13899088  1
  V  V10  1  0.10574734  0.36633541  0.88283551  1
  V  V11  1  0.38607244  0.37382060  0.63897506  1
  V  V12  1  0.39395123  0.63380101  0.38349601  1
  V  V13  1  0.37335805  0.86671156  0.12639581  1
  V  V14  1  0.60560214  0.13354442  0.11681784  1
  V  V15  1  0.62605638  0.36689202  0.37300238  1
  V  V16  1  0.61435219  0.87435966  0.86153390  1
  V  V17  1  0.88593170  0.12596756  0.36080890  1
  V  V18  1  0.87411189  0.63351761  0.87363391  1
  V  V19  1  0.89350948  0.86621875  0.61662432  1
  O  O20  1  0.14278739  0.39843940  0.09388714  1
  O  O21  1  0.09473211  0.13664943  0.38440762  1
  O  O22  1  0.13317713  0.36622961  0.64260165  1
  O  O23  1  0.15486757  0.85043086  0.10940105  1
  O  O24  1  0.11544437  0.15591184  0.86426656  1
  O  O25  1  0.14194448  0.60797481  0.34401911  1
  O  O26  1  0.10358199  0.89561962  0.63385444  1
  O  O27  1  0.10784120  0.61388121  0.88628513  1
  O  O28  1  0.39570910  0.10446748  0.13348912  1
  O  O29  1  0.39229284  0.38570468  0.38653973  1
  O  O30  1  0.34513966  0.14936285  0.61053358  1
  O  O31  1  0.35839017  0.39216054  0.84380843  1
  O  O32  1  0.36669822  0.63370554  0.14231209  1
  O  O33  1  0.38494856  0.84415435  0.36374499  1
  O  O34  1  0.35717639  0.60152735  0.59385130  1
  O  O35  1  0.40552834  0.86270822  0.88417408  1
  O  O36  1  0.63320484  0.13377936  0.35739753  1
  O  O37  1  0.61541815  0.34404059  0.13582282  1
  O  O38  1  0.59484565  0.36326175  0.61558413  1
  O  O39  1  0.60391133  0.60440017  0.36608782  1
  O  O40  1  0.64277231  0.10164155  0.90612781  1
  O  O41  1  0.65510072  0.64952412  0.89053249  1
  O  O42  1  0.60783318  0.88622677  0.11343225  1
  O  O43  1  0.64213221  0.89217229  0.65636511  1
  O  O44  1  0.85848663  0.10792531  0.15604936  1
  O  O45  1  0.89229333  0.11450119  0.61355547  1
  O  O46  1  0.84526332  0.35064744  0.38943946  1
  O  O47  1  0.90577105  0.63729064  0.11582849  1
  O  O48  1  0.88469753  0.65592653  0.63610964  1
  O  O49  1  0.89592303  0.39557389  0.86641910  1
  O  O50  1  0.85689826  0.89860615  0.40614764  1
  O  O51  1  0.86683659  0.86632512  0.85778810  1
