# generated using pymatgen
data_LiFe23O32
_symmetry_space_group_name_H-M   'P 1'
_cell_length_a   8.57177907
_cell_length_b   8.57177907
_cell_length_c   8.57177907
_cell_angle_alpha   89.98407210
_cell_angle_beta   90.01592790
_cell_angle_gamma   90.01592790
_symmetry_Int_Tables_number   1
_chemical_formula_structural   LiFe23O32
_chemical_formula_sum   'Li1 Fe23 O32'
_cell_volume   629.81479127
_cell_formula_units_Z   1
loop_
 _symmetry_equiv_pos_site_id
 _symmetry_equiv_pos_as_xyz
  1  'x, y, z'
loop_
 _atom_site_type_symbol
 _atom_site_label
 _atom_site_symmetry_multiplicity
 _atom_site_fract_x
 _atom_site_fract_y
 _atom_site_fract_z
 _atom_site_occupancy
  Li  Li0  1  0.12500000  0.87500000  0.37500000  1
  Fe  Fe1  1  0.00253090  0.49848731  0.49866921  1
  Fe  Fe2  1  0.11973203  0.62836640  0.12908597  1
  Fe  Fe3  1  0.12500000  0.37438455  0.87561545  1
  Fe  Fe4  1  0.13026797  0.12091403  0.62163360  1
  Fe  Fe5  1  0.24746910  0.75133079  0.75151269  1
  Fe  Fe6  1  0.24866921  0.25151269  0.25253090  1
  Fe  Fe7  1  0.37091403  0.88026797  0.12836640  1
  Fe  Fe8  1  0.37640245  0.12640245  0.87500000  1
  Fe  Fe9  1  0.37163360  0.62908597  0.38026797  1
  Fe  Fe10  1  0.37709057  0.37500000  0.62709057  1
  Fe  Fe11  1  0.49515375  0.50484625  0.00484625  1
  Fe  Fe12  1  0.50151269  0.99866921  0.49746910  1
  Fe  Fe13  1  0.62438455  0.87500000  0.87438455  1
  Fe  Fe14  1  0.62500000  0.12709057  0.12290943  1
  Fe  Fe15  1  0.62500000  0.62359755  0.62640245  1
  Fe  Fe16  1  0.62561545  0.37561545  0.37500000  1
  Fe  Fe17  1  0.74848731  0.75253090  0.25133079  1
  Fe  Fe18  1  0.75484625  0.24515375  0.74515375  1
  Fe  Fe19  1  0.87290943  0.62290943  0.87500000  1
  Fe  Fe20  1  0.87359755  0.37500000  0.12359755  1
  Fe  Fe21  1  0.87836640  0.86973203  0.62091403  1
  Fe  Fe22  1  0.87908597  0.12163360  0.36973203  1
  Fe  Fe23  1  0.00133079  0.99746910  0.99848731  1
  O  O24  1  0.12418222  0.61404516  0.88603709  1
  O  O25  1  0.11448046  0.88494937  0.62852095  1
  O  O26  1  0.11505063  0.12852095  0.38551954  1
  O  O27  1  0.12583621  0.13444146  0.86476597  1
  O  O28  1  0.12416379  0.38523403  0.11555854  1
  O  O29  1  0.13494937  0.86448046  0.12147905  1
  O  O30  1  0.13551954  0.62147905  0.36505063  1
  O  O31  1  0.12581778  0.36396291  0.63595484  1
  O  O32  1  0.36326489  0.63673511  0.13673511  1
  O  O33  1  0.36512222  0.37451822  0.87583862  1
  O  O34  1  0.36488041  0.12282285  0.62189878  1
  O  O35  1  0.37189878  0.62717715  0.61488041  1
  O  O36  1  0.37852095  0.86505063  0.36448046  1
  O  O37  1  0.38444146  0.87583621  0.88523403  1
  O  O38  1  0.37282285  0.11488041  0.12810122  1
  O  O39  1  0.38595484  0.38603709  0.37581778  1
  O  O40  1  0.61396291  0.87581778  0.11404516  1
  O  O41  1  0.61476597  0.61555854  0.37583621  1
  O  O42  1  0.62583862  0.37548178  0.61512222  1
  O  O43  1  0.62548178  0.37583862  0.13487778  1
  O  O44  1  0.62451822  0.11512222  0.87416138  1
  O  O45  1  0.62416138  0.63487778  0.87451822  1
  O  O46  1  0.63523403  0.87416379  0.63444146  1
  O  O47  1  0.63603709  0.13595484  0.37418222  1
  O  O48  1  0.86404516  0.87418222  0.86396291  1
  O  O49  1  0.87717715  0.12189878  0.13511959  1
  O  O50  1  0.86555854  0.36476597  0.37416379  1
  O  O51  1  0.87147905  0.88551954  0.38494937  1
  O  O52  1  0.87810122  0.63511959  0.62282285  1
  O  O53  1  0.88511959  0.62810122  0.12717715  1
  O  O54  1  0.88487778  0.37416138  0.87548178  1
  O  O55  1  0.88673511  0.11326489  0.61326489  1
