# generated using pymatgen
data_VRhO4
_symmetry_space_group_name_H-M   'P 1'
_cell_length_a   5.50387994
_cell_length_b   5.50387994
_cell_length_c   5.50387994
_cell_angle_alpha   73.31654027
_cell_angle_beta   106.68345973
_cell_angle_gamma   64.79666254
_symmetry_Int_Tables_number   1
_chemical_formula_structural   VRhO4
_chemical_formula_sum   'V2 Rh2 O8'
_cell_volume   127.37368298
_cell_formula_units_Z   2
loop_
 _symmetry_equiv_pos_site_id
 _symmetry_equiv_pos_as_xyz
  1  'x, y, z'
loop_
 _atom_site_type_symbol
 _atom_site_label
 _atom_site_symmetry_multiplicity
 _atom_site_fract_x
 _atom_site_fract_y
 _atom_site_fract_z
 _atom_site_occupancy
  V  V0  1  0.25893421  0.24106579  0.50000000  1
  V  V1  1  0.00893421  0.99106579  0.00000000  1
  Rh  Rh2  1  0.74661892  0.75338108  0.50000000  1
  Rh  Rh3  1  0.49661892  0.50338108  0.00000000  1
  O  O4  1  0.57472842  0.23304411  0.80777253  1
  O  O5  1  0.03071495  0.76973246  0.80044640  1
  O  O6  1  0.01695589  0.29081664  0.69222747  1
  O  O7  1  0.48026754  0.82017886  0.69955360  1
  O  O8  1  0.01695589  0.67527158  0.30777253  1
  O  O9  1  0.48026754  0.21928505  0.30044640  1
  O  O10  1  0.95918336  0.23304411  0.19222747  1
  O  O11  1  0.42982114  0.76973246  0.19955360  1
