# generated using pymatgen
data_Li4Ti3Mn5O16
_symmetry_space_group_name_H-M   'P 1'
_cell_length_a   5.91660308
_cell_length_b   5.95191148
_cell_length_c   9.72643284
_cell_angle_alpha   89.98854547
_cell_angle_beta   92.18514620
_cell_angle_gamma   120.21173085
_symmetry_Int_Tables_number   1
_chemical_formula_structural   Li4Ti3Mn5O16
_chemical_formula_sum   'Li4 Ti3 Mn5 O16'
_cell_volume   295.70703980
_cell_formula_units_Z   1
loop_
 _symmetry_equiv_pos_site_id
 _symmetry_equiv_pos_as_xyz
  1  'x, y, z'
loop_
 _atom_site_type_symbol
 _atom_site_label
 _atom_site_symmetry_multiplicity
 _atom_site_fract_x
 _atom_site_fract_y
 _atom_site_fract_z
 _atom_site_occupancy
  Li  Li0  1  0.35023067  0.67509296  0.89319514  1
  Li  Li1  1  0.97998043  0.98993896  0.99566066  1
  Li  Li2  1  0.97370186  0.98694881  0.49607523  1
  Li  Li3  1  0.67447685  0.33726512  0.39312787  1
  Ti  Ti4  1  0.17567562  0.83744933  0.21650126  1
  Ti  Ti5  1  0.17569937  0.33823347  0.21647363  1
  Ti  Ti6  1  0.34062413  0.17035119  0.71097640  1
  Mn  Mn7  1  0.33352975  0.66681150  0.48926583  1
  Mn  Mn8  1  0.66102521  0.83051228  0.20964728  1
  Mn  Mn9  1  0.67961157  0.33977790  0.98695137  1
  Mn  Mn10  1  0.83787004  0.66360245  0.71606387  1
  Mn  Mn11  1  0.83790435  0.17436464  0.71610521  1
  O  O12  1  0.15182192  0.83997153  0.60656492  1
  O  O13  1  0.03810629  0.51894505  0.33283147  1
  O  O14  1  0.32913967  0.66458676  0.10664026  1
  O  O15  1  0.99286784  0.99636876  0.30986797  1
  O  O16  1  0.00449442  0.00224208  0.81053142  1
  O  O17  1  0.15188539  0.31206650  0.60657227  1
  O  O18  1  0.47446025  0.96862134  0.33658401  1
  O  O19  1  0.47470338  0.50610179  0.33645737  1
  O  O20  1  0.30706895  0.15356105  0.10687427  1
  O  O21  1  0.66595032  0.83303418  0.60836475  1
  O  O22  1  0.53358335  0.48448754  0.83699886  1
  O  O23  1  0.53356691  0.04913667  0.83704563  1
  O  O24  1  0.66066808  0.33038487  0.60703301  1
  O  O25  1  0.83903191  0.66668065  0.09776363  1
  O  O26  1  0.98337593  0.49173986  0.82985091  1
  O  O27  1  0.83894553  0.17202078  0.09781452  1
