# generated using pymatgen
data_Li2TiCo3O8
_symmetry_space_group_name_H-M   'P 1'
_cell_length_a   5.71601994
_cell_length_b   5.71714822
_cell_length_c   9.24316173
_cell_angle_alpha   90.06053443
_cell_angle_beta   89.96973349
_cell_angle_gamma   120.00653492
_symmetry_Int_Tables_number   1
_chemical_formula_structural   Li2TiCo3O8
_chemical_formula_sum   'Li4 Ti2 Co6 O16'
_cell_volume   261.57457343
_cell_formula_units_Z   2
loop_
 _symmetry_equiv_pos_site_id
 _symmetry_equiv_pos_as_xyz
  1  'x, y, z'
loop_
 _atom_site_type_symbol
 _atom_site_label
 _atom_site_symmetry_multiplicity
 _atom_site_fract_x
 _atom_site_fract_y
 _atom_site_fract_z
 _atom_site_occupancy
  Li  Li0  1  0.33446212  0.66869519  0.88814715  1
  Li  Li1  1  0.99902928  0.00039752  0.99759606  1
  Li  Li2  1  0.00097072  0.00136824  0.49759606  1
  Li  Li3  1  0.66553788  0.33423207  0.38814715  1
  Ti  Ti4  1  0.33330914  0.66016917  0.49684638  1
  Ti  Ti5  1  0.66669086  0.32686003  0.99684638  1
  Co  Co6  1  0.17029544  0.82920953  0.21571784  1
  Co  Co7  1  0.17028731  0.34035393  0.21514914  1
  Co  Co8  1  0.65953194  0.82941532  0.21504636  1
  Co  Co9  1  0.34046806  0.16988338  0.71504636  1
  Co  Co10  1  0.82970456  0.65891509  0.71571784  1
  Co  Co11  1  0.82971269  0.17006663  0.71514914  1
  O  O12  1  0.16277777  0.83324075  0.60076299  1
  O  O13  1  0.03857857  0.52160868  0.33522303  1
  O  O14  1  0.33172893  0.66739696  0.11054886  1
  O  O15  1  0.00147554  0.99872477  0.30721855  1
  O  O16  1  0.99852446  0.99724923  0.80721855  1
  O  O17  1  0.16620311  0.33348306  0.59902481  1
  O  O18  1  0.47855552  0.96165236  0.33532225  1
  O  O19  1  0.48031681  0.52035867  0.33667418  1
  O  O20  1  0.32977062  0.16360463  0.10064240  1
  O  O21  1  0.67022938  0.83383300  0.60064240  1
  O  O22  1  0.52144448  0.48309585  0.83532225  1
  O  O23  1  0.51968319  0.04004186  0.83667418  1
  O  O24  1  0.66827107  0.33566803  0.61054886  1
  O  O25  1  0.83722223  0.67046399  0.10076299  1
  O  O26  1  0.96142143  0.48303111  0.83522303  1
  O  O27  1  0.83379689  0.16728095  0.09902481  1
