# generated using pymatgen
data_BaMg6Ga
_symmetry_space_group_name_H-M   'P 1'
_cell_length_a   7.75268155
_cell_length_b   6.13584072
_cell_length_c   5.01569156
_cell_angle_alpha   90.00000000
_cell_angle_beta   90.00000000
_cell_angle_gamma   113.31112445
_symmetry_Int_Tables_number   1
_chemical_formula_structural   BaMg6Ga
_chemical_formula_sum   'Ba1 Mg6 Ga1'
_cell_volume   219.11611906
_cell_formula_units_Z   1
loop_
 _symmetry_equiv_pos_site_id
 _symmetry_equiv_pos_as_xyz
  1  'x, y, z'
loop_
 _atom_site_type_symbol
 _atom_site_label
 _atom_site_symmetry_multiplicity
 _atom_site_fract_x
 _atom_site_fract_y
 _atom_site_fract_z
 _atom_site_occupancy
  Ba  Ba0  1  0.08938805  0.29469352  0.25000000  1
  Mg  Mg1  1  0.62386547  0.32121604  0.25000000  1
  Mg  Mg2  1  0.62386547  0.80264843  0.25000000  1
  Mg  Mg3  1  0.35889870  0.17426147  0.75000000  1
  Mg  Mg4  1  0.35889870  0.68463823  0.75000000  1
  Mg  Mg5  1  0.75132062  0.12566081  0.75000000  1
  Mg  Mg6  1  0.90655456  0.70327778  0.75000000  1
  Ga  Ga7  1  0.28720843  0.89360371  0.25000000  1
