# generated using pymatgen
data_Mn(SbO3)4
_symmetry_space_group_name_H-M   'P 1'
_cell_length_a   5.50707679
_cell_length_b   10.98077018
_cell_length_c   9.74043603
_cell_angle_alpha   27.53388149
_cell_angle_beta   50.56445207
_cell_angle_gamma   56.19846691
_symmetry_Int_Tables_number   1
_chemical_formula_structural   Mn(SbO3)4
_chemical_formula_sum   'Mn1 Sb4 O12'
_cell_volume   210.26017123
_cell_formula_units_Z   1
loop_
 _symmetry_equiv_pos_site_id
 _symmetry_equiv_pos_as_xyz
  1  'x, y, z'
loop_
 _atom_site_type_symbol
 _atom_site_label
 _atom_site_symmetry_multiplicity
 _atom_site_fract_x
 _atom_site_fract_y
 _atom_site_fract_z
 _atom_site_occupancy
  Mn  Mn0  1  0.31283641  0.00140580  0.29007661  1
  Sb  Sb1  1  0.01608875  0.99904436  0.97217145  1
  Sb  Sb2  1  0.95831460  0.49785289  0.00735214  1
  Sb  Sb3  1  0.49612146  0.99121648  0.51064611  1
  Sb  Sb4  1  0.48305319  0.50652940  0.47442427  1
  O  O5  1  0.35874070  0.28724663  0.11885952  1
  O  O6  1  0.24580075  0.15345148  0.57700580  1
  O  O7  1  0.09906270  0.31270296  0.74639632  1
  O  O8  1  0.90849644  0.17309777  0.22730489  1
  O  O9  1  0.37676311  0.82362538  0.09394375  1
  O  O10  1  0.74498794  0.35421995  0.38467864  1
  O  O11  1  0.21720665  0.66228667  0.58402909  1
  O  O12  1  0.58482980  0.17354039  0.89291229  1
  O  O13  1  0.12230296  0.83849768  0.68520193  1
  O  O14  1  0.86365255  0.68326075  0.23876841  1
  O  O15  1  0.68380855  0.88640747  0.35771115  1
  O  O16  1  0.58723444  0.65561295  0.89781763  1
