# generated using pymatgen
data_LiMn2F5
_symmetry_space_group_name_H-M   'P 1'
_cell_length_a   8.00511099
_cell_length_b   8.95652252
_cell_length_c   6.50413118
_cell_angle_alpha   91.06066492
_cell_angle_beta   101.27277998
_cell_angle_gamma   106.35033334
_symmetry_Int_Tables_number   1
_chemical_formula_structural   LiMn2F5
_chemical_formula_sum   'Li4 Mn8 F20'
_cell_volume   437.49875748
_cell_formula_units_Z   4
loop_
 _symmetry_equiv_pos_site_id
 _symmetry_equiv_pos_as_xyz
  1  'x, y, z'
loop_
 _atom_site_type_symbol
 _atom_site_label
 _atom_site_symmetry_multiplicity
 _atom_site_fract_x
 _atom_site_fract_y
 _atom_site_fract_z
 _atom_site_occupancy
  Li  Li0  1  0.21151728  0.44596307  0.78610418  1
  Li  Li1  1  0.21521955  0.15921479  0.31816316  1
  Li  Li2  1  0.78478045  0.84078521  0.68183684  1
  Li  Li3  1  0.78848272  0.55403693  0.21389582  1
  Mn  Mn4  1  0.18625526  0.79371636  0.54207348  1
  Mn  Mn5  1  0.15191105  0.78660336  0.03345183  1
  Mn  Mn6  1  0.37993952  0.56722582  0.32523133  1
  Mn  Mn7  1  0.38667314  0.11974511  0.86022133  1
  Mn  Mn8  1  0.61332686  0.88025489  0.13977867  1
  Mn  Mn9  1  0.62006048  0.43277418  0.67476867  1
  Mn  Mn10  1  0.84808895  0.21339664  0.96654817  1
  Mn  Mn11  1  0.81374474  0.20628364  0.45792652  1
  F  F12  1  0.99465440  0.76783753  0.73432560  1
  F  F13  1  0.99518069  0.73247256  0.25645727  1
  F  F14  1  0.00481931  0.26752744  0.74354273  1
  F  F15  1  0.00534560  0.23216247  0.26567440  1
  F  F16  1  0.21836400  0.57159690  0.55191875  1
  F  F17  1  0.38031581  0.86940160  0.86649072  1
  F  F18  1  0.20636515  0.56358287  0.03114732  1
  F  F19  1  0.37580930  0.81613217  0.30888593  1
  F  F20  1  0.23193554  0.03560152  0.55464138  1
  F  F21  1  0.40126495  0.35168456  0.83347449  1
  F  F22  1  0.21341824  0.04058919  0.06577417  1
  F  F23  1  0.40233283  0.34863857  0.39123260  1
  F  F24  1  0.59766717  0.65136143  0.60876740  1
  F  F25  1  0.78658176  0.95941081  0.93422583  1
  F  F26  1  0.59873505  0.64831544  0.16652551  1
  F  F27  1  0.76806446  0.96439848  0.44535862  1
  F  F28  1  0.62419070  0.18386783  0.69111407  1
  F  F29  1  0.79363485  0.43641713  0.96885268  1
  F  F30  1  0.61968419  0.13059840  0.13350928  1
  F  F31  1  0.78163600  0.42840310  0.44808125  1
