# generated using pymatgen
data_Ca2SnS4
_symmetry_space_group_name_H-M   'P 1'
_cell_length_a   7.01900211
_cell_length_b   8.65748501
_cell_length_c   11.80309952
_cell_angle_alpha   90.00000000
_cell_angle_beta   98.55275764
_cell_angle_gamma   90.00000000
_symmetry_Int_Tables_number   1
_chemical_formula_structural   Ca2SnS4
_chemical_formula_sum   'Ca8 Sn4 S16'
_cell_volume   709.26167685
_cell_formula_units_Z   4
loop_
 _symmetry_equiv_pos_site_id
 _symmetry_equiv_pos_as_xyz
  1  'x, y, z'
loop_
 _atom_site_type_symbol
 _atom_site_label
 _atom_site_symmetry_multiplicity
 _atom_site_fract_x
 _atom_site_fract_y
 _atom_site_fract_z
 _atom_site_occupancy
  Ca  Ca0  1  0.71189585  0.13214436  0.93672743  1
  Ca  Ca1  1  0.21189585  0.36785564  0.43672743  1
  Ca  Ca2  1  0.28810415  0.86785564  0.06327257  1
  Ca  Ca3  1  0.78810415  0.63214436  0.56327257  1
  Ca  Ca4  1  0.71071091  0.50411719  0.18948050  1
  Ca  Ca5  1  0.21071091  0.99588281  0.68948050  1
  Ca  Ca6  1  0.28928909  0.49588281  0.81051950  1
  Ca  Ca7  1  0.78928909  0.00411719  0.31051950  1
  Sn  Sn8  1  0.78646163  0.71891015  0.91813508  1
  Sn  Sn9  1  0.28646163  0.78108985  0.41813508  1
  Sn  Sn10  1  0.21353837  0.28108985  0.08186492  1
  Sn  Sn11  1  0.71353837  0.21891015  0.58186492  1
  S  S12  1  0.71479300  0.45797261  0.95417453  1
  S  S13  1  0.21479300  0.04202739  0.45417453  1
  S  S14  1  0.28520700  0.54202739  0.04582547  1
  S  S15  1  0.78520700  0.95797261  0.54582547  1
  S  S16  1  0.48493594  0.85756066  0.87045089  1
  S  S17  1  0.98493594  0.64243934  0.37045089  1
  S  S18  1  0.51506406  0.14243934  0.12954911  1
  S  S19  1  0.01506406  0.35756066  0.62954911  1
  S  S20  1  0.00244146  0.73444494  0.77805097  1
  S  S21  1  0.50244146  0.76555506  0.27805097  1
  S  S22  1  0.99755854  0.26555506  0.22194903  1
  S  S23  1  0.49755854  0.23444494  0.72194903  1
  S  S24  1  0.89773569  0.85315442  0.09589809  1
  S  S25  1  0.39773569  0.64684558  0.59589809  1
  S  S26  1  0.10226431  0.14684558  0.90410191  1
  S  S27  1  0.60226431  0.35315442  0.40410191  1
