# generated using pymatgen
data_Ti3NbV2(PO4)6
_symmetry_space_group_name_H-M   'P 1'
_cell_length_a   8.62004681
_cell_length_b   8.76758248
_cell_length_c   8.76758283
_cell_angle_alpha   59.99999783
_cell_angle_beta   59.43218705
_cell_angle_gamma   59.43219273
_symmetry_Int_Tables_number   1
_chemical_formula_structural   Ti3NbV2(PO4)6
_chemical_formula_sum   'Ti3 Nb1 V2 P6 O24'
_cell_volume   464.48665057
_cell_formula_units_Z   1
loop_
 _symmetry_equiv_pos_site_id
 _symmetry_equiv_pos_as_xyz
  1  'x, y, z'
loop_
 _atom_site_type_symbol
 _atom_site_label
 _atom_site_symmetry_multiplicity
 _atom_site_fract_x
 _atom_site_fract_y
 _atom_site_fract_z
 _atom_site_occupancy
  Ti  Ti0  1  0.06775554  0.64408182  0.64408182  1
  Ti  Ti1  1  0.43075458  0.85641481  0.85641481  1
  Ti  Ti2  1  0.93514728  0.35495124  0.35495124  1
  Nb  Nb3  1  0.57400052  0.14200016  0.14200016  1
  V  V4  1  0.99757687  0.00080804  0.00080804  1
  V  V5  1  0.50007109  0.49997597  0.49997597  1
  P  P6  1  0.24754390  0.25005885  0.54837325  1
  P  P7  1  0.24754390  0.95402400  0.25005885  1
  P  P8  1  0.24754390  0.54837325  0.95402400  1
  P  P9  1  0.74987290  0.46362991  0.04396766  1
  P  P10  1  0.74987290  0.04396766  0.74252953  1
  P  P11  1  0.74987290  0.74252953  0.46362991  1
  O  O12  1  0.07161486  0.11337975  0.31583778  1
  O  O13  1  0.07161486  0.49916661  0.11337975  1
  O  O14  1  0.07161486  0.31583778  0.49916661  1
  O  O15  1  0.22629895  0.09121375  0.74144655  1
  O  O16  1  0.43343680  0.17974063  0.39490472  1
  O  O17  1  0.26896859  0.40888528  0.56175549  1
  O  O18  1  0.22629895  0.94104076  0.09121375  1
  O  O19  1  0.26896859  0.76038963  0.40888528  1
  O  O20  1  0.56776859  0.61670294  0.00223646  1
  O  O21  1  0.26896859  0.56175549  0.76038963  1
  O  O22  1  0.77246680  0.26761711  0.05828169  1
  O  O23  1  0.56776859  0.00223646  0.81329201  1
  O  O24  1  0.43343680  0.99191785  0.17974063  1
  O  O25  1  0.22629895  0.74144655  0.94104076  1
  O  O26  1  0.73045485  0.44618125  0.23807028  1
  O  O27  1  0.43343680  0.39490472  0.99191785  1
  O  O28  1  0.73045485  0.23807028  0.58529361  1
  O  O29  1  0.77246680  0.05828169  0.90163540  1
  O  O30  1  0.73045485  0.58529361  0.44618125  1
  O  O31  1  0.56776859  0.81329201  0.61670294  1
  O  O32  1  0.77246680  0.90163540  0.26761711  1
  O  O33  1  0.92980579  0.67530500  0.50666342  1
  O  O34  1  0.92980579  0.50666342  0.88822579  1
  O  O35  1  0.92980579  0.88822579  0.67530500  1
