# generated using pymatgen
data_LiTi2O4
_symmetry_space_group_name_H-M   'P 1'
_cell_length_a   5.93889740
_cell_length_b   5.93715020
_cell_length_c   9.63637865
_cell_angle_alpha   90.00036540
_cell_angle_beta   89.99981974
_cell_angle_gamma   119.99026399
_symmetry_Int_Tables_number   1
_chemical_formula_structural   LiTi2O4
_chemical_formula_sum   'Li4 Ti8 O16'
_cell_volume   294.28691034
_cell_formula_units_Z   4
loop_
 _symmetry_equiv_pos_site_id
 _symmetry_equiv_pos_as_xyz
  1  'x, y, z'
loop_
 _atom_site_type_symbol
 _atom_site_label
 _atom_site_symmetry_multiplicity
 _atom_site_fract_x
 _atom_site_fract_y
 _atom_site_fract_z
 _atom_site_occupancy
  Li  Li0  1  0.33330250  0.66665246  0.89373489  1
  Li  Li1  1  0.00008131  0.00006004  0.99504768  1
  Li  Li2  1  0.99991869  0.99997974  0.49504768  1
  Li  Li3  1  0.66669750  0.33334996  0.39373489  1
  Ti  Ti4  1  0.17088793  0.82916793  0.21546522  1
  Ti  Ti5  1  0.65833152  0.82916297  0.21549248  1
  Ti  Ti6  1  0.34166848  0.17083145  0.71549248  1
  Ti  Ti7  1  0.82908314  0.17084500  0.71546031  1
  Ti  Ti8  1  0.33333906  0.66667241  0.48888066  1
  Ti  Ti9  1  0.17091686  0.34176186  0.21546031  1
  Ti  Ti10  1  0.66666094  0.33333336  0.98888066  1
  Ti  Ti11  1  0.82911207  0.65828000  0.71546522  1
  O  O12  1  0.16626079  0.83366075  0.59834105  1
  O  O13  1  0.03984413  0.51992537  0.34075300  1
  O  O14  1  0.33346969  0.66675676  0.10289708  1
  O  O15  1  0.99976859  0.99989884  0.30992095  1
  O  O16  1  0.00023141  0.00013025  0.80992095  1
  O  O17  1  0.16627137  0.33264791  0.59834531  1
  O  O18  1  0.47997419  0.96026532  0.34063786  1
  O  O19  1  0.47997683  0.51972421  0.34064517  1
  O  O20  1  0.33273204  0.16637156  0.09829834  1
  O  O21  1  0.66726796  0.83363952  0.59829834  1
  O  O22  1  0.52002581  0.48029113  0.84063786  1
  O  O23  1  0.52002317  0.03974738  0.84064517  1
  O  O24  1  0.66653031  0.33328707  0.60289708  1
  O  O25  1  0.83373921  0.66739996  0.09834105  1
  O  O26  1  0.96015587  0.48008124  0.84075300  1
  O  O27  1  0.83372863  0.16637654  0.09834531  1
