# generated using pymatgen
data_Li3Mn4(BO3)4
_symmetry_space_group_name_H-M   'P 1'
_cell_length_a   5.28159118
_cell_length_b   9.12437646
_cell_length_c   10.37391907
_cell_angle_alpha   91.41568709
_cell_angle_beta   91.58626051
_cell_angle_gamma   89.61390063
_symmetry_Int_Tables_number   1
_chemical_formula_structural   Li3Mn4(BO3)4
_chemical_formula_sum   'Li6 Mn8 B8 O24'
_cell_volume   499.57858876
_cell_formula_units_Z   2
loop_
 _symmetry_equiv_pos_site_id
 _symmetry_equiv_pos_as_xyz
  1  'x, y, z'
loop_
 _atom_site_type_symbol
 _atom_site_label
 _atom_site_symmetry_multiplicity
 _atom_site_fract_x
 _atom_site_fract_y
 _atom_site_fract_z
 _atom_site_occupancy
  Li  Li0  1  0.94868442  0.91460435  0.32767017  1
  Li  Li1  1  0.89645494  0.93014526  0.83885737  1
  Li  Li2  1  0.58158289  0.57771110  0.60312105  1
  Li  Li3  1  0.43874713  0.41320696  0.34292551  1
  Li  Li4  1  0.40349389  0.42323409  0.82972092  1
  Li  Li5  1  0.08142465  0.08664757  0.09866737  1
  Mn  Mn6  1  0.94051784  0.25016937  0.37438685  1
  Mn  Mn7  1  0.92559476  0.59731294  0.86702453  1
  Mn  Mn8  1  0.58474062  0.90060896  0.11408654  1
  Mn  Mn9  1  0.59420428  0.22769865  0.61983844  1
  Mn  Mn10  1  0.42802043  0.74587327  0.36716093  1
  Mn  Mn11  1  0.39981199  0.08473567  0.86900241  1
  Mn  Mn12  1  0.07543698  0.42216600  0.12392415  1
  Mn  Mn13  1  0.07262973  0.77299772  0.61263978  1
  B  B14  1  0.91859225  0.58371487  0.38184872  1
  B  B15  1  0.90673249  0.25233173  0.86977694  1
  B  B16  1  0.58186781  0.23857086  0.13275949  1
  B  B17  1  0.56704579  0.92172710  0.62885043  1
  B  B18  1  0.43514059  0.07339015  0.37232351  1
  B  B19  1  0.42067255  0.74940046  0.86505003  1
  B  B20  1  0.09906029  0.75110691  0.11399081  1
  B  B21  1  0.07288004  0.42687617  0.63023902  1
  O  O22  1  0.97258582  0.88224149  0.12908565  1
  O  O23  1  0.92277749  0.31557727  0.57750179  1
  O  O24  1  0.97871481  0.62838374  0.05377936  1
  O  O25  1  0.94384738  0.55587047  0.67470815  1
  O  O26  1  0.84273400  0.23623288  0.16445719  1
  O  O27  1  0.82004739  0.93296681  0.65204483  1
  O  O28  1  0.66450065  0.56697978  0.40404792  1
  O  O29  1  0.65747491  0.25979461  0.81504115  1
  O  O30  1  0.58464643  0.95580875  0.33106675  1
  O  O31  1  0.55534591  0.87385423  0.90488572  1
  O  O32  1  0.56026146  0.19904745  0.42786968  1
  O  O33  1  0.53844583  0.61626786  0.85200969  1
  O  O34  1  0.43959292  0.35843644  0.16178604  1
  O  O35  1  0.45473991  0.79276056  0.58146756  1
  O  O36  1  0.46799131  0.11447941  0.07396803  1
  O  O37  1  0.41215913  0.04501251  0.65754306  1
  O  O38  1  0.34290466  0.73332825  0.16205194  1
  O  O39  1  0.33121616  0.41598705  0.63656576  1
  O  O40  1  0.17930125  0.07308303  0.35829240  1
  O  O41  1  0.16002936  0.76763365  0.83615968  1
  O  O42  1  0.06655909  0.46786862  0.33604269  1
  O  O43  1  0.03799616  0.38177102  0.90023817  1
  O  O44  1  0.03509912  0.71975028  0.40841597  1
  O  O45  1  0.01470949  0.11965266  0.89645486  1
