# generated using pymatgen
data_Li4Mn3Cu3(SnO8)2
_symmetry_space_group_name_H-M   'P 1'
_cell_length_a   5.95631654
_cell_length_b   5.90008238
_cell_length_c   9.68288610
_cell_angle_alpha   89.97640142
_cell_angle_beta   89.09654386
_cell_angle_gamma   119.77388988
_symmetry_Int_Tables_number   1
_chemical_formula_structural   Li4Mn3Cu3(SnO8)2
_chemical_formula_sum   'Li4 Mn3 Cu3 Sn2 O16'
_cell_volume   295.31311394
_cell_formula_units_Z   1
loop_
 _symmetry_equiv_pos_site_id
 _symmetry_equiv_pos_as_xyz
  1  'x, y, z'
loop_
 _atom_site_type_symbol
 _atom_site_label
 _atom_site_symmetry_multiplicity
 _atom_site_fract_x
 _atom_site_fract_y
 _atom_site_fract_z
 _atom_site_occupancy
  Li  Li0  1  0.34025440  0.67002100  0.89658552  1
  Li  Li1  1  0.99831361  0.99919182  0.99650944  1
  Li  Li2  1  0.99859440  0.99915524  0.49215884  1
  Li  Li3  1  0.67361340  0.33663128  0.39007949  1
  Mn  Mn4  1  0.65939635  0.82931010  0.21534349  1
  Mn  Mn5  1  0.83051500  0.66130608  0.71492128  1
  Mn  Mn6  1  0.83012335  0.16899726  0.71494060  1
  Cu  Cu7  1  0.16797687  0.82806820  0.21419124  1
  Cu  Cu8  1  0.16853327  0.34030617  0.21387511  1
  Cu  Cu9  1  0.33929566  0.16968418  0.71518775  1
  Sn  Sn10  1  0.32561209  0.66294814  0.48925630  1
  Sn  Sn11  1  0.65671128  0.32839116  0.99528825  1
  O  O12  1  0.14733193  0.83189048  0.59999876  1
  O  O13  1  0.03559328  0.51870368  0.33989130  1
  O  O14  1  0.35076883  0.67524267  0.10793597  1
  O  O15  1  0.98523434  0.99391268  0.30560102  1
  O  O16  1  0.98373325  0.99169835  0.80826184  1
  O  O17  1  0.14780321  0.31527030  0.60057421  1
  O  O18  1  0.49939182  0.97041732  0.33942780  1
  O  O19  1  0.49905846  0.52824854  0.34002634  1
  O  O20  1  0.31023520  0.15423191  0.09682804  1
  O  O21  1  0.67691336  0.83865972  0.60625007  1
  O  O22  1  0.53384932  0.49747519  0.83722066  1
  O  O23  1  0.53277773  0.03623742  0.83703223  1
  O  O24  1  0.68534552  0.34241576  0.61030064  1
  O  O25  1  0.82712368  0.67711867  0.09959784  1
  O  O26  1  0.96850724  0.48430067  0.83083783  1
  O  O27  1  0.82739315  0.15046600  0.09971916  1
