# generated using pymatgen
data_LiTi2VO6
_symmetry_space_group_name_H-M   'P 1'
_cell_length_a   9.94534206
_cell_length_b   8.97046878
_cell_length_c   5.63305132
_cell_angle_alpha   90.00000000
_cell_angle_beta   103.71587460
_cell_angle_gamma   90.00000000
_symmetry_Int_Tables_number   1
_chemical_formula_structural   LiTi2VO6
_chemical_formula_sum   'Li4 Ti8 V4 O24'
_cell_volume   488.21822146
_cell_formula_units_Z   4
loop_
 _symmetry_equiv_pos_site_id
 _symmetry_equiv_pos_as_xyz
  1  'x, y, z'
loop_
 _atom_site_type_symbol
 _atom_site_label
 _atom_site_symmetry_multiplicity
 _atom_site_fract_x
 _atom_site_fract_y
 _atom_site_fract_z
 _atom_site_occupancy
  Li  Li0  1  0.24038799  0.00880785  0.96305897  1
  Li  Li1  1  0.24038799  0.49119215  0.46305897  1
  Li  Li2  1  0.75961201  0.50880785  0.53694103  1
  Li  Li3  1  0.75961201  0.99119215  0.03694103  1
  Ti  Ti4  1  0.05444647  0.34237112  0.82830179  1
  Ti  Ti5  1  0.05444647  0.15762888  0.32830179  1
  Ti  Ti6  1  0.45192893  0.15550401  0.73573063  1
  Ti  Ti7  1  0.45192893  0.34449599  0.23573063  1
  Ti  Ti8  1  0.54807107  0.65550401  0.76426937  1
  Ti  Ti9  1  0.54807107  0.84449599  0.26426937  1
  Ti  Ti10  1  0.94555353  0.84237112  0.67169821  1
  Ti  Ti11  1  0.94555353  0.65762888  0.17169821  1
  V  V12  1  0.24856895  0.66471430  0.95280306  1
  V  V13  1  0.24856895  0.83528570  0.45280306  1
  V  V14  1  0.75143105  0.16471430  0.54719694  1
  V  V15  1  0.75143105  0.33528570  0.04719694  1
  O  O16  1  0.11268526  0.18717475  0.65992028  1
  O  O17  1  0.13051343  0.50949799  0.74851063  1
  O  O18  1  0.13781897  0.83505878  0.74045455  1
  O  O19  1  0.11268526  0.31282525  0.15992028  1
  O  O20  1  0.13051343  0.99050201  0.24851063  1
  O  O21  1  0.13781897  0.66494122  0.24045455  1
  O  O22  1  0.38435004  0.19814534  0.00498764  1
  O  O23  1  0.35575502  0.66678265  0.67048358  1
  O  O24  1  0.38051389  0.97793705  0.64316291  1
  O  O25  1  0.38435004  0.30185466  0.50498764  1
  O  O26  1  0.35575502  0.83321735  0.17048358  1
  O  O27  1  0.38051389  0.52206295  0.14316291  1
  O  O28  1  0.61948611  0.47793705  0.85683709  1
  O  O29  1  0.64424498  0.16678265  0.82951642  1
  O  O30  1  0.61564996  0.69814534  0.49501236  1
  O  O31  1  0.61948611  0.02206295  0.35683709  1
  O  O32  1  0.64424498  0.33321735  0.32951642  1
  O  O33  1  0.61564996  0.80185466  0.99501236  1
  O  O34  1  0.86218103  0.33505878  0.75954545  1
  O  O35  1  0.86948657  0.00949799  0.75148937  1
  O  O36  1  0.88731474  0.68717475  0.84007972  1
  O  O37  1  0.86218103  0.16494122  0.25954545  1
  O  O38  1  0.86948657  0.49050201  0.25148937  1
  O  O39  1  0.88731474  0.81282525  0.34007972  1
