# generated using pymatgen
data_Li3SbS3
_symmetry_space_group_name_H-M   'P 1'
_cell_length_a   8.51688283
_cell_length_b   10.51850469
_cell_length_c   13.73167431
_cell_angle_alpha   90.00000000
_cell_angle_beta   91.49625771
_cell_angle_gamma   90.00000000
_symmetry_Int_Tables_number   1
_chemical_formula_structural   Li3SbS3
_chemical_formula_sum   'Li24 Sb8 S24'
_cell_volume   1229.73084457
_cell_formula_units_Z   8
loop_
 _symmetry_equiv_pos_site_id
 _symmetry_equiv_pos_as_xyz
  1  'x, y, z'
loop_
 _atom_site_type_symbol
 _atom_site_label
 _atom_site_symmetry_multiplicity
 _atom_site_fract_x
 _atom_site_fract_y
 _atom_site_fract_z
 _atom_site_occupancy
  Li  Li0  1  0.07057971  0.95821378  0.89580824  1
  Li  Li1  1  0.07057971  0.54178622  0.39580824  1
  Li  Li2  1  0.17171093  0.11483446  0.70281689  1
  Li  Li3  1  0.17171093  0.38516554  0.20281689  1
  Li  Li4  1  0.15720156  0.58585320  0.91895916  1
  Li  Li5  1  0.15720156  0.91414680  0.41895916  1
  Li  Li6  1  0.30270058  0.40726116  0.67489273  1
  Li  Li7  1  0.30270058  0.09273884  0.17489273  1
  Li  Li8  1  0.37267421  0.89346537  0.96158881  1
  Li  Li9  1  0.37267421  0.60653463  0.46158881  1
  Li  Li10  1  0.42823330  0.01998349  0.60513558  1
  Li  Li11  1  0.42823330  0.48001651  0.10513558  1
  Li  Li12  1  0.57176670  0.51998349  0.89486442  1
  Li  Li13  1  0.57176670  0.98001651  0.39486442  1
  Li  Li14  1  0.62732579  0.39346537  0.53841119  1
  Li  Li15  1  0.62732579  0.10653463  0.03841119  1
  Li  Li16  1  0.69729942  0.90726116  0.82510727  1
  Li  Li17  1  0.69729942  0.59273884  0.32510727  1
  Li  Li18  1  0.84279844  0.08585320  0.58104084  1
  Li  Li19  1  0.84279844  0.41414680  0.08104084  1
  Li  Li20  1  0.82828907  0.61483446  0.79718311  1
  Li  Li21  1  0.82828907  0.88516554  0.29718311  1
  Li  Li22  1  0.92942029  0.45821378  0.60419176  1
  Li  Li23  1  0.92942029  0.04178622  0.10419176  1
  Sb  Sb24  1  0.22910066  0.25374968  0.94238286  1
  Sb  Sb25  1  0.22910066  0.24625032  0.44238286  1
  Sb  Sb26  1  0.25025367  0.75130252  0.69328611  1
  Sb  Sb27  1  0.25025367  0.74869748  0.19328611  1
  Sb  Sb28  1  0.74974633  0.25130252  0.80671389  1
  Sb  Sb29  1  0.74974633  0.24869748  0.30671389  1
  Sb  Sb30  1  0.77089934  0.75374968  0.55761714  1
  Sb  Sb31  1  0.77089934  0.74625032  0.05761714  1
  S  S32  1  0.04641708  0.75355329  0.81745436  1
  S  S33  1  0.04641708  0.74644671  0.31745436  1
  S  S34  1  0.16576435  0.93508368  0.59441878  1
  S  S35  1  0.16576435  0.56491632  0.09441878  1
  S  S36  1  0.17279839  0.57539169  0.58085407  1
  S  S37  1  0.17279839  0.92460831  0.08085407  1
  S  S38  1  0.31896077  0.06742539  0.84915921  1
  S  S39  1  0.33033103  0.43134421  0.84665249  1
  S  S40  1  0.31896077  0.43257461  0.34915921  1
  S  S41  1  0.33033103  0.06865579  0.34665249  1
  S  S42  1  0.42506079  0.24478547  0.57912838  1
  S  S43  1  0.42506079  0.25521453  0.07912838  1
  S  S44  1  0.57493921  0.74478547  0.92087162  1
  S  S45  1  0.57493921  0.75521453  0.42087162  1
  S  S46  1  0.66966897  0.93134421  0.65334751  1
  S  S47  1  0.68103923  0.56742539  0.65084079  1
  S  S48  1  0.66966897  0.56865579  0.15334751  1
  S  S49  1  0.68103923  0.93257461  0.15084079  1
  S  S50  1  0.82720161  0.07539169  0.91914593  1
  S  S51  1  0.82720161  0.42460831  0.41914593  1
  S  S52  1  0.83423565  0.43508368  0.90558122  1
  S  S53  1  0.83423565  0.06491632  0.40558122  1
  S  S54  1  0.95358292  0.25355329  0.68254564  1
  S  S55  1  0.95358292  0.24644671  0.18254564  1
