# generated using pymatgen
data_Na4Bi2C4SO16
_symmetry_space_group_name_H-M   'P 1'
_cell_length_a   10.29562136
_cell_length_b   10.27863617
_cell_length_c   17.96265684
_cell_angle_alpha   89.84163746
_cell_angle_beta   72.62229257
_cell_angle_gamma   119.25339279
_symmetry_Int_Tables_number   1
_chemical_formula_structural   Na4Bi2C4SO16
_chemical_formula_sum   'Na16 Bi8 C16 S4 O64'
_cell_volume   1557.32199429
_cell_formula_units_Z   4
loop_
 _symmetry_equiv_pos_site_id
 _symmetry_equiv_pos_as_xyz
  1  'x, y, z'
loop_
 _atom_site_type_symbol
 _atom_site_label
 _atom_site_symmetry_multiplicity
 _atom_site_fract_x
 _atom_site_fract_y
 _atom_site_fract_z
 _atom_site_occupancy
  Na  Na0  1  0.92238547  0.41372769  0.16387171  1
  Na  Na1  1  0.68201962  0.78354417  0.03417067  1
  Na  Na2  1  0.92043514  0.21101915  0.96053380  1
  Na  Na3  1  0.33847115  0.11695728  0.46076800  1
  Na  Na4  1  0.91969814  0.68977248  0.46060336  1
  Na  Na5  1  0.32979422  0.41465969  0.16446225  1
  Na  Na6  1  0.92065344  0.00542907  0.16465485  1
  Na  Na7  1  0.91780913  0.50114283  0.65995579  1
  Na  Na8  1  0.07234668  0.08942891  0.34032003  1
  Na  Na9  1  0.92482487  0.91290201  0.66819360  1
  Na  Na10  1  0.68232710  0.89572149  0.53459744  1
  Na  Na11  1  0.31996899  0.70144370  0.46032857  1
  Na  Na12  1  0.32906619  0.21238770  0.95896084  1
  Na  Na13  1  0.32821129  0.91990122  0.66521053  1
  Na  Na14  1  0.32721587  0.61867358  0.96223273  1
  Na  Na15  1  0.06650955  0.59064830  0.84104504  1
  Bi  Bi16  1  0.49501662  0.00332527  0.99978765  1
  Bi  Bi17  1  0.50833347  0.25118141  0.24881550  1
  Bi  Bi18  1  0.49570827  0.49136273  0.49943179  1
  Bi  Bi19  1  0.49668468  0.75012252  0.25353002  1
  Bi  Bi20  1  0.50109211  0.25243714  0.74940710  1
  Bi  Bi21  1  0.99857787  0.74272335  0.24799113  1
  Bi  Bi22  1  0.50515631  0.75192785  0.75293663  1
  Bi  Bi23  1  -0.00002752  0.24650288  0.74838146  1
  C  C24  1  0.67475156  0.08175041  0.13463290  1
  C  C25  1  0.27218799  0.08841252  0.14197682  1
  C  C26  1  0.71963082  0.42009420  0.35845241  1
  C  C27  1  0.72121429  0.61236137  0.16957070  1
  C  C28  1  0.71886259  0.10696792  0.66968074  1
  C  C29  1  0.72249311  0.80251369  0.36112650  1
  C  C30  1  0.33922615  0.41643606  0.36067843  1
  C  C31  1  0.72154016  0.30231781  0.85866765  1
  C  C32  1  0.27647761  0.18698167  0.63729277  1
  C  C33  1  0.67434391  0.59128428  0.63546773  1
  C  C34  1  0.28299663  0.68907030  0.13615865  1
  C  C35  1  0.27913472  0.59215656  0.63974676  1
  C  C36  1  0.26969546  0.89077427  0.33722081  1
  C  C37  1  0.27013065  0.39066851  0.83717852  1
  C  C38  1  0.71856668  0.91871436  0.86159917  1
  C  C39  1  0.33909969  0.91892060  0.86044378  1
  S  S40  1  0.87378461  0.18439533  0.43728399  1
  S  S41  1  0.12517673  0.31244514  0.06254172  1
  S  S42  1  0.87479719  0.68753024  0.93752288  1
  S  S43  1  0.12522781  0.81192013  0.56260731  1
  O  O44  1  0.67397687  0.13302676  0.06893319  1
  O  O45  1  0.93374888  0.20874348  0.34833940  1
  O  O46  1  0.93241748  0.08784858  0.46566922  1
  O  O47  1  0.67766212  0.15571050  0.19313040  1
  O  O48  1  0.28585014  0.03880139  0.07518557  1
  O  O49  1  0.93395716  0.32872815  0.46725988  1
  O  O50  1  0.69576442  0.09141316  0.46853818  1
  O  O51  1  0.83962087  0.98613458  0.79631428  1
  O  O52  1  0.84475412  0.48141160  0.29478569  1
  O  O53  1  0.71871761  0.48532572  0.17301032  1
  O  O54  1  0.38867727  0.21164366  0.14956203  1
  O  O55  1  0.84045749  0.22870722  0.67390288  1
  O  O56  1  0.59284678  0.29677639  0.35954125  1
  O  O57  1  0.84429136  0.73616438  0.17193945  1
  O  O58  1  0.28307969  0.02398849  0.33750425  1
  O  O59  1  0.30258262  0.40046204  0.03262702  1
  O  O60  1  0.06660135  0.16476455  0.03311543  1
  O  O61  1  0.59032421  0.10617962  0.67335031  1
  O  O62  1  0.71991872  0.48666819  0.42014844  1
  O  O63  1  0.59842419  0.61719499  0.16576462  1
  O  O64  1  0.33183372  0.34925142  0.29924773  1
  O  O65  1  0.85508822  0.81219138  0.35862245  1
  O  O66  1  0.85228290  0.31046690  0.85903028  1
  O  O67  1  0.06572305  0.40177911  0.03312366  1
  O  O68  1  0.06558536  0.28224589  0.15128080  1
  O  O69  1  0.67396957  0.46566340  0.64271882  1
  O  O70  1  0.39290305  0.25064165  0.56988076  1
  O  O71  1  0.67648353  0.95566493  0.14149912  1
  O  O72  1  0.40248525  0.75459095  0.06919803  1
  O  O73  1  0.72039564  0.36050500  0.79475732  1
  O  O74  1  0.34172427  0.35374529  0.42257929  1
  O  O75  1  0.71385914  0.85318394  0.29777083  1
  O  O76  1  0.67271516  0.64330706  0.56954799  1
  O  O77  1  0.29350787  0.13062321  0.69604261  1
  O  O78  1  0.29745978  0.63015564  0.19487366  1
  O  O79  1  0.60032722  0.74060712  0.42667732  1
  O  O80  1  0.59373533  0.23393976  0.92050432  1
  O  O81  1  0.34895852  0.04953007  0.85725428  1
  O  O82  1  0.34861567  0.54736124  0.35970100  1
  O  O83  1  0.93588213  0.59791379  0.96574964  1
  O  O84  1  0.93538033  0.71660736  0.84835379  1
  O  O85  1  0.14179202  0.17600525  0.64494921  1
  O  O86  1  0.68031727  0.66821816  0.69310459  1
  O  O87  1  0.15014357  0.68055733  0.14243797  1
  O  O88  1  0.29171021  0.54147830  0.57399705  1
  O  O89  1  0.38717688  0.87582912  0.33888242  1
  O  O90  1  0.38805026  0.37646266  0.83728057  1
  O  O91  1  0.69656503  0.60102749  0.96822097  1
  O  O92  1  0.93135263  0.83521391  0.96761622  1
  O  O93  1  0.72045236  0.98060412  0.66386925  1
  O  O94  1  0.39847347  0.71793609  0.64598076  1
  O  O95  1  0.13789072  0.27484372  0.83806398  1
  O  O96  1  0.13872621  0.77410806  0.33714087  1
  O  O97  1  0.59263331  0.79425749  0.86202756  1
  O  O98  1  0.28293219  0.52454638  0.83811427  1
  O  O99  1  0.14707276  0.52084837  0.70018798  1
  O  O100  1  0.13797306  0.01467922  0.20133544  1
  O  O101  1  0.30254520  0.89867680  0.53263472  1
  O  O102  1  0.06659092  0.66401234  0.53334400  1
  O  O103  1  0.71926398  0.97620196  0.92616012  1
  O  O104  1  0.32747258  0.84642038  0.80067738  1
  O  O105  1  0.06558792  0.90103776  0.53324268  1
  O  O106  1  0.06580494  0.78139356  0.65137258  1
  O  O107  1  0.34526448  0.85977214  0.92228123  1
