# generated using pymatgen
data_Fe3Cu(PO4)4
_symmetry_space_group_name_H-M   'P 1'
_cell_length_a   4.85071332
_cell_length_b   9.91898021
_cell_length_c   5.91077295
_cell_angle_alpha   90.00000000
_cell_angle_beta   90.00000000
_cell_angle_gamma   89.97473476
_symmetry_Int_Tables_number   1
_chemical_formula_structural   Fe3Cu(PO4)4
_chemical_formula_sum   'Fe3 Cu1 P4 O16'
_cell_volume   284.39166739
_cell_formula_units_Z   1
loop_
 _symmetry_equiv_pos_site_id
 _symmetry_equiv_pos_as_xyz
  1  'x, y, z'
loop_
 _atom_site_type_symbol
 _atom_site_label
 _atom_site_symmetry_multiplicity
 _atom_site_fract_x
 _atom_site_fract_y
 _atom_site_fract_z
 _atom_site_occupancy
  Fe  Fe0  1  0.47109178  0.22696083  0.75000000  1
  Fe  Fe1  1  0.53080283  0.77209604  0.25000000  1
  Fe  Fe2  1  0.96762784  0.27362571  0.25000000  1
  Cu  Cu3  1  0.04466343  0.72376839  0.75000000  1
  P  P4  1  0.08286319  0.59682737  0.25000000  1
  P  P5  1  0.41872832  0.09541987  0.25000000  1
  P  P6  1  0.57673646  0.90152999  0.75000000  1
  P  P7  1  0.91943867  0.40747225  0.75000000  1
  O  O8  1  0.15363997  0.44644668  0.25000000  1
  O  O9  1  0.23357813  0.67182074  0.04934912  1
  O  O10  1  0.23357813  0.67182074  0.45065088  1
  O  O11  1  0.23142060  0.38411347  0.75000000  1
  O  O12  1  0.26216632  0.88814297  0.75000000  1
  O  O13  1  0.27397587  0.17090121  0.04728788  1
  O  O14  1  0.27397587  0.17090121  0.45271212  1
  O  O15  1  0.34536397  0.94564954  0.25000000  1
  O  O16  1  0.65262838  0.05181815  0.75000000  1
  O  O17  1  0.71851559  0.82684840  0.54608401  1
  O  O18  1  0.71851559  0.82684840  0.95391599  1
  O  O19  1  0.73060942  0.11614966  0.25000000  1
  O  O20  1  0.77106074  0.61643852  0.25000000  1
  O  O21  1  0.77499241  0.32937811  0.54769489  1
  O  O22  1  0.77499241  0.32937811  0.95230511  1
  O  O23  1  0.83903405  0.55564165  0.75000000  1
