# generated using pymatgen
data_Na3Ni2P2(CO7)2
_symmetry_space_group_name_H-M   'P 1'
_cell_length_a   8.91187844
_cell_length_b   10.26454812
_cell_length_c   6.48675964
_cell_angle_alpha   90.00000000
_cell_angle_beta   90.00000000
_cell_angle_gamma   88.39276558
_symmetry_Int_Tables_number   1
_chemical_formula_structural   Na3Ni2P2(CO7)2
_chemical_formula_sum   'Na6 Ni4 P4 C4 O28'
_cell_volume   593.15200367
_cell_formula_units_Z   2
loop_
 _symmetry_equiv_pos_site_id
 _symmetry_equiv_pos_as_xyz
  1  'x, y, z'
loop_
 _atom_site_type_symbol
 _atom_site_label
 _atom_site_symmetry_multiplicity
 _atom_site_fract_x
 _atom_site_fract_y
 _atom_site_fract_z
 _atom_site_occupancy
  Na  Na0  1  0.25349261  0.12296750  0.03394256  1
  Na  Na1  1  0.25349261  0.62296750  0.46605744  1
  Na  Na2  1  0.74950703  0.37990390  0.51362184  1
  Na  Na3  1  0.75134150  0.37795241  0.98598518  1
  Na  Na4  1  0.75134150  0.87795241  0.51401482  1
  Na  Na5  1  0.74950703  0.87990390  0.98637816  1
  Ni  Ni6  1  0.34399368  0.39230402  0.75048180  1
  Ni  Ni7  1  0.34399368  0.89230402  0.74951820  1
  Ni  Ni8  1  0.65127530  0.10902358  0.25190429  1
  Ni  Ni9  1  0.65127530  0.60902358  0.24809571  1
  P  P10  1  0.42352719  0.35817007  0.24864677  1
  P  P11  1  0.42352719  0.85817007  0.25135323  1
  P  P12  1  0.57181624  0.14101803  0.75136795  1
  P  P13  1  0.57181624  0.64101803  0.74863205  1
  C  C14  1  0.07435056  0.35564401  0.74655508  1
  C  C15  1  0.07435056  0.85564401  0.75344492  1
  C  C16  1  0.92236874  0.14163365  0.25227984  1
  C  C17  1  0.92236874  0.64163365  0.24772016  1
  O  O18  1  0.06001034  0.16047501  0.25096876  1
  O  O19  1  0.06001034  0.66047501  0.24903124  1
  O  O20  1  0.13198432  0.47026704  0.73987604  1
  O  O21  1  0.13198432  0.97026704  0.76012396  1
  O  O22  1  0.17604306  0.26209168  0.75295591  1
  O  O23  1  0.17604306  0.76209168  0.74704409  1
  O  O24  1  0.32253167  0.38900326  0.06091356  1
  O  O25  1  0.32717789  0.39886337  0.43624272  1
  O  O26  1  0.32717789  0.89886337  0.06375728  1
  O  O27  1  0.32253167  0.88900326  0.43908644  1
  O  O28  1  0.42297807  0.06976540  0.75856083  1
  O  O29  1  0.42297807  0.56976540  0.74143917  1
  O  O30  1  0.46349577  0.20937361  0.24676060  1
  O  O31  1  0.46349577  0.70937361  0.25323940  1
  O  O32  1  0.53972975  0.29197443  0.75071323  1
  O  O33  1  0.53972975  0.79197443  0.74928677  1
  O  O34  1  0.57471980  0.42969862  0.24595832  1
  O  O35  1  0.57471980  0.92969862  0.25404168  1
  O  O36  1  0.67106661  0.10304119  0.56354160  1
  O  O37  1  0.67431211  0.10524222  0.93812996  1
  O  O38  1  0.67431211  0.60524222  0.56187004  1
  O  O39  1  0.67106661  0.60304119  0.93645840  1
  O  O40  1  0.82127457  0.23725088  0.25318444  1
  O  O41  1  0.82127457  0.73725088  0.24681556  1
  O  O42  1  0.86321688  0.02685173  0.25206501  1
  O  O43  1  0.86321688  0.52685173  0.24793499  1
  O  O44  1  0.93507132  0.33697737  0.74806229  1
  O  O45  1  0.93507132  0.83697737  0.75193771  1
