# generated using pymatgen
data_Na3Ni2P2(CO7)2
_symmetry_space_group_name_H-M   'P 1'
_cell_length_a   8.84816432
_cell_length_b   5.16493904
_cell_length_c   13.03304251
_cell_angle_alpha   89.91667331
_cell_angle_beta   90.90556955
_cell_angle_gamma   88.41934219
_symmetry_Int_Tables_number   1
_chemical_formula_structural   Na3Ni2P2(CO7)2
_chemical_formula_sum   'Na6 Ni4 P4 C4 O28'
_cell_volume   595.31096312
_cell_formula_units_Z   2
loop_
 _symmetry_equiv_pos_site_id
 _symmetry_equiv_pos_as_xyz
  1  'x, y, z'
loop_
 _atom_site_type_symbol
 _atom_site_label
 _atom_site_symmetry_multiplicity
 _atom_site_fract_x
 _atom_site_fract_y
 _atom_site_fract_z
 _atom_site_occupancy
  Na  Na0  1  0.25078728  0.24516670  0.00150450  1
  Na  Na1  1  0.25178961  0.24663388  0.24315728  1
  Na  Na2  1  0.25717175  0.24364420  0.51678814  1
  Na  Na3  1  0.74282825  0.75635580  0.48321186  1
  Na  Na4  1  0.74821039  0.75336612  0.75684272  1
  Na  Na5  1  0.74921272  0.75483330  0.99849550  1
  Ni  Ni6  1  0.34497927  0.78147423  0.37496947  1
  Ni  Ni7  1  0.34238186  0.78266413  0.87061279  1
  Ni  Ni8  1  0.65761814  0.21733587  0.12938721  1
  Ni  Ni9  1  0.65502073  0.21852577  0.62503053  1
  P  P10  1  0.42640412  0.72108458  0.12541489  1
  P  P11  1  0.42396023  0.71722792  0.62498808  1
  P  P12  1  0.57603977  0.28277208  0.37501192  1
  P  P13  1  0.57359588  0.27891542  0.87458511  1
  C  C14  1  0.07193652  0.71430705  0.37343084  1
  C  C15  1  0.07142897  0.71405396  0.87498780  1
  C  C16  1  0.92806348  0.28569295  0.62656916  1
  C  C17  1  0.92857103  0.28594604  0.12501220  1
  O  O18  1  0.06836719  0.32380055  0.12202023  1
  O  O19  1  0.06691589  0.32412025  0.62659981  1
  O  O20  1  0.13014250  0.94246819  0.37240822  1
  O  O21  1  0.12933566  0.94129150  0.87474415  1
  O  O22  1  0.17351179  0.52460910  0.37490228  1
  O  O23  1  0.17303739  0.52766346  0.87174893  1
  O  O24  1  0.32097057  0.79083046  0.53129491  1
  O  O25  1  0.32241936  0.78622356  0.03110319  1
  O  O26  1  0.32621051  0.79115363  0.21848256  1
  O  O27  1  0.32385719  0.78671428  0.71678154  1
  O  O28  1  0.42439467  0.13864169  0.37580068  1
  O  O29  1  0.42466904  0.13280564  0.87648014  1
  O  O30  1  0.46379799  0.42199121  0.12561642  1
  O  O31  1  0.46499762  0.42212338  0.62079274  1
  O  O32  1  0.53500238  0.57787662  0.37920726  1
  O  O33  1  0.53620201  0.57800879  0.87438358  1
  O  O34  1  0.57560533  0.86135831  0.62419932  1
  O  O35  1  0.57533096  0.86719436  0.12351986  1
  O  O36  1  0.67378949  0.20884637  0.78151744  1
  O  O37  1  0.67758064  0.21377644  0.96889681  1
  O  O38  1  0.67614281  0.21328572  0.28321846  1
  O  O39  1  0.67902943  0.20916954  0.46870509  1
  O  O40  1  0.82696261  0.47233654  0.12825107  1
  O  O41  1  0.82648821  0.47539090  0.62509772  1
  O  O42  1  0.86985750  0.05753181  0.62759178  1
  O  O43  1  0.87066434  0.05870850  0.12525585  1
  O  O44  1  0.93163281  0.67619945  0.87797977  1
  O  O45  1  0.93308411  0.67587975  0.37340019  1
