# generated using pymatgen
data_Li2FeF5
_symmetry_space_group_name_H-M   'P 1'
_cell_length_a   9.85345281
_cell_length_b   5.13360290
_cell_length_c   7.35941942
_cell_angle_alpha   90.00000000
_cell_angle_beta   110.23927069
_cell_angle_gamma   90.00000000
_symmetry_Int_Tables_number   1
_chemical_formula_structural   Li2FeF5
_chemical_formula_sum   'Li8 Fe4 F20'
_cell_volume   349.28157724
_cell_formula_units_Z   4
loop_
 _symmetry_equiv_pos_site_id
 _symmetry_equiv_pos_as_xyz
  1  'x, y, z'
loop_
 _atom_site_type_symbol
 _atom_site_label
 _atom_site_symmetry_multiplicity
 _atom_site_fract_x
 _atom_site_fract_y
 _atom_site_fract_z
 _atom_site_occupancy
  Li  Li0  1  0.25683456  0.24707778  0.52669501  1
  Li  Li1  1  0.25683456  0.25292222  0.02669501  1
  Li  Li2  1  0.50628369  0.71713475  0.61133227  1
  Li  Li3  1  0.49371631  0.21713475  0.88866773  1
  Li  Li4  1  0.50628369  0.78286525  0.11133227  1
  Li  Li5  1  0.49371631  0.28286525  0.38866773  1
  Li  Li6  1  0.74316544  0.74707778  0.97330499  1
  Li  Li7  1  0.74316544  0.75292222  0.47330499  1
  Fe  Fe8  1  0.14815337  0.75177680  0.78675434  1
  Fe  Fe9  1  0.14815337  0.74822320  0.28675434  1
  Fe  Fe10  1  0.85184663  0.25177680  0.71324566  1
  Fe  Fe11  1  0.85184663  0.24822320  0.21324566  1
  F  F12  1  0.04618463  0.42664742  0.83432583  1
  F  F13  1  0.04618463  0.07335258  0.33432583  1
  F  F14  1  0.14365350  0.59660502  0.53870241  1
  F  F15  1  0.14365350  0.90339498  0.03870241  1
  F  F16  1  0.23919972  0.06543965  0.75642075  1
  F  F17  1  0.32118653  0.57910855  0.93045000  1
  F  F18  1  0.23919972  0.43456035  0.25642075  1
  F  F19  1  0.32118653  0.92089145  0.43045000  1
  F  F20  1  0.44533160  0.37075679  0.63271528  1
  F  F21  1  0.44533160  0.12924321  0.13271528  1
  F  F22  1  0.55466840  0.87075679  0.86728472  1
  F  F23  1  0.55466840  0.62924321  0.36728472  1
  F  F24  1  0.67881347  0.07910855  0.56955000  1
  F  F25  1  0.76080028  0.56543965  0.74357925  1
  F  F26  1  0.67881347  0.42089145  0.06955000  1
  F  F27  1  0.76080028  0.93456035  0.24357925  1
  F  F28  1  0.85634650  0.09660502  0.96129759  1
  F  F29  1  0.85634650  0.40339498  0.46129759  1
  F  F30  1  0.95381537  0.92664742  0.66567417  1
  F  F31  1  0.95381537  0.57335258  0.16567417  1
