# generated using pymatgen
data_CaSn4S9
_symmetry_space_group_name_H-M   'P 1'
_cell_length_a   3.87017948
_cell_length_b   22.27589409
_cell_length_c   9.86134391
_cell_angle_alpha   90.00000000
_cell_angle_beta   90.00000000
_cell_angle_gamma   90.00000000
_symmetry_Int_Tables_number   1
_chemical_formula_structural   CaSn4S9
_chemical_formula_sum   'Ca2 Sn8 S18'
_cell_volume   850.16330369
_cell_formula_units_Z   2
loop_
 _symmetry_equiv_pos_site_id
 _symmetry_equiv_pos_as_xyz
  1  'x, y, z'
loop_
 _atom_site_type_symbol
 _atom_site_label
 _atom_site_symmetry_multiplicity
 _atom_site_fract_x
 _atom_site_fract_y
 _atom_site_fract_z
 _atom_site_occupancy
  Ca  Ca0  1  0.75000000  0.25000000  0.58517259  1
  Ca  Ca1  1  0.25000000  0.75000000  0.41482741  1
  Sn  Sn2  1  0.25000000  0.40180841  0.81982209  1
  Sn  Sn3  1  0.25000000  0.09819159  0.81982209  1
  Sn  Sn4  1  0.75000000  0.59819159  0.18017791  1
  Sn  Sn5  1  0.75000000  0.90180841  0.18017791  1
  Sn  Sn6  1  0.25000000  0.34954686  0.22765162  1
  Sn  Sn7  1  0.25000000  0.15045314  0.22765162  1
  Sn  Sn8  1  0.75000000  0.65045314  0.77234838  1
  Sn  Sn9  1  0.75000000  0.84954686  0.77234838  1
  S  S10  1  0.25000000  0.96924333  0.16582844  1
  S  S11  1  0.25000000  0.53075667  0.16582844  1
  S  S12  1  0.75000000  0.03075667  0.83417156  1
  S  S13  1  0.75000000  0.46924333  0.83417156  1
  S  S14  1  0.25000000  0.90244788  0.67926862  1
  S  S15  1  0.25000000  0.59755212  0.67926862  1
  S  S16  1  0.75000000  0.09755212  0.32073138  1
  S  S17  1  0.75000000  0.40244788  0.32073138  1
  S  S18  1  0.25000000  0.32226468  0.99332379  1
  S  S19  1  0.25000000  0.17773532  0.99332379  1
  S  S20  1  0.75000000  0.67773532  0.00667621  1
  S  S21  1  0.75000000  0.82226468  0.00667621  1
  S  S22  1  0.25000000  0.33841112  0.62724537  1
  S  S23  1  0.25000000  0.16158888  0.62724537  1
  S  S24  1  0.75000000  0.66158888  0.37275463  1
  S  S25  1  0.75000000  0.83841112  0.37275463  1
  S  S26  1  0.25000000  0.25000000  0.34867052  1
  S  S27  1  0.75000000  0.75000000  0.65132948  1
