# generated using pymatgen
data_Li4V3Ni3(WO8)2
_symmetry_space_group_name_H-M   'P 1'
_cell_length_a   5.95148825
_cell_length_b   5.99798953
_cell_length_c   9.72156853
_cell_angle_alpha   90.00274559
_cell_angle_beta   90.15054565
_cell_angle_gamma   120.26026601
_symmetry_Int_Tables_number   1
_chemical_formula_structural   Li4V3Ni3(WO8)2
_chemical_formula_sum   'Li4 V3 Ni3 W2 O16'
_cell_volume   299.74451187
_cell_formula_units_Z   1
loop_
 _symmetry_equiv_pos_site_id
 _symmetry_equiv_pos_as_xyz
  1  'x, y, z'
loop_
 _atom_site_type_symbol
 _atom_site_label
 _atom_site_symmetry_multiplicity
 _atom_site_fract_x
 _atom_site_fract_y
 _atom_site_fract_z
 _atom_site_occupancy
  Li  Li0  1  0.32690476  0.66345862  0.90327991  1
  Li  Li1  1  0.00397949  0.00201156  0.98689949  1
  Li  Li2  1  0.99871908  0.99938166  0.48943575  1
  Li  Li3  1  0.66417687  0.33210612  0.40484652  1
  V  V4  1  0.18148122  0.83671346  0.21721839  1
  V  V5  1  0.18145713  0.34476138  0.21721537  1
  V  V6  1  0.35009141  0.17505794  0.72379618  1
  Ni  Ni7  1  0.65831706  0.82916365  0.21134765  1
  Ni  Ni8  1  0.82741428  0.65929918  0.71124201  1
  Ni  Ni9  1  0.82741026  0.16815114  0.71123754  1
  W  W10  1  0.33259624  0.66630549  0.48979463  1
  W  W11  1  0.68081655  0.34041928  0.98946611  1
  O  O12  1  0.17684589  0.83051996  0.59026311  1
  O  O13  1  0.03951636  0.51976189  0.35280110  1
  O  O14  1  0.31731520  0.65865206  0.10519673  1
  O  O15  1  0.00338051  0.00169057  0.30106163  1
  O  O16  1  0.01878960  0.00943532  0.79736419  1
  O  O17  1  0.17685289  0.34634929  0.59025757  1
  O  O18  1  0.47541806  0.95973383  0.35030010  1
  O  O19  1  0.47539801  0.51568747  0.35028752  1
  O  O20  1  0.35543126  0.17771300  0.09187538  1
  O  O21  1  0.65677637  0.82838717  0.58591693  1
  O  O22  1  0.50655425  0.46853159  0.85150514  1
  O  O23  1  0.50652894  0.03803732  0.85148864  1
  O  O24  1  0.63334392  0.31668147  0.60921750  1
  O  O25  1  0.83511852  0.65971059  0.08714372  1
  O  O26  1  0.95425603  0.47715132  0.85024921  1
  O  O27  1  0.83510785  0.17542869  0.08713397  1
