# generated using pymatgen
data_LiV4OF11
_symmetry_space_group_name_H-M   'P 1'
_cell_length_a   5.25769185
_cell_length_b   5.52291099
_cell_length_c   9.03582467
_cell_angle_alpha   73.31818214
_cell_angle_beta   89.56694680
_cell_angle_gamma   61.95906867
_symmetry_Int_Tables_number   1
_chemical_formula_structural   LiV4OF11
_chemical_formula_sum   'Li1 V4 O1 F11'
_cell_volume   219.30102369
_cell_formula_units_Z   1
loop_
 _symmetry_equiv_pos_site_id
 _symmetry_equiv_pos_as_xyz
  1  'x, y, z'
loop_
 _atom_site_type_symbol
 _atom_site_label
 _atom_site_symmetry_multiplicity
 _atom_site_fract_x
 _atom_site_fract_y
 _atom_site_fract_z
 _atom_site_occupancy
  Li  Li0  1  0.14187102  0.71480498  0.37028596  1
  V  V1  1  0.24872759  0.49357830  0.75712640  1
  V  V2  1  0.49923407  -0.00085018  0.50114893  1
  V  V3  1  0.76097585  0.51734545  0.23831708  1
  V  V4  1  0.99500708  0.98797574  0.00846381  1
  O  O5  1  0.93128646  0.74988157  0.18312154  1
  F  F6  1  0.06935177  0.25658094  0.43043476  1
  F  F7  1  0.06817228  0.25224684  0.82304668  1
  F  F8  1  0.01058084  0.76104944  0.86580758  1
  F  F9  1  0.47422869  0.25524274  0.62080894  1
  F  F10  1  0.57298513  0.25625137  0.32754927  1
  F  F11  1  0.56346347  0.25162721  0.93055702  1
  F  F12  1  0.43319708  0.73873173  0.06940024  1
  F  F13  1  0.42906978  0.74353413  0.67661687  1
  F  F14  1  0.49154881  0.75769772  0.37710602  1
  F  F15  1  0.00101960  0.23360909  0.12958268  1
  F  F16  1  0.94222849  0.74382693  0.55825622  1
