# generated using pymatgen
data_Li3Co2(GeO4)2
_symmetry_space_group_name_H-M   'P 1'
_cell_length_a   6.32182503
_cell_length_b   5.61055920
_cell_length_c   5.14048089
_cell_angle_alpha   89.37235821
_cell_angle_beta   89.93617059
_cell_angle_gamma   89.74859104
_symmetry_Int_Tables_number   1
_chemical_formula_structural   Li3Co2(GeO4)2
_chemical_formula_sum   'Li3 Co2 Ge2 O8'
_cell_volume   182.31478285
_cell_formula_units_Z   1
loop_
 _symmetry_equiv_pos_site_id
 _symmetry_equiv_pos_as_xyz
  1  'x, y, z'
loop_
 _atom_site_type_symbol
 _atom_site_label
 _atom_site_symmetry_multiplicity
 _atom_site_fract_x
 _atom_site_fract_y
 _atom_site_fract_z
 _atom_site_occupancy
  Li  Li0  1  0.24870653  0.33866742  0.99170854  1
  Li  Li1  1  0.74976931  0.33560025  0.99331145  1
  Li  Li2  1  0.75112540  0.66612149  0.49985534  1
  Co  Co3  1  0.00395476  0.83247339  0.00309616  1
  Co  Co4  1  0.49822431  0.16673956  0.49126355  1
  Ge  Ge5  1  0.99830868  0.15935121  0.49752164  1
  Ge  Ge6  1  0.50073757  0.83572664  0.00342197  1
  O  O7  1  0.99847615  0.15610795  0.84641047  1
  O  O8  1  0.97815505  0.86868775  0.37324645  1
  O  O9  1  0.23427098  0.29273251  0.37890540  1
  O  O10  1  0.26806556  0.68049214  0.92065800  1
  O  O11  1  0.50017467  0.13616486  0.87166342  1
  O  O12  1  0.52162894  0.85935639  0.34695016  1
  O  O13  1  0.73359272  0.68102238  0.89187182  1
  O  O14  1  0.76510937  0.32459907  0.39536662  1
