# generated using pymatgen
data_Sr2Ti6N2O11
_symmetry_space_group_name_H-M   'P 1'
_cell_length_a   3.85095386
_cell_length_b   7.84652577
_cell_length_c   9.30616311
_cell_angle_alpha   81.39181555
_cell_angle_beta   89.99999998
_cell_angle_gamma   75.79498534
_symmetry_Int_Tables_number   1
_chemical_formula_structural   Sr2Ti6N2O11
_chemical_formula_sum   'Sr2 Ti6 N2 O11'
_cell_volume   269.33383413
_cell_formula_units_Z   1
loop_
 _symmetry_equiv_pos_site_id
 _symmetry_equiv_pos_as_xyz
  1  'x, y, z'
loop_
 _atom_site_type_symbol
 _atom_site_label
 _atom_site_symmetry_multiplicity
 _atom_site_fract_x
 _atom_site_fract_y
 _atom_site_fract_z
 _atom_site_occupancy
  Sr  Sr0  1  0.55521444  0.88957112  0.76169271  1
  Sr  Sr1  1  0.45538490  0.08922920  0.22710358  1
  Ti  Ti2  1  0.12129409  0.75741281  0.08675045  1
  Ti  Ti3  1  0.16596928  0.66806144  0.44206073  1
  Ti  Ti4  1  0.24169206  0.51661687  0.75723032  1
  Ti  Ti5  1  0.76844606  0.46310788  0.23140894  1
  Ti  Ti6  1  0.83251748  0.33496504  0.56488733  1
  Ti  Ti7  1  0.88806724  0.22386552  0.88957462  1
  N  N8  1  0.29278846  0.41442209  0.57920584  1
  N  N9  1  0.93197498  0.13604903  0.71314223  1
  O  O10  1  0.06851678  0.86296645  0.29443192  1
  O  O11  1  0.12278929  0.75442241  0.61667123  1
  O  O12  1  0.15456812  0.69086376  0.90431741  1
  O  O13  1  0.63965143  0.72069615  0.11327459  1
  O  O14  1  0.69717623  0.60564654  0.42587915  1
  O  O15  1  0.75512369  0.48975362  0.76809277  1
  O  O16  1  0.24014188  0.51971623  0.23873837  1
  O  O17  1  0.35858822  0.28282456  0.89157131  1
  O  O18  1  0.83857227  0.32285547  0.09824990  1
  O  O19  1  0.87218821  0.25562259  0.38259755  1
  O  O20  1  0.99933389  0.00133221  0.01311907  1
