# generated using pymatgen
data_ZrO2
_symmetry_space_group_name_H-M   'P 1'
_cell_length_a   10.05058224
_cell_length_b   5.86500629
_cell_length_c   5.66534763
_cell_angle_alpha   90.00000000
_cell_angle_beta   90.00000000
_cell_angle_gamma   90.00000000
_symmetry_Int_Tables_number   1
_chemical_formula_structural   ZrO2
_chemical_formula_sum   'Zr8 O16'
_cell_volume   333.95370609
_cell_formula_units_Z   8
loop_
 _symmetry_equiv_pos_site_id
 _symmetry_equiv_pos_as_xyz
  1  'x, y, z'
loop_
 _atom_site_type_symbol
 _atom_site_label
 _atom_site_symmetry_multiplicity
 _atom_site_fract_x
 _atom_site_fract_y
 _atom_site_fract_z
 _atom_site_occupancy
  Zr  Zr0  1  0.13001758  0.09866311  0.85736225  1
  Zr  Zr1  1  0.13001758  0.40133689  0.35736225  1
  Zr  Zr2  1  0.36998242  0.59866311  0.85736225  1
  Zr  Zr3  1  0.36998242  0.90133689  0.35736225  1
  Zr  Zr4  1  0.63001758  0.09866311  0.64263775  1
  Zr  Zr5  1  0.63001758  0.40133689  0.14263775  1
  Zr  Zr6  1  0.86998242  0.59866311  0.64263775  1
  Zr  Zr7  1  0.86998242  0.90133689  0.14263775  1
  O  O8  1  0.01496949  0.15028472  0.17436523  1
  O  O9  1  0.01496949  0.34971528  0.67436523  1
  O  O10  1  0.23109081  0.11857386  0.52935228  1
  O  O11  1  0.23109081  0.38142614  0.02935228  1
  O  O12  1  0.26890919  0.61857386  0.52935228  1
  O  O13  1  0.26890919  0.88142614  0.02935228  1
  O  O14  1  0.48503051  0.84971528  0.67436523  1
  O  O15  1  0.48503051  0.65028472  0.17436523  1
  O  O16  1  0.51496949  0.15028472  0.32563477  1
  O  O17  1  0.51496949  0.34971528  0.82563477  1
  O  O18  1  0.73109081  0.11857386  0.97064772  1
  O  O19  1  0.73109081  0.38142614  0.47064772  1
  O  O20  1  0.76890919  0.61857386  0.97064772  1
  O  O21  1  0.76890919  0.88142614  0.47064772  1
  O  O22  1  0.98503051  0.65028472  0.32563477  1
  O  O23  1  0.98503051  0.84971528  0.82563477  1
