# generated using pymatgen
data_Li6Ni2C4SO16
_symmetry_space_group_name_H-M   'P 1'
_cell_length_a   9.31641043
_cell_length_b   9.31641059
_cell_length_c   9.31641042
_cell_angle_alpha   60.00000183
_cell_angle_beta   59.99999995
_cell_angle_gamma   60.00000054
_symmetry_Int_Tables_number   1
_chemical_formula_structural   Li6Ni2C4SO16
_chemical_formula_sum   'Li12 Ni4 C8 S2 O32'
_cell_volume   571.78249567
_cell_formula_units_Z   2
loop_
 _symmetry_equiv_pos_site_id
 _symmetry_equiv_pos_as_xyz
  1  'x, y, z'
loop_
 _atom_site_type_symbol
 _atom_site_label
 _atom_site_symmetry_multiplicity
 _atom_site_fract_x
 _atom_site_fract_y
 _atom_site_fract_z
 _atom_site_occupancy
  Li  Li0  1  0.09422496  0.65577504  0.09422496  1
  Li  Li1  1  0.09422496  0.09422496  0.65577504  1
  Li  Li2  1  0.65577504  0.09422496  0.09422496  1
  Li  Li3  1  0.09422496  0.65577504  0.65577504  1
  Li  Li4  1  0.34422496  0.34422496  0.90577504  1
  Li  Li5  1  0.34422496  0.90577504  0.34422496  1
  Li  Li6  1  0.65577504  0.09422496  0.65577504  1
  Li  Li7  1  0.65577504  0.65577504  0.09422496  1
  Li  Li8  1  0.90577504  0.34422496  0.34422496  1
  Li  Li9  1  0.34422496  0.90577504  0.90577504  1
  Li  Li10  1  0.90577504  0.34422496  0.90577504  1
  Li  Li11  1  0.90577504  0.90577504  0.34422496  1
  Ni  Ni12  1  0.00000000  0.50000000  0.50000000  1
  Ni  Ni13  1  0.50000000  0.00000000  0.50000000  1
  Ni  Ni14  1  0.50000000  0.50000000  0.00000000  1
  Ni  Ni15  1  0.50000000  0.50000000  0.50000000  1
  C  C16  1  0.27678661  0.27678661  0.27678661  1
  C  C17  1  0.27678661  0.66964117  0.27678661  1
  C  C18  1  0.27678661  0.27678661  0.66964117  1
  C  C19  1  0.66964117  0.27678661  0.27678661  1
  C  C20  1  0.33035883  0.72321339  0.72321339  1
  C  C21  1  0.72321339  0.72321339  0.33035883  1
  C  C22  1  0.72321339  0.33035883  0.72321339  1
  C  C23  1  0.72321339  0.72321339  0.72321339  1
  S  S24  1  0.12500000  0.12500000  0.12500000  1
  S  S25  1  0.87500000  0.87500000  0.87500000  1
  O  O26  1  0.05944780  0.05944780  0.05944780  1
  O  O27  1  0.05944780  0.05944780  0.32165761  1
  O  O28  1  0.05944780  0.32165761  0.05944780  1
  O  O29  1  0.32165761  0.05944780  0.05944780  1
  O  O30  1  0.13200724  0.41006464  0.28718082  1
  O  O31  1  0.28718082  0.13200724  0.41006464  1
  O  O32  1  0.13200724  0.28718082  0.67074630  1
  O  O33  1  0.41006464  0.28718082  0.13200724  1
  O  O34  1  0.13200724  0.67074630  0.41006464  1
  O  O35  1  0.28718082  0.67074630  0.13200724  1
  O  O36  1  0.41006464  0.13200724  0.67074630  1
  O  O37  1  0.28718082  0.41006464  0.67074630  1
  O  O38  1  0.67074630  0.13200724  0.28718082  1
  O  O39  1  0.41006464  0.67074630  0.28718082  1
  O  O40  1  0.67074630  0.41006464  0.13200724  1
  O  O41  1  0.32925370  0.71281918  0.58993536  1
  O  O42  1  0.67074630  0.28718082  0.41006464  1
  O  O43  1  0.32925370  0.58993536  0.86799276  1
  O  O44  1  0.58993536  0.32925370  0.71281918  1
  O  O45  1  0.32925370  0.86799276  0.71281918  1
  O  O46  1  0.71281918  0.58993536  0.32925370  1
  O  O47  1  0.58993536  0.86799276  0.32925370  1
  O  O48  1  0.71281918  0.32925370  0.86799276  1
  O  O49  1  0.86799276  0.32925370  0.58993536  1
  O  O50  1  0.58993536  0.71281918  0.86799276  1
  O  O51  1  0.86799276  0.71281918  0.32925370  1
  O  O52  1  0.71281918  0.86799276  0.58993536  1
  O  O53  1  0.86799276  0.58993536  0.71281918  1
  O  O54  1  0.67834239  0.94055220  0.94055220  1
  O  O55  1  0.94055220  0.67834239  0.94055220  1
  O  O56  1  0.94055220  0.94055220  0.67834239  1
  O  O57  1  0.94055220  0.94055220  0.94055220  1
