# generated using pymatgen
data_Mn6O5F7
_symmetry_space_group_name_H-M   'P 1'
_cell_length_a   7.17494312
_cell_length_b   5.72129703
_cell_length_c   5.72129703
_cell_angle_alpha   75.45102536
_cell_angle_beta   74.32460426
_cell_angle_gamma   74.32460426
_symmetry_Int_Tables_number   1
_chemical_formula_structural   Mn6O5F7
_chemical_formula_sum   'Mn6 O5 F7'
_cell_volume   213.65335158
_cell_formula_units_Z   1
loop_
 _symmetry_equiv_pos_site_id
 _symmetry_equiv_pos_as_xyz
  1  'x, y, z'
loop_
 _atom_site_type_symbol
 _atom_site_label
 _atom_site_symmetry_multiplicity
 _atom_site_fract_x
 _atom_site_fract_y
 _atom_site_fract_z
 _atom_site_occupancy
  Mn  Mn0  1  0.83333300  0.66777657  0.66555643  1
  Mn  Mn1  1  0.67869279  0.33060879  0.33745588  1
  Mn  Mn2  1  0.33333300  0.68741761  0.64591539  1
  Mn  Mn3  1  0.16366028  0.30434596  0.32697921  1
  Mn  Mn4  1  0.50300672  0.00635379  0.02898804  1
  Mn  Mn5  1  0.98797321  0.99587712  0.00272421  1
  O  O6  1  0.63459640  0.56708176  0.55381568  1
  O  O7  1  0.96527402  0.21788180  0.22873450  1
  O  O8  1  0.70139298  0.10459950  0.11545120  1
  O  O9  1  0.03207060  0.77951732  0.76625124  1
  O  O10  1  0.33333300  0.98013717  0.35319683  1
  F  F11  1  0.65236708  0.02554185  0.66699686  1
  F  F12  1  0.33333300  0.38534657  0.94798743  1
  F  F13  1  0.29407915  0.91557601  0.91300902  1
  F  F14  1  0.37258785  0.42032398  0.41775699  1
  F  F15  1  0.66417771  0.63652492  0.02457987  1
  F  F16  1  0.00248929  0.30875313  0.69680808  1
  F  F17  1  0.01429992  0.66633614  0.30779215  1
