# generated using pymatgen
data_Li4Ti2V3Fe3O16
_symmetry_space_group_name_H-M   'P 1'
_cell_length_a   5.93147311
_cell_length_b   5.95100080
_cell_length_c   9.60162401
_cell_angle_alpha   90.05550580
_cell_angle_beta   89.24374299
_cell_angle_gamma   120.08984436
_symmetry_Int_Tables_number   1
_chemical_formula_structural   Li4Ti2V3Fe3O16
_chemical_formula_sum   'Li4 Ti2 V3 Fe3 O16'
_cell_volume   293.21549770
_cell_formula_units_Z   1
loop_
 _symmetry_equiv_pos_site_id
 _symmetry_equiv_pos_as_xyz
  1  'x, y, z'
loop_
 _atom_site_type_symbol
 _atom_site_label
 _atom_site_symmetry_multiplicity
 _atom_site_fract_x
 _atom_site_fract_y
 _atom_site_fract_z
 _atom_site_occupancy
  Li  Li0  1  0.33347248  0.66777683  0.89810634  1
  Li  Li1  1  0.99603014  0.99768983  0.99554969  1
  Li  Li2  1  0.99671279  0.99843294  0.49133415  1
  Li  Li3  1  0.66922443  0.33444556  0.39743618  1
  Ti  Ti4  1  0.32274012  0.66081372  0.48232348  1
  Ti  Ti5  1  0.67982405  0.33896656  0.00053443  1
  V  V6  1  0.81982901  0.65743153  0.71588330  1
  V  V7  1  0.65697315  0.82842994  0.21885286  1
  V  V8  1  0.82322113  0.16655801  0.71685845  1
  Fe  Fe9  1  0.17569920  0.83315254  0.21355465  1
  Fe  Fe10  1  0.17596675  0.34215306  0.21352331  1
  Fe  Fe11  1  0.33485433  0.16548005  0.70855113  1
  O  O12  1  0.14990472  0.82158331  0.60003292  1
  O  O13  1  0.04142994  0.52059491  0.34763917  1
  O  O14  1  0.34077408  0.67030587  0.10457987  1
  O  O15  1  0.00060347  0.00019375  0.30397914  1
  O  O16  1  0.99546858  0.99834052  0.80824279  1
  O  O17  1  0.15270177  0.32794570  0.59935585  1
  O  O18  1  0.48045334  0.95961774  0.35131150  1
  O  O19  1  0.48133346  0.52096516  0.35123408  1
  O  O20  1  0.34122874  0.17068656  0.08857827  1
  O  O21  1  0.66760567  0.83519679  0.60205510  1
  O  O22  1  0.53295106  0.49298490  0.83398702  1
  O  O23  1  0.53239055  0.04327412  0.83591912  1
  O  O24  1  0.67572597  0.33675206  0.60268096  1
  O  O25  1  0.83119912  0.65944291  0.09332033  1
  O  O26  1  0.96066844  0.47950087  0.83832234  1
  O  O27  1  0.83101351  0.17158026  0.09409356  1
