# generated using pymatgen
data_Li9Mn2Co5O16
_symmetry_space_group_name_H-M   'P 1'
_cell_length_a   2.88159717
_cell_length_b   19.56328928
_cell_length_c   5.22985327
_cell_angle_alpha   97.66999323
_cell_angle_beta   90.00000000
_cell_angle_gamma   90.00000000
_symmetry_Int_Tables_number   1
_chemical_formula_structural   Li9Mn2Co5O16
_chemical_formula_sum   'Li9 Mn2 Co5 O16'
_cell_volume   292.18750060
_cell_formula_units_Z   1
loop_
 _symmetry_equiv_pos_site_id
 _symmetry_equiv_pos_as_xyz
  1  'x, y, z'
loop_
 _atom_site_type_symbol
 _atom_site_label
 _atom_site_symmetry_multiplicity
 _atom_site_fract_x
 _atom_site_fract_y
 _atom_site_fract_z
 _atom_site_occupancy
  Li  Li0  1  0.50000000  0.00483757  0.50394898  1
  Li  Li1  1  -0.00000000  0.12762050  0.75542929  1
  Li  Li2  1  0.50000000  0.25377356  0.00353412  1
  Li  Li3  1  0.00000000  0.37699203  0.24772932  1
  Li  Li4  1  0.50000000  0.50053118  0.51928274  1
  Li  Li5  1  0.00000000  0.86976680  0.25613874  1
  Li  Li6  1  0.50000000  0.74044806  0.96843344  1
  Li  Li7  1  -0.00000000  0.62626905  0.74696217  1
  Li  Li8  1  0.50000000  0.62431711  0.25269584  1
  Mn  Mn9  1  0.00000000  0.00185298  -0.00089748  1
  Mn  Mn10  1  0.50000000  0.87273569  0.74415225  1
  Co  Co11  1  0.50000000  0.12763856  0.25809393  1
  Co  Co12  1  0.00000000  0.25180862  0.50587145  1
  Co  Co13  1  0.50000000  0.37770292  0.74927050  1
  Co  Co14  1  0.00000000  0.50736815  0.04058686  1
  Co  Co15  1  -0.00000000  0.73790568  0.45574933  1
  O  O16  1  0.50000000  0.93960137  0.08464397  1
  O  O17  1  0.00000000  0.06720886  0.37381860  1
  O  O18  1  0.50000000  0.19295759  0.59653119  1
  O  O19  1  0.00000000  0.31652416  0.87157125  1
  O  O20  1  0.50000000  0.44246397  0.09371140  1
  O  O21  1  0.00000000  0.82256038  0.87852445  1
  O  O22  1  0.50000000  0.69036931  0.61705401  1
  O  O23  1  -0.00000000  0.55624190  0.35706038  1
  O  O24  1  0.50000000  0.05951032  0.88925501  1
  O  O25  1  -0.00000000  0.18261847  0.13156062  1
  O  O26  1  0.50000000  0.30743685  0.40156270  1
  O  O27  1  0.00000000  0.43041758  0.61948596  1
  O  O28  1  0.50000000  0.55404274  0.89214481  1
  O  O29  1  -0.00000000  0.92934649  0.62363425  1
  O  O30  1  0.50000000  0.81411565  0.42563696  1
  O  O31  1  0.00000000  0.69301586  0.13682297  1
