# generated using pymatgen
data_Li2Ti3FeO8
_symmetry_space_group_name_H-M   'P 1'
_cell_length_a   5.95549231
_cell_length_b   5.95368992
_cell_length_c   9.84133054
_cell_angle_alpha   90.03632355
_cell_angle_beta   89.95416165
_cell_angle_gamma   120.01241478
_symmetry_Int_Tables_number   1
_chemical_formula_structural   Li2Ti3FeO8
_chemical_formula_sum   'Li4 Ti6 Fe2 O16'
_cell_volume   302.15781565
_cell_formula_units_Z   2
loop_
 _symmetry_equiv_pos_site_id
 _symmetry_equiv_pos_as_xyz
  1  'x, y, z'
loop_
 _atom_site_type_symbol
 _atom_site_label
 _atom_site_symmetry_multiplicity
 _atom_site_fract_x
 _atom_site_fract_y
 _atom_site_fract_z
 _atom_site_occupancy
  Li  Li0  1  0.33263487  0.66624908  0.89000827  1
  Li  Li1  1  0.99973123  0.99997110  0.99905812  1
  Li  Li2  1  -0.00011585  -0.00012466  0.49904730  1
  Li  Li3  1  0.66773621  0.33398179  0.38999077  1
  Ti  Ti4  1  0.17001969  0.83134889  0.21505282  1
  Ti  Ti5  1  0.16918898  0.33773920  0.21498798  1
  Ti  Ti6  1  0.66452546  0.83261627  0.21611044  1
  Ti  Ti7  1  0.33572559  0.16816712  0.71622264  1
  Ti  Ti8  1  0.82970694  0.66172340  0.71520122  1
  Ti  Ti9  1  0.83002575  0.16838485  0.71475535  1
  Fe  Fe10  1  0.33394881  0.66697963  0.49352505  1
  Fe  Fe11  1  0.66600997  0.33397147  0.99365065  1
  O  O12  1  0.15688452  0.84410332  0.60780878  1
  O  O13  1  0.03636367  0.51830063  0.32708763  1
  O  O14  1  0.33355723  0.66700565  0.10530687  1
  O  O15  1  0.00106199  0.00020597  0.31550243  1
  O  O16  1  0.99910902  0.99950561  0.81553001  1
  O  O17  1  0.15699609  0.31283691  0.60775866  1
  O  O18  1  0.48373889  0.96677683  0.32662109  1
  O  O19  1  0.48390140  0.51705381  0.32674396  1
  O  O20  1  0.31306839  0.15643384  0.10807087  1
  O  O21  1  0.68687311  0.84336322  0.60834710  1
  O  O22  1  0.51596291  0.48317915  0.82619168  1
  O  O23  1  0.51664144  0.03390859  0.82724433  1
  O  O24  1  0.66603174  0.33286064  0.60529802  1
  O  O25  1  0.84277546  0.68626101  0.10746550  1
  O  O26  1  0.96425716  0.48202735  0.82702886  1
  O  O27  1  0.84363936  0.15547129  0.10822362  1
