# generated using pymatgen
data_V3OF11
_symmetry_space_group_name_H-M   'P 1'
_cell_length_a   5.45423774
_cell_length_b   5.27029525
_cell_length_c   14.78977379
_cell_angle_alpha   89.99138610
_cell_angle_beta   100.28210762
_cell_angle_gamma   89.90731674
_symmetry_Int_Tables_number   1
_chemical_formula_structural   V3OF11
_chemical_formula_sum   'V6 O2 F22'
_cell_volume   418.31063940
_cell_formula_units_Z   2
loop_
 _symmetry_equiv_pos_site_id
 _symmetry_equiv_pos_as_xyz
  1  'x, y, z'
loop_
 _atom_site_type_symbol
 _atom_site_label
 _atom_site_symmetry_multiplicity
 _atom_site_fract_x
 _atom_site_fract_y
 _atom_site_fract_z
 _atom_site_occupancy
  V  V0  1  0.00018482  0.00900118  0.00630839  1
  V  V1  1  0.12589658  0.47528463  0.33037313  1
  V  V2  1  0.33348147  0.99996517  0.66708686  1
  V  V3  1  0.49808915  0.50397636  0.99872884  1
  V  V4  1  0.65548787  0.99194866  0.33438393  1
  V  V5  1  0.83352269  0.50012492  0.66711402  1
  O  O6  1  0.04481202  0.08167763  0.11422149  1
  O  O7  1  0.87469910  0.29482847  0.31087698  1
  F  F8  1  0.02405633  0.19908798  0.64226379  1
  F  F9  1  0.19407735  0.29208861  0.97391835  1
  F  F10  1  0.14379796  0.69879100  0.69161518  1
  F  F11  1  0.22685588  0.42743890  0.44941050  1
  F  F12  1  0.37662599  0.08745913  0.78420383  1
  F  F13  1  0.13501451  0.59204404  0.21846614  1
  F  F14  1  0.29099736  0.91622427  0.54949924  1
  F  F15  1  0.45733592  0.58218611  0.88148580  1
  F  F16  1  0.35725522  0.21058165  0.30882352  1
  F  F17  1  0.52411845  0.30116791  0.64201551  1
  F  F18  1  0.69766408  0.20299001  0.97422462  1
  F  F19  1  0.30312347  0.79817688  0.02442665  1
  F  F20  1  0.47174643  0.70729956  0.35690798  1
  F  F21  1  0.64274936  0.80098661  0.69111759  1
  F  F22  1  0.54244647  0.41241776  0.11552534  1
  F  F23  1  0.71582519  0.08787981  0.45073822  1
  F  F24  1  0.87513034  0.41314108  0.78418998  1
  F  F25  1  0.62855524  0.92365481  0.21558100  1
  F  F26  1  0.79379641  0.58578611  0.54969762  1
  F  F27  1  0.95825854  0.90995593  0.88499669  1
  F  F28  1  0.80421472  0.70739977  0.02449940  1
  F  F29  1  0.97018310  0.78643505  0.35730238  1
