# generated using pymatgen
data_NaLiMnP2O7
_symmetry_space_group_name_H-M   'P 1'
_cell_length_a   6.69850617
_cell_length_b   7.04612098
_cell_length_c   6.63529810
_cell_angle_alpha   85.59766363
_cell_angle_beta   96.50644804
_cell_angle_gamma   112.97464490
_symmetry_Int_Tables_number   1
_chemical_formula_structural   NaLiMnP2O7
_chemical_formula_sum   'Na2 Li2 Mn2 P4 O14'
_cell_volume   286.29583428
_cell_formula_units_Z   2
loop_
 _symmetry_equiv_pos_site_id
 _symmetry_equiv_pos_as_xyz
  1  'x, y, z'
loop_
 _atom_site_type_symbol
 _atom_site_label
 _atom_site_symmetry_multiplicity
 _atom_site_fract_x
 _atom_site_fract_y
 _atom_site_fract_z
 _atom_site_occupancy
  Na  Na0  1  0.26927196  0.85055130  0.13907596  1
  Na  Na1  1  0.66629241  0.11334632  0.84344454  1
  Li  Li2  1  0.65804007  0.96420542  0.35393273  1
  Li  Li3  1  0.00097183  0.51473840  0.88995384  1
  Mn  Mn4  1  0.13038134  0.24924242  0.33877934  1
  Mn  Mn5  1  0.90958882  0.79186699  0.64503266  1
  P  P6  1  0.77692660  0.74499583  0.14539795  1
  P  P7  1  0.66017282  0.34372073  0.39715489  1
  P  P8  1  0.35225792  0.65533809  0.61653445  1
  P  P9  1  0.21953805  0.24595472  0.84671376  1
  O  O10  1  0.61394006  0.84416230  0.08249073  1
  O  O11  1  0.08591885  0.29452879  0.99887004  1
  O  O12  1  0.63815769  0.51834009  0.23142545  1
  O  O13  1  0.80221238  0.24793704  0.31193155  1
  O  O14  1  0.93887523  0.86864594  0.32207712  1
  O  O15  1  0.42544682  0.18451089  0.39928041  1
  O  O16  1  0.25828928  0.57567503  0.40375214  1
  O  O17  1  0.76129827  0.44861597  0.59941289  1
  O  O18  1  0.58564374  0.82220569  0.61174578  1
  O  O19  1  0.05967986  0.13357673  0.66451857  1
  O  O20  1  0.20391462  0.72584915  0.72482877  1
  O  O21  1  0.38205890  0.46831788  0.75753805  1
  O  O22  1  0.90374591  0.71903036  0.97748844  1
  O  O23  1  0.36489957  0.14161891  0.94190994  1
