# generated using pymatgen
data_La4CoO8
_symmetry_space_group_name_H-M   'P 1'
_cell_length_a   5.31874373
_cell_length_b   13.34413034
_cell_length_c   5.31874373
_cell_angle_alpha   78.50446855
_cell_angle_beta   90.00000000
_cell_angle_gamma   78.50446855
_symmetry_Int_Tables_number   1
_chemical_formula_structural   La4CoO8
_chemical_formula_sum   'La8 Co2 O16'
_cell_volume   362.18947182
_cell_formula_units_Z   2
loop_
 _symmetry_equiv_pos_site_id
 _symmetry_equiv_pos_as_xyz
  1  'x, y, z'
loop_
 _atom_site_type_symbol
 _atom_site_label
 _atom_site_symmetry_multiplicity
 _atom_site_fract_x
 _atom_site_fract_y
 _atom_site_fract_z
 _atom_site_occupancy
  La  La0  1  0.31535260  0.36929581  0.31535260  1
  La  La1  1  0.18152552  0.63694796  0.18152552  1
  La  La2  1  0.43464740  0.13070419  0.93464740  1
  La  La3  1  0.06535260  0.86929581  0.56535260  1
  La  La4  1  0.56847448  0.86305204  0.06847448  1
  La  La5  1  0.93152552  0.13694796  0.43152552  1
  La  La6  1  0.81847448  0.36305204  0.81847448  1
  La  La7  1  0.68464740  0.63070419  0.68464740  1
  Co  Co8  1  0.50000000  0.00000000  0.50000000  1
  Co  Co9  1  0.25000000  0.50000000  0.75000000  1
  O  O10  1  0.25673059  0.00000000  0.25673059  1
  O  O11  1  0.00673059  0.50000000  0.99326941  1
  O  O12  1  0.74326941  0.00000000  0.25673059  1
  O  O13  1  0.09328569  0.81342861  0.09328569  1
  O  O14  1  0.41902099  0.16195802  0.41902099  1
  O  O15  1  0.00673059  0.50000000  0.50673059  1
  O  O16  1  0.25673059  0.00000000  0.74326941  1
  O  O17  1  0.49326941  0.50000000  0.99326941  1
  O  O18  1  0.84328569  0.31342861  0.34328569  1
  O  O19  1  0.74326941  0.00000000  0.74326941  1
  O  O20  1  0.33097901  0.33804198  0.83097901  1
  O  O21  1  0.49326941  0.50000000  0.50673059  1
  O  O22  1  0.16902099  0.66195802  0.66902099  1
  O  O23  1  0.65671431  0.68657139  0.15671431  1
  O  O24  1  0.58097901  0.83804198  0.58097901  1
  O  O25  1  0.90671431  0.18657139  0.90671431  1
