# generated using pymatgen
data_Li9Mn7(PO4)12
_symmetry_space_group_name_H-M   'P 1'
_cell_length_a   8.56187628
_cell_length_b   8.72317532
_cell_length_c   12.00272922
_cell_angle_alpha   89.57971127
_cell_angle_beta   89.93409037
_cell_angle_gamma   90.12320624
_symmetry_Int_Tables_number   1
_chemical_formula_structural   Li9Mn7(PO4)12
_chemical_formula_sum   'Li9 Mn7 P12 O48'
_cell_volume   896.41801009
_cell_formula_units_Z   1
loop_
 _symmetry_equiv_pos_site_id
 _symmetry_equiv_pos_as_xyz
  1  'x, y, z'
loop_
 _atom_site_type_symbol
 _atom_site_label
 _atom_site_symmetry_multiplicity
 _atom_site_fract_x
 _atom_site_fract_y
 _atom_site_fract_z
 _atom_site_occupancy
  Li  Li0  1  0.21716988  0.72331324  0.18242045  1
  Li  Li1  1  0.21556197  0.78075240  0.81859662  1
  Li  Li2  1  0.28557234  0.22120569  0.31637134  1
  Li  Li3  1  0.28747843  0.27905927  0.67939856  1
  Li  Li4  1  0.71570947  0.71600549  0.32403105  1
  Li  Li5  1  0.72087554  0.76180422  0.68074107  1
  Li  Li6  1  0.75008140  0.46143756  0.61502390  1
  Li  Li7  1  0.78352756  0.22222617  0.18203209  1
  Li  Li8  1  0.78327600  0.28328369  0.80879689  1
  Mn  Mn9  1  0.24860722  0.96398561  0.61127211  1
  Mn  Mn10  1  0.24559592  0.53566058  0.38733593  1
  Mn  Mn11  1  0.24986203  0.03607971  0.11378243  1
  Mn  Mn12  1  0.25118433  0.46641288  0.88578986  1
  Mn  Mn13  1  0.74702447  0.53497793  0.11494162  1
  Mn  Mn14  1  0.74833013  0.96248925  0.88501154  1
  Mn  Mn15  1  0.75443429  0.03768543  0.38782038  1
  P  P16  1  0.10486056  0.39582127  0.14746503  1
  P  P17  1  0.10395002  0.10707167  0.85342834  1
  P  P18  1  0.39220083  0.61199230  0.64648768  1
  P  P19  1  0.39574560  0.89323975  0.35464941  1
  P  P20  1  0.60682870  0.10209126  0.64841488  1
  P  P21  1  0.60267283  0.39301722  0.35466237  1
  P  P22  1  0.89514188  0.60633952  0.86057603  1
  P  P23  1  0.89306098  0.89284975  0.14629600  1
  P  P24  1  0.03549698  0.25099784  0.50068442  1
  P  P25  1  0.46624452  0.74681232  0.00009553  1
  P  P26  1  0.53559018  0.24913081  0.99817656  1
  P  P27  1  0.96579562  0.75252031  0.50109049  1
  O  O28  1  0.06156854  0.64935382  0.42187709  1
  O  O29  1  0.06073118  0.86599511  0.57150850  1
  O  O30  1  0.07369918  0.89489492  0.15616208  1
  O  O31  1  0.07813770  0.61057502  0.85050271  1
  O  O32  1  0.15066951  0.15867700  0.57856616  1
  O  O33  1  0.14920104  0.33544280  0.41712961  1
  O  O34  1  0.15681165  0.43937204  0.02904238  1
  O  O35  1  0.15379214  0.06146166  0.97024764  1
  O  O36  1  0.15516925  0.23479701  0.18142307  1
  O  O37  1  0.15671805  0.27218478  0.82067772  1
  O  O38  1  0.17541854  0.51825726  0.22671823  1
  O  O39  1  0.17728127  0.98886511  0.77251952  1
  O  O40  1  0.32236032  0.01180139  0.27409946  1
  O  O41  1  0.31151778  0.49007698  0.72568197  1
  O  O42  1  0.32491930  0.77247973  0.67648879  1
  O  O43  1  0.34346606  0.72892226  0.32280810  1
  O  O44  1  0.34341733  0.56037359  0.52836067  1
  O  O45  1  0.34694864  0.93823294  0.47235114  1
  O  O46  1  0.35844900  0.83049866  0.08042548  1
  O  O47  1  0.35969950  0.66065357  0.91465312  1
  O  O48  1  0.42407592  0.09536845  0.65653122  1
  O  O49  1  0.42181328  0.39614744  0.33763281  1
  O  O50  1  0.44226648  0.14203158  0.07430611  1
  O  O51  1  0.44089968  0.35709451  0.92278343  1
  O  O52  1  0.55993150  0.63820827  0.07549099  1
  O  O53  1  0.55952388  0.85788578  0.92513984  1
  O  O54  1  0.56586584  0.61234691  0.65903975  1
  O  O55  1  0.57655610  0.89541949  0.34373249  1
  O  O56  1  0.64724723  0.33803286  0.07826019  1
  O  O57  1  0.64582846  0.16063143  0.91737216  1
  O  O58  1  0.65574027  0.05533425  0.52929826  1
  O  O59  1  0.65558605  0.44175946  0.46646918  1
  O  O60  1  0.65376081  0.22716656  0.32038788  1
  O  O61  1  0.65412085  0.26049601  0.68183749  1
  O  O62  1  0.67552401  0.51026985  0.26860049  1
  O  O63  1  0.67704047  0.97357474  0.72649429  1
  O  O64  1  0.82123001  0.01412546  0.22621141  1
  O  O65  1  0.82402489  0.49112521  0.78399853  1
  O  O66  1  0.83810387  0.73002770  0.18122571  1
  O  O67  1  0.84605481  0.77364574  0.82556723  1
  O  O68  1  0.85269922  0.57613809  0.98266508  1
  O  O69  1  0.84281710  0.93971618  0.02867794  1
  O  O70  1  0.86149113  0.66577030  0.57993836  1
  O  O71  1  0.85787945  0.84072761  0.41616186  1
  O  O72  1  0.92257991  0.10441215  0.84160801  1
  O  O73  1  0.92345544  0.39723623  0.15797123  1
  O  O74  1  0.94693059  0.14039050  0.42194142  1
  O  O75  1  0.94510110  0.35373741  0.57402559  1
