# generated using pymatgen
data_Li3Mn4(BO3)4
_symmetry_space_group_name_H-M   'P 1'
_cell_length_a   5.29649509
_cell_length_b   13.95326490
_cell_length_c   10.32783010
_cell_angle_alpha   91.04399327
_cell_angle_beta   91.58883852
_cell_angle_gamma   100.25190935
_symmetry_Int_Tables_number   1
_chemical_formula_structural   Li3Mn4(BO3)4
_chemical_formula_sum   'Li9 Mn12 B12 O36'
_cell_volume   750.57929622
_cell_formula_units_Z   3
loop_
 _symmetry_equiv_pos_site_id
 _symmetry_equiv_pos_as_xyz
  1  'x, y, z'
loop_
 _atom_site_type_symbol
 _atom_site_label
 _atom_site_symmetry_multiplicity
 _atom_site_fract_x
 _atom_site_fract_y
 _atom_site_fract_z
 _atom_site_occupancy
  Li  Li0  1  0.21600198  0.61880974  0.83261314  1
  Li  Li1  1  0.24458355  0.61066829  0.34250872  1
  Li  Li2  1  0.10253116  0.05400353  0.09549705  1
  Li  Li3  1  0.44480574  0.72156926  0.60316752  1
  Li  Li4  1  0.53873917  0.28488109  0.82404228  1
  Li  Li5  1  0.86573661  0.95114258  0.84002003  1
  Li  Li6  1  0.59145823  0.27659312  0.34503327  1
  Li  Li7  1  0.91956146  0.94163374  0.32734656  1
  Li  Li8  1  0.77678613  0.38854382  0.10411046  1
  Mn  Mn9  1  0.99804864  0.84903818  0.61336433  1
  Mn  Mn10  1  0.09705271  0.39151361  0.86848029  1
  Mn  Mn11  1  0.02444283  0.16377307  0.37580136  1
  Mn  Mn12  1  0.34424819  0.83169113  0.36709502  1
  Mn  Mn13  1  0.34423632  0.49120581  0.62108008  1
  Mn  Mn14  1  0.22258586  0.27175714  0.11847916  1
  Mn  Mn15  1  0.54875224  0.93858455  0.11580683  1
  Mn  Mn16  1  0.42310671  0.05939872  0.86638270  1
  Mn  Mn17  1  0.79241980  0.73102713  0.86835717  1
  Mn  Mn18  1  0.69275364  0.50118560  0.37473388  1
  Mn  Mn19  1  0.66131525  0.15425696  0.61728205  1
  Mn  Mn20  1  0.88176385  0.61289048  0.12317930  1
  B  B21  1  0.01484023  0.83434960  0.11429625  1
  B  B22  1  0.33622359  0.83495937  0.86762533  1
  B  B23  1  0.13009069  0.38403467  0.37659465  1
  B  B24  1  0.20626436  0.28008843  0.62485500  1
  B  B25  1  0.53898600  0.94817493  0.62788520  1
  B  B26  1  0.32839914  0.49353755  0.13187454  1
  B  B27  1  0.66027823  0.50182426  0.86842713  1
  B  B28  1  0.78036914  0.72265566  0.38088735  1
  B  B29  1  0.45899247  0.04945472  0.36988385  1
  B  B30  1  0.88770857  0.61996232  0.63042476  1
  B  B31  1  0.67285190  0.16414531  0.12745461  1
  B  B32  1  0.98685543  0.16468447  0.86985286  1
  O  O33  1  0.08111790  0.84453855  0.83690476  1
  O  O34  1  0.14329905  0.61461158  0.63702442  1
  O  O35  1  0.25495852  0.82589333  0.16220704  1
  O  O36  1  0.01552985  0.20681911  0.57280615  1
  O  O37  1  0.12730998  0.36776122  0.66293576  1
  O  O38  1  0.38383193  0.86265094  0.57998877  1
  O  O39  1  0.22996049  0.57416893  0.16079578  1
  O  O40  1  0.16918759  0.41155783  0.07386458  1
  O  O41  1  0.04541428  0.07521854  0.89713353  1
  O  O42  1  0.41587621  0.74737930  0.85477597  1
  O  O43  1  0.16333208  0.24860952  0.90176958  1
  O  O44  1  0.50539257  0.91912455  0.90783975  1
  O  O45  1  0.29683714  0.46872264  0.42980746  1
  O  O46  1  0.24067503  0.30520325  0.33777500  1
  O  O47  1  0.57299516  0.97140475  0.33107649  1
  O  O48  1  0.41485866  0.51119878  0.81652627  1
  O  O49  1  0.52172689  0.71237923  0.40319364  1
  O  O50  1  0.20222139  0.04625383  0.35692792  1
  O  O51  1  0.45238009  0.26751885  0.63921643  1
  O  O52  1  0.79337145  0.95341140  0.65285805  1
  O  O53  1  0.58679063  0.48972184  0.16268583  1
  O  O54  1  0.42583045  0.03029228  0.65513482  1
  O  O55  1  0.70486403  0.54490778  0.57867804  1
  O  O56  1  0.79689002  0.70480034  0.67482056  1
  O  O57  1  0.49875944  0.08357512  0.07932768  1
  O  O58  1  0.92575235  0.92052696  0.12802480  1
  O  O59  1  0.60072069  0.25376856  0.14088958  1
  O  O60  1  0.71796288  0.41152503  0.88902386  1
  O  O61  1  0.85991678  0.75126984  0.05539023  1
  O  O62  1  0.83770584  0.58651806  0.90101277  1
  O  O63  1  0.62064605  0.13516826  0.42113905  1
  O  O64  1  0.94263693  0.81238150  0.40817312  1
  O  O65  1  0.88813824  0.64516437  0.33457300  1
  O  O66  1  0.74260802  0.17266298  0.81494679  1
  O  O67  1  0.87553513  0.38423142  0.36058799  1
  O  O68  1  0.92364946  0.15468266  0.16473879  1
