# generated using pymatgen
data_V3OF11
_symmetry_space_group_name_H-M   'P 1'
_cell_length_a   5.45281364
_cell_length_b   5.26961110
_cell_length_c   14.76027736
_cell_angle_alpha   90.02615218
_cell_angle_beta   100.32852240
_cell_angle_gamma   90.06896709
_symmetry_Int_Tables_number   1
_chemical_formula_structural   V3OF11
_chemical_formula_sum   'V6 O2 F22'
_cell_volume   417.25191064
_cell_formula_units_Z   2
loop_
 _symmetry_equiv_pos_site_id
 _symmetry_equiv_pos_as_xyz
  1  'x, y, z'
loop_
 _atom_site_type_symbol
 _atom_site_label
 _atom_site_symmetry_multiplicity
 _atom_site_fract_x
 _atom_site_fract_y
 _atom_site_fract_z
 _atom_site_occupancy
  V  V0  1  0.99914918  0.00995538  0.00616006  1
  V  V1  1  0.15540709  0.50817118  0.33438641  1
  V  V2  1  0.33359378  0.00022739  0.66706191  1
  V  V3  1  0.49748913  0.50492511  0.99871952  1
  V  V4  1  0.62601564  0.02468196  0.33037230  1
  V  V5  1  0.83384592  0.50034385  0.66730630  1
  O  O6  1  0.04552101  0.08075431  0.11453809  1
  O  O7  1  0.37483544  0.20535162  0.31091577  1
  F  F8  1  0.02374005  0.19847662  0.64196551  1
  F  F9  1  0.19333023  0.29239661  0.97374450  1
  F  F10  1  0.14462648  0.69806245  0.69145404  1
  F  F11  1  0.21567171  0.41212826  0.45097405  1
  F  F12  1  0.37608974  0.08766219  0.78444673  1
  F  F13  1  0.12868346  0.57617422  0.21532928  1
  F  F14  1  0.29371543  0.91433055  0.54935178  1
  F  F15  1  0.45631011  0.58207290  0.88121910  1
  F  F16  1  0.52344850  0.30186280  0.64219300  1
  F  F17  1  0.69740891  0.20293056  0.97381392  1
  F  F18  1  0.30372167  0.79845456  0.02491552  1
  F  F19  1  0.46993652  0.71368434  0.35746863  1
  F  F20  1  0.64364731  0.80149483  0.69160044  1
  F  F21  1  0.54287833  0.41074398  0.11556552  1
  F  F22  1  0.72726307  0.07254831  0.44971475  1
  F  F23  1  0.87597214  0.41267153  0.78448326  1
  F  F24  1  0.63424736  0.90695322  0.21821969  1
  F  F25  1  0.79143840  0.58438102  0.54941026  1
  F  F26  1  0.95986944  0.90819368  0.88485874  1
  F  F27  1  0.85657099  0.28995403  0.30851752  1
  F  F28  1  0.80415290  0.70738324  0.02435762  1
  F  F29  1  0.97142105  0.79302930  0.35693477  1
