# generated using pymatgen
data_Li5Fe8(BO3)8
_symmetry_space_group_name_H-M   'P 1'
_cell_length_a   5.25618843
_cell_length_b   9.08572426
_cell_length_c   11.36921632
_cell_angle_alpha   113.29222635
_cell_angle_beta   77.14254895
_cell_angle_gamma   90.08919269
_symmetry_Int_Tables_number   1
_chemical_formula_structural   Li5Fe8(BO3)8
_chemical_formula_sum   'Li5 Fe8 B8 O24'
_cell_volume   483.92662737
_cell_formula_units_Z   1
loop_
 _symmetry_equiv_pos_site_id
 _symmetry_equiv_pos_as_xyz
  1  'x, y, z'
loop_
 _atom_site_type_symbol
 _atom_site_label
 _atom_site_symmetry_multiplicity
 _atom_site_fract_x
 _atom_site_fract_y
 _atom_site_fract_z
 _atom_site_occupancy
  Li  Li0  1  0.16756921  0.15878431  0.33798669  1
  Li  Li1  1  0.60763077  0.05645088  0.09574157  1
  Li  Li2  1  0.92837312  0.42625616  0.83348945  1
  Li  Li3  1  0.67647352  0.65414990  0.33658803  1
  Li  Li4  1  0.42481640  0.93273971  0.83374587  1
  Fe  Fe5  1  0.39968674  0.28145931  0.87006346  1
  Fe  Fe6  1  0.09115019  0.23854219  0.12062854  1
  Fe  Fe7  1  0.84594982  0.13876606  0.61815584  1
  Fe  Fe8  1  0.64947879  0.34277995  0.37470635  1
  Fe  Fe9  1  0.34908230  0.64020104  0.61663442  1
  Fe  Fe10  1  0.14998733  0.83840169  0.37025534  1
  Fe  Fe11  1  0.90921251  0.77923127  0.86947798  1
  Fe  Fe12  1  0.59774790  0.72326611  0.11947375  1
  B  B13  1  0.64892045  0.01283855  0.36754416  1
  B  B14  1  0.89969930  0.10434548  0.87050102  1
  B  B15  1  0.14352831  0.51635244  0.37553938  1
  B  B16  1  0.39954574  0.60784424  0.87197598  1
  B  B17  1  0.84754825  0.48035989  0.62551933  1
  B  B18  1  0.59229358  0.39258631  0.12370255  1
  B  B19  1  0.34693096  0.98044725  0.62362970  1
  B  B20  1  0.10732994  0.89688487  0.12429810  1
  O  O21  1  0.14066163  0.11572724  0.90086133  1
  O  O22  1  0.47716601  0.11855942  0.65708108  1
  O  O23  1  0.22297110  0.03293682  0.13311490  1
  O  O24  1  0.51380248  0.13390537  0.35920269  1
  O  O25  1  0.88064137  0.03900174  0.41327606  1
  O  O26  1  0.81143713  0.21151086  0.82335416  1
  O  O27  1  0.25921828  0.48170761  0.86798135  1
  O  O28  1  0.05814925  0.36315672  0.33875166  1
  O  O29  1  0.70141012  0.28272902  0.16199956  1
  O  O30  1  0.62535162  0.47892406  0.58004764  1
  O  O31  1  0.93754490  0.34885082  0.64032683  1
  O  O32  1  0.38310873  0.35354746  0.06879565  1
  O  O33  1  0.63414831  0.62672132  0.91757195  1
  O  O34  1  0.38219299  0.54243634  0.41714911  1
  O  O35  1  0.31855855  0.72227733  0.82990798  1
  O  O36  1  0.97850504  0.61904665  0.66260410  1
  O  O37  1  0.69491741  0.53822125  0.14455040  1
  O  O38  1  0.22438901  0.78465541  0.15692827  1
  O  O39  1  0.12634363  0.97637138  0.57553383  1
  O  O40  1  0.43866863  0.85047058  0.63983457  1
  O  O41  1  0.00673531  0.64013758  0.37140954  1
  O  O42  1  0.74215932  0.98927071  0.89065455  1
  O  O43  1  0.56470875  0.85683789  0.32647272  1
  O  O44  1  0.86645227  0.86775883  0.08658154  1
