# generated using pymatgen
data_Li2Cr3FeO8
_symmetry_space_group_name_H-M   'P 1'
_cell_length_a   8.38049579
_cell_length_b   8.39961575
_cell_length_c   8.41706974
_cell_angle_alpha   89.73750291
_cell_angle_beta   89.91053527
_cell_angle_gamma   90.23218399
_symmetry_Int_Tables_number   1
_chemical_formula_structural   Li2Cr3FeO8
_chemical_formula_sum   'Li8 Cr12 Fe4 O32'
_cell_volume   592.49049983
_cell_formula_units_Z   4
loop_
 _symmetry_equiv_pos_site_id
 _symmetry_equiv_pos_as_xyz
  1  'x, y, z'
loop_
 _atom_site_type_symbol
 _atom_site_label
 _atom_site_symmetry_multiplicity
 _atom_site_fract_x
 _atom_site_fract_y
 _atom_site_fract_z
 _atom_site_occupancy
  Li  Li0  1  0.99868178  0.99636724  -0.00023663  1
  Li  Li1  1  0.25207611  0.24921842  0.25371896  1
  Li  Li2  1  0.24754498  0.74871062  0.75259349  1
  Li  Li3  1  0.50135579  0.00325157  0.49775309  1
  Li  Li4  1  0.50068588  0.50240252  0.00109241  1
  Li  Li5  1  0.74909199  0.24708459  0.75031735  1
  Li  Li6  1  0.74901398  0.75181199  0.24927475  1
  Li  Li7  1  0.00248104  0.50088917  0.49940446  1
  Cr  Cr8  1  0.12462306  0.12287093  0.62506275  1
  Cr  Cr9  1  0.12598793  0.37223140  0.87461842  1
  Cr  Cr10  1  0.12194586  0.62918345  0.12345714  1
  Cr  Cr11  1  0.37460473  0.37863008  0.62393434  1
  Cr  Cr12  1  0.37685288  0.62792189  0.37596405  1
  Cr  Cr13  1  0.37493564  0.87504117  0.12745119  1
  Cr  Cr14  1  0.62378555  0.37566671  0.37299068  1
  Cr  Cr15  1  0.62732105  0.12245733  0.12545644  1
  Cr  Cr16  1  0.62758262  0.87489834  0.87836785  1
  Cr  Cr17  1  0.87321900  0.12062845  0.36962060  1
  Cr  Cr18  1  0.87630337  0.87443781  0.62456087  1
  Cr  Cr19  1  0.87456001  0.62575461  0.87637896  1
  Fe  Fe20  1  0.12310154  0.87495690  0.37341531  1
  Fe  Fe21  1  0.37498263  0.12534669  0.87706417  1
  Fe  Fe22  1  0.62741057  0.62341359  0.62168448  1
  Fe  Fe23  1  0.87486787  0.37446738  0.12432078  1
  O  O24  1  0.11330917  0.10321031  0.38630567  1
  O  O25  1  0.10675565  0.88229912  0.61660407  1
  O  O26  1  0.10671316  0.60529026  0.88467487  1
  O  O27  1  0.13053603  0.14617321  0.86410925  1
  O  O28  1  0.10755144  0.38931207  0.11432439  1
  O  O29  1  0.14219760  0.36335244  0.63808565  1
  O  O30  1  0.13509729  0.64708466  0.36226062  1
  O  O31  1  0.13958390  0.86653414  0.13360473  1
  O  O32  1  0.36598469  0.14474891  0.63932802  1
  O  O33  1  0.35303545  0.37057744  0.86521578  1
  O  O34  1  0.36102050  0.64689119  0.13517790  1
  O  O35  1  0.38279421  0.60581591  0.61569000  1
  O  O36  1  0.36383233  0.87091593  0.35646754  1
  O  O37  1  0.38470984  0.39023106  0.38931978  1
  O  O38  1  0.39333078  0.10884942  0.11990085  1
  O  O39  1  0.38525289  0.88565814  0.89794899  1
  O  O40  1  0.60539175  0.38198079  0.61352838  1
  O  O41  1  0.61456644  0.61463424  0.38884324  1
  O  O42  1  0.61125854  0.88789607  0.11559693  1
  O  O43  1  0.64353119  0.36081832  0.13211715  1
  O  O44  1  0.61477321  0.11386321  0.89692009  1
  O  O45  1  0.63418462  0.13681210  0.35253989  1
  O  O46  1  0.64729348  0.86452957  0.63695566  1
  O  O47  1  0.64718829  0.63512535  0.86367740  1
  O  O48  1  0.86787329  0.35730141  0.35642451  1
  O  O49  1  0.85684925  0.12913826  0.13163360  1
  O  O50  1  0.86635931  0.86046378  0.86060238  1
  O  O51  1  0.88550592  0.88295171  0.38958199  1
  O  O52  1  0.87299361  0.64084219  0.64403088  1
  O  O53  1  0.88427263  0.10367237  0.60849780  1
  O  O54  1  0.89097610  0.38679511  0.88847269  1
  O  O55  1  0.88226158  0.61872743  0.10343339  1
