# generated using pymatgen
data_Li4Ti5Mn3O16
_symmetry_space_group_name_H-M   'P 1'
_cell_length_a   6.06255267
_cell_length_b   5.89419285
_cell_length_c   9.65841040
_cell_angle_alpha   89.99947528
_cell_angle_beta   91.74647827
_cell_angle_gamma   119.08533148
_symmetry_Int_Tables_number   1
_chemical_formula_structural   Li4Ti5Mn3O16
_chemical_formula_sum   'Li4 Ti5 Mn3 O16'
_cell_volume   301.42650024
_cell_formula_units_Z   1
loop_
 _symmetry_equiv_pos_site_id
 _symmetry_equiv_pos_as_xyz
  1  'x, y, z'
loop_
 _atom_site_type_symbol
 _atom_site_label
 _atom_site_symmetry_multiplicity
 _atom_site_fract_x
 _atom_site_fract_y
 _atom_site_fract_z
 _atom_site_occupancy
  Li  Li0  1  0.31078252  0.65540557  0.89962733  1
  Li  Li1  1  0.99630295  0.99816495  0.99142904  1
  Li  Li2  1  0.01461019  0.00731269  0.49369260  1
  Li  Li3  1  0.67034688  0.33517572  0.40054854  1
  Ti  Ti4  1  0.34727107  0.17364728  0.73289947  1
  Ti  Ti5  1  0.19326829  0.84341943  0.22186834  1
  Ti  Ti6  1  0.32947783  0.66475036  0.49987471  1
  Ti  Ti7  1  0.19326107  0.34986590  0.22187589  1
  Ti  Ti8  1  0.67963118  0.33982839  0.99750474  1
  Mn  Mn9  1  0.66760149  0.83381210  0.20748262  1
  Mn  Mn10  1  0.82596149  0.65944858  0.70930219  1
  Mn  Mn11  1  0.82596508  0.16655165  0.70929761  1
  O  O12  1  0.18903467  0.83911517  0.59116201  1
  O  O13  1  0.04557689  0.52279082  0.33717667  1
  O  O14  1  0.30205461  0.65103408  0.10497180  1
  O  O15  1  0.02018856  0.01009794  0.30448951  1
  O  O16  1  0.99847518  0.99925222  0.80039421  1
  O  O17  1  0.18902726  0.34993641  0.59116205  1
  O  O18  1  0.46537947  0.96383723  0.34373863  1
  O  O19  1  0.46538191  0.50155120  0.34373786  1
  O  O20  1  0.33355484  0.16678042  0.10186904  1
  O  O21  1  0.67774558  0.83888393  0.58890213  1
  O  O22  1  0.48923456  0.46391163  0.84560874  1
  O  O23  1  0.48925105  0.02534745  0.84560512  1
  O  O24  1  0.65635896  0.32820293  0.61122328  1
  O  O25  1  0.84237019  0.65987998  0.08642517  1
  O  O26  1  0.93951988  0.46978631  0.83954512  1
  O  O27  1  0.84236634  0.18250769  0.08642359  1
