# generated using pymatgen
data_Li9Mn2Co5O16
_symmetry_space_group_name_H-M   'P 1'
_cell_length_a   2.90355886
_cell_length_b   5.16021173
_cell_length_c   19.48318429
_cell_angle_alpha   99.49230719
_cell_angle_beta   90.00000000
_cell_angle_gamma   90.00000000
_symmetry_Int_Tables_number   1
_chemical_formula_structural   Li9Mn2Co5O16
_chemical_formula_sum   'Li9 Mn2 Co5 O16'
_cell_volume   287.91914301
_cell_formula_units_Z   1
loop_
 _symmetry_equiv_pos_site_id
 _symmetry_equiv_pos_as_xyz
  1  'x, y, z'
loop_
 _atom_site_type_symbol
 _atom_site_label
 _atom_site_symmetry_multiplicity
 _atom_site_fract_x
 _atom_site_fract_y
 _atom_site_fract_z
 _atom_site_occupancy
  Li  Li0  1  0.50000000  0.26839340  0.13111916  1
  Li  Li1  1  0.50000000  0.74148612  0.37092924  1
  Li  Li2  1  0.50000000  0.24667513  0.62323186  1
  Li  Li3  1  0.50000000  0.75015984  0.87569225  1
  Li  Li4  1  0.00000000  0.76627945  0.13345322  1
  Li  Li5  1  0.00000000  0.23416323  0.36943306  1
  Li  Li6  1  0.00000000  0.74585321  0.62155675  1
  Li  Li7  1  0.00000000  0.25785739  0.87586820  1
  Li  Li8  1  0.00000000  0.50045588  0.25054806  1
  Mn  Mn9  1  -0.00000000  0.00447972  0.00133267  1
  Mn  Mn10  1  0.50000000  0.99897706  0.74957749  1
  Co  Co11  1  0.00000000  0.99618185  0.49839128  1
  Co  Co12  1  -0.00000000  0.49908626  0.74991386  1
  Co  Co13  1  0.50000000  0.50537996  0.00259482  1
  Co  Co14  1  0.50000000  -0.00102507  0.25015985  1
  Co  Co15  1  0.50000000  0.49544326  0.49765701  1
  O  O16  1  0.50000000  0.89934549  0.05736888  1
  O  O17  1  0.50000000  0.31580990  0.30394630  1
  O  O18  1  0.50000000  0.87126682  0.55653033  1
  O  O19  1  0.50000000  0.40016816  0.80738300  1
  O  O20  1  0.00000000  0.35089858  0.05811538  1
  O  O21  1  0.00000000  0.88208672  0.30511371  1
  O  O22  1  0.00000000  0.37324583  0.55612592  1
  O  O23  1  0.00000000  0.89568476  0.80793932  1
  O  O24  1  0.50000000  0.67981224  0.19505385  1
  O  O25  1  0.50000000  0.11738583  0.44192218  1
  O  O26  1  0.50000000  0.59799709  0.69316795  1
  O  O27  1  0.50000000  0.11185116  0.94415964  1
  O  O28  1  0.00000000  0.11514846  0.19504218  1
  O  O29  1  0.00000000  0.62012335  0.43983998  1
  O  O30  1  0.00000000  0.10513736  0.69159950  1
  O  O31  1  0.00000000  0.65419155  0.94523311  1
