# generated using pymatgen
data_Gd2(WO4)3
_symmetry_space_group_name_H-M   'P 1'
_cell_length_a   10.58607559
_cell_length_b   10.60985397
_cell_length_c   10.87085908
_cell_angle_alpha   90.00000000
_cell_angle_beta   90.00000000
_cell_angle_gamma   90.00000000
_symmetry_Int_Tables_number   1
_chemical_formula_structural   Gd2(WO4)3
_chemical_formula_sum   'Gd8 W12 O48'
_cell_volume   1220.97919333
_cell_formula_units_Z   4
loop_
 _symmetry_equiv_pos_site_id
 _symmetry_equiv_pos_as_xyz
  1  'x, y, z'
loop_
 _atom_site_type_symbol
 _atom_site_label
 _atom_site_symmetry_multiplicity
 _atom_site_fract_x
 _atom_site_fract_y
 _atom_site_fract_z
 _atom_site_occupancy
  Gd  Gd0  1  0.00629846  0.81127303  0.26300049  1
  Gd  Gd1  1  0.18912825  0.49595046  0.73815230  1
  Gd  Gd2  1  0.31087175  0.99595046  0.73815230  1
  Gd  Gd3  1  0.49370154  0.31127303  0.26300049  1
  Gd  Gd4  1  0.50629846  0.68872697  0.26300049  1
  Gd  Gd5  1  0.68912825  0.00404954  0.73815230  1
  Gd  Gd6  1  0.81087175  0.50404954  0.73815230  1
  Gd  Gd7  1  0.99370154  0.18872697  0.26300049  1
  W  W8  1  0.00330341  0.20638206  0.64340120  1
  W  W9  1  0.20557901  0.48841937  0.35730690  1
  W  W10  1  0.24283935  0.24358643  0.00036118  1
  W  W11  1  0.25716065  0.74358643  0.00036118  1
  W  W12  1  0.29442099  0.98841937  0.35730690  1
  W  W13  1  0.49669659  0.70638206  0.64340120  1
  W  W14  1  0.50330341  0.29361794  0.64340120  1
  W  W15  1  0.70557901  0.01158063  0.35730690  1
  W  W16  1  0.74283935  0.25641357  0.00036118  1
  W  W17  1  0.75716065  0.75641357  0.00036118  1
  W  W18  1  0.79442099  0.51158063  0.35730690  1
  W  W19  1  0.99669659  0.79361794  0.64340120  1
  O  O20  1  0.00679221  0.62712551  0.69094586  1
  O  O21  1  0.02060777  0.80566560  0.47946108  1
  O  O22  1  0.11347488  0.61551654  0.29243513  1
  O  O23  1  0.11772166  0.88460371  0.72008853  1
  O  O24  1  0.12300308  0.17032918  0.09501427  1
  O  O25  1  0.12773128  0.00615807  0.31117504  1
  O  O26  1  0.14313608  0.81990400  0.09984256  1
  O  O27  1  0.15530239  0.33471301  0.30528631  1
  O  O28  1  0.16041381  0.15366599  0.68248124  1
  O  O29  1  0.16934777  0.35865302  0.90044333  1
  O  O30  1  0.18166243  0.62483602  0.90582077  1
  O  O31  1  0.19267574  0.48893845  0.52254182  1
  O  O32  1  0.30732426  0.98893845  0.52254182  1
  O  O33  1  0.31833757  0.12483602  0.90582077  1
  O  O34  1  0.33065223  0.85865302  0.90044333  1
  O  O35  1  0.33958619  0.65366599  0.68248124  1
  O  O36  1  0.34469761  0.83471301  0.30528631  1
  O  O37  1  0.35686392  0.31990400  0.09984256  1
  O  O38  1  0.37226872  0.50615807  0.31117504  1
  O  O39  1  0.37699692  0.67032918  0.09501427  1
  O  O40  1  0.38227834  0.38460371  0.72008853  1
  O  O41  1  0.38652512  0.11551654  0.29243513  1
  O  O42  1  0.47939223  0.30566560  0.47946108  1
  O  O43  1  0.49320779  0.12712551  0.69094586  1
  O  O44  1  0.50679221  0.87287449  0.69094586  1
  O  O45  1  0.52060777  0.69433440  0.47946108  1
  O  O46  1  0.61347488  0.88448346  0.29243513  1
  O  O47  1  0.61772166  0.61539629  0.72008853  1
  O  O48  1  0.62300308  0.32967082  0.09501427  1
  O  O49  1  0.62773128  0.49384193  0.31117504  1
  O  O50  1  0.64313608  0.68009600  0.09984256  1
  O  O51  1  0.65530239  0.16528699  0.30528631  1
  O  O52  1  0.66041381  0.34633401  0.68248124  1
  O  O53  1  0.66934777  0.14134698  0.90044333  1
  O  O54  1  0.68166243  0.87516398  0.90582077  1
  O  O55  1  0.69267574  0.01106155  0.52254182  1
  O  O56  1  0.80732426  0.51106155  0.52254182  1
  O  O57  1  0.81833757  0.37516398  0.90582077  1
  O  O58  1  0.83065223  0.64134698  0.90044333  1
  O  O59  1  0.83958619  0.84633401  0.68248124  1
  O  O60  1  0.84469761  0.66528699  0.30528631  1
  O  O61  1  0.85686392  0.18009600  0.09984256  1
  O  O62  1  0.87226872  0.99384193  0.31117504  1
  O  O63  1  0.87699692  0.82967082  0.09501427  1
  O  O64  1  0.88227834  0.11539629  0.72008853  1
  O  O65  1  0.88652512  0.38448346  0.29243513  1
  O  O66  1  0.97939223  0.19433440  0.47946108  1
  O  O67  1  0.99320779  0.37287449  0.69094586  1
