# generated using pymatgen
data_Li3Cu2(SO4)3
_symmetry_space_group_name_H-M   'P 1'
_cell_length_a   8.59238730
_cell_length_b   9.14556278
_cell_length_c   8.59238717
_cell_angle_alpha   118.01853877
_cell_angle_beta   59.99999954
_cell_angle_gamma   118.01853478
_symmetry_Int_Tables_number   1
_chemical_formula_structural   Li3Cu2(SO4)3
_chemical_formula_sum   'Li6 Cu4 S6 O24'
_cell_volume   491.24780452
_cell_formula_units_Z   2
loop_
 _symmetry_equiv_pos_site_id
 _symmetry_equiv_pos_as_xyz
  1  'x, y, z'
loop_
 _atom_site_type_symbol
 _atom_site_label
 _atom_site_symmetry_multiplicity
 _atom_site_fract_x
 _atom_site_fract_y
 _atom_site_fract_z
 _atom_site_occupancy
  Li  Li0  1  0.27177259  0.85099415  0.65770480  1
  Li  Li1  1  0.34229520  0.14900585  0.07848224  1
  Li  Li2  1  0.07848224  0.14900585  0.72822741  1
  Li  Li3  1  0.92151776  0.85099415  0.27177259  1
  Li  Li4  1  0.65770480  0.85099415  0.92151776  1
  Li  Li5  1  0.72822741  0.14900585  0.34229520  1
  Cu  Cu6  1  0.14800190  0.44400671  0.14800190  1
  Cu  Cu7  1  0.34397841  0.03193522  0.34397841  1
  Cu  Cu8  1  0.65602159  0.96806478  0.65602159  1
  Cu  Cu9  1  0.85199810  0.55599329  0.85199810  1
  S  S10  1  0.04624708  0.24923381  0.45325753  1
  S  S11  1  0.54674247  0.75076619  0.25027080  1
  S  S12  1  0.25027080  0.75076619  0.95375292  1
  S  S13  1  0.74972920  0.24923381  0.04624708  1
  S  S14  1  0.45325753  0.24923381  0.74972920  1
  S  S15  1  0.95375292  0.75076619  0.54674247  1
  O  O16  1  0.20402817  0.89536998  0.14039622  1
  O  O17  1  0.14039622  0.89536998  0.55094558  1
  O  O18  1  0.01289733  0.41199125  0.59431970  1
  O  O19  1  0.14866383  0.26382178  0.25787902  1
  O  O20  1  0.55094558  0.89536998  0.20402817  1
  O  O21  1  0.14272008  0.73617822  0.85133617  1
  O  O22  1  0.40568030  0.58800875  0.19522578  1
  O  O23  1  0.15512204  0.19310537  0.49493584  1
  O  O24  1  0.50506416  0.80689463  0.45695351  1
  O  O25  1  0.19522578  0.58800875  0.98710267  1
  O  O26  1  0.74212098  0.73617822  0.14272008  1
  O  O27  1  0.45695351  0.80689463  0.84487796  1
  O  O28  1  0.54304649  0.19310537  0.15512204  1
  O  O29  1  0.25787902  0.26382178  0.85727992  1
  O  O30  1  0.80477422  0.41199125  0.01289733  1
  O  O31  1  0.49493584  0.19310537  0.54304649  1
  O  O32  1  0.84487796  0.80689463  0.50506416  1
  O  O33  1  0.59431970  0.41199125  0.80477422  1
  O  O34  1  0.85727992  0.26382178  0.14866383  1
  O  O35  1  0.44905442  0.10463002  0.79597183  1
  O  O36  1  0.85133617  0.73617822  0.74212098  1
  O  O37  1  0.98710267  0.58800875  0.40568030  1
  O  O38  1  0.85960378  0.10463002  0.44905442  1
  O  O39  1  0.79597183  0.10463002  0.85960378  1
