# generated using pymatgen
data_Li3Mn4(BO3)4
_symmetry_space_group_name_H-M   'P 1'
_cell_length_a   5.30397567
_cell_length_b   13.96921553
_cell_length_c   10.30321599
_cell_angle_alpha   90.45555307
_cell_angle_beta   91.99463355
_cell_angle_gamma   79.13485941
_symmetry_Int_Tables_number   1
_chemical_formula_structural   Li3Mn4(BO3)4
_chemical_formula_sum   'Li9 Mn12 B12 O36'
_cell_volume   749.24993629
_cell_formula_units_Z   3
loop_
 _symmetry_equiv_pos_site_id
 _symmetry_equiv_pos_as_xyz
  1  'x, y, z'
loop_
 _atom_site_type_symbol
 _atom_site_label
 _atom_site_symmetry_multiplicity
 _atom_site_fract_x
 _atom_site_fract_y
 _atom_site_fract_z
 _atom_site_occupancy
  Li  Li0  1  0.14146614  0.00799767  0.16196362  1
  Li  Li1  1  0.17767163  0.33670892  0.90311667  1
  Li  Li2  1  0.16480216  0.98487581  0.67131593  1
  Li  Li3  1  0.50287864  0.32441766  0.67079620  1
  Li  Li4  1  0.48012649  0.34282964  0.15978587  1
  Li  Li5  1  0.51207959  0.66453060  0.40033477  1
  Li  Li6  1  0.84386494  0.65289594  0.66938361  1
  Li  Li7  1  0.81351750  0.67579068  0.15537108  1
  Li  Li8  1  0.83595281  0.00089944  0.39952786  1
  Mn  Mn9  1  0.03640151  0.22933204  0.13413385  1
  Mn  Mn10  1  0.27361881  0.10953251  0.88240690  1
  Mn  Mn11  1  0.06404780  0.55728355  0.38248784  1
  Mn  Mn12  1  0.28604140  0.76587106  0.63364365  1
  Mn  Mn13  1  0.60878208  0.10405621  0.63638269  1
  Mn  Mn14  1  0.37863580  0.55732046  0.12782820  1
  Mn  Mn15  1  0.62678254  0.45096622  0.87852863  1
  Mn  Mn16  1  0.71589283  0.22911446  0.38659323  1
  Mn  Mn17  1  0.39691525  0.88625436  0.38250035  1
  Mn  Mn18  1  0.95376717  0.43688579  0.62358939  1
  Mn  Mn19  1  0.70464371  0.89555016  0.12594881  1
  Mn  Mn20  1  0.95001325  0.78286635  0.87954412  1
  B  B21  1  0.05306106  0.21750624  0.64571916  1
  B  B22  1  0.06895210  0.55410686  0.88009564  1
  B  B23  1  0.27120429  0.11181419  0.37409569  1
  B  B24  1  0.40700802  0.55089152  0.62194007  1
  B  B25  1  0.26995969  0.77990914  0.12253915  1
  B  B26  1  0.59770182  0.11662017  0.12161755  1
  B  B27  1  0.38922582  0.88253347  0.87604222  1
  B  B28  1  0.71542514  0.22271787  0.87861795  1
  B  B29  1  0.61188262  0.45133285  0.36339589  1
  B  B30  1  0.72591826  0.88505825  0.63203504  1
  B  B31  1  0.94644633  0.45031593  0.12122804  1
  B  B32  1  0.94499381  0.77975016  0.37156517  1
  O  O33  1  0.18420466  0.02437711  0.36195231  1
  O  O34  1  0.10882159  0.19675807  0.33329780  1
  O  O35  1  0.19914055  0.12470434  0.68862221  1
  O  O36  1  0.01271713  0.53883310  0.16111835  1
  O  O37  1  0.16427310  0.29727772  0.65002695  1
  O  O38  1  0.12598189  0.36755660  0.10301388  1
  O  O39  1  0.14563232  0.55733624  0.59021061  1
  O  O40  1  0.01555479  0.77749579  0.07322856  1
  O  O41  1  0.34050825  0.11036392  0.07402628  1
  O  O42  1  0.31224272  0.54857320  0.94300980  1
  O  O43  1  0.19588688  0.77389406  0.42087332  1
  O  O44  1  0.52070298  0.11244870  0.42409317  1
  O  O45  1  0.30633605  0.79650555  0.84057043  1
  O  O46  1  0.54862450  0.31070874  0.86921677  1
  O  O47  1  0.63305109  0.13661784  0.84592436  1
  O  O48  1  0.23028671  0.97098417  0.86106968  1
  O  O49  1  0.52604658  0.36725495  0.34429531  1
  O  O50  1  0.45189145  0.54200431  0.31804599  1
  O  O51  1  0.54865681  0.46355481  0.67109616  1
  O  O52  1  0.32721730  0.86920917  0.16111887  1
  O  O53  1  0.64980734  0.20738409  0.15344060  1
  O  O54  1  0.51947387  0.63073448  0.60095080  1
  O  O55  1  0.44417711  0.69525763  0.13670203  1
  O  O56  1  0.77385166  0.03344176  0.14048627  1
  O  O57  1  0.46975223  0.88574205  0.59712979  1
  O  O58  1  0.80025728  0.22162177  0.60048952  1
  O  O59  1  0.68650296  0.44861557  0.09456458  1
  O  O60  1  0.63914010  0.87580958  0.92408578  1
  O  O61  1  0.97463079  0.22127190  0.91662623  1
  O  O62  1  0.83979151  0.45865816  0.42536248  1
  O  O63  1  0.91415330  0.64057056  0.85472348  1
  O  O64  1  0.00245076  0.46576795  0.84075918  1
  O  O65  1  0.84358770  0.69662431  0.35406436  1
  O  O66  1  0.79398451  0.87002970  0.33687837  1
  O  O67  1  0.87608580  0.79736017  0.68475190  1
  O  O68  1  0.83448272  0.96483271  0.61107897  1
