# generated using pymatgen
data_Na2V6O15
_symmetry_space_group_name_H-M   'P 1'
_cell_length_a   3.66621903
_cell_length_b   8.10089075
_cell_length_c   10.61821327
_cell_angle_alpha   77.22031151
_cell_angle_beta   89.87321243
_cell_angle_gamma   76.96852801
_symmetry_Int_Tables_number   1
_chemical_formula_structural   Na2V6O15
_chemical_formula_sum   'Na2 V6 O15'
_cell_volume   299.24733449
_cell_formula_units_Z   1
loop_
 _symmetry_equiv_pos_site_id
 _symmetry_equiv_pos_as_xyz
  1  'x, y, z'
loop_
 _atom_site_type_symbol
 _atom_site_label
 _atom_site_symmetry_multiplicity
 _atom_site_fract_x
 _atom_site_fract_y
 _atom_site_fract_z
 _atom_site_occupancy
  Na  Na0  1  0.54036677  0.91442459  0.34659088  1
  Na  Na1  1  0.45800668  0.08456944  0.65412957  1
  V  V2  1  0.67607801  0.64945343  0.90413428  1
  V  V3  1  0.10313272  0.79190106  0.09864122  1
  V  V4  1  0.71593026  0.56699111  0.59390283  1
  V  V5  1  0.28416843  0.43190638  0.40524930  1
  V  V6  1  0.88067893  0.23704590  0.88998975  1
  V  V7  1  0.32278809  0.34918652  0.10222020  1
  O  O8  1  0.58285055  0.84030678  0.80622496  1
  O  O9  1  0.18810004  0.62386599  0.95934456  1
  O  O10  1  0.60761670  0.78257399  0.55707075  1
  O  O11  1  0.09147211  0.81327435  0.25145761  1
  O  O12  1  0.74639006  0.50648388  0.79151889  1
  O  O13  1  0.63202177  0.73431983  0.07391484  1
  O  O14  1  0.25588869  0.48705336  0.57814620  1
  O  O15  1  0.74850167  0.50317324  0.41667721  1
  O  O16  1  0.36974281  0.25857064  0.92977186  1
  O  O17  1  0.25803928  0.48193611  0.21922506  1
  O  O18  1  0.90535758  0.18948627  0.74512689  1
  O  O19  1  0.39211072  0.21748649  0.44125854  1
  O  O20  1  0.80849371  0.37955040  0.04676374  1
  O  O21  1  0.41699660  0.15530737  0.19575958  1
  O  O22  1  0.99952681  -0.00072914  0.00174929  1
