# generated using pymatgen
data_In3NO3
_symmetry_space_group_name_H-M   'P 1'
_cell_length_a   6.53023508
_cell_length_b   6.59776570
_cell_length_c   6.59776570
_cell_angle_alpha   59.32398040
_cell_angle_beta   90.00000000
_cell_angle_gamma   119.66199020
_symmetry_Int_Tables_number   1
_chemical_formula_structural   In3NO3
_chemical_formula_sum   'In6 N2 O6'
_cell_volume   199.95835258
_cell_formula_units_Z   2
loop_
 _symmetry_equiv_pos_site_id
 _symmetry_equiv_pos_as_xyz
  1  'x, y, z'
loop_
 _atom_site_type_symbol
 _atom_site_label
 _atom_site_symmetry_multiplicity
 _atom_site_fract_x
 _atom_site_fract_y
 _atom_site_fract_z
 _atom_site_occupancy
  In  In0  1  0.62500000  0.25000000  0.12500000  1
  In  In1  1  0.98989386  0.97978873  0.98989386  1
  In  In2  1  0.62500000  0.25000000  0.62500000  1
  In  In3  1  0.26010614  0.52021127  0.26010614  1
  In  In4  1  0.62500000  0.75000000  0.62500000  1
  In  In5  1  0.12500000  0.75000000  0.62500000  1
  N  N6  1  0.85873114  0.71746328  0.85873114  1
  N  N7  1  0.39126886  0.78253672  0.39126886  1
  O  O8  1  0.85781845  0.24337300  0.38555455  1
  O  O9  1  0.38555455  0.24337300  0.38555455  1
  O  O10  1  0.86444545  0.72889091  0.39218155  1
  O  O11  1  0.86444545  0.25662700  0.86444545  1
  O  O12  1  0.39218155  0.25662700  0.86444545  1
  O  O13  1  0.38555455  0.77110909  0.85781845  1
