# generated using pymatgen
data_Li2VF5
_symmetry_space_group_name_H-M   'P 1'
_cell_length_a   13.56697559
_cell_length_b   7.14502697
_cell_length_c   5.17398869
_cell_angle_alpha   90.00000000
_cell_angle_beta   90.00000000
_cell_angle_gamma   133.72760575
_symmetry_Int_Tables_number   1
_chemical_formula_structural   Li2VF5
_chemical_formula_sum   'Li8 V4 F20'
_cell_volume   362.43563810
_cell_formula_units_Z   4
loop_
 _symmetry_equiv_pos_site_id
 _symmetry_equiv_pos_as_xyz
  1  'x, y, z'
loop_
 _atom_site_type_symbol
 _atom_site_label
 _atom_site_symmetry_multiplicity
 _atom_site_fract_x
 _atom_site_fract_y
 _atom_site_fract_z
 _atom_site_occupancy
  Li  Li0  1  0.99653345  0.13093068  0.75911988  1
  Li  Li1  1  0.06823190  0.54884192  0.24877842  1
  Li  Li2  1  0.43176810  0.95115808  0.74877842  1
  Li  Li3  1  0.50346655  0.36906932  0.25911988  1
  Li  Li4  1  0.49653345  0.63093068  0.74088012  1
  Li  Li5  1  0.56823190  0.04884192  0.25122158  1
  Li  Li6  1  0.93176810  0.45115808  0.75122158  1
  Li  Li7  1  0.00346655  0.86906932  0.24088012  1
  V  V8  1  0.20057249  0.03625753  0.73216010  1
  V  V9  1  0.29942751  0.46374247  0.23216010  1
  V  V10  1  0.70057249  0.53625753  0.76783990  1
  V  V11  1  0.79942751  0.96374247  0.26783990  1
  F  F12  1  0.14213214  0.19535397  0.97010798  1
  F  F13  1  0.14274732  0.19244026  0.48664522  1
  F  F14  1  0.35725268  0.30755974  0.98664522  1
  F  F15  1  0.06523387  0.75677440  0.98835508  1
  F  F16  1  0.05504459  0.74559381  0.49380492  1
  F  F17  1  0.35786786  0.30464603  0.47010798  1
  F  F18  1  0.27263736  0.88570362  0.72233930  1
  F  F19  1  0.22736264  0.61429638  0.22233930  1
  F  F20  1  0.44495541  0.75440619  0.99380492  1
  F  F21  1  0.43476613  0.74322560  0.48835508  1
  F  F22  1  0.56523387  0.25677440  0.51164492  1
  F  F23  1  0.55504459  0.24559381  0.00619508  1
  F  F24  1  0.77263736  0.38570362  0.77766070  1
  F  F25  1  0.72736264  0.11429638  0.27766070  1
  F  F26  1  0.64213214  0.69535397  0.52989202  1
  F  F27  1  0.94495541  0.25440619  0.50619508  1
  F  F28  1  0.93476613  0.24322560  0.01164492  1
  F  F29  1  0.64274732  0.69244026  0.01335478  1
  F  F30  1  0.85725268  0.80755974  0.51335478  1
  F  F31  1  0.85786786  0.80464603  0.02989202  1
