# generated using pymatgen
data_V3OF11
_symmetry_space_group_name_H-M   'P 1'
_cell_length_a   5.45718898
_cell_length_b   5.27370984
_cell_length_c   14.75331053
_cell_angle_alpha   90.02307625
_cell_angle_beta   100.31944389
_cell_angle_gamma   90.07698647
_symmetry_Int_Tables_number   1
_chemical_formula_structural   V3OF11
_chemical_formula_sum   'V6 O2 F22'
_cell_volume   417.72625251
_cell_formula_units_Z   2
loop_
 _symmetry_equiv_pos_site_id
 _symmetry_equiv_pos_as_xyz
  1  'x, y, z'
loop_
 _atom_site_type_symbol
 _atom_site_label
 _atom_site_symmetry_multiplicity
 _atom_site_fract_x
 _atom_site_fract_y
 _atom_site_fract_z
 _atom_site_occupancy
  V  V0  1  0.99974422  0.00041692  0.99960434  1
  V  V1  1  0.15492419  0.50855948  0.33387263  1
  V  V2  1  0.33518751  0.00552522  0.66777219  1
  V  V3  1  0.49995152  0.50013812  0.99975848  1
  V  V4  1  0.62580371  0.02481067  0.32996134  1
  V  V5  1  0.83339052  0.51076934  0.66049209  1
  O  O6  1  0.37461969  0.20499593  0.31073486  1
  O  O7  1  0.78781672  0.57827625  0.55191886  1
  F  F8  1  0.03031260  0.20765155  0.64230772  1
  F  F9  1  0.19013891  0.30180209  0.97548175  1
  F  F10  1  0.13572556  0.70393361  0.69248178  1
  F  F11  1  0.04200237  0.08556204  0.11727450  1
  F  F12  1  0.21598195  0.41206435  0.45074527  1
  F  F13  1  0.37740393  0.08163636  0.78540645  1
  F  F14  1  0.12868306  0.57626491  0.21550088  1
  F  F15  1  0.29373290  0.91140929  0.55115201  1
  F  F16  1  0.45784971  0.58707643  0.88242109  1
  F  F17  1  0.53018078  0.29817624  0.64223953  1
  F  F18  1  0.68935380  0.19799407  0.97516665  1
  F  F19  1  0.31035724  0.80168263  0.02493535  1
  F  F20  1  0.46920231  0.71385659  0.35737809  1
  F  F21  1  0.63991083  0.79241191  0.69303066  1
  F  F22  1  0.54248204  0.41392758  0.11730831  1
  F  F23  1  0.72701307  0.07211481  0.44991091  1
  F  F24  1  0.87495852  0.40789673  0.78200994  1
  F  F25  1  0.63485749  0.90678243  0.21825929  1
  F  F26  1  0.95942743  0.91293829  0.88239877  1
  F  F27  1  0.85693073  0.29013074  0.30869616  1
  F  F28  1  0.81014806  0.69859862  0.02466802  1
  F  F29  1  0.97191065  0.79259379  0.35711109  1
