# generated using pymatgen
data_Ti3MnCo2(PO4)6
_symmetry_space_group_name_H-M   'P 1'
_cell_length_a   8.56731952
_cell_length_b   8.56731991
_cell_length_c   8.56732000
_cell_angle_alpha   60.83831219
_cell_angle_beta   60.83831413
_cell_angle_gamma   60.83831021
_symmetry_Int_Tables_number   1
_chemical_formula_structural   Ti3MnCo2(PO4)6
_chemical_formula_sum   'Ti3 Mn1 Co2 P6 O24'
_cell_volume   453.05712531
_cell_formula_units_Z   1
loop_
 _symmetry_equiv_pos_site_id
 _symmetry_equiv_pos_as_xyz
  1  'x, y, z'
loop_
 _atom_site_type_symbol
 _atom_site_label
 _atom_site_symmetry_multiplicity
 _atom_site_fract_x
 _atom_site_fract_y
 _atom_site_fract_z
 _atom_site_occupancy
  Ti  Ti0  1  0.14367324  0.14367324  0.14367324  1
  Ti  Ti1  1  0.35406847  0.35406847  0.35406847  1
  Ti  Ti2  1  0.64714291  0.64714291  0.64714291  1
  Mn  Mn3  1  0.85539048  0.85539048  0.85539048  1
  Co  Co4  1  0.99625012  0.99625012  0.99625012  1
  Co  Co5  1  0.49913652  0.49913652  0.49913652  1
  P  P6  1  0.04953819  0.75263314  0.44991308  1
  P  P7  1  0.44991308  0.04953819  0.75263314  1
  P  P8  1  0.25543213  0.54173866  0.95455257  1
  P  P9  1  0.54173866  0.95455257  0.25543213  1
  P  P10  1  0.95455257  0.25543213  0.54173866  1
  P  P11  1  0.75263314  0.44991308  0.04953819  1
  O  O12  1  0.11075923  0.33577985  0.47929111  1
  O  O13  1  0.33577985  0.47929111  0.11075923  1
  O  O14  1  0.05950326  0.91104022  0.25214940  1
  O  O15  1  0.47929111  0.11075923  0.33577985  1
  O  O16  1  0.02250741  0.81598886  0.59800389  1
  O  O17  1  0.24318183  0.58784618  0.42693657  1
  O  O18  1  0.25214940  0.05950326  0.91104022  1
  O  O19  1  0.42693657  0.24318183  0.58784618  1
  O  O20  1  0.18680417  0.38035289  0.00229996  1
  O  O21  1  0.58784618  0.42693657  0.24318183  1
  O  O22  1  0.10261622  0.73400252  0.95191026  1
  O  O23  1  0.38035289  0.00229996  0.18680417  1
  O  O24  1  0.59800389  0.02250741  0.81598886  1
  O  O25  1  0.91104022  0.25214940  0.05950326  1
  O  O26  1  0.41661764  0.55072617  0.75924164  1
  O  O27  1  0.81598886  0.59800389  0.02250741  1
  O  O28  1  0.55072617  0.75924164  0.41661764  1
  O  O29  1  0.73400252  0.95191026  0.10261622  1
  O  O30  1  0.75924164  0.41661764  0.55072617  1
  O  O31  1  0.00229996  0.18680417  0.38035289  1
  O  O32  1  0.50315993  0.88102492  0.68878937  1
  O  O33  1  0.95191026  0.10261622  0.73400252  1
  O  O34  1  0.68878937  0.50315993  0.88102492  1
  O  O35  1  0.88102492  0.68878937  0.50315993  1
