# generated using pymatgen
data_Mn3OF5
_symmetry_space_group_name_H-M   'P 1'
_cell_length_a   7.35380914
_cell_length_b   5.89765094
_cell_length_c   5.89765094
_cell_angle_alpha   73.15757685
_cell_angle_beta   74.12782451
_cell_angle_gamma   74.12782451
_symmetry_Int_Tables_number   1
_chemical_formula_structural   Mn3OF5
_chemical_formula_sum   'Mn6 O2 F10'
_cell_volume   230.17543471
_cell_formula_units_Z   2
loop_
 _symmetry_equiv_pos_site_id
 _symmetry_equiv_pos_as_xyz
  1  'x, y, z'
loop_
 _atom_site_type_symbol
 _atom_site_label
 _atom_site_symmetry_multiplicity
 _atom_site_fract_x
 _atom_site_fract_y
 _atom_site_fract_z
 _atom_site_occupancy
  Mn  Mn0  1  0.83346048  0.67037405  0.67037405  1
  Mn  Mn1  1  0.66666700  0.33333300  0.33333300  1
  Mn  Mn2  1  0.31944258  0.64545781  0.64545781  1
  Mn  Mn3  1  0.16666700  0.33333300  0.33333300  1
  Mn  Mn4  1  0.49987352  0.99629295  0.99629295  1
  Mn  Mn5  1  0.01389042  0.02120919  0.02120919  1
  O  O6  1  0.95262909  0.25171151  0.25171151  1
  O  O7  1  0.38070391  0.41495449  0.41495449  1
  F  F8  1  0.66666700  0.03578801  0.63087799  1
  F  F9  1  0.31890630  0.35441299  0.97104161  1
  F  F10  1  0.30824465  0.87950005  0.87950005  1
  F  F11  1  0.63023748  0.56158101  0.56158101  1
  F  F12  1  0.70309652  0.10508499  0.10508499  1
  F  F13  1  0.02508935  0.78716595  0.78716595  1
  F  F14  1  0.31890630  0.97104161  0.35441299  1
  F  F15  1  0.66666700  0.63087799  0.03578801  1
  F  F16  1  0.01442670  0.31225301  0.69562539  1
  F  F17  1  0.01442670  0.69562539  0.31225301  1
