# generated using pymatgen
data_Mn6O5F7
_symmetry_space_group_name_H-M   'P 1'
_cell_length_a   4.75169047
_cell_length_b   4.75169047
_cell_length_c   9.45460775
_cell_angle_alpha   89.97931664
_cell_angle_beta   89.97931664
_cell_angle_gamma   94.46296792
_symmetry_Int_Tables_number   1
_chemical_formula_structural   Mn6O5F7
_chemical_formula_sum   'Mn6 O5 F7'
_cell_volume   212.82413978
_cell_formula_units_Z   1
loop_
 _symmetry_equiv_pos_site_id
 _symmetry_equiv_pos_as_xyz
  1  'x, y, z'
loop_
 _atom_site_type_symbol
 _atom_site_label
 _atom_site_symmetry_multiplicity
 _atom_site_fract_x
 _atom_site_fract_y
 _atom_site_fract_z
 _atom_site_occupancy
  Mn  Mn0  1  0.00291416  0.99708584  0.00000000  1
  Mn  Mn1  1  0.98225825  0.96432689  0.34028924  1
  Mn  Mn2  1  0.03567311  0.01774175  0.65971076  1
  Mn  Mn3  1  0.49949378  0.49221165  0.84107707  1
  Mn  Mn4  1  0.50778835  0.50050622  0.15892293  1
  Mn  Mn5  1  0.47744382  0.52255618  0.50000000  1
  O  O6  1  0.18281884  0.81718116  0.50000000  1
  O  O7  1  0.30877957  0.29907138  0.00162924  1
  O  O8  1  0.31592046  0.32332052  0.66769980  1
  O  O9  1  0.70092862  0.69122043  0.99837076  1
  O  O10  1  0.67667948  0.68407954  0.33230020  1
  F  F11  1  0.19116884  0.79789149  0.16535780  1
  F  F12  1  0.20210851  0.80883116  0.83464220  1
  F  F13  1  0.28433597  0.28660537  0.32196834  1
  F  F14  1  0.71339463  0.71566403  0.67803166  1
  F  F15  1  0.78130236  0.21869764  0.50000000  1
  F  F16  1  0.80995241  0.17296018  0.17709409  1
  F  F17  1  0.82703982  0.19004759  0.82290591  1
