# generated using pymatgen
data_Na3CuO2
_symmetry_space_group_name_H-M   'P 1'
_cell_length_a   6.01174716
_cell_length_b   6.01174716
_cell_length_c   6.01174714
_cell_angle_alpha   68.06923842
_cell_angle_beta   68.06923842
_cell_angle_gamma   68.06923923
_symmetry_Int_Tables_number   1
_chemical_formula_structural   Na3CuO2
_chemical_formula_sum   'Na6 Cu2 O4'
_cell_volume   179.91854448
_cell_formula_units_Z   2
loop_
 _symmetry_equiv_pos_site_id
 _symmetry_equiv_pos_as_xyz
  1  'x, y, z'
loop_
 _atom_site_type_symbol
 _atom_site_label
 _atom_site_symmetry_multiplicity
 _atom_site_fract_x
 _atom_site_fract_y
 _atom_site_fract_z
 _atom_site_occupancy
  Na  Na0  1  0.25000000  0.99087922  0.50912078  1
  Na  Na1  1  0.00912078  0.49087922  0.75000000  1
  Na  Na2  1  0.49087922  0.75000000  0.00912078  1
  Na  Na3  1  0.50912078  0.25000000  0.99087922  1
  Na  Na4  1  0.99087922  0.50912078  0.25000000  1
  Na  Na5  1  0.75000000  0.00912078  0.49087922  1
  Cu  Cu6  1  0.00000000  0.00000000  0.00000000  1
  Cu  Cu7  1  0.50000000  0.50000000  0.50000000  1
  O  O8  1  0.36867920  0.36867920  0.36867920  1
  O  O9  1  0.86867920  0.86867920  0.86867920  1
  O  O10  1  0.63132080  0.63132080  0.63132080  1
  O  O11  1  0.13132080  0.13132080  0.13132080  1
