# generated using pymatgen
data_MnOF
_symmetry_space_group_name_H-M   'P 1'
_cell_length_a   4.82005460
_cell_length_b   14.32606353
_cell_length_c   3.06228455
_cell_angle_alpha   90.00000000
_cell_angle_beta   90.00000000
_cell_angle_gamma   96.51111859
_symmetry_Int_Tables_number   1
_chemical_formula_structural   MnOF
_chemical_formula_sum   'Mn6 O6 F6'
_cell_volume   210.09419088
_cell_formula_units_Z   6
loop_
 _symmetry_equiv_pos_site_id
 _symmetry_equiv_pos_as_xyz
  1  'x, y, z'
loop_
 _atom_site_type_symbol
 _atom_site_label
 _atom_site_symmetry_multiplicity
 _atom_site_fract_x
 _atom_site_fract_y
 _atom_site_fract_z
 _atom_site_occupancy
  Mn  Mn0  1  0.05487793  0.99834299  0.00000000  1
  Mn  Mn1  1  0.00815736  0.33350884  0.00000000  1
  Mn  Mn2  1  0.96908227  0.66663575  0.00000000  1
  Mn  Mn3  1  0.52847735  0.16838087  0.50000000  1
  Mn  Mn4  1  0.49060434  0.49897292  0.50000000  1
  Mn  Mn5  1  0.45146708  0.83176240  0.50000000  1
  O  O6  1  0.20164987  0.93594130  0.50000000  1
  O  O7  1  0.33893143  0.10236552  0.00000000  1
  O  O8  1  0.26602411  0.76807947  0.00000000  1
  O  O9  1  0.30119552  0.43416555  0.00000000  1
  O  O10  1  0.71658699  0.23309078  0.00000000  1
  O  O11  1  0.67608089  0.56637982  0.00000000  1
  F  F12  1  0.19926798  0.27011342  0.50000000  1
  F  F13  1  0.16414647  0.60630547  0.50000000  1
  F  F14  1  0.69346175  0.89829037  0.00000000  1
  F  F15  1  0.85019819  0.05647328  0.50000000  1
  F  F16  1  0.81616172  0.39648420  0.50000000  1
  F  F17  1  0.77363075  0.73470704  0.50000000  1
