# generated using pymatgen
data_Li3Mn4(BO3)4
_symmetry_space_group_name_H-M   'P 1'
_cell_length_a   5.89372378
_cell_length_b   9.84392876
_cell_length_c   9.07375311
_cell_angle_alpha   98.17912778
_cell_angle_beta   102.77226885
_cell_angle_gamma   80.15443604
_symmetry_Int_Tables_number   1
_chemical_formula_structural   Li3Mn4(BO3)4
_chemical_formula_sum   'Li6 Mn8 B8 O24'
_cell_volume   502.84996689
_cell_formula_units_Z   2
loop_
 _symmetry_equiv_pos_site_id
 _symmetry_equiv_pos_as_xyz
  1  'x, y, z'
loop_
 _atom_site_type_symbol
 _atom_site_label
 _atom_site_symmetry_multiplicity
 _atom_site_fract_x
 _atom_site_fract_y
 _atom_site_fract_z
 _atom_site_occupancy
  Li  Li0  1  0.70039204  0.96010281  0.53178206  1
  Li  Li1  1  0.76942292  0.54516414  0.46939352  1
  Li  Li2  1  0.48057708  0.20483586  0.03060648  1
  Li  Li3  1  0.54960796  0.78989719  0.96821794  1
  Li  Li4  1  0.22727634  0.46162311  0.53366720  1
  Li  Li5  1  0.02272366  0.28837689  0.96633280  1
  Mn  Mn6  1  0.78858277  0.97032487  0.19364039  1
  Mn  Mn7  1  0.98343904  0.26351516  0.30106779  1
  Mn  Mn8  1  0.72930725  0.51926141  0.81133273  1
  Mn  Mn9  1  0.46141723  0.77967513  0.30635961  1
  Mn  Mn10  1  0.52069275  0.23073859  0.68866727  1
  Mn  Mn11  1  0.26656096  0.48648484  0.19893221  1
  Mn  Mn12  1  0.02504980  0.72962165  0.71551806  1
  Mn  Mn13  1  0.22495020  0.02037835  0.78448194  1
  B  B14  1  0.98345133  0.28610704  0.63560018  1
  B  B15  1  0.72420248  0.52678275  0.13500980  1
  B  B16  1  0.76693921  0.98004451  0.86046730  1
  B  B17  1  0.48306079  0.76995549  0.63953270  1
  B  B18  1  0.52579752  0.22321725  0.36499020  1
  B  B19  1  0.23791464  0.02378351  0.12513024  1
  B  B20  1  0.26654867  0.46389296  0.86439982  1
  B  B21  1  0.01208536  0.72621649  0.37486976  1
  O  O22  1  0.90860912  0.41516176  0.13976996  1
  O  O23  1  0.82040294  0.83443367  0.35807501  1
  O  O24  1  0.88794068  0.94317870  0.74006290  1
  O  O25  1  0.93594720  0.36486733  0.51703650  1
  O  O26  1  0.65474172  0.60279959  0.01344109  1
  O  O27  1  0.81032394  0.89694571  0.97515972  1
  O  O28  1  0.84397543  0.30806183  0.74769462  1
  O  O29  1  0.60880857  0.56316676  0.25757840  1
  O  O30  1  0.65538664  0.65425470  0.64458328  1
  O  O31  1  0.42959706  0.91556633  0.14192499  1
  O  O32  1  0.64119143  0.18683324  0.24242160  1
  O  O33  1  0.43967606  0.85305429  0.52484028  1
  O  O34  1  0.59525828  0.14720041  0.48655891  1
  O  O35  1  0.36205932  0.80682130  0.75993710  1
  O  O36  1  0.59461336  0.09574530  0.85541672  1
  O  O37  1  0.34139088  0.33483824  0.36023004  1
  O  O38  1  0.40602457  0.44193817  0.75230538  1
  O  O39  1  0.15230932  0.69877767  0.26622274  1
  O  O40  1  0.19755127  0.10620982  0.00887259  1
  O  O41  1  0.31405280  0.38513267  0.98296350  1
  O  O42  1  0.05244873  0.64379018  0.49112741  1
  O  O43  1  0.09769068  0.05122233  0.23377726  1
  O  O44  1  0.18309393  0.18805471  0.66069681  1
  O  O45  1  0.06690607  0.56194529  0.83930319  1
