# generated using pymatgen
data_Li2V2P7HO24
_symmetry_space_group_name_H-M   'P 1'
_cell_length_a   4.99079948
_cell_length_b   18.01494078
_cell_length_c   10.46444783
_cell_angle_alpha   90.00000000
_cell_angle_beta   96.43079583
_cell_angle_gamma   90.00000000
_symmetry_Int_Tables_number   1
_chemical_formula_structural   Li2V2P7HO24
_chemical_formula_sum   'Li4 V4 P14 H2 O48'
_cell_volume   934.92764699
_cell_formula_units_Z   2
loop_
 _symmetry_equiv_pos_site_id
 _symmetry_equiv_pos_as_xyz
  1  'x, y, z'
loop_
 _atom_site_type_symbol
 _atom_site_label
 _atom_site_symmetry_multiplicity
 _atom_site_fract_x
 _atom_site_fract_y
 _atom_site_fract_z
 _atom_site_occupancy
  Li  Li0  1  0.12770574  0.75000000  0.64672193  1
  Li  Li1  1  0.46507034  0.25000000  0.05812535  1
  Li  Li2  1  0.53492966  0.75000000  0.94187465  1
  Li  Li3  1  0.87229426  0.25000000  0.35327807  1
  V  V4  1  0.17742572  0.47685695  0.80603801  1
  V  V5  1  0.17742572  0.02314305  0.80603801  1
  V  V6  1  0.82257428  0.97685695  0.19396199  1
  V  V7  1  0.82257428  0.52314305  0.19396199  1
  P  P8  1  0.16196425  0.12608692  0.53658422  1
  P  P9  1  0.16196425  0.37391308  0.53658422  1
  P  P10  1  0.41087633  0.25000000  0.68982046  1
  P  P11  1  0.28112502  0.90357186  0.04710871  1
  P  P12  1  0.28112502  0.59642814  0.04710871  1
  P  P13  1  0.35595731  0.08575369  0.29353992  1
  P  P14  1  0.35595731  0.41424631  0.29353992  1
  P  P15  1  0.64404369  0.58575269  0.70646008  1
  P  P16  1  0.64404369  0.91424731  0.70646008  1
  P  P17  1  0.71887498  0.09642814  0.95289129  1
  P  P18  1  0.71887498  0.40357186  0.95289129  1
  P  P19  1  0.58912367  0.75000000  0.31017954  1
  P  P20  1  0.83803575  0.87391308  0.46341578  1
  P  P21  1  0.83803575  0.62608692  0.46341578  1
  H  H22  1  0.11100484  0.75000000  0.25204505  1
  H  H23  1  0.88899516  0.25000000  0.74795495  1
  O  O24  1  0.06515844  0.66822531  0.53128885  1
  O  O25  1  0.06515844  0.83177469  0.53128885  1
  O  O26  1  0.01449615  0.59796868  0.11122123  1
  O  O27  1  0.01449615  0.90203132  0.11122123  1
  O  O28  1  0.18400567  0.25000000  0.77068175  1
  O  O29  1  0.09374223  0.07498502  0.64510108  1
  O  O30  1  0.09374223  0.42501498  0.64510108  1
  O  O31  1  0.26053320  0.52503459  0.95982863  1
  O  O32  1  0.26053320  0.97496541  0.95982863  1
  O  O33  1  0.14006048  0.03156475  0.22640006  1
  O  O34  1  0.14006048  0.46843525  0.22640006  1
  O  O35  1  0.33523964  0.66424077  0.97423178  1
  O  O36  1  0.33523964  0.83575923  0.97423178  1
  O  O37  1  0.31988230  0.07452629  0.44579967  1
  O  O38  1  0.31988230  0.42547371  0.44579967  1
  O  O39  1  0.32524122  0.16437012  0.25284224  1
  O  O40  1  0.32524122  0.33562988  0.25284224  1
  O  O41  1  0.40504708  0.17990568  0.59496635  1
  O  O42  1  0.40504708  0.32009432  0.59496635  1
  O  O43  1  0.31260961  0.75000000  0.23327157  1
  O  O44  1  0.36552720  0.54940914  0.71668737  1
  O  O45  1  0.36552720  0.95059086  0.71668737  1
  O  O46  1  0.48811109  0.07944926  0.84088730  1
  O  O47  1  0.48811109  0.42055074  0.84088730  1
  O  O48  1  0.51188891  0.57944926  0.15911270  1
  O  O49  1  0.51188891  0.92055074  0.15911270  1
  O  O50  1  0.63447280  0.45059086  0.28331263  1
  O  O51  1  0.63447280  0.04940914  0.28331263  1
  O  O52  1  0.68739039  0.25000000  0.76672843  1
  O  O53  1  0.59495292  0.82009432  0.40503365  1
  O  O54  1  0.59495292  0.67990568  0.40503365  1
  O  O55  1  0.67475878  0.83562988  0.74715776  1
  O  O56  1  0.67475878  0.66437012  0.74715776  1
  O  O57  1  0.68011770  0.57452629  0.55420033  1
  O  O58  1  0.68011770  0.92547371  0.55420033  1
  O  O59  1  0.66476036  0.16424077  0.02576822  1
  O  O60  1  0.66476036  0.33575923  0.02576822  1
  O  O61  1  0.85993952  0.96843525  0.77359994  1
  O  O62  1  0.85993952  0.53156475  0.77359994  1
  O  O63  1  0.73946680  0.02503459  0.04017137  1
  O  O64  1  0.73946680  0.47496541  0.04017137  1
  O  O65  1  0.90625777  0.92501498  0.35489892  1
  O  O66  1  0.90625777  0.57498502  0.35489892  1
  O  O67  1  0.81599433  0.75000000  0.22931825  1
  O  O68  1  0.98550385  0.09796868  0.88877877  1
  O  O69  1  0.98550385  0.40203132  0.88877877  1
  O  O70  1  0.93484156  0.33177469  0.46871115  1
  O  O71  1  0.93484156  0.16822531  0.46871115  1
