# generated using pymatgen
data_Li3FeP2HO8
_symmetry_space_group_name_H-M   'P 1'
_cell_length_a   5.13645080
_cell_length_b   6.21706564
_cell_length_c   5.11100046
_cell_angle_alpha   90.56640196
_cell_angle_beta   114.82424156
_cell_angle_gamma   90.74811118
_symmetry_Int_Tables_number   1
_chemical_formula_structural   Li3FeP2HO8
_chemical_formula_sum   'Li3 Fe1 P2 H1 O8'
_cell_volume   148.09816103
_cell_formula_units_Z   1
loop_
 _symmetry_equiv_pos_site_id
 _symmetry_equiv_pos_as_xyz
  1  'x, y, z'
loop_
 _atom_site_type_symbol
 _atom_site_label
 _atom_site_symmetry_multiplicity
 _atom_site_fract_x
 _atom_site_fract_y
 _atom_site_fract_z
 _atom_site_occupancy
  Li  Li0  1  0.28815839  0.77513545  0.63503152  1
  Li  Li1  1  0.00000000  0.50000000  0.00000000  1
  Li  Li2  1  0.71184161  0.22486455  0.36496848  1
  Fe  Fe3  1  0.00000000  0.00000000  0.00000000  1
  P  P4  1  0.35836552  0.25364214  0.63880079  1
  P  P5  1  0.64163448  0.74635786  0.36119921  1
  H  H6  1  0.50000000  0.50000000  0.00000000  1
  O  O7  1  0.24387339  0.06600320  0.75792832  1
  O  O8  1  0.30067448  0.47166851  0.76692446  1
  O  O9  1  0.20620135  0.25794605  0.30493540  1
  O  O10  1  0.31148738  0.76121260  0.26214162  1
  O  O11  1  0.68851262  0.23878740  0.73785838  1
  O  O12  1  0.79379865  0.74205395  0.69506460  1
  O  O13  1  0.69932552  0.52833149  0.23307554  1
  O  O14  1  0.75612661  0.93399680  0.24207168  1
