# generated using pymatgen
data_Li2Mn3(BO3)3
_symmetry_space_group_name_H-M   'P 1'
_cell_length_a   7.81726753
_cell_length_b   9.17544978
_cell_length_c   6.21169427
_cell_angle_alpha   104.02428321
_cell_angle_beta   79.73663063
_cell_angle_gamma   66.48817241
_symmetry_Int_Tables_number   1
_chemical_formula_structural   Li2Mn3(BO3)3
_chemical_formula_sum   'Li4 Mn6 B6 O18'
_cell_volume   376.98736395
_cell_formula_units_Z   2
loop_
 _symmetry_equiv_pos_site_id
 _symmetry_equiv_pos_as_xyz
  1  'x, y, z'
loop_
 _atom_site_type_symbol
 _atom_site_label
 _atom_site_symmetry_multiplicity
 _atom_site_fract_x
 _atom_site_fract_y
 _atom_site_fract_z
 _atom_site_occupancy
  Li  Li0  1  0.37494085  0.61979426  0.94111450  1
  Li  Li1  1  0.72952588  0.94788566  0.61150965  1
  Li  Li2  1  0.27047412  0.05211434  0.38849035  1
  Li  Li3  1  0.62505915  0.38020574  0.05888550  1
  Mn  Mn4  1  0.99629483  0.40769747  0.75861616  1
  Mn  Mn5  1  0.70830528  0.27735732  0.54551455  1
  Mn  Mn6  1  0.66401328  0.04067797  0.10034900  1
  Mn  Mn7  1  0.33598672  0.95932203  0.89965100  1
  Mn  Mn8  1  0.29169472  0.72264268  0.45448545  1
  Mn  Mn9  1  0.00370517  0.59230253  0.24138384  1
  B  B10  1  0.98247982  0.06571649  0.76284455  1
  B  B11  1  0.36845085  0.28242146  0.88369779  1
  B  B12  1  0.67963768  0.62869127  0.59332955  1
  B  B13  1  0.32036232  0.37130873  0.40667045  1
  B  B14  1  0.63154915  0.71757854  0.11630221  1
  B  B15  1  0.01752018  0.93428351  0.23715545  1
  O  O16  1  0.88033208  0.23932762  0.80780701  1
  O  O17  1  0.84143444  0.63324821  0.02653220  1
  O  O18  1  0.89183364  0.97248216  0.81332827  1
  O  O19  1  0.81482840  0.01836555  0.35541746  1
  O  O20  1  0.46630567  0.11450675  0.86383075  1
  O  O21  1  0.80289098  0.46520137  0.58363603  1
  O  O22  1  0.46075059  0.37532809  0.83899136  1
  O  O23  1  0.75934047  0.72056308  0.50867542  1
  O  O24  1  0.47872825  0.69331503  0.69031745  1
  O  O25  1  0.52127175  0.30668497  0.30968255  1
  O  O26  1  0.24065953  0.27943692  0.49132458  1
  O  O27  1  0.53924941  0.62467191  0.16100864  1
  O  O28  1  0.19710902  0.53479863  0.41636397  1
  O  O29  1  0.53369433  0.88549325  0.13616925  1
  O  O30  1  0.18517160  0.98163445  0.64458254  1
  O  O31  1  0.10816636  0.02751784  0.18667173  1
  O  O32  1  0.15856556  0.36675179  0.97346780  1
  O  O33  1  0.11966792  0.76067238  0.19219299  1
