# generated using pymatgen
data_Li4Nb2Cr3Ni3O16
_symmetry_space_group_name_H-M   'P 1'
_cell_length_a   5.92735190
_cell_length_b   5.93446440
_cell_length_c   9.65852758
_cell_angle_alpha   90.26550436
_cell_angle_beta   90.10344029
_cell_angle_gamma   119.77363923
_symmetry_Int_Tables_number   1
_chemical_formula_structural   Li4Nb2Cr3Ni3O16
_chemical_formula_sum   'Li4 Nb2 Cr3 Ni3 O16'
_cell_volume   294.89022051
_cell_formula_units_Z   1
loop_
 _symmetry_equiv_pos_site_id
 _symmetry_equiv_pos_as_xyz
  1  'x, y, z'
loop_
 _atom_site_type_symbol
 _atom_site_label
 _atom_site_symmetry_multiplicity
 _atom_site_fract_x
 _atom_site_fract_y
 _atom_site_fract_z
 _atom_site_occupancy
  Li  Li0  1  0.32204050  0.66157971  0.89903758  1
  Li  Li1  1  0.00702599  0.00196434  0.98976543  1
  Li  Li2  1  0.00293842  0.99898302  0.49467632  1
  Li  Li3  1  0.66747830  0.33803427  0.39955495  1
  Nb  Nb4  1  0.33533105  0.66059986  0.49975379  1
  Nb  Nb5  1  0.68325887  0.34324395  0.99519249  1
  Cr  Cr6  1  0.18659465  0.84015936  0.22122178  1
  Cr  Cr7  1  0.17505176  0.34230207  0.21598435  1
  Cr  Cr8  1  0.34842423  0.17074763  0.72598834  1
  Ni  Ni9  1  0.66183263  0.82966973  0.21178801  1
  Ni  Ni10  1  0.82703903  0.65838248  0.71186507  1
  Ni  Ni11  1  0.82634770  0.16771737  0.71202557  1
  O  O12  1  0.17731876  0.83958607  0.59259231  1
  O  O13  1  0.03927994  0.52383723  0.33948915  1
  O  O14  1  0.30970936  0.66275568  0.10733669  1
  O  O15  1  0.01500169  0.00107448  0.30435693  1
  O  O16  1  0.01537457  0.00707579  0.79862001  1
  O  O17  1  0.17412915  0.33357125  0.59367662  1
  O  O18  1  0.47266935  0.96593968  0.33874203  1
  O  O19  1  0.47541436  0.51682068  0.34030311  1
  O  O20  1  0.33718273  0.16721852  0.09848700  1
  O  O21  1  0.67104303  0.83632078  0.58824613  1
  O  O22  1  0.49896368  0.46522482  0.84629556  1
  O  O23  1  0.49880229  0.03246595  0.84479521  1
  O  O24  1  0.63503682  0.31858397  0.60846636  1
  O  O25  1  0.84342699  0.67280919  0.09312095  1
  O  O26  1  0.95347097  0.47640928  0.84434032  1
  O  O27  1  0.83981016  0.16721882  0.09212095  1
