# generated using pymatgen
data_Na(NiO2)2
_symmetry_space_group_name_H-M   'P 1'
_cell_length_a   8.81078278
_cell_length_b   10.86090691
_cell_length_c   2.85829883
_cell_angle_alpha   90.00216057
_cell_angle_beta   90.00506618
_cell_angle_gamma   89.97520254
_symmetry_Int_Tables_number   1
_chemical_formula_structural   Na(NiO2)2
_chemical_formula_sum   'Na4 Ni8 O16'
_cell_volume   273.51942505
_cell_formula_units_Z   4
loop_
 _symmetry_equiv_pos_site_id
 _symmetry_equiv_pos_as_xyz
  1  'x, y, z'
loop_
 _atom_site_type_symbol
 _atom_site_label
 _atom_site_symmetry_multiplicity
 _atom_site_fract_x
 _atom_site_fract_y
 _atom_site_fract_z
 _atom_site_occupancy
  Na  Na0  1  0.24062788  0.33410098  0.74998690  1
  Na  Na1  1  0.25899494  0.83501678  0.25017649  1
  Na  Na2  1  0.74016373  0.16569531  0.75002494  1
  Na  Na3  1  0.75879310  0.66510657  0.24989914  1
  Ni  Ni4  1  0.06165085  0.11195873  0.75010256  1
  Ni  Ni5  1  0.08613398  0.59472726  0.75006853  1
  Ni  Ni6  1  0.41579027  0.09663229  0.24997026  1
  Ni  Ni7  1  0.43430114  0.60913868  0.25000782  1
  Ni  Ni8  1  0.56165219  0.38809965  0.74997050  1
  Ni  Ni9  1  0.58633441  0.90533264  0.74979714  1
  Ni  Ni10  1  0.91540949  0.40334570  0.24999253  1
  Ni  Ni11  1  0.93369866  0.89110492  0.25001396  1
  O  O12  1  0.03622584  0.70170741  0.25002016  1
  O  O13  1  0.07282669  0.92305204  0.75062491  1
  O  O14  1  0.11905445  0.48136308  0.25003067  1
  O  O15  1  0.19892026  0.15266307  0.25005924  1
  O  O16  1  0.29747259  0.65293366  0.75009222  1
  O  O17  1  0.38780572  0.97721926  0.74994570  1
  O  O18  1  0.42333343  0.42119749  0.24993146  1
  O  O19  1  0.46764103  0.20624278  0.74997077  1
  O  O20  1  0.53628389  0.79871772  0.24981783  1
  O  O21  1  0.57346949  0.57680300  0.74986745  1
  O  O22  1  0.61998722  0.01815104  0.24987695  1
  O  O23  1  0.69916790  0.34724326  0.24998640  1
  O  O24  1  0.79662999  0.84724130  0.74963154  1
  O  O25  1  0.88700628  0.52244914  0.74998674  1
  O  O26  1  0.92318109  0.07904773  0.25016370  1
  O  O27  1  0.96744349  0.29370953  0.74998350  1
