# generated using pymatgen
data_Li9Mn2Co5O16
_symmetry_space_group_name_H-M   'P 1'
_cell_length_a   2.87102046
_cell_length_b   17.07230201
_cell_length_c   5.92123098
_cell_angle_alpha   89.72638852
_cell_angle_beta   90.00000000
_cell_angle_gamma   90.00000000
_symmetry_Int_Tables_number   1
_chemical_formula_structural   Li9Mn2Co5O16
_chemical_formula_sum   'Li9 Mn2 Co5 O16'
_cell_volume   290.22540312
_cell_formula_units_Z   1
loop_
 _symmetry_equiv_pos_site_id
 _symmetry_equiv_pos_as_xyz
  1  'x, y, z'
loop_
 _atom_site_type_symbol
 _atom_site_label
 _atom_site_symmetry_multiplicity
 _atom_site_fract_x
 _atom_site_fract_y
 _atom_site_fract_z
 _atom_site_occupancy
  Li  Li0  1  0.50000000  0.13380086  0.25306830  1
  Li  Li1  1  0.50000000  0.37977218  0.74973301  1
  Li  Li2  1  0.50000000  0.62102585  0.24489048  1
  Li  Li3  1  0.00000000  0.25875218  0.00535048  1
  Li  Li4  1  0.00000000  0.49471054  0.49610170  1
  Li  Li5  1  0.00000000  0.74735179  0.00009995  1
  Li  Li6  1  0.50000000  0.86669867  0.75076319  1
  Li  Li7  1  0.00000000  0.99788507  0.49713942  1
  Li  Li8  1  0.50000000  0.37582143  0.24846169  1
  Mn  Mn9  1  -0.00000000  0.99882761  0.00496502  1
  Mn  Mn10  1  0.50000000  0.12889289  0.74495731  1
  Co  Co11  1  0.00000000  0.26680062  0.48695161  1
  Co  Co12  1  -0.00000000  0.48772115  0.00664493  1
  Co  Co13  1  0.00000000  0.74546748  0.50147559  1
  Co  Co14  1  0.50000000  0.62337554  0.75865780  1
  Co  Co15  1  0.50000000  0.86972746  0.25162106  1
  O  O16  1  0.50000000  0.99939573  0.23015520  1
  O  O17  1  0.50000000  0.23982851  0.72487096  1
  O  O18  1  0.50000000  0.50030418  0.22185650  1
  O  O19  1  0.00000000  0.13003635  0.96772089  1
  O  O20  1  0.00000000  0.37033945  0.50551874  1
  O  O21  1  0.00000000  0.62543241  0.98777438  1
  O  O22  1  0.50000000  0.74645685  0.73450457  1
  O  O23  1  0.00000000  0.87344249  0.48903698  1
  O  O24  1  0.50000000  0.24943907  0.26863620  1
  O  O25  1  0.50000000  0.50356955  0.77906423  1
  O  O26  1  0.50000000  0.75215182  0.26546336  1
  O  O27  1  0.00000000  0.38203281  0.99673109  1
  O  O28  1  0.00000000  0.62635746  0.51393893  1
  O  O29  1  0.00000000  0.87345852  0.01207147  1
  O  O30  1  0.50000000  0.00992153  0.77529013  1
  O  O31  1  0.00000000  0.12120196  0.52648483  1
