# generated using pymatgen
data_TiGeO3
_symmetry_space_group_name_H-M   'P 1'
_cell_length_a   7.08193515
_cell_length_b   7.08193444
_cell_length_c   7.08193453
_cell_angle_alpha   41.73268669
_cell_angle_beta   41.73269234
_cell_angle_gamma   41.73268358
_symmetry_Int_Tables_number   1
_chemical_formula_structural   TiGeO3
_chemical_formula_sum   'Ti2 Ge2 O6'
_cell_volume   142.28733843
_cell_formula_units_Z   2
loop_
 _symmetry_equiv_pos_site_id
 _symmetry_equiv_pos_as_xyz
  1  'x, y, z'
loop_
 _atom_site_type_symbol
 _atom_site_label
 _atom_site_symmetry_multiplicity
 _atom_site_fract_x
 _atom_site_fract_y
 _atom_site_fract_z
 _atom_site_occupancy
  Ti  Ti0  1  0.16252970  0.16252970  0.16252970  1
  Ti  Ti1  1  0.83747030  0.83747030  0.83747030  1
  Ge  Ge2  1  0.39358368  0.39358368  0.39358368  1
  Ge  Ge3  1  0.60641632  0.60641632  0.60641632  1
  O  O4  1  0.10168979  0.78729068  0.44391438  1
  O  O5  1  0.44391438  0.10168979  0.78729068  1
  O  O6  1  0.78729068  0.44391438  0.10168979  1
  O  O7  1  0.21270932  0.55608562  0.89831021  1
  O  O8  1  0.55608562  0.89831021  0.21270932  1
  O  O9  1  0.89831021  0.21270932  0.55608562  1
