# generated using pymatgen
data_LiNi(SO4)2
_symmetry_space_group_name_H-M   'P 1'
_cell_length_a   9.22061933
_cell_length_b   9.08003667
_cell_length_c   13.74807818
_cell_angle_alpha   90.00000000
_cell_angle_beta   90.26132918
_cell_angle_gamma   90.00000000
_symmetry_Int_Tables_number   1
_chemical_formula_structural   LiNi(SO4)2
_chemical_formula_sum   'Li8 Ni8 S16 O64'
_cell_volume   1151.02609836
_cell_formula_units_Z   8
loop_
 _symmetry_equiv_pos_site_id
 _symmetry_equiv_pos_as_xyz
  1  'x, y, z'
loop_
 _atom_site_type_symbol
 _atom_site_label
 _atom_site_symmetry_multiplicity
 _atom_site_fract_x
 _atom_site_fract_y
 _atom_site_fract_z
 _atom_site_occupancy
  Li  Li0  1  0.04730162  0.21507561  0.37389689  1
  Li  Li1  1  0.04730162  0.28492439  0.87389689  1
  Li  Li2  1  0.45265440  0.71421145  0.37558960  1
  Li  Li3  1  0.45265440  0.78578855  0.87558960  1
  Li  Li4  1  0.76788239  0.45271448  0.12681361  1
  Li  Li5  1  0.76788239  0.04728552  0.62681361  1
  Li  Li6  1  0.95976536  0.77498217  0.62641017  1
  Li  Li7  1  0.95976536  0.72501783  0.12641017  1
  Ni  Ni8  1  0.13935477  0.10715477  0.12298202  1
  Ni  Ni9  1  0.13935477  0.39284523  0.62298202  1
  Ni  Ni10  1  0.36164492  0.60650397  0.12365277  1
  Ni  Ni11  1  0.36164492  0.89349603  0.62365277  1
  Ni  Ni12  1  0.63942425  0.10691074  0.37549434  1
  Ni  Ni13  1  0.63942425  0.39308926  0.87549434  1
  Ni  Ni14  1  0.86107960  0.60493782  0.37611680  1
  Ni  Ni15  1  0.86107960  0.89506218  0.87611680  1
  S  S16  1  0.07825646  0.06656887  0.72601625  1
  S  S17  1  0.07825646  0.43343113  0.22601625  1
  S  S18  1  0.16016869  0.68481844  0.49081336  1
  S  S19  1  0.16016869  0.81518156  0.99081336  1
  S  S20  1  0.34333938  0.18658989  0.49246879  1
  S  S21  1  0.34333938  0.31341011  0.99246879  1
  S  S22  1  0.42270968  0.93213854  0.22647962  1
  S  S23  1  0.42270968  0.56786146  0.72647962  1
  S  S24  1  0.57445014  0.43177672  0.27506656  1
  S  S25  1  0.57445014  0.06822328  0.77506656  1
  S  S26  1  0.66053242  0.68608251  0.00950702  1
  S  S27  1  0.66053242  0.81391749  0.50950702  1
  S  S28  1  0.84051556  0.18418645  0.00919390  1
  S  S29  1  0.84051556  0.31581355  0.50919390  1
  S  S30  1  0.92206888  0.56641032  0.77254649  1
  S  S31  1  0.92206888  0.93358968  0.27254649  1
  O  O32  1  -0.00000049  0.70052709  0.47625115  1
  O  O33  1  -0.00000049  0.79947291  0.97625115  1
  O  O34  1  0.01447652  0.99711020  0.34879721  1
  O  O35  1  0.01447652  0.50288980  0.84879721  1
  O  O36  1  0.02165047  0.46411662  0.32632635  1
  O  O37  1  0.02165047  0.03588338  0.82632635  1
  O  O38  1  0.07915804  0.23224223  0.72197246  1
  O  O39  1  0.07915804  0.26775777  0.22197246  1
  O  O40  1  0.18671354  0.72653923  0.08151818  1
  O  O41  1  0.18671354  0.77346077  0.58151818  1
  O  O42  1  0.20076162  0.97112413  0.01167249  1
  O  O43  1  0.20076162  0.52887587  0.51167249  1
  O  O44  1  0.22601349  0.00546789  0.71918364  1
  O  O45  1  0.22601349  0.49453211  0.21918364  1
  O  O46  1  0.24251183  0.73423614  0.40685267  1
  O  O47  1  0.24251183  0.76576386  0.90685267  1
  O  O48  1  0.25744248  0.23197757  0.40782783  1
  O  O49  1  0.25744248  0.26802243  0.90782783  1
  O  O50  1  0.27374890  0.99426170  0.21927566  1
  O  O51  1  0.27374890  0.50573830  0.71927566  1
  O  O52  1  0.30289087  0.02991929  0.51285665  1
  O  O53  1  0.30289087  0.47008071  0.01285665  1
  O  O54  1  0.31451311  0.22413525  0.08117335  1
  O  O55  1  0.31451311  0.27586475  0.58117335  1
  O  O56  1  0.41768247  0.76595592  0.22519726  1
  O  O57  1  0.41768247  0.73404408  0.72519726  1
  O  O58  1  0.47968859  0.53514701  0.82655126  1
  O  O59  1  0.47968859  0.96485299  0.32655126  1
  O  O60  1  0.48520952  0.49856808  0.35013355  1
  O  O61  1  0.48520952  0.00143192  0.85013355  1
  O  O62  1  0.50132246  0.20266576  0.47469369  1
  O  O63  1  0.50132246  0.29733424  0.97469369  1
  O  O64  1  0.50068284  0.70261044  0.02462050  1
  O  O65  1  0.50068284  0.79738956  0.52462050  1
  O  O66  1  0.51303557  0.50822557  0.64865153  1
  O  O67  1  0.51303557  0.99177443  0.14865153  1
  O  O68  1  0.52250602  0.46673488  0.17337704  1
  O  O69  1  0.52250602  0.03326512  0.67337704  1
  O  O70  1  0.57471747  0.26782782  0.27930533  1
  O  O71  1  0.57471747  0.23217218  0.77930533  1
  O  O72  1  0.68699053  0.72668292  0.41935587  1
  O  O73  1  0.68699053  0.77331708  0.91935587  1
  O  O74  1  0.69881531  0.52774079  0.99012728  1
  O  O75  1  0.69881531  0.97225921  0.49012728  1
  O  O76  1  0.72773766  0.48904930  0.27667725  1
  O  O77  1  0.72773766  0.01095070  0.77667725  1
  O  O78  1  0.74505275  0.72992398  0.09487754  1
  O  O79  1  0.74505275  0.77007602  0.59487754  1
  O  O80  1  0.76455926  0.24126470  0.09368684  1
  O  O81  1  0.76455926  0.25873530  0.59368684  1
  O  O82  1  0.77274252  0.50609414  0.77884597  1
  O  O83  1  0.77274252  0.99390586  0.27884597  1
  O  O84  1  0.79963884  0.47056700  0.49000126  1
  O  O85  1  0.79963884  0.02943300  0.99000126  1
  O  O86  1  0.81515544  0.22642896  0.41810271  1
  O  O87  1  0.81515544  0.27357104  0.91810271  1
  O  O88  1  0.92075184  0.73194398  0.77581429  1
  O  O89  1  0.92075184  0.76805602  0.27581429  1
  O  O90  1  0.97870230  0.53378823  0.67231786  1
  O  O91  1  0.97870230  0.96621177  0.17231786  1
  O  O92  1  0.98210621  0.00329897  0.65045750  1
  O  O93  1  0.98210621  0.49670103  0.15045750  1
  O  O94  1  0.00277549  0.19850798  0.02152664  1
  O  O95  1  0.00277549  0.30149202  0.52152664  1
