# generated using pymatgen
data_Li2V3TeO8
_symmetry_space_group_name_H-M   'P 1'
_cell_length_a   6.02725187
_cell_length_b   6.02695834
_cell_length_c   9.96151341
_cell_angle_alpha   89.99563099
_cell_angle_beta   90.00218482
_cell_angle_gamma   119.99838600
_symmetry_Int_Tables_number   1
_chemical_formula_structural   Li2V3TeO8
_chemical_formula_sum   'Li4 V6 Te2 O16'
_cell_volume   313.38669008
_cell_formula_units_Z   2
loop_
 _symmetry_equiv_pos_site_id
 _symmetry_equiv_pos_as_xyz
  1  'x, y, z'
loop_
 _atom_site_type_symbol
 _atom_site_label
 _atom_site_symmetry_multiplicity
 _atom_site_fract_x
 _atom_site_fract_y
 _atom_site_fract_z
 _atom_site_occupancy
  Li  Li0  1  0.33330381  0.66661683  0.90297039  1
  Li  Li1  1  0.00002372  0.00006548  0.99161478  1
  Li  Li2  1  0.99997628  0.00004176  0.49161478  1
  Li  Li3  1  0.66669619  0.33331401  0.40297039  1
  V  V4  1  0.16814860  0.82673955  0.21646122  1
  V  V5  1  0.17328054  0.34145222  0.21648523  1
  V  V6  1  0.65853538  0.83183140  0.21647268  1
  V  V7  1  0.34146462  0.17329601  0.71647268  1
  V  V8  1  0.83185140  0.65858995  0.71646122  1
  V  V9  1  0.82671946  0.16817167  0.71648523  1
  Te  Te10  1  0.33334450  0.66670127  0.49255009  1
  Te  Te11  1  0.66665550  0.33335677  0.99255009  1
  O  O12  1  0.16717279  0.84843877  0.59588363  1
  O  O13  1  0.03052395  0.52421829  0.33746606  1
  O  O14  1  0.33332850  0.66670456  0.10942100  1
  O  O15  1  0.99994039  0.99994260  0.30788705  1
  O  O16  1  0.00005961  0.00000321  0.80788705  1
  O  O17  1  0.15156856  0.31874848  0.59593038  1
  O  O18  1  0.49370224  0.96947904  0.33744643  1
  O  O19  1  0.47578062  0.50626392  0.33741028  1
  O  O20  1  0.31870032  0.15162559  0.09591978  1
  O  O21  1  0.68129968  0.83292427  0.59591978  1
  O  O22  1  0.50629776  0.47577680  0.83744643  1
  O  O23  1  0.52421938  0.03048329  0.83741028  1
  O  O24  1  0.66667150  0.33337606  0.60942100  1
  O  O25  1  0.83282721  0.68126597  0.09588363  1
  O  O26  1  0.96947605  0.49369334  0.83746606  1
  O  O27  1  0.84843144  0.16717992  0.09593038  1
