# generated using pymatgen
data_Li3Mn4(BO3)4
_symmetry_space_group_name_H-M   'P 1'
_cell_length_a   7.85392672
_cell_length_b   9.19671064
_cell_length_c   8.28848554
_cell_angle_alpha   113.14767840
_cell_angle_beta   99.74288846
_cell_angle_gamma   66.12750873
_symmetry_Int_Tables_number   1
_chemical_formula_structural   Li3Mn4(BO3)4
_chemical_formula_sum   'Li6 Mn8 B8 O24'
_cell_volume   503.35153908
_cell_formula_units_Z   2
loop_
 _symmetry_equiv_pos_site_id
 _symmetry_equiv_pos_as_xyz
  1  'x, y, z'
loop_
 _atom_site_type_symbol
 _atom_site_label
 _atom_site_symmetry_multiplicity
 _atom_site_fract_x
 _atom_site_fract_y
 _atom_site_fract_z
 _atom_site_occupancy
  Li  Li0  1  0.11335485  0.15354886  0.80231698  1
  Li  Li1  1  0.38882872  0.84924906  0.70574710  1
  Li  Li2  1  0.11811993  0.36233590  0.46100420  1
  Li  Li3  1  0.36448671  0.65194969  0.04752257  1
  Li  Li4  1  0.63469092  0.35473159  0.95244143  1
  Li  Li5  1  0.86391334  0.86328831  0.20793454  1
  Mn  Mn6  1  0.06238603  0.51078291  0.82831836  1
  Mn  Mn7  1  0.17004691  0.99952641  0.42188907  1
  Mn  Mn8  1  0.67984533  0.01375052  0.92935994  1
  Mn  Mn9  1  0.42578098  0.49605431  0.66645725  1
  Mn  Mn10  1  0.58605165  0.48632019  0.33550914  1
  Mn  Mn11  1  0.33238364  0.00885759  0.09183877  1
  Mn  Mn12  1  0.81683608  0.98892293  0.57294133  1
  Mn  Mn13  1  0.92916853  0.50765478  0.18137607  1
  B  B14  1  0.07892284  0.84240344  0.83620118  1
  B  B15  1  0.17764756  0.66409529  0.42325253  1
  B  B16  1  0.66962178  0.67287839  0.93072342  1
  B  B17  1  0.41183585  0.17096869  0.68292284  1
  B  B18  1  0.57621720  0.81869396  0.30714024  1
  B  B19  1  0.33391948  0.33134240  0.05945818  1
  B  B20  1  0.82966768  0.32338547  0.57547726  1
  B  B21  1  0.92460847  0.16823524  0.17817305  1
  O  O22  1  0.16159184  0.95669181  0.86494933  1
  O  O23  1  0.06543189  0.81255822  0.39186098  1
  O  O24  1  0.17921357  0.68652132  0.85566167  1
  O  O25  1  0.14946183  0.35728808  0.99627268  1
  O  O26  1  0.12093311  0.53038995  0.37859885  1
  O  O27  1  0.35158117  0.65246956  0.50858539  1
  O  O28  1  0.09403901  0.15657912  0.26722505  1
  O  O29  1  0.57518908  0.82384395  0.89785439  1
  O  O30  1  0.31179061  0.32193303  0.65262852  1
  O  O31  1  0.39582592  0.84806841  0.23486886  1
  O  O32  1  0.59311846  0.55256999  0.89262963  1
  O  O33  1  0.34087018  0.04767583  0.64430891  1
  O  O34  1  0.65078408  0.93903089  0.35595757  1
  O  O35  1  0.40756169  0.45300879  0.10444617  1
  O  O36  1  0.58812344  0.15136931  0.76623939  1
  O  O37  1  0.67738715  0.65594680  0.31317004  1
  O  O38  1  0.44315363  0.16746136  0.06216030  1
  O  O39  1  0.89356551  0.87757251  0.77130576  1
  O  O40  1  0.65471429  0.34803087  0.49515135  1
  O  O41  1  0.90646206  0.44185111  0.61167513  1
  O  O42  1  0.84350446  0.65232553  0.01699370  1
  O  O43  1  0.81820171  0.31664331  0.14438444  1
  O  O44  1  0.92726406  0.17300709  0.60983346  1
  O  O45  1  0.86293875  0.03566821  0.12924098  1
