# generated using pymatgen
data_Li9Mn2Co5O16
_symmetry_space_group_name_H-M   'P 1'
_cell_length_a   2.92361959
_cell_length_b   5.10861155
_cell_length_c   19.65314775
_cell_angle_alpha   100.30850185
_cell_angle_beta   90.00000000
_cell_angle_gamma   90.00000000
_symmetry_Int_Tables_number   1
_chemical_formula_structural   Li9Mn2Co5O16
_chemical_formula_sum   'Li9 Mn2 Co5 O16'
_cell_volume   288.79422454
_cell_formula_units_Z   1
loop_
 _symmetry_equiv_pos_site_id
 _symmetry_equiv_pos_as_xyz
  1  'x, y, z'
loop_
 _atom_site_type_symbol
 _atom_site_label
 _atom_site_symmetry_multiplicity
 _atom_site_fract_x
 _atom_site_fract_y
 _atom_site_fract_z
 _atom_site_occupancy
  Li  Li0  1  0.50000000  0.26851097  0.13402344  1
  Li  Li1  1  0.50000000  0.73804466  0.36486193  1
  Li  Li2  1  0.50000000  0.24781845  0.62811325  1
  Li  Li3  1  0.50000000  0.74548719  0.87281931  1
  Li  Li4  1  -0.00000000  0.76100818  0.13394200  1
  Li  Li5  1  -0.00000000  0.23350419  0.36676877  1
  Li  Li6  1  -0.00000000  0.75895415  0.62884269  1
  Li  Li7  1  -0.00000000  0.24921311  0.87059126  1
  Li  Li8  1  -0.00000000  0.49989152  0.25037260  1
  Mn  Mn9  1  0.00000000  0.00310012  0.00132985  1
  Mn  Mn10  1  0.50000000  0.49728755  0.49843479  1
  Co  Co11  1  -0.00000000  0.99696977  0.49870820  1
  Co  Co12  1  -0.00000000  0.50038112  0.74962005  1
  Co  Co13  1  0.50000000  0.50287291  0.00171773  1
  Co  Co14  1  0.50000000  0.00036913  0.25010867  1
  Co  Co15  1  0.50000000  0.99956606  0.74987779  1
  O  O16  1  0.50000000  0.90259274  0.05706266  1
  O  O17  1  0.50000000  0.32402273  0.30533345  1
  O  O18  1  0.50000000  0.88518464  0.55704277  1
  O  O19  1  0.50000000  0.37655517  0.80942744  1
  O  O20  1  -0.00000000  0.35960092  0.05699832  1
  O  O21  1  -0.00000000  0.88075297  0.30554675  1
  O  O22  1  -0.00000000  0.38132572  0.55425251  1
  O  O23  1  -0.00000000  0.86723694  0.80821791  1
  O  O24  1  0.50000000  0.67520526  0.19459466  1
  O  O25  1  0.50000000  0.10733266  0.44165214  1
  O  O26  1  0.50000000  0.62211228  0.69033320  1
  O  O27  1  0.50000000  0.10497991  0.94433000  1
  O  O28  1  -0.00000000  0.11810063  0.19477816  1
  O  O29  1  -0.00000000  0.61371250  0.44252743  1
  O  O30  1  -0.00000000  0.13298339  0.69121195  1
  O  O31  1  -0.00000000  0.64532247  0.94655832  1
