# generated using pymatgen
data_LiFeP(H6O5)2
_symmetry_space_group_name_H-M   'P 1'
_cell_length_a   6.94341090
_cell_length_b   6.09562567
_cell_length_c   10.79784329
_cell_angle_alpha   89.99781997
_cell_angle_beta   89.99916588
_cell_angle_gamma   89.99972093
_symmetry_Int_Tables_number   1
_chemical_formula_structural   LiFeP(H6O5)2
_chemical_formula_sum   'Li2 Fe2 P2 H24 O20'
_cell_volume   457.01260245
_cell_formula_units_Z   2
loop_
 _symmetry_equiv_pos_site_id
 _symmetry_equiv_pos_as_xyz
  1  'x, y, z'
loop_
 _atom_site_type_symbol
 _atom_site_label
 _atom_site_symmetry_multiplicity
 _atom_site_fract_x
 _atom_site_fract_y
 _atom_site_fract_z
 _atom_site_occupancy
  Li  Li0  1  0.99999992  0.46202504  0.93893749  1
  Li  Li1  1  0.49999999  0.53800523  0.43877724  1
  Fe  Fe2  1  0.00000014  0.38728490  0.64445878  1
  Fe  Fe3  1  0.50000047  0.61298265  0.14443059  1
  P  P4  1  -0.00000041  0.01331309  0.26432850  1
  P  P5  1  0.49999955  0.98667870  0.76434040  1
  H  H6  1  0.99999926  0.73810481  0.47176800  1
  H  H7  1  0.00000085  0.83917977  0.61129107  1
  H  H8  1  0.11823668  0.98778490  0.76779593  1
  H  H9  1  0.21107656  0.22496151  0.45457900  1
  H  H10  1  0.16385135  0.82662649  0.07403417  1
  H  H11  1  0.18471056  0.63015654  0.29997028  1
  H  H12  1  0.25111583  0.37747251  0.28983040  1
  H  H13  1  0.24890687  0.62253770  0.78985879  1
  H  H14  1  0.31536758  0.36982253  0.80000715  1
  H  H15  1  0.33622173  0.17330151  0.57402226  1
  H  H16  1  0.28895888  0.77500863  0.95456166  1
  H  H17  1  0.38178734  0.01214305  0.26776227  1
  H  H18  1  0.50000015  0.16084687  0.11130542  1
  H  H19  1  0.50000009  0.26201864  0.97185214  1
  H  H20  1  0.61821364  0.01214342  0.26776249  1
  H  H21  1  0.71104205  0.77500937  0.95456225  1
  H  H22  1  0.66377697  0.17330081  0.57402194  1
  H  H23  1  0.68463308  0.36982225  0.80000667  1
  H  H24  1  0.75109316  0.62253740  0.78985809  1
  H  H25  1  0.74888487  0.37747228  0.28983033  1
  H  H26  1  0.81528879  0.63015668  0.29996970  1
  H  H27  1  0.83614851  0.82662714  0.07403358  1
  H  H28  1  0.78892355  0.22496151  0.45457847  1
  H  H29  1  0.88176312  0.98778478  0.76779575  1
  O  O30  1  0.00000113  0.00646421  0.12170913  1
  O  O31  1  0.00000048  0.77260212  0.31694755  1
  O  O32  1  0.00000037  0.04620895  0.72416079  1
  O  O33  1  0.99999885  0.70075234  0.56190706  1
  O  O34  1  0.18353840  0.13041603  0.31496480  1
  O  O35  1  0.19613613  0.46758218  0.79467477  1
  O  O36  1  0.25247163  0.29244716  0.53588168  1
  O  O37  1  0.24772840  0.70759637  0.03594179  1
  O  O38  1  0.30392855  0.53238313  0.29457789  1
  O  O39  1  0.31646338  0.86956210  0.81498749  1
  O  O40  1  0.49999871  0.99350326  0.62171640  1
  O  O41  1  0.50000090  0.22735039  0.81695880  1
  O  O42  1  0.50000082  0.29935224  0.06195947  1
  O  O43  1  0.50000209  0.95371728  0.22413513  1
  O  O44  1  0.68353682  0.86956097  0.81498658  1
  O  O45  1  0.69607258  0.53238585  0.29457595  1
  O  O46  1  0.75227394  0.70759743  0.03594120  1
  O  O47  1  0.74752373  0.29244820  0.53588220  1
  O  O48  1  0.80386262  0.46758270  0.79467345  1
  O  O49  1  0.81645933  0.13041635  0.31496704  1
