# generated using pymatgen
data_Na3MnO3
_symmetry_space_group_name_H-M   'P 1'
_cell_length_a   6.01038621
_cell_length_b   12.50842405
_cell_length_c   5.91109795
_cell_angle_alpha   90.00000000
_cell_angle_beta   115.50638475
_cell_angle_gamma   90.00000000
_symmetry_Int_Tables_number   1
_chemical_formula_structural   Na3MnO3
_chemical_formula_sum   'Na12 Mn4 O12'
_cell_volume   401.08672972
_cell_formula_units_Z   4
loop_
 _symmetry_equiv_pos_site_id
 _symmetry_equiv_pos_as_xyz
  1  'x, y, z'
loop_
 _atom_site_type_symbol
 _atom_site_label
 _atom_site_symmetry_multiplicity
 _atom_site_fract_x
 _atom_site_fract_y
 _atom_site_fract_z
 _atom_site_occupancy
  Na  Na0  1  0.13963703  0.22144452  0.70022565  1
  Na  Na1  1  0.24540664  0.48348996  0.77931512  1
  Na  Na2  1  0.25459336  0.98348996  0.72068488  1
  Na  Na3  1  0.36036297  0.72144452  0.79977435  1
  Na  Na4  1  0.28916977  0.59902532  0.35167398  1
  Na  Na5  1  0.21083023  0.09902532  0.14832602  1
  Na  Na6  1  0.78916977  0.90097468  0.85167398  1
  Na  Na7  1  0.71083023  0.40097468  0.64832602  1
  Na  Na8  1  0.63963703  0.27855548  0.20022565  1
  Na  Na9  1  0.74540664  0.01651004  0.27931512  1
  Na  Na10  1  0.75459336  0.51651004  0.22068488  1
  Na  Na11  1  0.86036297  0.77855548  0.29977435  1
  Mn  Mn12  1  0.17301456  0.34004762  0.26228520  1
  Mn  Mn13  1  0.32698544  0.84004762  0.23771480  1
  Mn  Mn14  1  0.67301456  0.15995238  0.76228520  1
  Mn  Mn15  1  0.82698544  0.65995238  0.73771480  1
  O  O16  1  0.99496806  0.36958893  0.45100091  1
  O  O17  1  0.11385681  0.93387156  0.30574287  1
  O  O18  1  0.06970462  0.73219307  0.02514489  1
  O  O19  1  0.49496806  0.13041107  0.95100091  1
  O  O20  1  0.43029538  0.23219307  0.47485511  1
  O  O21  1  0.61385681  0.56612844  0.80574287  1
  O  O22  1  0.38614319  0.43387156  0.19425713  1
  O  O23  1  0.56970462  0.76780693  0.52514489  1
  O  O24  1  0.50503194  0.86958893  0.04899909  1
  O  O25  1  0.93029538  0.26780693  0.97485511  1
  O  O26  1  0.88614319  0.06612844  0.69425713  1
  O  O27  1  0.00503194  0.63041107  0.54899909  1
