# generated using pymatgen
data_Li2VP2HO8
_symmetry_space_group_name_H-M   'P 1'
_cell_length_a   8.28487082
_cell_length_b   8.56928956
_cell_length_c   4.85357216
_cell_angle_alpha   101.67969503
_cell_angle_beta   107.11498185
_cell_angle_gamma   96.65536301
_symmetry_Int_Tables_number   1
_chemical_formula_structural   Li2VP2HO8
_chemical_formula_sum   'Li4 V2 P4 H2 O16'
_cell_volume   316.78456168
_cell_formula_units_Z   2
loop_
 _symmetry_equiv_pos_site_id
 _symmetry_equiv_pos_as_xyz
  1  'x, y, z'
loop_
 _atom_site_type_symbol
 _atom_site_label
 _atom_site_symmetry_multiplicity
 _atom_site_fract_x
 _atom_site_fract_y
 _atom_site_fract_z
 _atom_site_occupancy
  Li  Li0  1  0.13130055  0.77110151  0.23741960  1
  Li  Li1  1  0.37507059  0.61407786  0.66213725  1
  Li  Li2  1  0.62492941  0.38592214  0.33786275  1
  Li  Li3  1  0.86869945  0.22889849  0.76258040  1
  V  V4  1  0.18582207  0.21135163  0.40801015  1
  V  V5  1  0.81417793  0.78864837  0.59198985  1
  P  P6  1  0.23538227  0.93872659  0.85296805  1
  P  P7  1  0.24449677  0.42406059  0.09059532  1
  P  P8  1  0.75550323  0.57593941  0.90940468  1
  P  P9  1  0.76461773  0.06127341  0.14703195  1
  H  H10  1  0.44422062  0.13286947  0.88792946  1
  H  H11  1  0.55577938  0.86713053  0.11207054  1
  O  O12  1  0.06769170  0.86138155  0.59418119  1
  O  O13  1  0.07608486  0.31387591  0.08643343  1
  O  O14  1  0.19850713  0.99980897  0.14707257  1
  O  O15  1  0.25222073  0.40545338  0.76742336  1
  O  O16  1  0.36683633  0.82818607  0.89216373  1
  O  O17  1  0.25793452  0.60067478  0.23955176  1
  O  O18  1  0.31593215  0.09334616  0.75739399  1
  O  O19  1  0.38042801  0.34618460  0.29015529  1
  O  O20  1  0.61957199  0.65381540  0.70984471  1
  O  O21  1  0.68406785  0.90665384  0.24260601  1
  O  O22  1  0.74206548  0.39932522  0.76044824  1
  O  O23  1  0.63316367  0.17181393  0.10783627  1
  O  O24  1  0.74777927  0.59454662  0.23257664  1
  O  O25  1  0.80149287  0.00019103  0.85292743  1
  O  O26  1  0.92391514  0.68612409  0.91356657  1
  O  O27  1  0.93230830  0.13861845  0.40581881  1
