# generated using pymatgen
data_V2O5
_symmetry_space_group_name_H-M   'P 1'
_cell_length_a   15.33652560
_cell_length_b   4.91047364
_cell_length_c   21.05991651
_cell_angle_alpha   90.00000000
_cell_angle_beta   108.50882414
_cell_angle_gamma   90.00000000
_symmetry_Int_Tables_number   1
_chemical_formula_structural   V2O5
_chemical_formula_sum   'V28 O70'
_cell_volume   1503.97705827
_cell_formula_units_Z   14
loop_
 _symmetry_equiv_pos_site_id
 _symmetry_equiv_pos_as_xyz
  1  'x, y, z'
loop_
 _atom_site_type_symbol
 _atom_site_label
 _atom_site_symmetry_multiplicity
 _atom_site_fract_x
 _atom_site_fract_y
 _atom_site_fract_z
 _atom_site_occupancy
  V  V0  1  0.06590558  0.92594668  0.65488626  1
  V  V1  1  0.14384742  0.92002434  0.81794035  1
  V  V2  1  0.09401926  0.11026482  0.51885559  1
  V  V3  1  0.29917961  0.91140382  0.97177578  1
  V  V4  1  0.06590558  0.07405332  0.15488626  1
  V  V5  1  0.14384742  0.07997566  0.31794035  1
  V  V6  1  0.27975333  0.91764285  0.61151478  1
  V  V7  1  0.40382653  0.84667365  0.76878930  1
  V  V8  1  0.09401926  0.88973518  0.01885559  1
  V  V9  1  0.29917961  0.08859618  0.47177578  1
  V  V10  1  0.50882386  0.91576347  0.93003024  1
  V  V11  1  0.27975333  0.08235715  0.11151478  1
  V  V12  1  0.49117614  0.91576347  0.56996976  1
  V  V13  1  0.59617347  0.84667365  0.73121070  1
  V  V14  1  0.40382653  0.15332635  0.26878930  1
  V  V15  1  0.50882386  0.08423653  0.43003024  1
  V  V16  1  0.72024667  0.91764285  0.88848522  1
  V  V17  1  0.49117614  0.08423653  0.06996976  1
  V  V18  1  0.70082039  0.91140382  0.52822422  1
  V  V19  1  0.90598074  0.11026482  0.98114441  1
  V  V20  1  0.59617347  0.15332635  0.23121070  1
  V  V21  1  0.72024667  0.08235715  0.38848522  1
  V  V22  1  0.85615258  0.92002434  0.68205965  1
  V  V23  1  0.93409442  0.92594668  0.84511374  1
  V  V24  1  0.70082039  0.08859618  0.02822422  1
  V  V25  1  0.90598074  0.88973518  0.48114441  1
  V  V26  1  0.85615258  0.07997566  0.18205965  1
  V  V27  1  0.93409442  0.07405332  0.34511374  1
  O  O28  1  0.00459132  0.02359128  0.94315782  1
  O  O29  1  0.03925968  0.03341195  0.82918137  1
  O  O30  1  0.06242737  0.59891514  0.65445004  1
  O  O31  1  0.14159390  0.59145287  0.82007226  1
  O  O32  1  0.00459132  0.97640872  0.44315782  1
  O  O33  1  0.14563246  0.01964841  0.73593307  1
  O  O34  1  0.24006117  0.03286407  0.88929338  1
  O  O35  1  0.29425207  0.58477040  0.96723837  1
  O  O36  1  0.09697066  0.43544273  0.51071367  1
  O  O37  1  0.16026170  0.02329366  0.61208785  1
  O  O38  1  0.03925968  0.96658805  0.32918137  1
  O  O39  1  0.20591045  0.98708757  0.51147137  1
  O  O40  1  0.41910869  0.01125842  0.97159249  1
  O  O41  1  0.33587454  0.61610164  0.78050526  1
  O  O42  1  0.06242737  0.40108486  0.15445004  1
  O  O43  1  0.14159390  0.40854713  0.32007226  1
  O  O44  1  0.28477380  0.59170727  0.61862103  1
  O  O45  1  0.34250891  0.04064076  0.69478076  1
  O  O46  1  0.14563246  0.98035159  0.23593307  1
  O  O47  1  0.24006117  0.96713593  0.38929338  1
  O  O48  1  0.44876126  0.03876937  0.84605600  1
  O  O49  1  0.29425207  0.41522960  0.46723837  1
  O  O50  1  0.50324460  0.58974189  0.92316994  1
  O  O51  1  0.09697066  0.56455727  0.01071367  1
  O  O52  1  0.16026170  0.97670634  0.11208785  1
  O  O53  1  0.37009909  0.00906943  0.57008982  1
  O  O54  1  0.50000000  0.68926102  0.75000000  1
  O  O55  1  0.20591045  0.01291243  0.01147137  1
  O  O56  1  0.41910869  0.98874158  0.47159249  1
  O  O57  1  0.33587454  0.38389836  0.28050526  1
  O  O58  1  0.62990091  0.00906943  0.92991018  1
  O  O59  1  0.28477380  0.40829273  0.11862103  1
  O  O60  1  0.49675540  0.58974189  0.57683006  1
  O  O61  1  0.55123874  0.03876937  0.65394400  1
  O  O62  1  0.34250891  0.95935924  0.19478076  1
  O  O63  1  0.65749109  0.04064076  0.80521924  1
  O  O64  1  0.44876126  0.96123063  0.34605600  1
  O  O65  1  0.50324460  0.41025811  0.42316994  1
  O  O66  1  0.71522620  0.59170727  0.88137897  1
  O  O67  1  0.37009909  0.99093057  0.07008982  1
  O  O68  1  0.66412546  0.61610164  0.71949474  1
  O  O69  1  0.58089131  0.01125842  0.52840751  1
  O  O70  1  0.79408955  0.98708757  0.98852863  1
  O  O71  1  0.50000000  0.31073898  0.25000000  1
  O  O72  1  0.62990091  0.99093057  0.42991018  1
  O  O73  1  0.83973830  0.02329366  0.88791215  1
  O  O74  1  0.90302934  0.43544273  0.98928633  1
  O  O75  1  0.49675540  0.41025811  0.07683006  1
  O  O76  1  0.70574793  0.58477040  0.53276163  1
  O  O77  1  0.55123874  0.96123063  0.15394400  1
  O  O78  1  0.75993883  0.03286407  0.61070662  1
  O  O79  1  0.85436754  0.01964841  0.76406693  1
  O  O80  1  0.65749109  0.95935924  0.30521924  1
  O  O81  1  0.71522620  0.40829273  0.38137897  1
  O  O82  1  0.85840610  0.59145287  0.67992774  1
  O  O83  1  0.93757263  0.59891514  0.84554996  1
  O  O84  1  0.66412546  0.38389836  0.21949474  1
  O  O85  1  0.58089131  0.98874158  0.02840751  1
  O  O86  1  0.79408955  0.01291243  0.48852863  1
  O  O87  1  0.96074032  0.03341195  0.67081863  1
  O  O88  1  0.83973830  0.97670634  0.38791215  1
  O  O89  1  0.90302934  0.56455727  0.48928633  1
  O  O90  1  0.70574793  0.41522960  0.03276163  1
  O  O91  1  0.75993883  0.96713593  0.11070662  1
  O  O92  1  0.85436754  0.98035159  0.26406693  1
  O  O93  1  0.99540868  0.02359128  0.55684218  1
  O  O94  1  0.85840610  0.40854713  0.17992774  1
  O  O95  1  0.93757263  0.40108486  0.34554996  1
  O  O96  1  0.96074032  0.96658805  0.17081863  1
  O  O97  1  0.99540868  0.97640872  0.05684218  1
