# generated using pymatgen
data_Li9Mn2Co5O16
_symmetry_space_group_name_H-M   'P 1'
_cell_length_a   2.89292059
_cell_length_b   8.52516753
_cell_length_c   11.82657409
_cell_angle_alpha   89.77327432
_cell_angle_beta   90.00000000
_cell_angle_gamma   90.00000000
_symmetry_Int_Tables_number   1
_chemical_formula_structural   Li9Mn2Co5O16
_chemical_formula_sum   'Li9 Mn2 Co5 O16'
_cell_volume   291.67216902
_cell_formula_units_Z   1
loop_
 _symmetry_equiv_pos_site_id
 _symmetry_equiv_pos_as_xyz
  1  'x, y, z'
loop_
 _atom_site_type_symbol
 _atom_site_label
 _atom_site_symmetry_multiplicity
 _atom_site_fract_x
 _atom_site_fract_y
 _atom_site_fract_z
 _atom_site_occupancy
  Li  Li0  1  0.50000000  0.25647255  0.13783282  1
  Li  Li1  1  0.50000000  0.75982648  0.37910149  1
  Li  Li2  1  0.50000000  0.23567785  0.61220745  1
  Li  Li3  1  -0.00000000  0.50197004  0.00726613  1
  Li  Li4  1  -0.00000000  0.99783565  0.25714034  1
  Li  Li5  1  -0.00000000  0.50079972  0.49801916  1
  Li  Li6  1  0.50000000  0.74122475  0.87315452  1
  Li  Li7  1  -0.00000000  0.99677621  0.74215701  1
  Li  Li8  1  -0.00000000  0.00009450  0.49865403  1
  Mn  Mn9  1  -0.00000000  0.99820417  0.00298422  1
  Mn  Mn10  1  0.50000000  0.25536126  0.87209800  1
  Co  Co11  1  -0.00000000  0.49594500  0.25799567  1
  Co  Co12  1  0.00000000  0.50314299  0.74212104  1
  Co  Co13  1  0.50000000  0.73884270  0.12519998  1
  Co  Co14  1  0.50000000  0.22436826  0.37895792  1
  Co  Co15  1  0.50000000  0.77778434  0.62344722  1
  O  O16  1  0.50000000  0.99710785  0.11366114  1
  O  O17  1  0.50000000  0.50202429  0.36991434  1
  O  O18  1  0.50000000  0.98943818  0.62833986  1
  O  O19  1  -0.00000000  0.26454797  0.98245220  1
  O  O20  1  -0.00000000  0.74511243  0.23796534  1
  O  O21  1  -0.00000000  0.25245794  0.48920326  1
  O  O22  1  0.50000000  0.48350948  0.85543931  1
  O  O23  1  -0.00000000  0.74684351  0.74223440  1
  O  O24  1  0.50000000  0.50232131  0.13293709  1
  O  O25  1  0.50000000  0.01253035  0.37255261  1
  O  O26  1  0.50000000  0.50189501  0.63694318  1
  O  O27  1  -0.00000000  0.74373519  0.00432305  1
  O  O28  1  -0.00000000  0.25848821  0.25821939  1
  O  O29  1  -0.00000000  0.74926279  0.51509491  1
  O  O30  1  0.50000000  0.02270571  0.88886127  1
  O  O31  1  -0.00000000  0.24369331  0.76352164  1
