# generated using pymatgen
data_V3OF11
_symmetry_space_group_name_H-M   'P 1'
_cell_length_a   5.45092601
_cell_length_b   5.26808195
_cell_length_c   14.73279649
_cell_angle_alpha   90.01779526
_cell_angle_beta   100.35532957
_cell_angle_gamma   89.91227615
_symmetry_Int_Tables_number   1
_chemical_formula_structural   V3OF11
_chemical_formula_sum   'V6 O2 F22'
_cell_volume   416.17445560
_cell_formula_units_Z   2
loop_
 _symmetry_equiv_pos_site_id
 _symmetry_equiv_pos_as_xyz
  1  'x, y, z'
loop_
 _atom_site_type_symbol
 _atom_site_label
 _atom_site_symmetry_multiplicity
 _atom_site_fract_x
 _atom_site_fract_y
 _atom_site_fract_z
 _atom_site_occupancy
  V  V0  1  0.00025663  0.00857721  0.00627116  1
  V  V1  1  0.16653426  0.49982536  0.33364176  1
  V  V2  1  0.32224306  0.99210693  0.66775618  1
  V  V3  1  0.49811259  0.50363940  0.99875928  1
  V  V4  1  0.66658490  0.99978124  0.33366276  1
  V  V5  1  0.79327535  0.47634661  0.66385462  1
  O  O6  1  0.04483539  0.08209491  0.11466917  1
  O  O7  1  0.54159703  0.29570857  0.64432717  1
  F  F8  1  0.02418312  0.21039983  0.64207302  1
  F  F9  1  0.19387152  0.29243530  0.97371936  1
  F  F10  1  0.13986992  0.70684877  0.69029285  1
  F  F11  1  0.20856771  0.41335428  0.45110462  1
  F  F12  1  0.38329726  0.08824017  0.78471808  1
  F  F13  1  0.12506528  0.58593317  0.21587808  1
  F  F14  1  0.29568247  0.92357379  0.54886328  1
  F  F15  1  0.45826036  0.58234726  0.88101996  1
  F  F16  1  0.35657517  0.19844543  0.30878521  1
  F  F17  1  0.69705511  0.20263576  0.97412425  1
  F  F18  1  0.30338877  0.79822309  0.02435321  1
  F  F19  1  0.47693705  0.69824345  0.35844034  1
  F  F20  1  0.63772764  0.78743352  0.69073627  1
  F  F21  1  0.54228284  0.41251382  0.11569745  1
  F  F22  1  0.70900700  0.08731167  0.45106813  1
  F  F23  1  0.89427125  0.42690762  0.78345499  1
  F  F24  1  0.62368749  0.91345167  0.21588859  1
  F  F25  1  0.80206317  0.59199410  0.55155733  1
  F  F26  1  0.95703496  0.91178609  0.88415833  1
  F  F27  1  0.85620824  0.30150307  0.30851666  1
  F  F28  1  0.80479365  0.70680325  0.02449812  1
  F  F29  1  0.97673281  0.80153365  0.35811076  1
