# generated using pymatgen
data_LiVP3HO10
_symmetry_space_group_name_H-M   'P 1'
_cell_length_a   11.97653193
_cell_length_b   5.03852484
_cell_length_c   15.49976507
_cell_angle_alpha   90.00000000
_cell_angle_beta   90.00000000
_cell_angle_gamma   90.00000000
_symmetry_Int_Tables_number   1
_chemical_formula_structural   LiVP3HO10
_chemical_formula_sum   'Li4 V4 P12 H4 O40'
_cell_volume   935.31865458
_cell_formula_units_Z   4
loop_
 _symmetry_equiv_pos_site_id
 _symmetry_equiv_pos_as_xyz
  1  'x, y, z'
loop_
 _atom_site_type_symbol
 _atom_site_label
 _atom_site_symmetry_multiplicity
 _atom_site_fract_x
 _atom_site_fract_y
 _atom_site_fract_z
 _atom_site_occupancy
  Li  Li0  1  0.19438426  0.05794173  0.94556401  1
  Li  Li1  1  0.30561574  0.05794173  0.44556401  1
  Li  Li2  1  0.69438426  0.94205827  0.94556401  1
  Li  Li3  1  0.80561574  0.94205827  0.44556401  1
  V  V4  1  0.16658913  0.99476519  0.73720655  1
  V  V5  1  0.33341087  0.99476519  0.23720655  1
  V  V6  1  0.66658913  0.00523481  0.73720655  1
  V  V7  1  0.83341087  0.00523481  0.23720655  1
  P  P8  1  0.08385201  0.25636153  0.23908025  1
  P  P9  1  0.08063114  0.48677856  0.62307346  1
  P  P10  1  0.25189825  0.49872521  0.35763215  1
  P  P11  1  0.24810175  0.49872521  0.85763215  1
  P  P12  1  0.41936886  0.48677856  0.12307346  1
  P  P13  1  0.41614799  0.25636153  0.73908025  1
  P  P14  1  0.58385201  0.74363847  0.23908025  1
  P  P15  1  0.58063114  0.51322144  0.62307346  1
  P  P16  1  0.75189825  0.50127479  0.35763215  1
  P  P17  1  0.74810175  0.50127479  0.85763215  1
  P  P18  1  0.91936886  0.51322144  0.12307346  1
  P  P19  1  0.91614799  0.74363847  0.73908025  1
  H  H20  1  0.12420404  0.49254583  0.48982066  1
  H  H21  1  0.37579596  0.49254583  0.98982066  1
  H  H22  1  0.62420404  0.50745417  0.48982066  1
  H  H23  1  0.87579596  0.50745417  0.98982066  1
  O  O24  1  0.04096193  0.45126974  0.16525019  1
  O  O25  1  0.01262042  0.89291277  0.77891488  1
  O  O26  1  0.05496081  0.54551669  0.52595364  1
  O  O27  1  0.13136113  0.45862172  0.30918768  1
  O  O28  1  0.10397661  0.19246018  0.63505565  1
  O  O29  1  0.17647693  0.08870200  0.20152750  1
  O  O30  1  0.16115935  0.32217056  0.81473439  1
  O  O31  1  0.16881926  0.66696560  0.66123765  1
  O  O32  1  0.23451769  0.40905272  0.45055852  1
  O  O33  1  0.22427122  0.79860117  0.85063880  1
  O  O34  1  0.27572878  0.79860117  0.35063880  1
  O  O35  1  0.26548231  0.40905272  0.95055852  1
  O  O36  1  0.33118074  0.66696560  0.16123765  1
  O  O37  1  0.33884065  0.32217056  0.31473439  1
  O  O38  1  0.32352307  0.08870200  0.70152750  1
  O  O39  1  0.39602339  0.19246018  0.13505565  1
  O  O40  1  0.36863887  0.45862172  0.80918768  1
  O  O41  1  0.44503919  0.54551669  0.02595364  1
  O  O42  1  0.48737958  0.89291277  0.27891488  1
  O  O43  1  0.45903807  0.45126974  0.66525019  1
  O  O44  1  0.54096193  0.54873026  0.16525019  1
  O  O45  1  0.51262042  0.10708723  0.77891488  1
  O  O46  1  0.55496081  0.45448331  0.52595364  1
  O  O47  1  0.63136113  0.54137828  0.30918768  1
  O  O48  1  0.60397661  0.80753982  0.63505565  1
  O  O49  1  0.67647693  0.91129800  0.20152750  1
  O  O50  1  0.66115935  0.67782944  0.81473439  1
  O  O51  1  0.66881926  0.33303440  0.66123765  1
  O  O52  1  0.73451769  0.59094728  0.45055852  1
  O  O53  1  0.72427122  0.20139883  0.85063880  1
  O  O54  1  0.77572878  0.20139883  0.35063880  1
  O  O55  1  0.76548231  0.59094728  0.95055852  1
  O  O56  1  0.83118074  0.33303440  0.16123765  1
  O  O57  1  0.83884065  0.67782944  0.31473439  1
  O  O58  1  0.82352307  0.91129800  0.70152750  1
  O  O59  1  0.89602339  0.80753982  0.13505565  1
  O  O60  1  0.86863887  0.54137828  0.80918768  1
  O  O61  1  0.94503919  0.45448331  0.02595364  1
  O  O62  1  0.98737958  0.10708723  0.27891488  1
  O  O63  1  0.95903807  0.54873026  0.66525019  1
