# generated using pymatgen
data_Cr(PO3)2
_symmetry_space_group_name_H-M   'P 1'
_cell_length_a   6.89369013
_cell_length_b   6.89369013
_cell_length_c   5.02870437
_cell_angle_alpha   75.95485918
_cell_angle_beta   104.04514082
_cell_angle_gamma   95.58235692
_symmetry_Int_Tables_number   1
_chemical_formula_structural   Cr(PO3)2
_chemical_formula_sum   'Cr2 P4 O12'
_cell_volume   224.71677915
_cell_formula_units_Z   2
loop_
 _symmetry_equiv_pos_site_id
 _symmetry_equiv_pos_as_xyz
  1  'x, y, z'
loop_
 _atom_site_type_symbol
 _atom_site_label
 _atom_site_symmetry_multiplicity
 _atom_site_fract_x
 _atom_site_fract_y
 _atom_site_fract_z
 _atom_site_occupancy
  Cr  Cr0  1  0.88678170  0.88678170  0.75000000  1
  Cr  Cr1  1  0.11321830  0.11321830  0.25000000  1
  P  P2  1  0.37619033  0.80246379  0.76149018  1
  P  P3  1  0.19753621  0.62380967  0.26149018  1
  P  P4  1  0.80246379  0.37619033  0.73850982  1
  P  P5  1  0.62380967  0.19753621  0.23850982  1
  O  O6  1  0.20552566  0.94655139  0.65792425  1
  O  O7  1  0.05344861  0.79447434  0.15792425  1
  O  O8  1  0.58618668  0.88468884  0.81309759  1
  O  O9  1  0.35296868  0.65819758  0.54369317  1
  O  O10  1  0.11531116  0.41381332  0.31309759  1
  O  O11  1  0.34180242  0.64703132  0.04369317  1
  O  O12  1  0.65819758  0.35296868  0.95630683  1
  O  O13  1  0.88468884  0.58618668  0.68690241  1
  O  O14  1  0.64703132  0.34180242  0.45630683  1
  O  O15  1  0.41381332  0.11531116  0.18690241  1
  O  O16  1  0.94655139  0.20552566  0.84207575  1
  O  O17  1  0.79447434  0.05344861  0.34207575  1
