# generated using pymatgen
data_Na6Ti2O7
_symmetry_space_group_name_H-M   'P 1'
_cell_length_a   6.00809896
_cell_length_b   8.58790263
_cell_length_c   9.05993905
_cell_angle_alpha   90.00000000
_cell_angle_beta   89.02101922
_cell_angle_gamma   90.00000000
_symmetry_Int_Tables_number   1
_chemical_formula_structural   Na6Ti2O7
_chemical_formula_sum   'Na12 Ti4 O14'
_cell_volume   467.39715720
_cell_formula_units_Z   2
loop_
 _symmetry_equiv_pos_site_id
 _symmetry_equiv_pos_as_xyz
  1  'x, y, z'
loop_
 _atom_site_type_symbol
 _atom_site_label
 _atom_site_symmetry_multiplicity
 _atom_site_fract_x
 _atom_site_fract_y
 _atom_site_fract_z
 _atom_site_occupancy
  Na  Na0  1  0.17984091  0.42485678  0.59206687  1
  Na  Na1  1  0.18508962  0.56027764  0.91369486  1
  Na  Na2  1  0.30496156  0.27510550  0.17885449  1
  Na  Na3  1  0.30133582  0.78346049  0.61130249  1
  Na  Na4  1  0.42196537  0.92662473  0.18388045  1
  Na  Na5  1  0.40623591  0.05319192  0.87129668  1
  Na  Na6  1  0.67984091  0.57514322  0.09206687  1
  Na  Na7  1  0.68508962  0.43972236  0.41369486  1
  Na  Na8  1  0.80133582  0.21653951  0.11130249  1
  Na  Na9  1  0.80496156  0.72489450  0.67885449  1
  Na  Na10  1  0.90623591  0.94680808  0.37129668  1
  Na  Na11  1  0.92196537  0.07337527  0.68388045  1
  Ti  Ti12  1  0.97590369  0.89835611  0.99817894  1
  Ti  Ti13  1  0.11973924  0.59344597  0.28142387  1
  Ti  Ti14  1  0.47590369  0.10164389  0.49817894  1
  Ti  Ti15  1  0.61973924  0.40655403  0.78142387  1
  O  O16  1  0.02246201  0.66004919  0.46212267  1
  O  O17  1  0.03800827  0.72235604  0.11877441  1
  O  O18  1  0.12302591  0.06066766  0.07854611  1
  O  O19  1  0.08638652  0.86972982  0.81248413  1
  O  O20  1  0.18005051  0.06889769  0.49797651  1
  O  O21  1  0.41779161  0.56211488  0.27736300  1
  O  O22  1  0.47474405  0.58437703  0.73995252  1
  O  O23  1  0.52246201  0.33995081  0.96212267  1
  O  O24  1  0.53800827  0.27764396  0.61877441  1
  O  O25  1  0.58638652  0.13027018  0.31248413  1
  O  O26  1  0.62302591  0.93933234  0.57854611  1
  O  O27  1  0.68005051  0.93110231  0.99797651  1
  O  O28  1  0.97474405  0.41562297  0.23995252  1
  O  O29  1  0.91779161  0.43788512  0.77736300  1
