# generated using pymatgen
data_Mn2OF3
_symmetry_space_group_name_H-M   'P 1'
_cell_length_a   4.88049339
_cell_length_b   4.88049339
_cell_length_c   15.85286406
_cell_angle_alpha   90.00000000
_cell_angle_beta   90.00000000
_cell_angle_gamma   92.49063739
_symmetry_Int_Tables_number   1
_chemical_formula_structural   Mn2OF3
_chemical_formula_sum   'Mn10 O5 F15'
_cell_volume   377.24608165
_cell_formula_units_Z   5
loop_
 _symmetry_equiv_pos_site_id
 _symmetry_equiv_pos_as_xyz
  1  'x, y, z'
loop_
 _atom_site_type_symbol
 _atom_site_label
 _atom_site_symmetry_multiplicity
 _atom_site_fract_x
 _atom_site_fract_y
 _atom_site_fract_z
 _atom_site_occupancy
  Mn  Mn0  1  0.96200663  0.96200663  0.39948511  1
  Mn  Mn1  1  0.03605375  0.03605375  0.20000000  1
  Mn  Mn2  1  0.96200663  0.96200663  0.00051489  1
  Mn  Mn3  1  0.02688123  0.02688123  0.59983319  1
  Mn  Mn4  1  0.02688123  0.02688123  0.80016681  1
  Mn  Mn5  1  0.49313452  0.49313452  0.50029625  1
  Mn  Mn6  1  0.50017280  0.50017280  0.10001502  1
  Mn  Mn7  1  0.50017280  0.50017280  0.29998498  1
  Mn  Mn8  1  0.49313452  0.49313452  0.89970375  1
  Mn  Mn9  1  0.49774519  0.49774519  0.70000000  1
  O  O10  1  0.33460656  0.33460656  0.20000000  1
  O  O11  1  0.32341012  0.32341012  0.60007699  1
  O  O12  1  0.32341012  0.32341012  0.79992301  1
  O  O13  1  0.66356757  0.66356757  0.99961773  1
  O  O14  1  0.66356757  0.66356757  0.40038227  1
  F  F15  1  0.19616333  0.79157194  0.89959340  1
  F  F16  1  0.20342182  0.79607513  0.10017598  1
  F  F17  1  0.20342182  0.79607513  0.29982402  1
  F  F18  1  0.19616333  0.79157194  0.50040660  1
  F  F19  1  0.20864617  0.81871252  0.70000000  1
  F  F20  1  0.27802721  0.27802721  0.00074607  1
  F  F21  1  0.27802721  0.27802721  0.39925393  1
  F  F22  1  0.71939129  0.71939129  0.20000000  1
  F  F23  1  0.70798796  0.70798796  0.60446426  1
  F  F24  1  0.70798796  0.70798796  0.79553574  1
  F  F25  1  0.79607513  0.20342182  0.10017598  1
  F  F26  1  0.79607513  0.20342182  0.29982402  1
  F  F27  1  0.79157194  0.19616333  0.50040660  1
  F  F28  1  0.79157194  0.19616333  0.89959340  1
  F  F29  1  0.81871252  0.20864617  0.70000000  1
