# generated using pymatgen
data_Co3OF5
_symmetry_space_group_name_H-M   'P 1'
_cell_length_a   4.71915293
_cell_length_b   7.90528282
_cell_length_c   5.69472078
_cell_angle_alpha   92.64153014
_cell_angle_beta   91.72217634
_cell_angle_gamma   88.53202943
_symmetry_Int_Tables_number   1
_chemical_formula_structural   Co3OF5
_chemical_formula_sum   'Co6 O2 F10'
_cell_volume   212.06452588
_cell_formula_units_Z   2
loop_
 _symmetry_equiv_pos_site_id
 _symmetry_equiv_pos_as_xyz
  1  'x, y, z'
loop_
 _atom_site_type_symbol
 _atom_site_label
 _atom_site_symmetry_multiplicity
 _atom_site_fract_x
 _atom_site_fract_y
 _atom_site_fract_z
 _atom_site_occupancy
  Co  Co0  1  0.50000000  0.00000000  0.50000000  1
  Co  Co1  1  0.48429284  0.33699119  0.82031281  1
  Co  Co2  1  0.51570716  0.66300881  0.17968719  1
  Co  Co3  1  0.97140802  0.67683364  0.65041233  1
  Co  Co4  1  0.02859198  0.32316636  0.34958767  1
  Co  Co5  1  0.00000000  0.00000000  0.00000000  1
  O  O6  1  0.70119405  0.76998332  0.46862350  1
  O  O7  1  0.29880595  0.23001668  0.53137650  1
  F  F8  1  0.80630921  0.43605508  0.63049016  1
  F  F9  1  0.80588623  0.76399235  0.96393590  1
  F  F10  1  0.80436119  0.10505852  0.29591182  1
  F  F11  1  0.69536365  0.10353823  0.79908256  1
  F  F12  1  0.70570858  0.42712405  0.13580778  1
  F  F13  1  0.29429142  0.57287595  0.86419222  1
  F  F14  1  0.30463635  0.89646177  0.20091744  1
  F  F15  1  0.19411377  0.23600765  0.03606410  1
  F  F16  1  0.19563881  0.89494148  0.70408818  1
  F  F17  1  0.19369079  0.56394492  0.36950984  1
