# generated using pymatgen
data_Li3V3P8O29
_symmetry_space_group_name_H-M   'P 1'
_cell_length_a   9.73103962
_cell_length_b   9.73095685
_cell_length_c   14.36812878
_cell_angle_alpha   90.98019484
_cell_angle_beta   90.98181301
_cell_angle_gamma   60.47926631
_symmetry_Int_Tables_number   1
_chemical_formula_structural   Li3V3P8O29
_chemical_formula_sum   'Li6 V6 P16 O58'
_cell_volume   1183.68875805
_cell_formula_units_Z   2
loop_
 _symmetry_equiv_pos_site_id
 _symmetry_equiv_pos_as_xyz
  1  'x, y, z'
loop_
 _atom_site_type_symbol
 _atom_site_label
 _atom_site_symmetry_multiplicity
 _atom_site_fract_x
 _atom_site_fract_y
 _atom_site_fract_z
 _atom_site_occupancy
  Li  Li0  1  0.77226340  0.32313549  0.05755515  1
  Li  Li1  1  0.32316682  0.77228022  0.55756576  1
  Li  Li2  1  0.67998765  0.08574944  0.93997480  1
  Li  Li3  1  0.08571814  0.68003732  0.44004403  1
  Li  Li4  1  0.07787172  0.93000941  0.99062390  1
  Li  Li5  1  0.92956249  0.07792054  0.49038611  1
  V  V6  1  0.56305302  0.43391128  0.25285977  1
  V  V7  1  0.43392111  0.56304858  0.75288611  1
  V  V8  1  0.56204916  0.99676610  0.74673345  1
  V  V9  1  0.43509707  0.00160632  0.25129553  1
  V  V10  1  0.99678393  0.56199225  0.24670230  1
  V  V11  1  0.00162964  0.43512427  0.75126480  1
  P  P12  1  0.91716187  0.78405501  0.83709342  1
  P  P13  1  0.78407025  0.91705978  0.33695795  1
  P  P14  1  0.91690295  0.30646114  0.34270529  1
  P  P15  1  0.66233133  0.66568225  0.13337247  1
  P  P16  1  0.66565536  0.66233825  0.63339274  1
  P  P17  1  0.77462882  0.31655863  0.84167847  1
  P  P18  1  0.68826193  0.22245138  0.66222787  1
  P  P19  1  0.30635055  0.91699824  0.84275707  1
  P  P20  1  0.68594584  0.08685810  0.15580901  1
  P  P21  1  0.31657428  0.77459295  0.34169119  1
  P  P22  1  0.22239133  0.68841521  0.16214484  1
  P  P23  1  0.33006410  0.33735354  0.36721816  1
  P  P24  1  0.33737019  0.33010188  0.86726930  1
  P  P25  1  0.08684180  0.68606918  0.65588170  1
  P  P26  1  0.21540642  0.08558368  0.66171874  1
  P  P27  1  0.08556160  0.21530779  0.16175920  1
  O  O28  1  0.01873110  0.75687100  0.56405643  1
  O  O29  1  0.91800098  0.73993707  0.33449357  1
  O  O30  1  0.75664678  0.01884379  0.06399643  1
  O  O31  1  0.73997408  0.91796737  0.83454429  1
  O  O32  1  0.92490640  0.62052274  0.82767637  1
  O  O33  1  0.81315577  0.66255531  0.18172082  1
  O  O34  1  0.92433475  0.46049005  0.32959168  1
  O  O35  1  0.99684608  0.20561293  0.07912407  1
  O  O36  1  0.91695545  0.34473405  0.83508242  1
  O  O37  1  0.66260293  0.81310661  0.68175127  1
  O  O38  1  0.62052900  0.92491766  0.32771180  1
  O  O39  1  0.81313783  0.52154005  0.68113574  1
  O  O40  1  0.66910045  0.66693039  0.03064475  1
  O  O41  1  0.66673141  0.66916432  0.53064818  1
  O  O42  1  0.66729890  0.51293110  0.17046072  1
  O  O43  1  0.46054559  0.92433054  0.82956919  1
  O  O44  1  0.52159883  0.81307679  0.18121704  1
  O  O45  1  0.74065308  0.34876829  0.32742178  1
  O  O46  1  0.79142891  0.20092252  0.75674768  1
  O  O47  1  0.78243149  0.20776571  0.58000605  1
  O  O48  1  0.76801652  0.24094568  0.93042724  1
  O  O49  1  0.62042508  0.47589656  0.82419961  1
  O  O50  1  0.51298751  0.66722563  0.67052086  1
  O  O51  1  0.65847021  0.25885499  0.16486508  1
  O  O52  1  0.47589791  0.62040945  0.32416096  1
  O  O53  1  0.34474036  0.91690501  0.33515886  1
  O  O54  1  0.80369394  0.98949152  0.23967090  1
  O  O55  1  0.80923834  0.99909513  0.41736553  1
  O  O56  1  0.20588274  0.99681372  0.57903318  1
  O  O57  1  0.64738302  0.08707768  0.67050018  1
  O  O58  1  0.53387340  0.38224771  0.67433521  1
  O  O59  1  0.34877028  0.74067263  0.82744543  1
  O  O60  1  0.47728654  0.33827864  0.31970404  1
  O  O61  1  0.38227629  0.53387381  0.17429944  1
  O  O62  1  0.20774048  0.78244565  0.08012982  1
  O  O63  1  0.24099790  0.76784277  0.43044568  1
  O  O64  1  0.20089931  0.79141070  0.25679055  1
  O  O65  1  0.25884390  0.65853940  0.66487575  1
  O  O66  1  0.48809113  0.18296039  0.82762206  1
  O  O67  1  0.52844940  0.08862262  0.17554296  1
  O  O68  1  0.33831324  0.47731009  0.81973292  1
  O  O69  1  0.33984744  0.33818365  0.97008147  1
  O  O70  1  0.33806513  0.33980501  0.47006272  1
  O  O71  1  0.18297826  0.48808429  0.32756501  1
  O  O72  1  0.37725555  0.08248334  0.67426278  1
  O  O73  1  0.33213442  0.18866384  0.32150852  1
  O  O74  1  0.08705353  0.64736824  0.17046831  1
  O  O75  1  0.98959622  0.80372814  0.73978311  1
  O  O76  1  0.99908920  0.80908774  0.91751858  1
  O  O77  1  0.08862572  0.52855237  0.67554847  1
  O  O78  1  0.18867520  0.33217922  0.82151935  1
  O  O79  1  0.08245128  0.37717816  0.17424102  1
  O  O80  1  0.25966700  0.08127325  0.16760991  1
  O  O81  1  0.21707273  0.98435422  0.92887658  1
  O  O82  1  0.19563521  0.00590460  0.75414474  1
  O  O83  1  0.08138888  0.25966547  0.66755130  1
  O  O84  1  0.98421037  0.21701742  0.42901194  1
  O  O85  1  0.00598879  0.19557673  0.25425249  1
