# generated using pymatgen
data_Zr5Ti7O24
_symmetry_space_group_name_H-M   'P 1'
_cell_length_a   4.81217188
_cell_length_b   5.65111077
_cell_length_c   15.21061423
_cell_angle_alpha   90.00000000
_cell_angle_beta   88.43309658
_cell_angle_gamma   90.00000000
_symmetry_Int_Tables_number   1
_chemical_formula_structural   Zr5Ti7O24
_chemical_formula_sum   'Zr5 Ti7 O24'
_cell_volume   413.48454411
_cell_formula_units_Z   1
loop_
 _symmetry_equiv_pos_site_id
 _symmetry_equiv_pos_as_xyz
  1  'x, y, z'
loop_
 _atom_site_type_symbol
 _atom_site_label
 _atom_site_symmetry_multiplicity
 _atom_site_fract_x
 _atom_site_fract_y
 _atom_site_fract_z
 _atom_site_occupancy
  Zr  Zr0  1  0.00000000  0.81394342  0.25000000  1
  Zr  Zr1  1  0.00000000  0.20540871  0.75000000  1
  Zr  Zr2  1  0.98889898  0.80351609  0.58406334  1
  Zr  Zr3  1  0.01110102  0.80351609  0.91593666  1
  Zr  Zr4  1  0.50000000  0.31053672  0.25000000  1
  Ti  Ti5  1  0.01162663  0.18919050  0.07972733  1
  Ti  Ti6  1  0.98837337  0.18919050  0.42027267  1
  Ti  Ti7  1  0.48742802  0.32256889  0.57977842  1
  Ti  Ti8  1  0.51257198  0.32256889  0.92022158  1
  Ti  Ti9  1  0.48862554  0.68610698  0.41688807  1
  Ti  Ti10  1  0.51137446  0.68610698  0.08311193  1
  Ti  Ti11  1  0.50000000  0.67138889  0.75000000  1
  O  O12  1  0.24181893  0.88813269  0.80067530  1
  O  O13  1  0.19981309  0.11338455  0.31329170  1
  O  O14  1  0.25962476  0.89404592  0.13782336  1
  O  O15  1  0.21270533  0.88250082  0.46751886  1
  O  O16  1  0.22891148  0.11077329  0.63402857  1
  O  O17  1  0.24141375  0.12256468  0.97297162  1
  O  O18  1  0.28653074  0.60912521  0.31179010  1
  O  O19  1  0.24727783  0.38343928  0.47635833  1
  O  O20  1  0.28903123  0.39587893  0.81735102  1
  O  O21  1  0.26084865  0.39095423  0.13676727  1
  O  O22  1  0.26054201  0.59157468  0.65040676  1
  O  O23  1  0.31845213  0.61560487  0.97668421  1
  O  O24  1  0.75272217  0.38343928  0.02364167  1
  O  O25  1  0.71346926  0.60912521  0.18820990  1
  O  O26  1  0.73915135  0.39095423  0.36323273  1
  O  O27  1  0.71096877  0.39587893  0.68264898  1
  O  O28  1  0.68154787  0.61560487  0.52331579  1
  O  O29  1  0.73945799  0.59157468  0.84959324  1
  O  O30  1  0.80018691  0.11338455  0.18670830  1
  O  O31  1  0.75858625  0.12256468  0.52702838  1
  O  O32  1  0.78729467  0.88250082  0.03248114  1
  O  O33  1  0.74037524  0.89404592  0.36217664  1
  O  O34  1  0.75818107  0.88813269  0.69932470  1
  O  O35  1  0.77108852  0.11077329  0.86597143  1
