# generated using pymatgen
data_Li4V3Fe2Sb3O16
_symmetry_space_group_name_H-M   'P 1'
_cell_length_a   6.15577127
_cell_length_b   6.16151562
_cell_length_c   9.93696145
_cell_angle_alpha   90.08979639
_cell_angle_beta   89.70137493
_cell_angle_gamma   119.97258717
_symmetry_Int_Tables_number   1
_chemical_formula_structural   Li4V3Fe2Sb3O16
_chemical_formula_sum   'Li4 V3 Fe2 Sb3 O16'
_cell_volume   326.48854936
_cell_formula_units_Z   1
loop_
 _symmetry_equiv_pos_site_id
 _symmetry_equiv_pos_as_xyz
  1  'x, y, z'
loop_
 _atom_site_type_symbol
 _atom_site_label
 _atom_site_symmetry_multiplicity
 _atom_site_fract_x
 _atom_site_fract_y
 _atom_site_fract_z
 _atom_site_occupancy
  Li  Li0  1  0.32836778  0.66440121  0.87428550  1
  Li  Li1  1  0.98259955  0.99073848  0.99051765  1
  Li  Li2  1  0.98847738  0.99397468  0.50599341  1
  Li  Li3  1  0.65529458  0.32769907  0.40069829  1
  V  V4  1  0.66419229  0.83215574  0.21700576  1
  V  V5  1  0.83359112  0.66352525  0.71421450  1
  V  V6  1  0.83374803  0.17026354  0.71421448  1
  Fe  Fe7  1  0.34650942  0.67356682  0.51417849  1
  Fe  Fe8  1  0.68814894  0.34412226  0.97740718  1
  Sb  Sb9  1  0.16876203  0.83157822  0.21609045  1
  Sb  Sb10  1  0.16849357  0.33694660  0.21580206  1
  Sb  Sb11  1  0.34122079  0.17094954  0.71501941  1
  O  O12  1  0.16456994  0.84959178  0.60115593  1
  O  O13  1  0.02442592  0.51236655  0.32976010  1
  O  O14  1  0.32599257  0.66252389  0.10330489  1
  O  O15  1  0.00706457  0.00395061  0.32056558  1
  O  O16  1  0.01117697  0.00573552  0.81338241  1
  O  O17  1  0.16374820  0.31341446  0.60131431  1
  O  O18  1  0.47779120  0.96575872  0.32547668  1
  O  O19  1  0.47667681  0.51239384  0.32612830  1
  O  O20  1  0.31093263  0.15511066  0.10372990  1
  O  O21  1  0.69024626  0.84510749  0.60963753  1
  O  O22  1  0.51200233  0.47937721  0.83279388  1
  O  O23  1  0.51184492  0.03303801  0.83250232  1
  O  O24  1  0.65657482  0.32821926  0.60144343  1
  O  O25  1  0.85214742  0.69342782  0.10998083  1
  O  O26  1  0.96361247  0.48224536  0.83136620  1
  O  O27  1  0.85178649  0.15811643  0.10987256  1
