# generated using pymatgen
data_Ge2N2O
_symmetry_space_group_name_H-M   'P 1'
_cell_length_a   3.09382089
_cell_length_b   8.91061896
_cell_length_c   5.10995793
_cell_angle_alpha   90.00175803
_cell_angle_beta   89.99954449
_cell_angle_gamma   100.00397882
_symmetry_Int_Tables_number   1
_chemical_formula_structural   Ge2N2O
_chemical_formula_sum   'Ge4 N4 O2'
_cell_volume   138.72876020
_cell_formula_units_Z   2
loop_
 _symmetry_equiv_pos_site_id
 _symmetry_equiv_pos_as_xyz
  1  'x, y, z'
loop_
 _atom_site_type_symbol
 _atom_site_label
 _atom_site_symmetry_multiplicity
 _atom_site_fract_x
 _atom_site_fract_y
 _atom_site_fract_z
 _atom_site_occupancy
  Ge  Ge0  1  0.44317809  0.88516644  0.37200663  1
  Ge  Ge1  1  0.21749908  0.43546574  0.88285968  1
  Ge  Ge2  1  0.78241701  0.56456683  0.38286403  1
  Ge  Ge3  1  0.55682246  0.11487115  0.87201506  1
  N  N4  1  0.11208169  0.22531100  0.93454181  1
  N  N5  1  0.24254951  0.48494163  0.52633880  1
  N  N6  1  0.75736231  0.51507822  0.02635435  1
  N  N7  1  0.88790895  0.77472614  0.43451920  1
  O  O8  1  0.46886835  0.93769191  0.03425060  1
  O  O9  1  0.53114554  0.06234793  0.53424883  1
