# generated using pymatgen
data_Li4V3P8O29
_symmetry_space_group_name_H-M   'P 1'
_cell_length_a   9.78349543
_cell_length_b   9.71213722
_cell_length_c   14.37083607
_cell_angle_alpha   89.99437952
_cell_angle_beta   91.25650837
_cell_angle_gamma   60.24418895
_symmetry_Int_Tables_number   1
_chemical_formula_structural   Li4V3P8O29
_chemical_formula_sum   'Li8 V6 P16 O58'
_cell_volume   1185.07462090
_cell_formula_units_Z   2
loop_
 _symmetry_equiv_pos_site_id
 _symmetry_equiv_pos_as_xyz
  1  'x, y, z'
loop_
 _atom_site_type_symbol
 _atom_site_label
 _atom_site_symmetry_multiplicity
 _atom_site_fract_x
 _atom_site_fract_y
 _atom_site_fract_z
 _atom_site_occupancy
  Li  Li0  1  0.90866111  0.77515659  0.05983498  1
  Li  Li1  1  0.90859424  0.31623261  0.55978951  1
  Li  Li2  1  0.34018403  0.90053514  0.06130791  1
  Li  Li3  1  0.66825443  0.22743438  0.43945817  1
  Li  Li4  1  0.34010219  0.75920323  0.56137231  1
  Li  Li5  1  0.66823263  0.10421451  0.93943564  1
  Li  Li6  1  0.01516072  0.04945042  0.98709152  1
  Li  Li7  1  0.01531169  0.93567611  0.48709277  1
  V  V8  1  0.56697955  0.43629637  0.24372832  1
  V  V9  1  0.43256361  0.56362590  0.75713339  1
  V  V10  1  0.56687070  0.99674590  0.74371367  1
  V  V11  1  0.43253672  0.00384221  0.25711743  1
  V  V12  1  0.00064287  0.56083537  0.24800288  1
  V  V13  1  0.00061030  0.43858149  0.74802776  1
  P  P14  1  0.91445613  0.77688651  0.84470614  1
  P  P15  1  0.78643960  0.91310518  0.33381147  1
  P  P16  1  0.91460851  0.30854299  0.34478122  1
  P  P17  1  0.65867666  0.67692448  0.13275629  1
  P  P18  1  0.65865486  0.66450363  0.63279451  1
  P  P19  1  0.78640484  0.30052915  0.83382639  1
  P  P20  1  0.67690462  0.23115415  0.65508847  1
  P  P21  1  0.31737831  0.91407762  0.84623325  1
  P  P22  1  0.67697118  0.09186981  0.15506507  1
  P  P23  1  0.31736314  0.76849582  0.34621988  1
  P  P24  1  0.21639291  0.70035329  0.16473038  1
  P  P25  1  0.34118722  0.33520553  0.36398986  1
  P  P26  1  0.34120509  0.32356360  0.86395935  1
  P  P27  1  0.08044496  0.70409881  0.66499803  1
  P  P28  1  0.21634711  0.08332645  0.66474073  1
  P  P29  1  0.08044066  0.21548231  0.16505486  1
  O  O30  1  0.99608778  0.80817970  0.58420545  1
  O  O31  1  0.91703489  0.73893144  0.32868803  1
  O  O32  1  0.75018296  0.01328531  0.06534798  1
  O  O33  1  0.74221208  0.92182397  0.83073236  1
  O  O34  1  0.91184394  0.62302037  0.82795817  1
  O  O35  1  0.81166440  0.67637515  0.16424970  1
  O  O36  1  0.91201702  0.46512633  0.32803129  1
  O  O37  1  0.99594083  0.19595021  0.08422735  1
  O  O38  1  0.91698338  0.34395712  0.82874291  1
  O  O39  1  0.66475678  0.81022708  0.67960780  1
  O  O40  1  0.62260869  0.92300295  0.32868649  1
  O  O41  1  0.81155405  0.51208614  0.66430887  1
  O  O42  1  0.62906623  0.68857820  0.03040311  1
  O  O43  1  0.62908108  0.68235453  0.53046246  1
  O  O44  1  0.66477820  0.52490365  0.17968239  1
  O  O45  1  0.47153300  0.91652375  0.82950241  1
  O  O46  1  0.51484919  0.81996728  0.18075550  1
  O  O47  1  0.74220246  0.33592832  0.33078548  1
  O  O48  1  0.79980993  0.20633283  0.73819434  1
  O  O49  1  0.75014311  0.23653278  0.56541741  1
  O  O50  1  0.80869587  0.19182672  0.91347200  1
  O  O51  1  0.62267930  0.45432642  0.82873691  1
  O  O52  1  0.51486756  0.66523291  0.68077338  1
  O  O53  1  0.65090403  0.26289896  0.16098994  1
  O  O54  1  0.47162751  0.61182762  0.32952205  1
  O  O55  1  0.34879915  0.91000227  0.33267585  1
  O  O56  1  0.79987691  0.99379457  0.23813450  1
  O  O57  1  0.80875703  0.99936762  0.41344458  1
  O  O58  1  0.20817319  0.98444041  0.58841393  1
  O  O59  1  0.65083979  0.08632339  0.66100985  1
  O  O60  1  0.52234677  0.38449985  0.67543437  1
  O  O61  1  0.34878853  0.74126280  0.83275438  1
  O  O62  1  0.49059781  0.32533269  0.31634432  1
  O  O63  1  0.37806844  0.54240144  0.17379057  1
  O  O64  1  0.20819370  0.80733211  0.08837938  1
  O  O65  1  0.24129556  0.78085904  0.43716258  1
  O  O66  1  0.19537589  0.78736911  0.26412345  1
  O  O67  1  0.25826240  0.65908000  0.66748181  1
  O  O68  1  0.49042881  0.18415009  0.81631522  1
  O  O69  1  0.52231420  0.09314491  0.17539194  1
  O  O70  1  0.33519286  0.48061332  0.82413726  1
  O  O71  1  0.36613913  0.30765832  0.96642295  1
  O  O72  1  0.36600263  0.32612065  0.46647610  1
  O  O73  1  0.19460467  0.47788909  0.32089190  1
  O  O74  1  0.37790367  0.07954001  0.67375639  1
  O  O75  1  0.33522483  0.18404223  0.32408492  1
  O  O76  1  0.08099060  0.66209449  0.15931937  1
  O  O77  1  0.01359601  0.79620667  0.76203662  1
  O  O78  1  0.97933840  0.79135630  0.93671447  1
  O  O79  1  0.07249663  0.54833647  0.67291598  1
  O  O80  1  0.19461713  0.32754064  0.82094089  1
  O  O81  1  0.07254352  0.37925881  0.17297056  1
  O  O82  1  0.25829175  0.08262786  0.16744621  1
  O  O83  1  0.24130957  0.97790126  0.93714430  1
  O  O84  1  0.19534838  0.01722250  0.76413349  1
  O  O85  1  0.08099738  0.25687712  0.65933907  1
  O  O86  1  0.97940141  0.22917830  0.43676400  1
  O  O87  1  0.01367642  0.19017636  0.26209584  1
