# generated using pymatgen
data_Fe32O35
_symmetry_space_group_name_H-M   'P 1'
_cell_length_a   3.09952108
_cell_length_b   15.41552592
_cell_length_c   23.20653814
_cell_angle_alpha   54.64643372
_cell_angle_beta   57.49230440
_cell_angle_gamma   59.79400926
_symmetry_Int_Tables_number   1
_chemical_formula_structural   Fe32O35
_chemical_formula_sum   'Fe32 O35'
_cell_volume   732.29378797
_cell_formula_units_Z   1
loop_
 _symmetry_equiv_pos_site_id
 _symmetry_equiv_pos_as_xyz
  1  'x, y, z'
loop_
 _atom_site_type_symbol
 _atom_site_label
 _atom_site_symmetry_multiplicity
 _atom_site_fract_x
 _atom_site_fract_y
 _atom_site_fract_z
 _atom_site_occupancy
  Fe  Fe0  1  0.96448535  0.01309468  0.00083446  1
  Fe  Fe1  1  0.05202259  0.16891595  0.13266374  1
  Fe  Fe2  1  0.03295356  0.38605320  0.00140931  1
  Fe  Fe3  1  0.00915892  0.14628760  0.28182054  1
  Fe  Fe4  1  0.99287343  0.59714463  0.00174589  1
  Fe  Fe5  1  0.00255813  0.37029119  0.14343634  1
  Fe  Fe6  1  0.95255090  0.36127946  0.28610468  1
  Fe  Fe7  1  0.00391464  0.11884067  0.42481956  1
  Fe  Fe8  1  0.96012798  0.57330845  0.15292934  1
  Fe  Fe9  1  0.99462765  0.79902573  0.00150392  1
  Fe  Fe10  1  0.02547846  0.07329287  0.57191452  1
  Fe  Fe11  1  0.99129925  0.77588486  0.14090460  1
  Fe  Fe12  1  -0.01034734  0.31177682  0.43182187  1
  Fe  Fe13  1  0.98963349  0.96711444  0.14687404  1
  Fe  Fe14  1  0.00158406  0.28567735  0.56945302  1
  Fe  Fe15  1  0.03977765  0.51361954  0.41801036  1
  Fe  Fe16  1  0.04161710  0.72983413  0.28437389  1
  Fe  Fe17  1  0.99253732  0.94274091  0.28692336  1
  Fe  Fe18  1  -0.00618461  0.02606694  0.85783014  1
  Fe  Fe19  1  0.00672734  0.48844187  0.56904773  1
  Fe  Fe20  1  -0.00250837  0.71436622  0.42869033  1
  Fe  Fe21  1  0.00202437  0.05820162  0.71469737  1
  Fe  Fe22  1  0.00837978  0.45786947  0.71210254  1
  Fe  Fe23  1  0.95245153  0.70018265  0.57228319  1
  Fe  Fe24  1  0.97233535  0.91208627  0.43698711  1
  Fe  Fe25  1  0.97031593  0.22578458  0.86605657  1
  Fe  Fe26  1  0.99082845  0.25926408  0.71397960  1
  Fe  Fe27  1  0.01419707  0.65557194  0.71366462  1
  Fe  Fe28  1  -0.00574594  0.43154853  0.85575209  1
  Fe  Fe29  1  0.99876063  0.63179263  0.85700441  1
  Fe  Fe30  1  -0.00119794  0.82852078  0.85805927  1
  Fe  Fe31  1  0.02936548  0.85810423  0.70506768  1
  O  O32  1  0.50467949  0.06627494  0.07955411  1
  O  O33  1  0.48022693  0.06222693  0.21624875  1
  O  O34  1  0.46274497  0.29168311  0.07716127  1
  O  O35  1  0.48907526  0.03058654  0.35898125  1
  O  O36  1  0.49280110  0.26884121  0.20919312  1
  O  O37  1  0.51684574  0.47593176  0.07403522  1
  O  O38  1  0.49482027  0.02554039  0.48414087  1
  O  O39  1  0.52840226  0.21952744  0.35735560  1
  O  O40  1  0.54334903  0.45175311  0.20714168  1
  O  O41  1  0.53013432  0.68400040  0.06732679  1
  O  O42  1  0.50802600  0.19171752  0.49942161  1
  O  O43  1  0.51103176  0.40672824  0.37020264  1
  O  O44  1  0.52636146  0.89787530  0.06173265  1
  O  O45  1  0.48039686  0.68023933  0.20033178  1
  O  O46  1  0.51709726  0.16309726  0.64152935  1
  O  O47  1  0.46371889  0.40017674  0.50514525  1
  O  O48  1  0.45660653  0.63537977  0.36336182  1
  O  O49  1  0.48890745  0.86073096  0.21767033  1
  O  O50  1  0.45142009  0.14705764  0.78886600  1
  O  O51  1  0.52437268  0.36379677  0.64569984  1
  O  O52  1  0.49479460  0.82061876  0.36353293  1
  O  O53  1  0.48914627  0.60986339  0.49537345  1
  O  O54  1  0.49463634  0.56581613  0.64219190  1
  O  O55  1  0.48928052  0.34935865  0.78801485  1
  O  O56  1  0.53389985  0.79386050  0.49461682  1
  O  O57  1  0.49834116  0.10447319  0.93397730  1
  O  O58  1  0.50422309  0.75783174  0.65506593  1
  O  O59  1  0.49643369  0.33835221  0.91412312  1
  O  O60  1  0.47678143  0.53920992  0.78925934  1
  O  O61  1  0.47449283  0.75108601  0.78160636  1
  O  O62  1  0.49896882  0.95936018  0.65055821  1
  O  O63  1  0.52352816  0.51786173  0.92421212  1
  O  O64  1  0.54572323  0.93907196  0.78185734  1
  O  O65  1  0.47769753  0.71808476  0.92699157  1
  O  O66  1  0.47489292  0.92011726  0.92984583  1
