# generated using pymatgen
data_Li9Mn2Co5O16
_symmetry_space_group_name_H-M   'P 1'
_cell_length_a   2.91271134
_cell_length_b   10.29391559
_cell_length_c   10.33707410
_cell_angle_alpha   70.17773599
_cell_angle_beta   90.00000000
_cell_angle_gamma   90.00000000
_symmetry_Int_Tables_number   1
_chemical_formula_structural   Li9Mn2Co5O16
_chemical_formula_sum   'Li9 Mn2 Co5 O16'
_cell_volume   291.57445816
_cell_formula_units_Z   1
loop_
 _symmetry_equiv_pos_site_id
 _symmetry_equiv_pos_as_xyz
  1  'x, y, z'
loop_
 _atom_site_type_symbol
 _atom_site_label
 _atom_site_symmetry_multiplicity
 _atom_site_fract_x
 _atom_site_fract_y
 _atom_site_fract_z
 _atom_site_occupancy
  Li  Li0  1  0.50000000  0.99605799  0.26258205  1
  Li  Li1  1  0.50000000  0.00420165  0.73420857  1
  Li  Li2  1  -0.00000000  0.25268101  0.25986286  1
  Li  Li3  1  -0.00000000  0.25630725  0.73946766  1
  Li  Li4  1  0.50000000  0.49593255  0.25852081  1
  Li  Li5  1  0.50000000  0.50246474  0.74133191  1
  Li  Li6  1  -0.00000000  0.74881725  0.26924214  1
  Li  Li7  1  -0.00000000  0.75051477  0.73896278  1
  Li  Li8  1  0.50000000  0.75137675  0.49491425  1
  Mn  Mn9  1  -0.00000000  0.99666964  -0.00012449  1
  Mn  Mn10  1  0.50000000  0.25445613  0.00086647  1
  Co  Co11  1  0.00000000  0.98371853  0.49355748  1
  Co  Co12  1  0.50000000  0.24557476  0.50436233  1
  Co  Co13  1  -0.00000000  0.50493236  0.00000925  1
  Co  Co14  1  -0.00000000  0.50779795  0.50225227  1
  Co  Co15  1  0.50000000  0.74701692  -0.00036001  1
  O  O16  1  0.50000000  0.89252652  0.11306956  1
  O  O17  1  0.50000000  0.88287834  0.61844256  1
  O  O18  1  -0.00000000  0.12935892  0.10241026  1
  O  O19  1  -0.00000000  0.13212270  0.61678869  1
  O  O20  1  0.50000000  0.38498392  0.12293926  1
  O  O21  1  0.50000000  0.37680969  0.61723934  1
  O  O22  1  -0.00000000  0.63969767  0.10636912  1
  O  O23  1  -0.00000000  0.60767368  0.60990848  1
  O  O24  1  0.50000000  0.12702813  0.38598651  1
  O  O25  1  0.50000000  0.10101338  0.88703439  1
  O  O26  1  -0.00000000  0.37898155  0.39686385  1
  O  O27  1  -0.00000000  0.36268099  0.88891538  1
  O  O28  1  0.50000000  0.61323819  0.38074170  1
  O  O29  1  0.50000000  0.62105944  0.87656105  1
  O  O30  1  -0.00000000  0.88491594  0.37786644  1
  O  O31  1  -0.00000000  0.86651068  0.89920710  1
