# generated using pymatgen
data_Li7Sc9Fe(SiO3)20
_symmetry_space_group_name_H-M   'P 1'
_cell_length_a   12.89305148
_cell_length_b   9.04703533
_cell_length_c   11.17479444
_cell_angle_alpha   113.88253198
_cell_angle_beta   75.33251429
_cell_angle_gamma   90.02144860
_symmetry_Int_Tables_number   1
_chemical_formula_structural   Li7Sc9Fe(SiO3)20
_chemical_formula_sum   'Li7 Sc9 Fe1 Si20 O60'
_cell_volume   1145.31162642
_cell_formula_units_Z   1
loop_
 _symmetry_equiv_pos_site_id
 _symmetry_equiv_pos_as_xyz
  1  'x, y, z'
loop_
 _atom_site_type_symbol
 _atom_site_label
 _atom_site_symmetry_multiplicity
 _atom_site_fract_x
 _atom_site_fract_y
 _atom_site_fract_z
 _atom_site_occupancy
  Li  Li0  1  0.94892896  0.19857856  0.89967687  1
  Li  Li1  1  0.74933564  0.00109805  0.50042059  1
  Li  Li2  1  0.54942364  0.80275817  0.10154613  1
  Li  Li3  1  0.45026933  0.20607707  0.89960513  1
  Li  Li4  1  0.35196479  0.60157420  0.69837126  1
  Li  Li5  1  0.15007117  0.40109490  0.30090406  1
  Li  Li6  1  0.04886870  0.80144069  0.10118288  1
  Sc  Sc7  1  0.94792370  0.83671314  0.89494446  1
  Sc  Sc8  1  0.84830462  0.94979817  0.69874975  1
  Sc  Sc9  1  0.74916385  0.63850754  0.50026824  1
  Sc  Sc10  1  0.64941715  0.75265502  0.30255101  1
  Sc  Sc11  1  0.55164366  0.44333970  0.10318964  1
  Sc  Sc12  1  0.34857976  0.24130825  0.69702193  1
  Sc  Sc13  1  0.24989766  0.35327187  0.49978143  1
  Sc  Sc14  1  0.15219913  0.04238812  0.30441658  1
  Sc  Sc15  1  0.05120399  0.15321143  0.09891974  1
  Fe  Fe16  1  0.45062348  0.55096827  0.89975703  1
  Si  Si17  1  0.98330471  0.77165512  0.36963609  1
  Si  Si18  1  0.91924664  0.29872861  0.42639622  1
  Si  Si19  1  0.88323703  0.49877206  0.17167001  1
  Si  Si20  1  0.81698732  0.02746500  0.22750755  1
  Si  Si21  1  0.71722095  0.09345925  0.02590565  1
  Si  Si22  1  0.78053845  0.57283402  0.97379997  1
  Si  Si23  1  0.68202660  0.30202614  0.77240396  1
  Si  Si24  1  0.61398669  0.82244029  0.82702855  1
  Si  Si25  1  0.58187479  0.37774766  0.57722847  1
  Si  Si26  1  0.51550224  0.90267411  0.63085919  1
  Si  Si27  1  0.48379613  0.10392595  0.37232352  1
  Si  Si28  1  0.41603333  0.63189241  0.42821456  1
  Si  Si29  1  0.38381752  0.17223294  0.17022938  1
  Si  Si30  1  0.31868736  0.69963406  0.22251689  1
  Si  Si31  1  0.21895517  0.42693918  0.02749731  1
  Si  Si32  1  0.28529767  0.89328876  0.97324996  1
  Si  Si33  1  0.18278896  0.96765619  0.77383780  1
  Si  Si34  1  0.11754753  0.50181617  0.82962427  1
  Si  Si35  1  0.08476225  0.70167138  0.56922035  1
  Si  Si36  1  0.01545216  0.23156566  0.63026727  1
  O  O37  1  0.97388448  0.61336006  0.23267210  1
  O  O38  1  0.93490010  0.97096492  0.11049075  1
  O  O39  1  0.92986205  0.30862322  0.11424809  1
  O  O40  1  0.96815604  0.09733950  0.68534382  1
  O  O41  1  0.96888274  0.76976684  0.68774615  1
  O  O42  1  0.92615918  0.27837402  0.56375202  1
  O  O43  1  0.87047095  0.51911050  0.03527214  1
  O  O44  1  0.87739594  0.48489170  0.46426703  1
  O  O45  1  0.86570813  0.82952338  0.48761576  1
  O  O46  1  0.82982318  0.18379484  0.36364124  1
  O  O47  1  0.77041918  0.89560976  0.28566711  1
  O  O48  1  0.83502999  0.03297650  0.90886448  1
  O  O49  1  0.76774863  0.56983083  0.29048925  1
  O  O50  1  0.82168575  0.71934834  0.93417711  1
  O  O51  1  0.72816820  0.07748084  0.16322399  1
  O  O52  1  0.77013100  0.41539264  0.83867396  1
  O  O53  1  0.67348967  0.27738252  0.05971999  1
  O  O54  1  0.73008711  0.77754273  0.70980865  1
  O  O55  1  0.66264493  0.62737221  0.09114061  1
  O  O56  1  0.72579028  0.11195727  0.72019565  1
  O  O57  1  0.67356807  0.31983521  0.63412047  1
  O  O58  1  0.63337654  0.84360827  0.51402805  1
  O  O59  1  0.62098500  0.52517220  0.53785349  1
  O  O60  1  0.62738778  0.97346055  0.96749881  1
  O  O61  1  0.56990481  0.21867806  0.44390672  1
  O  O62  1  0.53247579  0.58011163  0.31036508  1
  O  O63  1  0.53006150  0.91372272  0.31514746  1
  O  O64  1  0.56731500  0.68875315  0.88406433  1
  O  O65  1  0.56269784  0.36693725  0.88822248  1
  O  O66  1  0.52356059  0.87914730  0.76774715  1
  O  O67  1  0.47253836  0.12491919  0.23601831  1
  O  O68  1  0.43575324  0.63482644  0.10262084  1
  O  O69  1  0.42927155  0.30348487  0.11101843  1
  O  O70  1  0.47011887  0.09304954  0.68870478  1
  O  O71  1  0.46454335  0.43228114  0.69699583  1
  O  O72  1  0.42696437  0.78928903  0.56461330  1
  O  O73  1  0.37315505  0.01178212  0.03515059  1
  O  O74  1  0.37008327  0.49879023  0.48541558  1
  O  O75  1  0.36717925  0.17080931  0.49026346  1
  O  O76  1  0.32986070  0.67414503  0.35615679  1
  O  O77  1  0.28036283  0.88754441  0.26279643  1
  O  O78  1  0.33790262  0.37715685  0.91136718  1
  O  O79  1  0.26610103  0.23038422  0.28768778  1
  O  O80  1  0.33340713  0.70312784  0.91491525  1
  O  O81  1  0.22673993  0.58574805  0.16485133  1
  O  O82  1  0.27145466  0.90693713  0.83431565  1
  O  O83  1  0.17533914  0.28948963  0.08027523  1
  O  O84  1  0.23523334  0.44207257  0.71164715  1
  O  O85  1  0.16696307  0.95513375  0.08899619  1
  O  O86  1  0.22620748  0.11869169  0.74108539  1
  O  O87  1  0.17478873  0.81317311  0.63525557  1
  O  O88  1  0.13163071  0.18130053  0.51186852  1
  O  O89  1  0.12980294  0.51143571  0.51421934  1
  O  O90  1  0.13033848  0.47790770  0.96375850  1
  O  O91  1  0.07266061  0.72096072  0.43297112  1
  O  O92  1  0.03740454  0.23547271  0.30925307  1
  O  O93  1  0.02918357  0.90597114  0.31435114  1
  O  O94  1  0.07129281  0.69091933  0.88630617  1
  O  O95  1  0.06441507  0.02329056  0.88998680  1
  O  O96  1  0.02865010  0.38654736  0.76644965  1
