# generated using pymatgen
data_Sr2GaCuSO3
_symmetry_space_group_name_H-M   'P 1'
_cell_length_a   3.90318302
_cell_length_b   3.90318302
_cell_length_c   15.83843985
_cell_angle_alpha   90.00000000
_cell_angle_beta   90.00000000
_cell_angle_gamma   90.00000000
_symmetry_Int_Tables_number   1
_chemical_formula_structural   Sr2GaCuSO3
_chemical_formula_sum   'Sr4 Ga2 Cu2 S2 O6'
_cell_volume   241.29606034
_cell_formula_units_Z   2
loop_
 _symmetry_equiv_pos_site_id
 _symmetry_equiv_pos_as_xyz
  1  'x, y, z'
loop_
 _atom_site_type_symbol
 _atom_site_label
 _atom_site_symmetry_multiplicity
 _atom_site_fract_x
 _atom_site_fract_y
 _atom_site_fract_z
 _atom_site_occupancy
  O  O0  1  0.75000000  0.75000000  0.56887609  1
  O  O1  1  0.25000000  0.25000000  0.43112391  1
  O  O2  1  0.25000000  0.75000000  0.71275365  1
  O  O3  1  0.25000000  0.75000000  0.28724635  1
  O  O4  1  0.75000000  0.25000000  0.71275365  1
  O  O5  1  0.75000000  0.25000000  0.28724635  1
  S  S6  1  0.75000000  0.75000000  0.91033401  1
  S  S7  1  0.25000000  0.25000000  0.08966599  1
  Cu  Cu8  1  0.25000000  0.75000000  0.00000000  1
  Cu  Cu9  1  0.75000000  0.25000000  0.00000000  1
  Ga  Ga10  1  0.75000000  0.75000000  0.68875278  1
  Ga  Ga11  1  0.25000000  0.25000000  0.31124722  1
  Sr  Sr12  1  0.25000000  0.25000000  0.81674551  1
  Sr  Sr13  1  0.75000000  0.75000000  0.18325449  1
  Sr  Sr14  1  0.75000000  0.75000000  0.41319346  1
  Sr  Sr15  1  0.25000000  0.25000000  0.58680654  1
