# generated using pymatgen
data_VF4
_symmetry_space_group_name_H-M   'P 1'
_cell_length_a   5.92242386
_cell_length_b   5.10403070
_cell_length_c   9.69577292
_cell_angle_alpha   90.00000000
_cell_angle_beta   92.19811403
_cell_angle_gamma   90.00000000
_symmetry_Int_Tables_number   1
_chemical_formula_structural   VF4
_chemical_formula_sum   'V4 F16'
_cell_volume   292.87042607
_cell_formula_units_Z   4
loop_
 _symmetry_equiv_pos_site_id
 _symmetry_equiv_pos_as_xyz
  1  'x, y, z'
loop_
 _atom_site_type_symbol
 _atom_site_label
 _atom_site_symmetry_multiplicity
 _atom_site_fract_x
 _atom_site_fract_y
 _atom_site_fract_z
 _atom_site_occupancy
  V  V0  1  0.35845705  0.97878692  0.63443521  1
  V  V1  1  0.35845705  0.52121308  0.13443521  1
  V  V2  1  0.64154295  0.47878692  0.86556479  1
  V  V3  1  0.64154295  0.02121308  0.36556479  1
  F  F4  1  0.12075106  0.14506276  0.68942423  1
  F  F5  1  0.12075106  0.35493724  0.18942423  1
  F  F6  1  0.23796684  0.68171764  0.57103403  1
  F  F7  1  0.23796684  0.81828236  0.07103403  1
  F  F8  1  0.34506881  0.38340265  0.94444366  1
  F  F9  1  0.34506881  0.11659735  0.44444366  1
  F  F10  1  0.46039645  0.79978961  0.79926972  1
  F  F11  1  0.46039645  0.70021039  0.29926972  1
  F  F12  1  0.53960355  0.29978961  0.70073028  1
  F  F13  1  0.53960355  0.20021039  0.20073028  1
  F  F14  1  0.65493119  0.88340265  0.55555634  1
  F  F15  1  0.65493119  0.61659735  0.05555634  1
  F  F16  1  0.76203316  0.18171764  0.92896597  1
  F  F17  1  0.76203316  0.31828236  0.42896597  1
  F  F18  1  0.87924894  0.64506276  0.81057577  1
  F  F19  1  0.87924894  0.85493724  0.31057577  1
