# generated using pymatgen
data_Li9Mn2Co5O16
_symmetry_space_group_name_H-M   'P 1'
_cell_length_a   2.86193669
_cell_length_b   13.26348828
_cell_length_c   7.79497473
_cell_angle_alpha   86.77724313
_cell_angle_beta   79.42189425
_cell_angle_gamma   89.99999852
_symmetry_Int_Tables_number   1
_chemical_formula_structural   Li9Mn2Co5O16
_chemical_formula_sum   'Li9 Mn2 Co5 O16'
_cell_volume   290.38694329
_cell_formula_units_Z   1
loop_
 _symmetry_equiv_pos_site_id
 _symmetry_equiv_pos_as_xyz
  1  'x, y, z'
loop_
 _atom_site_type_symbol
 _atom_site_label
 _atom_site_symmetry_multiplicity
 _atom_site_fract_x
 _atom_site_fract_y
 _atom_site_fract_z
 _atom_site_occupancy
  Li  Li0  1  0.56716464  0.20424074  0.86567071  1
  Li  Li1  1  0.69000890  0.55092005  0.61998219  1
  Li  Li2  1  0.81179659  0.93409777  0.37640681  1
  Li  Li3  1  0.93368252  0.31687999  0.13263496  1
  Li  Li4  1  0.06521097  0.67169069  0.86957806  1
  Li  Li5  1  0.19037762  0.07677031  0.61924476  1
  Li  Li6  1  0.30988914  0.43873064  0.38022171  1
  Li  Li7  1  0.43488651  0.80552048  0.13022698  1
  Li  Li8  1  0.12497170  0.37590880  0.75005660  1
  Mn  Mn9  1  0.99841127  0.00489292  0.00317746  1
  Mn  Mn10  1  0.62800877  0.87319731  0.74398246  1
  Co  Co11  1  0.25173520  0.74004168  0.49652959  1
  Co  Co12  1  0.36810432  0.12661872  0.26379137  1
  Co  Co13  1  0.50584893  0.48241154  0.98830214  1
  Co  Co14  1  0.74337020  0.27039977  0.51325959  1
  Co  Co15  1  0.88160528  0.62460432  0.23678944  1
  O  O16  1  0.57970651  0.03826347  0.84058698  1
  O  O17  1  0.72136165  0.40243169  0.55727670  1
  O  O18  1  0.84037328  0.77628901  0.31925343  1
  O  O19  1  0.95532139  0.14158100  0.08935721  1
  O  O20  1  0.08394220  0.52396131  0.83211560  1
  O  O21  1  0.21183029  0.90120563  0.57633943  1
  O  O22  1  0.33530744  0.27436277  0.32938513  1
  O  O23  1  0.46700953  0.65715991  0.06598095  1
  O  O24  1  0.52468290  0.34918403  0.95063420  1
  O  O25  1  0.66058105  0.71690584  0.67883791  1
  O  O26  1  0.78896129  0.09290376  0.42207742  1
  O  O27  1  0.91716912  0.47772194  0.16566176  1
  O  O28  1  0.03871089  0.86410666  0.92257822  1
  O  O29  1  0.16346715  0.22247579  0.67306570  1
  O  O30  1  0.28907512  0.59580798  0.42184976  1
  O  O31  1  0.41742763  0.96871348  0.16514475  1
