# generated using pymatgen
data_K2CoSe2
_symmetry_space_group_name_H-M   'P 1'
_cell_length_a   6.23479697
_cell_length_b   7.03741589
_cell_length_c   8.13370608
_cell_angle_alpha   115.63319730
_cell_angle_beta   112.53632794
_cell_angle_gamma   90.00000000
_symmetry_Int_Tables_number   1
_chemical_formula_structural   K2CoSe2
_chemical_formula_sum   'K4 Co2 Se4'
_cell_volume   291.23691496
_cell_formula_units_Z   2
loop_
 _symmetry_equiv_pos_site_id
 _symmetry_equiv_pos_as_xyz
  1  'x, y, z'
loop_
 _atom_site_type_symbol
 _atom_site_label
 _atom_site_symmetry_multiplicity
 _atom_site_fract_x
 _atom_site_fract_y
 _atom_site_fract_z
 _atom_site_occupancy
  K  K0  1  0.14415665  0.47152512  0.28831330  1
  K  K1  1  0.85584335  0.52847488  0.71168670  1
  K  K2  1  0.35584335  0.18321182  0.71168670  1
  K  K3  1  0.64415665  0.81678818  0.28831330  1
  Co  Co4  1  0.25000000  0.00000000  0.00000000  1
  Co  Co5  1  0.75000000  0.00000000  0.00000000  1
  Se  Se6  1  0.89849453  0.08278527  0.79698906  1
  Se  Se7  1  0.10150547  0.91721473  0.20301094  1
  Se  Se8  1  0.60150547  0.28579620  0.20301094  1
  Se  Se9  1  0.39849453  0.71420380  0.79698906  1
