# generated using pymatgen
data_Li3V3P8O29
_symmetry_space_group_name_H-M   'P 1'
_cell_length_a   9.78658405
_cell_length_b   9.68821932
_cell_length_c   14.37382229
_cell_angle_alpha   89.49362029
_cell_angle_beta   90.92806203
_cell_angle_gamma   59.93944844
_symmetry_Int_Tables_number   1
_chemical_formula_structural   Li3V3P8O29
_chemical_formula_sum   'Li6 V6 P16 O58'
_cell_volume   1179.15901157
_cell_formula_units_Z   2
loop_
 _symmetry_equiv_pos_site_id
 _symmetry_equiv_pos_as_xyz
  1  'x, y, z'
loop_
 _atom_site_type_symbol
 _atom_site_label
 _atom_site_symmetry_multiplicity
 _atom_site_fract_x
 _atom_site_fract_y
 _atom_site_fract_z
 _atom_site_occupancy
  Li  Li0  1  0.32097427  0.90598142  0.06015711  1
  Li  Li1  1  0.67475777  0.23346579  0.44044914  1
  Li  Li2  1  0.32564802  0.76893785  0.56085181  1
  Li  Li3  1  0.08529130  0.23218173  0.94234518  1
  Li  Li4  1  0.93357483  0.98732651  0.99059749  1
  Li  Li5  1  0.00505086  0.00380096  0.49977230  1
  V  V6  1  0.56562951  0.43823136  0.24414303  1
  V  V7  1  0.43623102  0.56019182  0.75837981  1
  V  V8  1  0.56770957  0.99838470  0.74869794  1
  V  V9  1  0.43828831  0.00372303  0.25385588  1
  V  V10  1  0.00073809  0.56358080  0.25376859  1
  V  V11  1  0.99860248  0.44228340  0.74210582  1
  P  P12  1  0.91918051  0.77839711  0.83895106  1
  P  P13  1  0.78476479  0.91386002  0.33980629  1
  P  P14  1  0.91944363  0.29440940  0.33714392  1
  P  P15  1  0.66541207  0.67177722  0.13362546  1
  P  P16  1  0.65700371  0.67060056  0.63475654  1
  P  P17  1  0.78988765  0.29832324  0.83693267  1
  P  P18  1  0.68475673  0.22781082  0.65690750  1
  P  P19  1  0.31848726  0.91173580  0.84427720  1
  P  P20  1  0.68921981  0.08556062  0.15701471  1
  P  P21  1  0.31867736  0.77250183  0.34486644  1
  P  P22  1  0.21251484  0.70042689  0.16641748  1
  P  P23  1  0.33966413  0.33427697  0.36655901  1
  P  P24  1  0.33218136  0.32652075  0.86562322  1
  P  P25  1  0.08474680  0.70455084  0.65758167  1
  P  P26  1  0.21774752  0.08613639  0.66308052  1
  P  P27  1  0.08799770  0.22619164  0.15692511  1
  O  O28  1  0.01129349  0.80563503  0.57353758  1
  O  O29  1  0.91775472  0.73725635  0.33673691  1
  O  O30  1  0.77404644  0.01310000  0.07131234  1
  O  O31  1  0.74255744  0.91247283  0.82843888  1
  O  O32  1  0.92550297  0.61638842  0.82376176  1
  O  O33  1  0.81304991  0.66517317  0.18225778  1
  O  O34  1  0.92784613  0.45087671  0.32915814  1
  O  O35  1  0.01789616  0.22374751  0.06481196  1
  O  O36  1  0.92132286  0.34403629  0.83386789  1
  O  O37  1  0.66394533  0.81467973  0.67811117  1
  O  O38  1  0.62331699  0.91772895  0.32822383  1
  O  O39  1  0.81004765  0.52064889  0.67817703  1
  O  O40  1  0.66294224  0.66835214  0.03064542  1
  O  O41  1  0.64702992  0.67229909  0.53171989  1
  O  O42  1  0.66515332  0.52016094  0.17824963  1
  O  O43  1  0.47533431  0.90736938  0.82670447  1
  O  O44  1  0.51509735  0.81713007  0.17390965  1
  O  O45  1  0.74162630  0.33951838  0.33207723  1
  O  O46  1  0.80580819  0.20829394  0.73977029  1
  O  O47  1  0.75627285  0.22166493  0.56545315  1
  O  O48  1  0.81522471  0.19075460  0.91722414  1
  O  O49  1  0.62423884  0.45519507  0.82934108  1
  O  O50  1  0.51195672  0.67005983  0.67978158  1
  O  O51  1  0.64775206  0.26250869  0.16883668  1
  O  O52  1  0.47299129  0.61501954  0.32688714  1
  O  O53  1  0.35132579  0.91273054  0.32832801  1
  O  O54  1  0.80271972  0.99421255  0.24575850  1
  O  O55  1  0.79707530  0.00349924  0.41989166  1
  O  O56  1  0.19604383  0.99687758  0.58586572  1
  O  O57  1  0.65314173  0.08684521  0.66965220  1
  O  O58  1  0.52900433  0.38428717  0.67700487  1
  O  O59  1  0.34600924  0.73967537  0.83604433  1
  O  O60  1  0.48883950  0.33136193  0.32669978  1
  O  O61  1  0.37520272  0.54153585  0.17478662  1
  O  O62  1  0.19946102  0.80551193  0.08658700  1
  O  O63  1  0.24587865  0.78535899  0.43658138  1
  O  O64  1  0.19611849  0.79210338  0.26312862  1
  O  O65  1  0.26250719  0.65717713  0.66761749  1
  O  O66  1  0.47688783  0.18430686  0.81851070  1
  O  O67  1  0.53450066  0.08183814  0.17229344  1
  O  O68  1  0.33301499  0.47900390  0.82403541  1
  O  O69  1  0.33111537  0.32121437  0.96859249  1
  O  O70  1  0.34578160  0.32315896  0.46954076  1
  O  O71  1  0.18952639  0.48212640  0.32275876  1
  O  O72  1  0.37917715  0.07792795  0.67039267  1
  O  O73  1  0.33769491  0.18732655  0.31841419  1
  O  O74  1  0.07785007  0.66137771  0.16947442  1
  O  O75  1  0.00328541  0.80268978  0.74958449  1
  O  O76  1  0.99443534  0.79476376  0.92451682  1
  O  O77  1  0.07604936  0.54683059  0.66836471  1
  O  O78  1  0.18357337  0.32925341  0.82066269  1
  O  O79  1  0.08800921  0.38326751  0.17728555  1
  O  O80  1  0.26068681  0.08275439  0.16527486  1
  O  O81  1  0.24195019  0.99009530  0.93340347  1
  O  O82  1  0.19752158  0.01261075  0.76077278  1
  O  O83  1  0.08305479  0.26358481  0.66521364  1
  O  O84  1  0.99809750  0.18611396  0.41817537  1
  O  O85  1  0.99300486  0.20286907  0.24019405  1
