# generated using pymatgen
data_YbGe3
_symmetry_space_group_name_H-M   'P 1'
_cell_length_a   6.15410378
_cell_length_b   6.15410260
_cell_length_c   4.98782985
_cell_angle_alpha   90.00000000
_cell_angle_beta   90.00000000
_cell_angle_gamma   120.00000095
_symmetry_Int_Tables_number   1
_chemical_formula_structural   YbGe3
_chemical_formula_sum   'Yb2 Ge6'
_cell_volume   163.59567041
_cell_formula_units_Z   2
loop_
 _symmetry_equiv_pos_site_id
 _symmetry_equiv_pos_as_xyz
  1  'x, y, z'
loop_
 _atom_site_type_symbol
 _atom_site_label
 _atom_site_symmetry_multiplicity
 _atom_site_fract_x
 _atom_site_fract_y
 _atom_site_fract_z
 _atom_site_occupancy
  Yb  Yb0  1  0.33333400  0.66666800  0.75000200  1
  Yb  Yb1  1  0.66666600  0.33333200  0.25000000  1
  Ge  Ge2  1  0.14718364  0.29436628  0.25000000  1
  Ge  Ge3  1  0.70563372  0.85281836  0.25000000  1
  Ge  Ge4  1  0.14718464  0.85281836  0.25000000  1
  Ge  Ge5  1  0.85281636  0.70563272  0.75000200  1
  Ge  Ge6  1  0.29436728  0.14718364  0.75000200  1
  Ge  Ge7  1  0.85281736  0.14718364  0.75000200  1
