# generated using pymatgen
data_Hf5Al3N
_symmetry_space_group_name_H-M   'P 1'
_cell_length_a   8.08968816
_cell_length_b   8.08968910
_cell_length_c   5.66636319
_cell_angle_alpha   89.99962043
_cell_angle_beta   89.99962049
_cell_angle_gamma   119.99942295
_symmetry_Int_Tables_number   1
_chemical_formula_structural   Hf5Al3N
_chemical_formula_sum   'Hf10 Al6 N2'
_cell_volume   321.14500869
_cell_formula_units_Z   2
loop_
 _symmetry_equiv_pos_site_id
 _symmetry_equiv_pos_as_xyz
  1  'x, y, z'
loop_
 _atom_site_type_symbol
 _atom_site_label
 _atom_site_symmetry_multiplicity
 _atom_site_fract_x
 _atom_site_fract_y
 _atom_site_fract_z
 _atom_site_occupancy
  Hf  Hf0  1  0.66666697  0.33333103  0.00001156  1
  Hf  Hf1  1  0.33333003  0.66666597  0.00001156  1
  Hf  Hf2  1  0.22414299  0.99999139  0.25000214  1
  Hf  Hf3  1  0.99999039  0.22414199  0.25000214  1
  Hf  Hf4  1  0.77586300  0.77586200  0.25001309  1
  Hf  Hf5  1  0.66666913  0.33333322  0.49999686  1
  Hf  Hf6  1  0.33333322  0.66666913  0.49999686  1
  Hf  Hf7  1  0.77586078  0.00000053  0.75000712  1
  Hf  Hf8  1  0.00000153  0.77586078  0.75000712  1
  Hf  Hf9  1  0.22413694  0.22413694  0.75000973  1
  Al  Al10  1  0.59664582  0.00000554  0.24998954  1
  Al  Al11  1  0.00000654  0.59664582  0.24998954  1
  Al  Al12  1  0.40335321  0.40335321  0.25000201  1
  Al  Al13  1  0.40336196  0.99999520  0.74999030  1
  Al  Al14  1  0.99999420  0.40336196  0.74999030  1
  Al  Al15  1  0.59664301  0.59664401  0.75000245  1
  N  N16  1  0.00000531  0.00000531  0.00000681  1
  N  N17  1  -0.00000704  -0.00000704  0.49996987  1
