# generated using pymatgen
data_Mn2S3
_symmetry_space_group_name_H-M   'P 1'
_cell_length_a   5.73628742
_cell_length_b   5.73513602
_cell_length_c   6.26266730
_cell_angle_alpha   117.24554379
_cell_angle_beta   62.74836001
_cell_angle_gamma   120.00467483
_symmetry_Int_Tables_number   1
_chemical_formula_structural   Mn2S3
_chemical_formula_sum   'Mn4 S6'
_cell_volume   151.44804953
_cell_formula_units_Z   2
loop_
 _symmetry_equiv_pos_site_id
 _symmetry_equiv_pos_as_xyz
  1  'x, y, z'
loop_
 _atom_site_type_symbol
 _atom_site_label
 _atom_site_symmetry_multiplicity
 _atom_site_fract_x
 _atom_site_fract_y
 _atom_site_fract_z
 _atom_site_occupancy
  Mn  Mn0  1  0.65795853  0.34205431  0.02611529  1
  Mn  Mn1  1  0.84198067  0.15798387  0.47400216  1
  Mn  Mn2  1  0.15803678  0.84199083  0.52594431  1
  Mn  Mn3  1  0.34197995  0.65799213  0.97403768  1
  S  S4  1  0.92994329  0.42992148  0.25000181  1
  S  S5  1  0.57014814  0.74998203  0.24996844  1
  S  S6  1  0.25006861  0.07006761  0.24993847  1
  S  S7  1  0.74993006  0.92988154  0.75003117  1
  S  S8  1  0.42983804  0.25002090  0.75000081  1
  S  S9  1  0.07011093  0.57010032  0.74996385  1
