# generated using pymatgen
data_Li9Mn2Co5O16
_symmetry_space_group_name_H-M   'P 1'
_cell_length_a   2.87942302
_cell_length_b   19.52274761
_cell_length_c   5.17308114
_cell_angle_alpha   91.83104072
_cell_angle_beta   89.99999989
_cell_angle_gamma   85.77086613
_symmetry_Int_Tables_number   1
_chemical_formula_structural   Li9Mn2Co5O16
_chemical_formula_sum   'Li9 Mn2 Co5 O16'
_cell_volume   289.86016181
_cell_formula_units_Z   1
loop_
 _symmetry_equiv_pos_site_id
 _symmetry_equiv_pos_as_xyz
  1  'x, y, z'
loop_
 _atom_site_type_symbol
 _atom_site_label
 _atom_site_symmetry_multiplicity
 _atom_site_fract_x
 _atom_site_fract_y
 _atom_site_fract_z
 _atom_site_occupancy
  Li  Li0  1  0.43912045  0.12175910  0.17712183  1
  Li  Li1  1  0.31443652  0.37112697  0.55852366  1
  Li  Li2  1  0.18530805  0.62938390  0.93899975  1
  Li  Li3  1  0.05897830  0.88204340  0.33430233  1
  Li  Li4  1  0.94110530  0.11778939  0.66839230  1
  Li  Li5  1  0.81392965  0.37214070  0.06058549  1
  Li  Li6  1  0.68586879  0.62826242  0.43805247  1
  Li  Li7  1  0.56113297  0.87773406  0.82257464  1
  Li  Li8  1  0.50001638  -0.00003275  0.50020451  1
  Mn  Mn9  1  0.00017199  -0.00034398  0.00082115  1
  Mn  Mn10  1  0.74984402  0.50031196  0.74960762  1
  Co  Co11  1  0.87558814  0.24882372  0.37267010  1
  Co  Co12  1  0.62467226  0.75065549  0.12771818  1
  Co  Co13  1  0.37515697  0.24968606  0.87199674  1
  Co  Co14  1  0.24987009  0.50025983  0.24987976  1
  Co  Co15  1  0.12472812  0.75054375  0.62672257  1
  O  O16  1  0.47256200  0.05487601  0.85780503  1
  O  O17  1  0.34560916  0.30878168  0.21914014  1
  O  O18  1  0.22118349  0.55763302  0.61752405  1
  O  O19  1  0.09709182  0.80581637  0.97771135  1
  O  O20  1  0.97085653  0.05828693  0.31020274  1
  O  O21  1  0.84562317  0.30875366  0.71507741  1
  O  O22  1  0.72232398  0.55535204  0.11810710  1
  O  O23  1  0.59655078  0.80689845  0.47613560  1
  O  O24  1  0.40389978  0.19220044  0.52887814  1
  O  O25  1  0.27874056  0.44251889  0.88262135  1
  O  O26  1  0.15428119  0.69143763  0.27893477  1
  O  O27  1  0.02932716  0.94134568  0.68996954  1
  O  O28  1  0.90296437  0.19407126  0.02695692  1
  O  O29  1  0.77747491  0.44505018  0.38130038  1
  O  O30  1  0.65393020  0.69213960  0.77868738  1
  O  O31  1  0.52765292  0.94469415  0.14277499  1
