# generated using pymatgen
data_YTmIr2
_symmetry_space_group_name_H-M   'P 1'
_cell_length_a   4.82624520
_cell_length_b   4.82625032
_cell_length_c   4.82625867
_cell_angle_alpha   59.99972277
_cell_angle_beta   59.99999796
_cell_angle_gamma   59.99984404
_symmetry_Int_Tables_number   1
_chemical_formula_structural   YTmIr2
_chemical_formula_sum   'Y1 Tm1 Ir2'
_cell_volume   79.49016428
_cell_formula_units_Z   1
loop_
 _symmetry_equiv_pos_site_id
 _symmetry_equiv_pos_as_xyz
  1  'x, y, z'
loop_
 _atom_site_type_symbol
 _atom_site_label
 _atom_site_symmetry_multiplicity
 _atom_site_fract_x
 _atom_site_fract_y
 _atom_site_fract_z
 _atom_site_occupancy
  Y  Y0  1  0.74999902  0.74999917  0.74999942  1
  Tm  Tm1  1  0.24999977  0.25000012  0.24999981  1
  Ir  Ir2  1  -0.00000010  0.00000034  0.99999961  1
  Ir  Ir3  1  0.50000031  0.49999937  0.50000016  1
