# generated using pymatgen
data_Ca8Cr(PO4)7
_symmetry_space_group_name_H-M   'P 1'
_cell_length_a   13.83004522
_cell_length_b   13.82482135
_cell_length_c   13.83004539
_cell_angle_alpha   44.53953870
_cell_angle_beta   44.63732082
_cell_angle_gamma   44.53954057
_symmetry_Int_Tables_number   1
_chemical_formula_structural   Ca8Cr(PO4)7
_chemical_formula_sum   'Ca16 Cr2 P14 O56'
_cell_volume   1184.33730916
_cell_formula_units_Z   2
loop_
 _symmetry_equiv_pos_site_id
 _symmetry_equiv_pos_as_xyz
  1  'x, y, z'
loop_
 _atom_site_type_symbol
 _atom_site_label
 _atom_site_symmetry_multiplicity
 _atom_site_fract_x
 _atom_site_fract_y
 _atom_site_fract_z
 _atom_site_occupancy
  Ca  Ca0  1  0.35649607  0.90984106  0.93041790  1
  Ca  Ca1  1  0.15628810  0.56274802  0.58606690  1
  Ca  Ca2  1  0.06445952  0.65665266  0.07525292  1
  Ca  Ca3  1  0.41138179  0.85677843  0.43763177  1
  Ca  Ca4  1  0.98031683  0.95602009  0.54854182  1
  Ca  Ca5  1  0.04854182  0.45602009  0.48031683  1
  Ca  Ca6  1  0.57022796  0.58006573  0.15446447  1
  Ca  Ca7  1  0.85329186  0.43861143  0.40758150  1
  Ca  Ca8  1  0.90758250  0.93861143  0.35329186  1
  Ca  Ca9  1  0.65446447  0.08006573  0.07022796  1
  Ca  Ca10  1  0.08606690  0.06274802  0.65628810  1
  Ca  Ca11  1  0.43041790  0.40984006  0.85649607  1
  Ca  Ca12  1  0.93763177  0.35677843  0.91138279  1
  Ca  Ca13  1  0.55131385  0.97197367  0.95934777  1
  Ca  Ca14  1  0.57525292  0.15665266  0.56445952  1
  Ca  Ca15  1  0.45934777  0.47197367  0.05131385  1
  Cr  Cr16  1  0.50136012  0.50297259  0.50201280  1
  Cr  Cr17  1  0.00201280  0.00297259  0.00136012  1
  P  P18  1  0.72050794  0.18997948  0.68684630  1
  P  P19  1  0.22205635  0.18509455  0.68815567  1
  P  P20  1  0.18815567  0.68509455  0.72205635  1
  P  P21  1  0.68963711  0.22060935  0.18689812  1
  P  P22  1  0.31449874  0.27675469  0.81895431  1
  P  P23  1  0.81302105  0.32046829  0.77965039  1
  P  P24  1  0.31895431  0.77675469  0.81449874  1
  P  P25  1  0.78223917  0.81153299  0.31944690  1
  P  P26  1  0.81944690  0.31153299  0.28223917  1
  P  P27  1  0.68689812  0.72060935  0.18963711  1
  P  P28  1  0.76773828  0.77029463  0.76882030  1
  P  P29  1  0.18684630  0.68997948  0.22050794  1
  P  P30  1  0.27965039  0.82046829  0.31302105  1
  P  P31  1  0.26882030  0.27029463  0.26773828  1
  O  O32  1  0.63217383  0.36839405  0.61443924  1
  O  O33  1  0.39408554  0.26594999  0.11154134  1
  O  O34  1  0.90376487  0.34595330  0.28045893  1
  O  O35  1  0.11443924  0.86839405  0.13217383  1
  O  O36  1  0.36099312  0.84909582  0.64686049  1
  O  O37  1  0.11788781  0.83671119  0.38897732  1
  O  O38  1  0.37682168  0.64039385  0.38401286  1
  O  O39  1  0.64074703  0.37020733  0.85779426  1
  O  O40  1  0.39818610  0.11268308  0.83408127  1
  O  O41  1  0.84932337  0.66333196  0.15158597  1
  O  O42  1  0.38717592  0.37484911  0.64018479  1
  O  O43  1  0.09447776  0.65087656  0.39195156  1
  O  O44  1  0.35779426  0.87020733  0.14074703  1
  O  O45  1  0.87863214  0.88390914  0.13971953  1
  O  O46  1  0.66285736  0.14006397  0.85490495  1
  O  O47  1  0.80647774  0.82624516  0.80038888  1
  O  O48  1  0.11382743  0.68113017  0.68102544  1
  O  O49  1  0.86847893  0.13247181  0.11138400  1
  O  O50  1  0.86876018  0.13812533  0.36219331  1
  O  O51  1  0.30038888  0.32624516  0.30647774  1
  O  O52  1  0.67041313  0.69688272  0.11017167  1
  O  O53  1  0.86219331  0.63812533  0.36876018  1
  O  O54  1  0.89195156  0.15087656  0.59447776  1
  O  O55  1  0.16453050  0.35461788  0.63758141  1
  O  O56  1  0.35490495  0.64006397  0.16285736  1
  O  O57  1  0.13758141  0.85461788  0.66453050  1
  O  O58  1  0.65317685  0.39325172  0.09321394  1
  O  O59  1  0.78045893  0.84595330  0.40376487  1
  O  O60  1  0.61138400  0.63247181  0.36847893  1
  O  O61  1  0.26695658  0.90435714  0.35810331  1
  O  O62  1  0.59321394  0.89325172  0.15317685  1
  O  O63  1  0.83365689  0.38464658  0.12400021  1
  O  O64  1  0.85810331  0.40435714  0.76695658  1
  O  O65  1  0.14686049  0.34909582  0.86099312  1
  O  O66  1  0.89218265  0.61664079  0.75986822  1
  O  O67  1  0.11124302  0.39726642  0.26283965  1
  O  O68  1  0.61017167  0.19688272  0.17041313  1
  O  O69  1  0.40609100  0.76475314  0.85512411  1
  O  O70  1  0.88897732  0.33671119  0.61788781  1
  O  O71  1  0.33408127  0.61268308  0.89818610  1
  O  O72  1  0.14018479  0.87484911  0.88717592  1
  O  O73  1  0.17606804  0.61378328  0.18646245  1
  O  O74  1  0.88401286  0.14039385  0.87682168  1
  O  O75  1  0.63971953  0.38390914  0.37863214  1
  O  O76  1  0.62400021  0.88464658  0.33365689  1
  O  O77  1  0.65158597  0.16333196  0.34932337  1
  O  O78  1  0.16104248  0.59230302  0.88879719  1
  O  O79  1  0.13014149  0.11488782  0.86793269  1
  O  O80  1  0.61154134  0.76594999  0.89408554  1
  O  O81  1  0.25986822  0.11664079  0.39218265  1
  O  O82  1  0.35512411  0.26475314  0.90609100  1
  O  O83  1  0.38879719  0.09230302  0.66104248  1
  O  O84  1  0.18102544  0.18113017  0.61382743  1
  O  O85  1  0.76283965  0.89726642  0.61124302  1
  O  O86  1  0.36793269  0.61488782  0.63014149  1
  O  O87  1  0.68646245  0.11378328  0.67606804  1
