# generated using pymatgen
data_CaLa2CoO6
_symmetry_space_group_name_H-M   'P 1'
_cell_length_a   5.59683255
_cell_length_b   5.59683218
_cell_length_c   5.59683278
_cell_angle_alpha   62.64863508
_cell_angle_beta   62.64863634
_cell_angle_gamma   62.64863931
_symmetry_Int_Tables_number   1
_chemical_formula_structural   CaLa2CoO6
_chemical_formula_sum   'Ca1 La2 Co1 O6'
_cell_volume   131.27780155
_cell_formula_units_Z   1
loop_
 _symmetry_equiv_pos_site_id
 _symmetry_equiv_pos_as_xyz
  1  'x, y, z'
loop_
 _atom_site_type_symbol
 _atom_site_label
 _atom_site_symmetry_multiplicity
 _atom_site_fract_x
 _atom_site_fract_y
 _atom_site_fract_z
 _atom_site_occupancy
  Ca  Ca0  1  0.50000000  0.50000000  0.50000000  1
  La  La1  1  0.76087676  0.76087676  0.76087676  1
  La  La2  1  0.23912324  0.23912324  0.23912324  1
  Co  Co3  1  0.00000000  0.00000000  0.00000000  1
  O  O4  1  0.31680524  0.79004206  0.13820808  1
  O  O5  1  0.79004206  0.13820808  0.31680524  1
  O  O6  1  0.13820808  0.31680524  0.79004206  1
  O  O7  1  0.68319476  0.20995794  0.86179192  1
  O  O8  1  0.86179192  0.68319476  0.20995794  1
  O  O9  1  0.20995794  0.86179192  0.68319476  1
