# generated using pymatgen
data_RbInBr3
_symmetry_space_group_name_H-M   'P 1'
_cell_length_a   5.73371403
_cell_length_b   5.73365810
_cell_length_c   5.73757600
_cell_angle_alpha   90.07227595
_cell_angle_beta   90.15096305
_cell_angle_gamma   89.99778121
_symmetry_Int_Tables_number   1
_chemical_formula_structural   RbInBr3
_chemical_formula_sum   'Rb1 In1 Br3'
_cell_volume   188.62290054
_cell_formula_units_Z   1
loop_
 _symmetry_equiv_pos_site_id
 _symmetry_equiv_pos_as_xyz
  1  'x, y, z'
loop_
 _atom_site_type_symbol
 _atom_site_label
 _atom_site_symmetry_multiplicity
 _atom_site_fract_x
 _atom_site_fract_y
 _atom_site_fract_z
 _atom_site_occupancy
  Rb  Rb0  1  0.99858025  0.99913768  0.99901849  1
  In  In1  1  0.48309297  0.49796886  0.49312878  1
  Br  Br2  1  0.48540307  0.99942112  0.49548462  1
  Br  Br3  1  0.98450982  0.50518220  0.50629737  1
  Br  Br4  1  0.48841389  0.49828915  0.99607674  1
