# generated using pymatgen
data_LaReN3
_symmetry_space_group_name_H-M   'P 1'
_cell_length_a   5.37465401
_cell_length_b   19.88743503
_cell_length_c   9.77173782
_cell_angle_alpha   159.38610051
_cell_angle_beta   90.00000000
_cell_angle_gamma   90.00000000
_symmetry_Int_Tables_number   1
_chemical_formula_structural   LaReN3
_chemical_formula_sum   'La4 Re4 N12'
_cell_volume   367.72955109
_cell_formula_units_Z   4
loop_
 _symmetry_equiv_pos_site_id
 _symmetry_equiv_pos_as_xyz
  1  'x, y, z'
loop_
 _atom_site_type_symbol
 _atom_site_label
 _atom_site_symmetry_multiplicity
 _atom_site_fract_x
 _atom_site_fract_y
 _atom_site_fract_z
 _atom_site_occupancy
  La  La0  1  0.20840454  0.11182122  0.89035239  1
  La  La1  1  0.79159546  0.88817878  0.10964761  1
  La  La2  1  0.29159546  0.61182122  0.39035239  1
  La  La3  1  0.70840454  0.38817878  0.60964761  1
  Re  Re4  1  0.22021915  0.58714430  0.68238314  1
  Re  Re5  1  0.27978085  0.08714430  0.18238314  1
  Re  Re6  1  0.72021915  0.91285570  0.81761686  1
  Re  Re7  1  0.77978085  0.41285570  0.31761686  1
  N  N8  1  0.80623269  0.17201503  0.80933291  1
  N  N9  1  0.02048586  0.91400887  0.94624160  1
  N  N10  1  0.30623269  0.32798497  0.69066709  1
  N  N11  1  0.00200362  0.43653918  0.52452828  1
  N  N12  1  0.69376731  0.67201503  0.30933291  1
  N  N13  1  0.99799638  0.56346082  0.47547172  1
  N  N14  1  0.50200362  0.06346082  0.97547172  1
  N  N15  1  0.97951414  0.08599113  0.05375840  1
  N  N16  1  0.49799638  0.93653918  0.02452828  1
  N  N17  1  0.19376731  0.82798497  0.19066709  1
  N  N18  1  0.47951414  0.41400887  0.44624160  1
  N  N19  1  0.52048586  0.58599113  0.55375840  1
