# generated using pymatgen
data_Li9Mn2Co5O16
_symmetry_space_group_name_H-M   'P 1'
_cell_length_a   2.88005448
_cell_length_b   19.39067549
_cell_length_c   5.18844309
_cell_angle_alpha   91.52223383
_cell_angle_beta   89.99999989
_cell_angle_gamma   85.74107254
_symmetry_Int_Tables_number   1
_chemical_formula_structural   Li9Mn2Co5O16
_chemical_formula_sum   'Li9 Mn2 Co5 O16'
_cell_volume   288.85217853
_cell_formula_units_Z   1
loop_
 _symmetry_equiv_pos_site_id
 _symmetry_equiv_pos_as_xyz
  1  'x, y, z'
loop_
 _atom_site_type_symbol
 _atom_site_label
 _atom_site_symmetry_multiplicity
 _atom_site_fract_x
 _atom_site_fract_y
 _atom_site_fract_z
 _atom_site_occupancy
  Li  Li0  1  0.43343669  0.13312662  0.19483583  1
  Li  Li1  1  0.31656331  0.36687338  0.55516417  1
  Li  Li2  1  0.18586499  0.62827002  0.94052152  1
  Li  Li3  1  0.06369206  0.87261588  0.30852606  1
  Li  Li4  1  0.93427818  0.13144365  0.69573379  1
  Li  Li5  1  0.81572182  0.36855635  0.05426621  1
  Li  Li6  1  0.68630794  0.62738412  0.44147394  1
  Li  Li7  1  0.56413501  0.87172998  0.80947848  1
  Li  Li8  1  0.37500000  0.25000000  0.87500000  1
  Mn  Mn9  1  0.99900114  0.00199771  0.00086101  1
  Mn  Mn10  1  0.75099886  0.49800229  0.74913899  1
  Co  Co11  1  0.87500000  0.25000000  0.37500000  1
  Co  Co12  1  0.62497423  0.75005153  0.12521408  1
  Co  Co13  1  0.49960930  0.00078141  0.50141688  1
  Co  Co14  1  0.25039070  0.49921859  0.24858312  1
  Co  Co15  1  0.12502577  0.74994847  0.62478592  1
  O  O16  1  0.47000285  0.05999430  0.86626434  1
  O  O17  1  0.34659482  0.30681036  0.23097215  1
  O  O18  1  0.22188026  0.55623948  0.61569077  1
  O  O19  1  0.09552597  0.80894805  0.96645844  1
  O  O20  1  0.97227203  0.05545593  0.36469760  1
  O  O21  1  0.84826657  0.30346686  0.66635915  1
  O  O22  1  0.72287552  0.55424896  0.11133364  1
  O  O23  1  0.59543230  0.80913540  0.46701611  1
  O  O24  1  0.40340518  0.19318964  0.51902785  1
  O  O25  1  0.27999715  0.44000570  0.88373566  1
  O  O26  1  0.15456770  0.69086460  0.28298389  1
  O  O27  1  0.02712448  0.94575104  0.63866636  1
  O  O28  1  0.90173343  0.19653314  0.08364085  1
  O  O29  1  0.77772797  0.44454407  0.38530240  1
  O  O30  1  0.65447403  0.69105195  0.78354156  1
  O  O31  1  0.52811974  0.94376052  0.13430923  1
