# generated using pymatgen
data_Mg2FeWO6
_symmetry_space_group_name_H-M   'P 1'
_cell_length_a   5.19371899
_cell_length_b   5.33260344
_cell_length_c   7.84837444
_cell_angle_alpha   90.00000000
_cell_angle_beta   89.49418979
_cell_angle_gamma   90.00000000
_symmetry_Int_Tables_number   1
_chemical_formula_structural   Mg2FeWO6
_chemical_formula_sum   'Mg4 Fe2 W2 O12'
_cell_volume   217.36045179
_cell_formula_units_Z   2
loop_
 _symmetry_equiv_pos_site_id
 _symmetry_equiv_pos_as_xyz
  1  'x, y, z'
loop_
 _atom_site_type_symbol
 _atom_site_label
 _atom_site_symmetry_multiplicity
 _atom_site_fract_x
 _atom_site_fract_y
 _atom_site_fract_z
 _atom_site_occupancy
  Mg  Mg0  1  0.99503383  0.05027535  0.25730012  1
  Mg  Mg1  1  0.50496617  0.55027635  0.24269988  1
  Mg  Mg2  1  0.00496717  0.94972565  0.74269988  1
  Mg  Mg3  1  0.49503283  0.44972465  0.75730012  1
  Fe  Fe4  1  0.50000000  0.00000000  0.00000000  1
  Fe  Fe5  1  0.00000100  0.49999900  0.50000000  1
  W  W6  1  0.50000000  0.00000000  0.49999900  1
  W  W7  1  0.00000000  0.49999900  0.00000000  1
  O  O8  1  0.65662580  0.30501378  0.41359254  1
  O  O9  1  0.84337420  0.80501478  0.08640746  1
  O  O10  1  0.34337320  0.69498622  0.58640746  1
  O  O11  1  0.15662680  0.19498522  0.91359254  1
  O  O12  1  0.18566457  0.17689582  0.56295248  1
  O  O13  1  0.31433543  0.67689482  0.93704752  1
  O  O14  1  0.81433643  0.82310418  0.43704752  1
  O  O15  1  0.68566357  0.32310518  0.06295248  1
  O  O16  1  0.13624720  0.41781576  0.22789246  1
  O  O17  1  0.36375380  0.91781676  0.27210654  1
  O  O18  1  0.63624720  0.08218324  0.72789346  1
  O  O19  1  0.86375380  0.58218424  0.77210754  1
