# generated using pymatgen
data_MgMn2O4
_symmetry_space_group_name_H-M   'P 1'
_cell_length_a   5.69930580
_cell_length_b   5.77340549
_cell_length_c   10.90179541
_cell_angle_alpha   89.68776159
_cell_angle_beta   89.99924905
_cell_angle_gamma   119.57708329
_symmetry_Int_Tables_number   1
_chemical_formula_structural   MgMn2O4
_chemical_formula_sum   'Mg4 Mn8 O16'
_cell_volume   311.96738152
_cell_formula_units_Z   4
loop_
 _symmetry_equiv_pos_site_id
 _symmetry_equiv_pos_as_xyz
  1  'x, y, z'
loop_
 _atom_site_type_symbol
 _atom_site_label
 _atom_site_symmetry_multiplicity
 _atom_site_fract_x
 _atom_site_fract_y
 _atom_site_fract_z
 _atom_site_occupancy
  Mg  Mg0  1  0.25004108  0.00060249  0.74999987  1
  Mg  Mg1  1  0.74962400  0.99941417  0.25002081  1
  Mg  Mg2  1  0.26186750  0.50014819  0.50001412  1
  Mg  Mg3  1  0.23819424  0.49985052  0.99999461  1
  Mn  Mn4  1  0.96951719  0.44385363  0.73235817  1
  Mn  Mn5  1  0.02586421  0.55619202  0.26765220  1
  Mn  Mn6  1  0.53074627  0.55723110  0.76756100  1
  Mn  Mn7  1  0.47366125  0.44270529  0.23241058  1
  Mn  Mn8  1  0.53480432  0.05405519  0.98552329  1
  Mn  Mn9  1  0.51936661  0.05396225  0.48573848  1
  Mn  Mn10  1  0.98060222  0.94566082  0.01447232  1
  Mn  Mn11  1  0.96556037  0.94632780  0.51426821  1
  O  O12  1  0.33498737  0.69922006  0.67087636  1
  O  O13  1  0.36365420  0.69814597  0.17098655  1
  O  O14  1  0.87489870  0.72240936  0.68402893  1
  O  O15  1  0.84691668  0.72136480  0.18404300  1
  O  O16  1  0.87104378  0.21772949  0.56697008  1
  O  O17  1  0.87108491  0.20096102  0.07787105  1
  O  O18  1  0.33028327  0.20152921  0.57777156  1
  O  O19  1  0.34651138  0.21725433  0.06694827  1
  O  O20  1  0.62536542  0.27857692  0.81595660  1
  O  O21  1  0.65268211  0.27764119  0.31596803  1
  O  O22  1  0.16528267  0.30172818  0.82896634  1
  O  O23  1  0.13597946  0.30088371  0.32917292  1
  O  O24  1  0.16995720  0.79877677  0.92211857  1
  O  O25  1  0.15348562  0.78254950  0.43301604  1
  O  O26  1  0.62912018  0.78248668  0.93305102  1
  O  O27  1  0.62888279  0.79871534  0.42224899  1
