# generated using pymatgen
data_Ca3Fe2(Si2O7)2
_symmetry_space_group_name_H-M   'P 1'
_cell_length_a   7.75394791
_cell_length_b   9.44397296
_cell_length_c   9.70341042
_cell_angle_alpha   64.20734755
_cell_angle_beta   66.45010206
_cell_angle_gamma   65.76226630
_symmetry_Int_Tables_number   1
_chemical_formula_structural   Ca3Fe2(Si2O7)2
_chemical_formula_sum   'Ca6 Fe4 Si8 O28'
_cell_volume   561.85873856
_cell_formula_units_Z   2
loop_
 _symmetry_equiv_pos_site_id
 _symmetry_equiv_pos_as_xyz
  1  'x, y, z'
loop_
 _atom_site_type_symbol
 _atom_site_label
 _atom_site_symmetry_multiplicity
 _atom_site_fract_x
 _atom_site_fract_y
 _atom_site_fract_z
 _atom_site_occupancy
  Ca  Ca0  1  0.83759980  0.93638678  0.46001352  1
  Ca  Ca1  1  0.23400010  0.56361322  0.03998648  1
  Ca  Ca2  1  0.76599990  0.43638678  0.96001352  1
  Ca  Ca3  1  0.65254645  0.25000000  0.75000000  1
  Ca  Ca4  1  0.16240020  0.06361322  0.53998648  1
  Ca  Ca5  1  0.34745355  0.75000000  0.25000000  1
  Fe  Fe6  1  0.20831266  0.25000000  0.75000000  1
  Fe  Fe7  1  0.79168734  0.75000000  0.25000000  1
  Fe  Fe8  1  0.00000000  0.00000000  0.00000000  1
  Fe  Fe9  1  0.00000000  0.50000000  0.50000000  1
  Si  Si10  1  0.46579575  0.30323229  0.34584921  1
  Si  Si11  1  0.88512175  0.80323229  0.84584921  1
  Si  Si12  1  0.46764162  0.89495214  0.85322837  1
  Si  Si13  1  0.78417887  0.39495214  0.35322837  1
  Si  Si14  1  0.11487825  0.19676771  0.15415079  1
  Si  Si15  1  0.53235838  0.10504786  0.14677163  1
  Si  Si16  1  0.21582113  0.60504786  0.64677163  1
  Si  Si17  1  0.53420425  0.69676771  0.65415079  1
  O  O18  1  0.12384968  0.66995737  0.49704118  1
  O  O19  1  0.03736749  0.58133130  0.27535167  1
  O  O20  1  0.54065686  0.91684301  0.18988979  1
  O  O21  1  0.10594954  0.08133130  0.77535167  1
  O  O22  1  0.73298725  0.69043355  0.50547451  1
  O  O23  1  0.94880251  0.37031428  0.18323229  1
  O  O24  1  0.35260934  0.41684301  0.68988979  1
  O  O25  1  0.92889532  0.80956645  0.99452549  1
  O  O26  1  0.05119749  0.62968572  0.81676771  1
  O  O27  1  0.34174371  0.73924480  0.59142398  1
  O  O28  1  0.96263251  0.41866870  0.72464833  1
  O  O29  1  0.26701275  0.30956645  0.49452549  1
  O  O30  1  0.50235007  0.12968572  0.31676771  1
  O  O31  1  0.70915076  0.16995737  0.99704118  1
  O  O32  1  0.32758751  0.23924480  0.09142398  1
  O  O33  1  0.07110468  0.19043355  0.00547451  1
  O  O34  1  0.10568613  0.04551627  0.31897498  1
  O  O35  1  0.65825629  0.26075520  0.40857602  1
  O  O36  1  0.47017638  0.45448373  0.18102502  1
  O  O37  1  0.67241249  0.76075520  0.90857602  1
  O  O38  1  0.49764993  0.87031428  0.68323229  1
  O  O39  1  0.89405046  0.91866870  0.22464833  1
  O  O40  1  0.52982362  0.54551627  0.81897498  1
  O  O41  1  0.45934314  0.08315699  0.81011021  1
  O  O42  1  0.89431387  0.95448373  0.68102502  1
  O  O43  1  0.64739066  0.58315699  0.31011021  1
  O  O44  1  0.29084924  0.83004263  0.00295882  1
  O  O45  1  0.87615032  0.33004263  0.50295882  1
