# generated using pymatgen
data_CaCr(SiO3)2
_symmetry_space_group_name_H-M   'P 1'
_cell_length_a   5.31294974
_cell_length_b   6.89631751
_cell_length_c   6.89631775
_cell_angle_alpha   85.83858975
_cell_angle_beta   77.73122830
_cell_angle_gamma   77.73123261
_symmetry_Int_Tables_number   1
_chemical_formula_structural   CaCr(SiO3)2
_chemical_formula_sum   'Ca2 Cr2 Si4 O12'
_cell_volume   241.17035756
_cell_formula_units_Z   2
loop_
 _symmetry_equiv_pos_site_id
 _symmetry_equiv_pos_as_xyz
  1  'x, y, z'
loop_
 _atom_site_type_symbol
 _atom_site_label
 _atom_site_symmetry_multiplicity
 _atom_site_fract_x
 _atom_site_fract_y
 _atom_site_fract_z
 _atom_site_occupancy
  Ca  Ca0  1  0.75000000  0.29754844  0.70245156  1
  Ca  Ca1  1  0.25000100  0.70245156  0.29754944  1
  Cr  Cr2  1  0.24999900  0.09477372  0.90522728  1
  Cr  Cr3  1  0.74999900  0.90522828  0.09477272  1
  Si  Si4  1  0.27094977  0.19531809  0.37766522  1
  Si  Si5  1  0.22904923  0.62233478  0.80468191  1
  Si  Si6  1  0.77094977  0.37766522  0.19531809  1
  Si  Si7  1  0.72905023  0.80468191  0.62233478  1
  O  O8  1  0.50630210  0.32807698  0.36479131  1
  O  O9  1  0.99369790  0.63520769  0.67192402  1
  O  O10  1  0.49369890  0.67192402  0.63520869  1
  O  O11  1  0.00630110  0.36479231  0.32807598  1
  O  O12  1  0.17328801  0.12033920  0.60119357  1
  O  O13  1  0.32671199  0.39880543  0.87965980  1
  O  O14  1  0.82671199  0.87966080  0.39880643  1
  O  O15  1  0.67328701  0.60119357  0.12034020  1
  O  O16  1  0.86065367  0.21205893  0.02487791  1
  O  O17  1  0.63934633  0.97512209  0.78794007  1
  O  O18  1  0.36065267  0.02487791  0.21205993  1
  O  O19  1  0.13934733  0.78794107  0.97512209  1
