# generated using pymatgen
data_Ba2MgCuNi2F14
_symmetry_space_group_name_H-M   'P 1'
_cell_length_a   5.25705775
_cell_length_b   7.34289615
_cell_length_c   14.55119329
_cell_angle_alpha   91.58989307
_cell_angle_beta   90.18024891
_cell_angle_gamma   110.23229556
_symmetry_Int_Tables_number   1
_chemical_formula_structural   Ba2MgCuNi2F14
_chemical_formula_sum   'Ba4 Mg2 Cu2 Ni4 F28'
_cell_volume   526.79585300
_cell_formula_units_Z   2
loop_
 _symmetry_equiv_pos_site_id
 _symmetry_equiv_pos_as_xyz
  1  'x, y, z'
loop_
 _atom_site_type_symbol
 _atom_site_label
 _atom_site_symmetry_multiplicity
 _atom_site_fract_x
 _atom_site_fract_y
 _atom_site_fract_z
 _atom_site_occupancy
  Ba  Ba0  1  0.11962346  0.37640667  0.62856589  1
  Ba  Ba1  1  0.25259418  0.37706377  0.12005127  1
  Ba  Ba2  1  0.87789462  0.62241354  0.37686127  1
  Ba  Ba3  1  0.74558471  0.61843661  0.87387902  1
  Mg  Mg4  1  0.43255872  0.01773462  0.75385151  1
  Mg  Mg5  1  0.57091228  0.00034336  0.25073401  1
  Cu  Cu6  1  0.49876888  0.00499175  0.99973630  1
  Cu  Cu7  1  0.49917842  0.00008876  0.50013975  1
  Ni  Ni8  1  0.09997460  0.23137550  0.87265998  1
  Ni  Ni9  1  0.89834852  0.76825124  0.12667549  1
  Ni  Ni10  1  0.13455958  0.23490090  0.37265573  1
  Ni  Ni11  1  0.86463470  0.76598189  0.62751911  1
  F  F12  1  0.89983597  0.98693861  0.33888148  1
  F  F13  1  0.86306182  0.26648732  0.45441730  1
  F  F14  1  0.13771985  0.73516728  0.54397886  1
  F  F15  1  0.66449839  0.50767638  0.59370353  1
  F  F16  1  0.60259201  0.10103837  0.62206505  1
  F  F17  1  0.50525952  0.90062459  0.87758541  1
  F  F18  1  0.40544359  0.24587096  0.95968463  1
  F  F19  1  0.91651081  0.01625031  0.16182830  1
  F  F20  1  0.38003108  0.31658804  0.77158784  1
  F  F21  1  0.33623307  0.49522985  0.40175795  1
  F  F22  1  0.80586632  0.22300336  0.78697050  1
  F  F23  1  0.17065911  0.49854814  0.90845633  1
  F  F24  1  0.40994870  0.22215318  0.29033354  1
  F  F25  1  0.18426856  0.77708359  0.20930396  1
  F  F26  1  0.49880825  0.10022777  0.12571671  1
  F  F27  1  0.63037787  0.68534505  0.22374433  1
  F  F28  1  0.13015311  0.84027275  0.01902213  1
  F  F29  1  0.10173849  0.01257386  0.65856137  1
  F  F30  1  0.86891361  0.15969787  0.98711190  1
  F  F31  1  0.71301616  0.83907868  0.51498135  1
  F  F32  1  0.59901918  0.74381704  0.04409503  1
  F  F33  1  0.59031314  0.77772579  0.70861592  1
  F  F34  1  0.94874035  0.31871679  0.27465651  1
  F  F35  1  0.28795118  0.16382385  0.48332599  1
  F  F36  1  0.39739469  0.90013362  0.37602349  1
  F  F37  1  0.08727692  0.97641277  0.83616292  1
  F  F38  1  0.04757041  0.67666519  0.72333511  1
  F  F39  1  0.83504815  0.50782937  0.09560922  1
