# generated using pymatgen
data_La2MgFeO6
_symmetry_space_group_name_H-M   'P 1'
_cell_length_a   5.47069674
_cell_length_b   5.47069640
_cell_length_c   5.47069695
_cell_angle_alpha   61.28939059
_cell_angle_beta   61.28939168
_cell_angle_gamma   61.28939448
_symmetry_Int_Tables_number   1
_chemical_formula_structural   La2MgFeO6
_chemical_formula_sum   'La2 Mg1 Fe1 O6'
_cell_volume   119.13033849
_cell_formula_units_Z   1
loop_
 _symmetry_equiv_pos_site_id
 _symmetry_equiv_pos_as_xyz
  1  'x, y, z'
loop_
 _atom_site_type_symbol
 _atom_site_label
 _atom_site_symmetry_multiplicity
 _atom_site_fract_x
 _atom_site_fract_y
 _atom_site_fract_z
 _atom_site_occupancy
  La  La0  1  0.75130582  0.75130582  0.75130582  1
  La  La1  1  0.24869418  0.24869418  0.24869418  1
  Mg  Mg2  1  0.50000000  0.50000000  0.50000000  1
  Fe  Fe3  1  0.00000000  0.00000000  0.00000000  1
  O  O4  1  0.30668643  0.76205436  0.17522952  1
  O  O5  1  0.76205436  0.17522952  0.30668643  1
  O  O6  1  0.17522952  0.30668643  0.76205436  1
  O  O7  1  0.69331357  0.23794564  0.82477048  1
  O  O8  1  0.82477048  0.69331357  0.23794564  1
  O  O9  1  0.23794564  0.82477048  0.69331357  1
