# generated using pymatgen
data_Li9Mn2Co5O16
_symmetry_space_group_name_H-M   'P 1'
_cell_length_a   2.89933722
_cell_length_b   10.67632890
_cell_length_c   10.26549356
_cell_angle_alpha   113.22978315
_cell_angle_beta   89.99999962
_cell_angle_gamma   82.19607878
_symmetry_Int_Tables_number   1
_chemical_formula_structural   Li9Mn2Co5O16
_chemical_formula_sum   'Li9 Mn2 Co5 O16'
_cell_volume   288.79487942
_cell_formula_units_Z   1
loop_
 _symmetry_equiv_pos_site_id
 _symmetry_equiv_pos_as_xyz
  1  'x, y, z'
loop_
 _atom_site_type_symbol
 _atom_site_label
 _atom_site_symmetry_multiplicity
 _atom_site_fract_x
 _atom_site_fract_y
 _atom_site_fract_z
 _atom_site_occupancy
  Li  Li0  1  0.36746188  0.26507623  0.19932133  1
  Li  Li1  1  0.13253812  0.73492377  0.55067867  1
  Li  Li2  1  0.86897965  0.26204070  0.94598047  1
  Li  Li3  1  0.87123229  0.25753542  0.44333798  1
  Li  Li4  1  0.63102035  0.73795930  0.80401953  1
  Li  Li5  1  0.37362578  0.25274844  0.68606398  1
  Li  Li6  1  0.12637422  0.74725156  0.06393602  1
  Li  Li7  1  0.62876771  0.74246458  0.30666202  1
  Li  Li8  1  0.75000000  0.50000000  0.37500000  1
  Mn  Mn9  1  0.99961330  0.00077339  0.00467461  1
  Mn  Mn10  1  0.50038670  0.99922661  0.74532539  1
  Co  Co11  1  0.24781123  0.50437754  0.14009054  1
  Co  Co12  1  0.00186679  0.99626642  0.49448487  1
  Co  Co13  1  0.75000000  0.50000000  0.87500000  1
  Co  Co14  1  0.49813321  0.00373358  0.25551513  1
  Co  Co15  1  0.25218877  0.49562246  0.60990946  1
  O  O16  1  0.44389464  0.11221072  0.97278483  1
  O  O17  1  0.19020230  0.61959540  0.32336100  1
  O  O18  1  0.94292216  0.11415567  0.72299243  1
  O  O19  1  0.94364027  0.11271946  0.22444537  1
  O  O20  1  0.69109096  0.61781809  0.59636536  1
  O  O21  1  0.44546583  0.10906834  0.47352731  1
  O  O22  1  0.19462964  0.61074073  0.83436606  1
  O  O23  1  0.69312413  0.61375174  0.08364098  1
  O  O24  1  0.30979770  0.38040460  0.42663900  1
  O  O25  1  0.05610536  0.88778928  0.77721517  1
  O  O26  1  0.80890904  0.38218191  0.15363464  1
  O  O27  1  0.80687587  0.38624826  0.66635902  1
  O  O28  1  0.55707784  0.88584433  0.02700757  1
  O  O29  1  0.30537036  0.38925927  0.91563394  1
  O  O30  1  0.05453417  0.89093166  0.27647269  1
  O  O31  1  0.55635973  0.88728054  0.52555463  1
