# generated using pymatgen
data_ZnFeF5
_symmetry_space_group_name_H-M   'P 1'
_cell_length_a   5.34355032
_cell_length_b   5.35532306
_cell_length_c   7.58157552
_cell_angle_alpha   98.50524187
_cell_angle_beta   110.01498372
_cell_angle_gamma   108.08839072
_symmetry_Int_Tables_number   1
_chemical_formula_structural   ZnFeF5
_chemical_formula_sum   'Zn2 Fe2 F10'
_cell_volume   185.76765891
_cell_formula_units_Z   2
loop_
 _symmetry_equiv_pos_site_id
 _symmetry_equiv_pos_as_xyz
  1  'x, y, z'
loop_
 _atom_site_type_symbol
 _atom_site_label
 _atom_site_symmetry_multiplicity
 _atom_site_fract_x
 _atom_site_fract_y
 _atom_site_fract_z
 _atom_site_occupancy
  Zn  Zn0  1  0.27878521  0.52659996  0.74977181  1
  Zn  Zn1  1  0.72724424  0.47733898  0.24798702  1
  Fe  Fe2  1  0.00117175  0.00087473  0.99765143  1
  Fe  Fe3  1  0.50049662  0.00149141  0.49738917  1
  F  F4  1  0.36376862  0.11557662  0.24890709  1
  F  F5  1  0.63983766  0.89097612  0.74796105  1
  F  F6  1  0.58514569  0.72395349  0.36439985  1
  F  F7  1  0.85749019  0.22296467  0.12786286  1
  F  F8  1  0.76173172  0.68721760  0.04469877  1
  F  F9  1  0.13818277  0.71758287  0.45258460  1
  F  F10  1  0.24133371  0.31050547  0.94904928  1
  F  F11  1  0.86356431  0.28580278  0.54675834  1
  F  F12  1  0.14528965  0.77552607  0.87090321  1
  F  F13  1  0.41059486  0.27436021  0.63016354  1
