# generated using pymatgen
data_Ca2TaNiO6
_symmetry_space_group_name_H-M   'P 1'
_cell_length_a   5.45744637
_cell_length_b   5.63265052
_cell_length_c   7.72914449
_cell_angle_alpha   90.00000000
_cell_angle_beta   90.00000000
_cell_angle_gamma   88.32882996
_symmetry_Int_Tables_number   1
_chemical_formula_structural   Ca2TaNiO6
_chemical_formula_sum   'Ca4 Ta2 Ni2 O12'
_cell_volume   237.49197952
_cell_formula_units_Z   2
loop_
 _symmetry_equiv_pos_site_id
 _symmetry_equiv_pos_as_xyz
  1  'x, y, z'
loop_
 _atom_site_type_symbol
 _atom_site_label
 _atom_site_symmetry_multiplicity
 _atom_site_fract_x
 _atom_site_fract_y
 _atom_site_fract_z
 _atom_site_occupancy
  Ca  Ca0  1  0.02358203  0.95700330  0.25000000  1
  Ca  Ca1  1  0.49096602  0.43282783  0.25000000  1
  Ca  Ca2  1  0.50903398  0.56717217  0.75000000  1
  Ca  Ca3  1  0.97641797  0.04299670  0.75000000  1
  Ta  Ta4  1  0.00000000  0.50000000  0.00000000  1
  Ta  Ta5  1  0.00000000  0.50000000  0.50000000  1
  Ni  Ni6  1  0.50000000  0.00000000  0.00000000  1
  Ni  Ni7  1  0.50000000  0.00000000  0.50000000  1
  O  O8  1  0.79627767  0.79152772  0.54711316  1
  O  O9  1  0.28778949  0.69839395  0.45576316  1
  O  O10  1  0.20372233  0.20847228  0.45288684  1
  O  O11  1  0.71221051  0.30160605  0.95576316  1
  O  O12  1  0.09014907  0.47406562  0.75000000  1
  O  O13  1  0.71221051  0.30160605  0.54423684  1
  O  O14  1  0.28778949  0.69839395  0.04423684  1
  O  O15  1  0.79627767  0.79152772  0.95288684  1
  O  O16  1  0.59617987  0.02616462  0.25000000  1
  O  O17  1  0.20372233  0.20847228  0.04711316  1
  O  O18  1  0.40382013  0.97383538  0.75000000  1
  O  O19  1  0.90985093  0.52593438  0.25000000  1
