# generated using pymatgen
data_Mg2Ni3O8
_symmetry_space_group_name_H-M   'P 1'
_cell_length_a   4.78613359
_cell_length_b   5.66688163
_cell_length_c   5.77033176
_cell_angle_alpha   119.40870098
_cell_angle_beta   106.95704205
_cell_angle_gamma   89.99999728
_symmetry_Int_Tables_number   1
_chemical_formula_structural   Mg2Ni3O8
_chemical_formula_sum   'Mg2 Ni3 O8'
_cell_volume   128.47010315
_cell_formula_units_Z   1
loop_
 _symmetry_equiv_pos_site_id
 _symmetry_equiv_pos_as_xyz
  1  'x, y, z'
loop_
 _atom_site_type_symbol
 _atom_site_label
 _atom_site_symmetry_multiplicity
 _atom_site_fract_x
 _atom_site_fract_y
 _atom_site_fract_z
 _atom_site_occupancy
  Mg  Mg0  1  0.64937137  0.71980288  0.43960476  1
  Mg  Mg1  1  0.35062763  0.28019812  0.56039524  1
  Ni  Ni2  1  0.50000000  0.99999900  0.00000000  1
  Ni  Ni3  1  0.99999900  0.74516734  1.00000000  1
  Ni  Ni4  1  0.99999900  0.25483266  0.00000000  1
  O  O5  1  0.05441840  0.39025125  0.78050349  1
  O  O6  1  0.94558160  0.60974775  0.21949651  1
  O  O7  1  0.09055635  0.89689660  0.79379320  1
  O  O8  1  0.90944365  0.10310240  0.20620580  1
  O  O9  1  0.39721518  0.33774124  0.22559191  1
  O  O10  1  0.39721518  0.88785066  0.22559191  1
  O  O11  1  0.60278582  0.11214834  0.77440809  1
  O  O12  1  0.60278582  0.66225876  0.77440809  1
