# generated using pymatgen
data_MgMn4O8
_symmetry_space_group_name_H-M   'P 1'
_cell_length_a   5.83039879
_cell_length_b   5.86137746
_cell_length_c   8.82612993
_cell_angle_alpha   90.05558355
_cell_angle_beta   90.00459146
_cell_angle_gamma   90.00799534
_symmetry_Int_Tables_number   1
_chemical_formula_structural   MgMn4O8
_chemical_formula_sum   'Mg2 Mn8 O16'
_cell_volume   301.62550144
_cell_formula_units_Z   2
loop_
 _symmetry_equiv_pos_site_id
 _symmetry_equiv_pos_as_xyz
  1  'x, y, z'
loop_
 _atom_site_type_symbol
 _atom_site_label
 _atom_site_symmetry_multiplicity
 _atom_site_fract_x
 _atom_site_fract_y
 _atom_site_fract_z
 _atom_site_occupancy
  Mg  Mg0  1  0.99864529  0.74943083  0.11371227  1
  Mg  Mg1  1  0.50146482  0.24922925  0.61374952  1
  Mn  Mn2  1  0.24492035  0.75034460  0.74787310  1
  Mn  Mn3  1  0.74398126  0.24944869  0.24826455  1
  Mn  Mn4  1  0.75605204  0.74920741  0.74805986  1
  Mn  Mn5  1  0.25527538  0.25047667  0.24813330  1
  Mn  Mn6  1  0.00142868  0.50403925  0.49967449  1
  Mn  Mn7  1  0.49859794  0.00413644  0.99971182  1
  Mn  Mn8  1  0.00093934  0.99645281  0.50004483  1
  Mn  Mn9  1  0.49872797  0.49668081  0.00035930  1
  O  O10  1  0.00102014  0.53577129  0.75064289  1
  O  O11  1  0.49896273  0.03595242  0.25081403  1
  O  O12  1  0.00004468  0.96391373  0.75150010  1
  O  O13  1  0.50005948  0.46412983  0.25183534  1
  O  O14  1  0.22388127  0.75155715  0.53049559  1
  O  O15  1  0.72094593  0.24951403  0.03062921  1
  O  O16  1  0.77901095  0.74908418  0.53035511  1
  O  O17  1  0.27613962  0.25143939  0.03070991  1
  O  O18  1  0.99989828  0.02554628  0.24923581  1
  O  O19  1  0.50005967  0.52543656  0.74919556  1
  O  O20  1  0.99973989  0.47418197  0.24951428  1
  O  O21  1  0.50054940  0.97402166  0.74950092  1
  O  O22  1  0.22621604  0.25085199  0.47673272  1
  O  O23  1  0.72466212  0.74915466  0.97641554  1
  O  O24  1  0.77520851  0.24909828  0.47634365  1
  O  O25  1  0.27356822  0.75093384  0.97651531  1
