# generated using pymatgen
data_NaMn2O4
_symmetry_space_group_name_H-M   'P 1'
_cell_length_a   2.92408581
_cell_length_b   5.92164885
_cell_length_c   9.37088761
_cell_angle_alpha   90.01555071
_cell_angle_beta   90.00019120
_cell_angle_gamma   90.02285865
_symmetry_Int_Tables_number   1
_chemical_formula_structural   NaMn2O4
_chemical_formula_sum   'Na2 Mn4 O8'
_cell_volume   162.26073617
_cell_formula_units_Z   2
loop_
 _symmetry_equiv_pos_site_id
 _symmetry_equiv_pos_as_xyz
  1  'x, y, z'
loop_
 _atom_site_type_symbol
 _atom_site_label
 _atom_site_symmetry_multiplicity
 _atom_site_fract_x
 _atom_site_fract_y
 _atom_site_fract_z
 _atom_site_occupancy
  Na  Na0  1  0.75000138  0.61655603  0.94976401  1
  Na  Na1  1  0.75001318  0.88346051  0.44978156  1
  Mn  Mn2  1  0.25002216  0.03284638  0.12630416  1
  Mn  Mn3  1  0.74994307  0.13774232  0.85267623  1
  Mn  Mn4  1  0.75004428  0.36229416  0.35262446  1
  Mn  Mn5  1  0.25000824  0.46701240  0.62624682  1
  O  O6  1  0.74986961  0.83354484  0.16547454  1
  O  O7  1  0.25006831  0.35141426  0.81923451  1
  O  O8  1  0.24994525  0.14857654  0.31914680  1
  O  O9  1  0.75015868  0.66649127  0.66552951  1
  O  O10  1  0.75017364  0.24394862  0.08272023  1
  O  O11  1  0.24988610  0.94240961  0.91932327  1
  O  O12  1  0.74984636  0.25612674  0.58263950  1
  O  O13  1  0.25012774  0.55757131  0.41933240  1
