# generated using pymatgen
data_Cs
_symmetry_space_group_name_H-M   'P 1'
_cell_length_a   5.44396421
_cell_length_b   8.23774077
_cell_length_c   10.36718529
_cell_angle_alpha   90.00000000
_cell_angle_beta   90.00000000
_cell_angle_gamma   90.00000000
_symmetry_Int_Tables_number   1
_chemical_formula_structural   Cs
_chemical_formula_sum   Cs4
_cell_volume   464.92643823
_cell_formula_units_Z   4
loop_
 _symmetry_equiv_pos_site_id
 _symmetry_equiv_pos_as_xyz
  1  'x, y, z'
loop_
 _atom_site_type_symbol
 _atom_site_label
 _atom_site_symmetry_multiplicity
 _atom_site_fract_x
 _atom_site_fract_y
 _atom_site_fract_z
 _atom_site_occupancy
  Cs  Cs0  1  0.66076937  0.75000000  0.63188657  1
  Cs  Cs1  1  0.83923063  0.75000000  0.13188657  1
  Cs  Cs2  1  0.33923063  0.25000000  0.36811343  1
  Cs  Cs3  1  0.16076937  0.25000000  0.86811343  1
