# generated using pymatgen
data_Sr3Y2(BO3)4
_symmetry_space_group_name_H-M   'P 1'
_cell_length_a   7.54872763
_cell_length_b   15.79809702
_cell_length_c   8.72813442
_cell_angle_alpha   90.00000000
_cell_angle_beta   90.00000000
_cell_angle_gamma   90.00000000
_symmetry_Int_Tables_number   1
_chemical_formula_structural   Sr3Y2(BO3)4
_chemical_formula_sum   'Sr12 Y8 B16 O48'
_cell_volume   1040.87830905
_cell_formula_units_Z   4
loop_
 _symmetry_equiv_pos_site_id
 _symmetry_equiv_pos_as_xyz
  1  'x, y, z'
loop_
 _atom_site_type_symbol
 _atom_site_label
 _atom_site_symmetry_multiplicity
 _atom_site_fract_x
 _atom_site_fract_y
 _atom_site_fract_z
 _atom_site_occupancy
  Sr  Sr0  1  0.32564972  0.37542750  0.15327473  1
  Sr  Sr1  1  0.82564972  0.12457250  0.34672527  1
  Sr  Sr2  1  0.67435028  0.87542750  0.84672527  1
  Sr  Sr3  1  0.17435028  0.62457250  0.65327473  1
  Sr  Sr4  1  0.67435028  0.62457250  0.84672527  1
  Sr  Sr5  1  0.17435028  0.87542750  0.65327473  1
  Sr  Sr6  1  0.32564972  0.12457250  0.15327473  1
  Sr  Sr7  1  0.82564972  0.37542750  0.34672527  1
  Sr  Sr8  1  0.67648658  0.25000000  0.97157602  1
  Sr  Sr9  1  0.17648658  0.25000000  0.52842398  1
  Sr  Sr10  1  0.32351342  0.75000000  0.02842398  1
  Sr  Sr11  1  0.82351342  0.75000000  0.47157602  1
  Y  Y12  1  0.48784881  0.41706271  0.67211673  1
  Y  Y13  1  0.98784881  0.08293729  0.82788327  1
  Y  Y14  1  0.51215119  0.91706271  0.32788327  1
  Y  Y15  1  0.01215119  0.58293729  0.17211673  1
  Y  Y16  1  0.51215119  0.58293729  0.32788327  1
  Y  Y17  1  0.01215119  0.91706271  0.17211673  1
  Y  Y18  1  0.48784881  0.08293729  0.67211673  1
  Y  Y19  1  0.98784881  0.41706271  0.82788327  1
  B  B20  1  0.33354716  0.53802618  0.94581225  1
  B  B21  1  0.83354716  0.96197382  0.55418775  1
  B  B22  1  0.66645284  0.03802618  0.05418775  1
  B  B23  1  0.16645284  0.46197382  0.44581225  1
  B  B24  1  0.66645284  0.46197382  0.05418775  1
  B  B25  1  0.16645284  0.03802618  0.44581225  1
  B  B26  1  0.33354716  0.96197382  0.94581225  1
  B  B27  1  0.83354716  0.53802618  0.55418775  1
  B  B28  1  0.02046549  0.25000000  0.10599599  1
  B  B29  1  0.52046549  0.25000000  0.39400401  1
  B  B30  1  0.97953451  0.75000000  0.89400401  1
  B  B31  1  0.47953451  0.75000000  0.60599599  1
  B  B32  1  0.78031103  0.25000000  0.64685400  1
  B  B33  1  0.28031103  0.25000000  0.85314600  1
  B  B34  1  0.21968897  0.75000000  0.35314600  1
  B  B35  1  0.71968897  0.75000000  0.14685400  1
  O  O36  1  0.41832136  0.58755616  0.05318373  1
  O  O37  1  0.91832136  0.91244384  0.44681627  1
  O  O38  1  0.58167864  0.08755616  0.94681627  1
  O  O39  1  0.08167864  0.41244384  0.55318373  1
  O  O40  1  0.58167864  0.41244384  0.94681627  1
  O  O41  1  0.08167864  0.08755616  0.55318373  1
  O  O42  1  0.41832136  0.91244384  0.05318373  1
  O  O43  1  0.91832136  0.58755616  0.44681627  1
  O  O44  1  0.39345507  0.53607550  0.79450190  1
  O  O45  1  0.89345507  0.96392450  0.70549810  1
  O  O46  1  0.60654493  0.03607550  0.20549810  1
  O  O47  1  0.10654493  0.46392450  0.29450190  1
  O  O48  1  0.60654493  0.46392450  0.20549810  1
  O  O49  1  0.10654493  0.03607550  0.29450190  1
  O  O50  1  0.39345507  0.96392450  0.79450190  1
  O  O51  1  0.89345507  0.53607550  0.70549810  1
  O  O52  1  0.17948073  0.49387222  0.98196432  1
  O  O53  1  0.67948073  0.00612778  0.51803568  1
  O  O54  1  0.82051927  0.99387222  0.01803568  1
  O  O55  1  0.32051927  0.50612778  0.48196432  1
  O  O56  1  0.82051927  0.50612778  0.01803568  1
  O  O57  1  0.32051927  0.99387222  0.48196432  1
  O  O58  1  0.17948073  0.00612778  0.98196432  1
  O  O59  1  0.67948073  0.49387222  0.51803568  1
  O  O60  1  0.10618604  0.25000000  0.24657224  1
  O  O61  1  0.60618604  0.25000000  0.25342776  1
  O  O62  1  0.89381396  0.75000000  0.75342776  1
  O  O63  1  0.39381396  0.75000000  0.74657224  1
  O  O64  1  0.96817995  0.32644704  0.03875430  1
  O  O65  1  0.46817995  0.17355296  0.46124570  1
  O  O66  1  0.03182005  0.82644704  0.96124570  1
  O  O67  1  0.53182005  0.67355296  0.53875430  1
  O  O68  1  0.03182005  0.67355296  0.96124570  1
  O  O69  1  0.53182005  0.82644704  0.53875430  1
  O  O70  1  0.96817995  0.17355296  0.03875430  1
  O  O71  1  0.46817995  0.32644704  0.46124570  1
  O  O72  1  0.74660785  0.32703633  0.72229750  1
  O  O73  1  0.24660785  0.17296367  0.77770250  1
  O  O74  1  0.25339215  0.82703633  0.27770250  1
  O  O75  1  0.75339215  0.67296367  0.22229750  1
  O  O76  1  0.25339215  0.67296367  0.27770250  1
  O  O77  1  0.75339215  0.82703633  0.22229750  1
  O  O78  1  0.74660785  0.17296367  0.72229750  1
  O  O79  1  0.24660785  0.32703633  0.77770250  1
  O  O80  1  0.35466573  0.25000000  -0.00600325  1
  O  O81  1  0.85466573  0.25000000  0.50600325  1
  O  O82  1  0.64533427  0.75000000  0.00600325  1
  O  O83  1  0.14533427  0.75000000  0.49399675  1
