# generated using pymatgen
data_Li9Mn2Co5O16
_symmetry_space_group_name_H-M   'P 1'
_cell_length_a   2.92560176
_cell_length_b   10.78299482
_cell_length_c   10.17481752
_cell_angle_alpha   113.71312338
_cell_angle_beta   89.99999962
_cell_angle_gamma   82.20332547
_symmetry_Int_Tables_number   1
_chemical_formula_structural   Li9Mn2Co5O16
_chemical_formula_sum   'Li9 Mn2 Co5 O16'
_cell_volume   290.63822705
_cell_formula_units_Z   1
loop_
 _symmetry_equiv_pos_site_id
 _symmetry_equiv_pos_as_xyz
  1  'x, y, z'
loop_
 _atom_site_type_symbol
 _atom_site_label
 _atom_site_symmetry_multiplicity
 _atom_site_fract_x
 _atom_site_fract_y
 _atom_site_fract_z
 _atom_site_occupancy
  Li  Li0  1  0.36884918  0.26230164  0.19855938  1
  Li  Li1  1  0.13115082  0.73769836  0.55144062  1
  Li  Li2  1  0.86642812  0.26714375  0.94378752  1
  Li  Li3  1  0.87040645  0.25918709  0.44845521  1
  Li  Li4  1  0.63357188  0.73285625  0.80621248  1
  Li  Li5  1  0.36393837  0.27212326  0.69260629  1
  Li  Li6  1  0.13606163  0.72787674  0.05739371  1
  Li  Li7  1  0.62959355  0.74081291  0.30154479  1
  Li  Li8  1  0.75000000  0.50000000  0.87500000  1
  Mn  Mn9  1  0.00001927  -0.00003855  0.00199688  1
  Mn  Mn10  1  0.49998073  0.00003855  0.74800312  1
  Co  Co11  1  0.75000000  0.50000000  0.37500000  1
  Co  Co12  1  0.25278901  0.49442197  0.10823076  1
  Co  Co13  1  0.99876248  0.00247504  0.49568225  1
  Co  Co14  1  0.50123752  0.99752496  0.25431775  1
  Co  Co15  1  0.24721099  0.50557803  0.64176924  1
  O  O16  1  0.44759011  0.10481978  0.96244644  1
  O  O17  1  0.19463683  0.61072634  0.33695097  1
  O  O18  1  0.94509149  0.10981701  0.72754170  1
  O  O19  1  0.94494125  0.11011751  0.20066993  1
  O  O20  1  0.69240143  0.61519713  0.58660113  1
  O  O21  1  0.44025603  0.11948793  0.46720100  1
  O  O22  1  0.18869088  0.62261825  0.82942405  1
  O  O23  1  0.69274029  0.61451941  0.09460638  1
  O  O24  1  0.30536317  0.38927366  0.41304903  1
  O  O25  1  0.05240989  0.89518022  0.78755356  1
  O  O26  1  0.80759857  0.38480287  0.16339887  1
  O  O27  1  0.80725971  0.38548059  0.65539362  1
  O  O28  1  0.55490851  0.89018299  0.02245830  1
  O  O29  1  0.31130912  0.37738175  0.92057595  1
  O  O30  1  0.05974397  0.88051207  0.28279900  1
  O  O31  1  0.55505875  0.88988249  0.54933007  1
