# generated using pymatgen
data_Te6MoW3Se2
_symmetry_space_group_name_H-M   'P 1'
_cell_length_a   3.49798130
_cell_length_b   3.49795006
_cell_length_c   39.67822260
_cell_angle_alpha   89.99990322
_cell_angle_beta   90.00000000
_cell_angle_gamma   120.00029539
_symmetry_Int_Tables_number   1
_chemical_formula_structural   Te6MoW3Se2
_chemical_formula_sum   'Te6 Mo1 W3 Se2'
_cell_volume   420.44833531
_cell_formula_units_Z   1
loop_
 _symmetry_equiv_pos_site_id
 _symmetry_equiv_pos_as_xyz
  1  'x, y, z'
loop_
 _atom_site_type_symbol
 _atom_site_label
 _atom_site_symmetry_multiplicity
 _atom_site_fract_x
 _atom_site_fract_y
 _atom_site_fract_z
 _atom_site_occupancy
  Te  Te0  1  0.33335358  0.66670817  0.32796331  1
  Te  Te1  1  0.33336841  0.66673781  0.70398494  1
  Te  Te2  1  0.66664550  0.33328999  0.42320914  1
  Te  Te3  1  0.66663923  0.33327746  0.51611155  1
  Te  Te4  1  0.33335738  0.66671577  0.23561599  1
  Te  Te5  1  0.33335440  0.66670980  0.61108021  1
  Mo  Mo6  1  0.66669192  0.33338384  0.28177636  1
  W  W7  1  0.33330873  0.66661746  0.09391530  1
  W  W8  1  0.33330796  0.66661592  0.46965923  1
  W  W9  1  0.66669167  0.33338334  0.65754959  1
  Se  Se10  1  0.66664104  0.33328109  0.05302903  1
  Se  Se11  1  0.66664018  0.33327935  0.13485335  1
