# generated using pymatgen
data_Te6MoW3Se2
_symmetry_space_group_name_H-M   'P 1'
_cell_length_a   3.49815967
_cell_length_b   3.49814313
_cell_length_c   39.68219746
_cell_angle_alpha   89.99963938
_cell_angle_beta   90.00000000
_cell_angle_gamma   120.00015635
_symmetry_Int_Tables_number   1
_chemical_formula_structural   Te6MoW3Se2
_chemical_formula_sum   'Te6 Mo1 W3 Se2'
_cell_volume   420.53569486
_cell_formula_units_Z   1
loop_
 _symmetry_equiv_pos_site_id
 _symmetry_equiv_pos_as_xyz
  1  'x, y, z'
loop_
 _atom_site_type_symbol
 _atom_site_label
 _atom_site_symmetry_multiplicity
 _atom_site_fract_x
 _atom_site_fract_y
 _atom_site_fract_z
 _atom_site_occupancy
  Te  Te0  1  0.33335340  0.66670779  0.32823560  1
  Te  Te1  1  0.33336712  0.66673525  0.70397477  1
  Te  Te2  1  0.66664653  0.33329206  0.42350682  1
  Te  Te3  1  0.66664742  0.33329383  0.51581277  1
  Te  Te4  1  0.33335242  0.66670583  0.23534858  1
  Te  Te5  1  0.33335313  0.66670727  0.61108766  1
  Mo  Mo6  1  0.33330932  0.66661864  0.46965924  1
  W  W7  1  0.33330803  0.66661605  0.09391565  1
  W  W8  1  0.66669189  0.33338378  0.28177476  1
  W  W9  1  0.66669146  0.33338292  0.65755122  1
  Se  Se10  1  0.66664172  0.33328243  0.05303164  1
  Se  Se11  1  0.66663757  0.33327414  0.13484930  1
