# generated using pymatgen
data_Li9Mn2Co5O16
_symmetry_space_group_name_H-M   'P 1'
_cell_length_a   2.88831518
_cell_length_b   9.83702145
_cell_length_c   10.32810346
_cell_angle_alpha   83.90161077
_cell_angle_beta   89.99999963
_cell_angle_gamma   81.55798848
_symmetry_Int_Tables_number   1
_chemical_formula_structural   Li9Mn2Co5O16
_chemical_formula_sum   'Li9 Mn2 Co5 O16'
_cell_volume   288.58796230
_cell_formula_units_Z   1
loop_
 _symmetry_equiv_pos_site_id
 _symmetry_equiv_pos_as_xyz
  1  'x, y, z'
loop_
 _atom_site_type_symbol
 _atom_site_label
 _atom_site_symmetry_multiplicity
 _atom_site_fract_x
 _atom_site_fract_y
 _atom_site_fract_z
 _atom_site_occupancy
  Li  Li0  1  0.36748611  0.26502777  0.07089866  1
  Li  Li1  1  0.12828297  0.74343405  0.19303826  1
  Li  Li2  1  0.87327346  0.25345308  0.31019442  1
  Li  Li3  1  0.63067476  0.73865048  0.43653242  1
  Li  Li4  1  0.37268833  0.25462334  0.55671262  1
  Li  Li5  1  0.12798394  0.74403212  0.68727781  1
  Li  Li6  1  0.86952359  0.26095282  0.81566841  1
  Li  Li7  1  0.62936376  0.74127247  0.93283734  1
  Li  Li8  1  0.75190438  0.49619123  0.12333011  1
  Mn  Mn9  1  0.00048727  -0.00097453  0.00516926  1
  Mn  Mn10  1  0.49891020  0.00217961  0.74579474  1
  Co  Co11  1  0.50006292  -0.00012585  0.25410938  1
  Co  Co12  1  0.25459525  0.49080951  0.35680696  1
  Co  Co13  1  0.00057710  0.99884579  0.49597449  1
  Co  Co14  1  0.74697878  0.50604244  0.62384633  1
  Co  Co15  1  0.24920792  0.50158415  0.88340321  1
  O  O16  1  0.44448837  0.11102326  0.91527884  1
  O  O17  1  0.19459918  0.61080164  0.00673034  1
  O  O18  1  0.94467171  0.11065658  0.17001125  1
  O  O19  1  0.69164010  0.61671981  0.28788304  1
  O  O20  1  0.44481569  0.11036863  0.41726414  1
  O  O21  1  0.19072185  0.61855630  0.53959075  1
  O  O22  1  0.94065691  0.11868618  0.66624261  1
  O  O23  1  0.69283620  0.61432759  0.78318078  1
  O  O24  1  0.31173412  0.37653176  0.23060737  1
  O  O25  1  0.05599761  0.88800478  0.33386560  1
  O  O26  1  0.80537065  0.38925869  0.47214327  1
  O  O27  1  0.55434526  0.89130948  0.58408199  1
  O  O28  1  0.30185478  0.39629045  0.72879171  1
  O  O29  1  0.05605238  0.88789523  0.82871451  1
  O  O30  1  0.80859832  0.38280337  0.95985308  1
  O  O31  1  0.55961612  0.88076776  0.08416628  1
