# generated using pymatgen
data_YMg15
_symmetry_space_group_name_H-M   'P 1'
_cell_length_a   6.52416430
_cell_length_b   6.52416374
_cell_length_c   10.32318095
_cell_angle_alpha   90.00000000
_cell_angle_beta   90.00000000
_cell_angle_gamma   120.00000282
_symmetry_Int_Tables_number   1
_chemical_formula_structural   YMg15
_chemical_formula_sum   'Y1 Mg15'
_cell_volume   380.53438114
_cell_formula_units_Z   1
loop_
 _symmetry_equiv_pos_site_id
 _symmetry_equiv_pos_as_xyz
  1  'x, y, z'
loop_
 _atom_site_type_symbol
 _atom_site_label
 _atom_site_symmetry_multiplicity
 _atom_site_fract_x
 _atom_site_fract_y
 _atom_site_fract_z
 _atom_site_occupancy
  Y  Y0  1  0.16666700  0.33333300  0.12500000  1
  Mg  Mg1  1  0.16666700  0.33333300  0.62500000  1
  Mg  Mg2  1  0.17302944  0.83651422  0.12500000  1
  Mg  Mg3  1  0.16624749  0.83312324  0.62500000  1
  Mg  Mg4  1  0.66348578  0.32697056  0.12500000  1
  Mg  Mg5  1  0.66687676  0.33375251  0.62500000  1
  Mg  Mg6  1  0.66348578  0.83651422  0.12500000  1
  Mg  Mg7  1  0.66687676  0.83312324  0.62500000  1
  Mg  Mg8  1  0.33350008  0.16649992  0.37693702  1
  Mg  Mg9  1  0.33350008  0.16649992  0.87306298  1
  Mg  Mg10  1  0.33350008  0.66700115  0.37693702  1
  Mg  Mg11  1  0.33350008  0.66700115  0.87306298  1
  Mg  Mg12  1  0.83299885  0.16649992  0.37693702  1
  Mg  Mg13  1  0.83299885  0.16649992  0.87306298  1
  Mg  Mg14  1  0.83333300  0.66666700  0.37263573  1
  Mg  Mg15  1  0.83333300  0.66666700  0.87736427  1
