# generated using pymatgen
data_Te4MoW3Se4
_symmetry_space_group_name_H-M   'P 1'
_cell_length_a   3.43673659
_cell_length_b   3.43673371
_cell_length_c   39.21362027
_cell_angle_alpha   90.00095097
_cell_angle_beta   89.99999137
_cell_angle_gamma   120.00003535
_symmetry_Int_Tables_number   1
_chemical_formula_structural   Te4MoW3Se4
_chemical_formula_sum   'Te4 Mo1 W3 Se4'
_cell_volume   401.10635692
_cell_formula_units_Z   1
loop_
 _symmetry_equiv_pos_site_id
 _symmetry_equiv_pos_as_xyz
  1  'x, y, z'
loop_
 _atom_site_type_symbol
 _atom_site_label
 _atom_site_symmetry_multiplicity
 _atom_site_fract_x
 _atom_site_fract_y
 _atom_site_fract_z
 _atom_site_occupancy
  Te  Te0  1  0.33334896  0.66669841  0.70517898  1
  Te  Te1  1  0.66664139  0.33328240  0.42224187  1
  Te  Te2  1  0.66664787  0.33329556  0.51696418  1
  Te  Te3  1  0.33335985  0.66672004  0.60995842  1
  Mo  Mo4  1  0.33330765  0.66661431  0.46963950  1
  W  W5  1  0.33330715  0.66661296  0.09391425  1
  W  W6  1  0.66669112  0.33338322  0.28181326  1
  W  W7  1  0.66668390  0.33336898  0.65761088  1
  Se  Se8  1  0.33337831  0.66675665  0.32370328  1
  Se  Se9  1  0.66664316  0.33328571  0.05204469  1
  Se  Se10  1  0.66664719  0.33329435  0.13578915  1
  Se  Se11  1  0.33334347  0.66668741  0.23988954  1
