# generated using pymatgen
data_LaF3
_symmetry_space_group_name_H-M   'P 1'
_cell_length_a   4.19868544
_cell_length_b   4.66393216
_cell_length_c   5.33249546
_cell_angle_alpha   90.00000000
_cell_angle_beta   90.00000000
_cell_angle_gamma   90.00000000
_symmetry_Int_Tables_number   1
_chemical_formula_structural   LaF3
_chemical_formula_sum   'La2 F6'
_cell_volume   104.42297406
_cell_formula_units_Z   2
loop_
 _symmetry_equiv_pos_site_id
 _symmetry_equiv_pos_as_xyz
  1  'x, y, z'
loop_
 _atom_site_type_symbol
 _atom_site_label
 _atom_site_symmetry_multiplicity
 _atom_site_fract_x
 _atom_site_fract_y
 _atom_site_fract_z
 _atom_site_occupancy
  La  La0  1  0.75000000  0.72446114  0.25000000  1
  La  La1  1  0.25000000  0.27553886  0.75000000  1
  F  F2  1  0.25000000  0.82833115  0.50146967  1
  F  F3  1  0.25000000  0.82833115  0.99853033  1
  F  F4  1  0.75000000  0.17166885  0.49853033  1
  F  F5  1  0.75000000  0.17166885  0.00146967  1
  F  F6  1  0.25000000  0.38786610  0.25000000  1
  F  F7  1  0.75000000  0.61213390  0.75000000  1
