# generated using pymatgen
data_Te4MoW3Se4
_symmetry_space_group_name_H-M   'P 1'
_cell_length_a   3.43685822
_cell_length_b   3.43685132
_cell_length_c   39.17168255
_cell_angle_alpha   89.99993169
_cell_angle_beta   89.99998537
_cell_angle_gamma   120.00005193
_symmetry_Int_Tables_number   1
_chemical_formula_structural   Te4MoW3Se4
_chemical_formula_sum   'Te4 Mo1 W3 Se4'
_cell_volume   400.70521274
_cell_formula_units_Z   1
loop_
 _symmetry_equiv_pos_site_id
 _symmetry_equiv_pos_as_xyz
  1  'x, y, z'
loop_
 _atom_site_type_symbol
 _atom_site_label
 _atom_site_symmetry_multiplicity
 _atom_site_fract_x
 _atom_site_fract_y
 _atom_site_fract_z
 _atom_site_occupancy
  Te  Te0  1  0.33336038  0.66672146  0.32950614  1
  Te  Te1  1  0.66664108  0.33328148  0.04655544  1
  Te  Te2  1  0.66664693  0.33329311  0.14124682  1
  Te  Te3  1  0.33335239  0.66670554  0.23415315  1
  Mo  Mo4  1  0.33330680  0.66661317  0.09387795  1
  W  W5  1  0.33330709  0.66661366  0.46965277  1
  W  W6  1  0.66669067  0.33338175  0.28181803  1
  W  W7  1  0.66669065  0.33338181  0.65753025  1
  Se  Se8  1  0.33335169  0.66670380  0.69946892  1
  Se  Se9  1  0.66664402  0.33328746  0.42772647  1
  Se  Se10  1  0.66664088  0.33328119  0.51161376  1
  Se  Se11  1  0.33336741  0.66673557  0.61559829  1
