# generated using pymatgen
data_Na2HfN2
_symmetry_space_group_name_H-M   'P 1'
_cell_length_a   3.31081274
_cell_length_b   3.31081556
_cell_length_c   8.97651417
_cell_angle_alpha   90.00000299
_cell_angle_beta   90.00009028
_cell_angle_gamma   120.00000910
_symmetry_Int_Tables_number   1
_chemical_formula_structural   Na2HfN2
_chemical_formula_sum   'Na2 Hf1 N2'
_cell_volume   85.21340474
_cell_formula_units_Z   1
loop_
 _symmetry_equiv_pos_site_id
 _symmetry_equiv_pos_as_xyz
  1  'x, y, z'
loop_
 _atom_site_type_symbol
 _atom_site_label
 _atom_site_symmetry_multiplicity
 _atom_site_fract_x
 _atom_site_fract_y
 _atom_site_fract_z
 _atom_site_occupancy
  Na  Na0  1  0.66666800  0.33333400  0.29172369  1
  Na  Na1  1  0.33333200  0.66666600  0.70827631  1
  Hf  Hf2  1  0.00000000  0.00000000  0.00000000  1
  N  N3  1  0.66666500  0.33333300  0.87261616  1
  N  N4  1  0.33333500  0.66666700  0.12738384  1
