# generated using pymatgen
data_Te6MoW3Se2
_symmetry_space_group_name_H-M   'P 1'
_cell_length_a   3.49799849
_cell_length_b   3.49799362
_cell_length_c   39.67631991
_cell_angle_alpha   89.99999300
_cell_angle_beta   90.00000000
_cell_angle_gamma   120.00004591
_symmetry_Int_Tables_number   1
_chemical_formula_structural   Te6MoW3Se2
_chemical_formula_sum   'Te6 Mo1 W3 Se2'
_cell_volume   420.43653228
_cell_formula_units_Z   1
loop_
 _symmetry_equiv_pos_site_id
 _symmetry_equiv_pos_as_xyz
  1  'x, y, z'
loop_
 _atom_site_type_symbol
 _atom_site_label
 _atom_site_symmetry_multiplicity
 _atom_site_fract_x
 _atom_site_fract_y
 _atom_site_fract_z
 _atom_site_occupancy
  Te  Te0  1  0.33335604  0.66671308  0.32823856  1
  Te  Te1  1  0.66663941  0.33327783  0.04775193  1
  Te  Te2  1  0.66664908  0.33329717  0.42322436  1
  Te  Te3  1  0.66665017  0.33329933  0.14009374  1
  Te  Te4  1  0.66663795  0.33327490  0.51612047  1
  Te  Te5  1  0.33335521  0.66671143  0.23534274  1
  Mo  Mo6  1  0.33330963  0.66661925  0.09390311  1
  W  W7  1  0.33330950  0.66661900  0.46968510  1
  W  W8  1  0.66669190  0.33338381  0.28179827  1
  W  W9  1  0.66669007  0.33338013  0.65754289  1
  Se  Se10  1  0.33335556  0.66671211  0.69843318  1
  Se  Se11  1  0.33335548  0.66671196  0.61661366  1
