# generated using pymatgen
data_Te6MoW3Se2
_symmetry_space_group_name_H-M   'P 1'
_cell_length_a   3.49765671
_cell_length_b   3.49764596
_cell_length_c   39.65271555
_cell_angle_alpha   90.00015896
_cell_angle_beta   90.00000000
_cell_angle_gamma   120.00010153
_symmetry_Int_Tables_number   1
_chemical_formula_structural   Te6MoW3Se2
_chemical_formula_sum   'Te6 Mo1 W3 Se2'
_cell_volume   420.10335655
_cell_formula_units_Z   1
loop_
 _symmetry_equiv_pos_site_id
 _symmetry_equiv_pos_as_xyz
  1  'x, y, z'
loop_
 _atom_site_type_symbol
 _atom_site_label
 _atom_site_symmetry_multiplicity
 _atom_site_fract_x
 _atom_site_fract_y
 _atom_site_fract_z
 _atom_site_occupancy
  Te  Te0  1  0.33336754  0.66673608  0.70400094  1
  Te  Te1  1  0.66664411  0.33328722  0.04773905  1
  Te  Te2  1  0.66664750  0.33329401  0.42319450  1
  Te  Te3  1  0.66664544  0.33328989  0.14011747  1
  Te  Te4  1  0.66663955  0.33327809  0.51611940  1
  Te  Te5  1  0.33335321  0.66670742  0.61107300  1
  Mo  Mo6  1  0.33330731  0.66661463  0.09392078  1
  W  W7  1  0.33330877  0.66661754  0.46964178  1
  W  W8  1  0.66668787  0.33337575  0.28179628  1
  W  W9  1  0.66669322  0.33338643  0.65755233  1
  Se  Se10  1  0.33335308  0.66670717  0.32273269  1
  Se  Se11  1  0.33335239  0.66670578  0.24085977  1
