# generated using pymatgen
data_Te4MoW3Se4
_symmetry_space_group_name_H-M   'P 1'
_cell_length_a   3.43735734
_cell_length_b   3.43733324
_cell_length_c   39.20869662
_cell_angle_alpha   90.00001458
_cell_angle_beta   90.00000000
_cell_angle_gamma   120.00023193
_symmetry_Int_Tables_number   1
_chemical_formula_structural   Te4MoW3Se4
_chemical_formula_sum   'Te4 Mo1 W3 Se4'
_cell_volume   401.19761535
_cell_formula_units_Z   1
loop_
 _symmetry_equiv_pos_site_id
 _symmetry_equiv_pos_as_xyz
  1  'x, y, z'
loop_
 _atom_site_type_symbol
 _atom_site_label
 _atom_site_symmetry_multiplicity
 _atom_site_fract_x
 _atom_site_fract_y
 _atom_site_fract_z
 _atom_site_occupancy
  Te  Te0  1  0.33335387  0.66670874  0.32910222  1
  Te  Te1  1  0.66663952  0.33327805  0.42207002  1
  Te  Te2  1  0.66664190  0.33328281  0.51732986  1
  Te  Te3  1  0.33335633  0.66671366  0.23441284  1
  Mo  Mo4  1  0.66669038  0.33338076  0.28177404  1
  W  W5  1  0.33330960  0.66661919  0.09392248  1
  W  W6  1  0.33330660  0.66661319  0.46968687  1
  W  W7  1  0.66669694  0.33339389  0.65753046  1
  Se  Se8  1  0.33335530  0.66671161  0.69944736  1
  Se  Se9  1  0.66664246  0.33328391  0.05203088  1
  Se  Se10  1  0.66664811  0.33329523  0.13581024  1
  Se  Se11  1  0.33335899  0.66671898  0.61563074  1
