# generated using pymatgen
data_Na2SnTeO6
_symmetry_space_group_name_H-M   'P 1'
_cell_length_a   5.49467886
_cell_length_b   5.56400893
_cell_length_c   7.82454429
_cell_angle_alpha   90.00000000
_cell_angle_beta   89.99173609
_cell_angle_gamma   90.00000000
_symmetry_Int_Tables_number   1
_chemical_formula_structural   Na2SnTeO6
_chemical_formula_sum   'Na4 Sn2 Te2 O12'
_cell_volume   239.21542587
_cell_formula_units_Z   2
loop_
 _symmetry_equiv_pos_site_id
 _symmetry_equiv_pos_as_xyz
  1  'x, y, z'
loop_
 _atom_site_type_symbol
 _atom_site_label
 _atom_site_symmetry_multiplicity
 _atom_site_fract_x
 _atom_site_fract_y
 _atom_site_fract_z
 _atom_site_occupancy
  O  O0  1  0.78919003  0.80435994  0.45408075  1
  O  O1  1  0.71080997  0.30435994  0.04591925  1
  O  O2  1  0.21080997  0.19564006  0.54591925  1
  O  O3  1  0.28919003  0.69564006  0.95408075  1
  O  O4  1  0.69135428  0.28757231  0.45170458  1
  O  O5  1  0.80864572  0.78757231  0.04829542  1
  O  O6  1  0.30864572  0.71242769  0.54829542  1
  O  O7  1  0.19135428  0.21242769  0.95170458  1
  O  O8  1  0.09123975  0.47282082  0.24096046  1
  O  O9  1  0.40876025  0.97282082  0.25903954  1
  O  O10  1  0.90876025  0.52717918  0.75903954  1
  O  O11  1  0.59123975  0.02717918  0.74096046  1
  Na  Na12  1  0.99169568  0.04010798  0.25034581  1
  Na  Na13  1  0.50830432  0.54010798  0.24965419  1
  Na  Na14  1  0.49169568  0.45989202  0.75034581  1
  Na  Na15  1  0.00830432  0.95989202  0.74965419  1
  Sn  Sn16  1  0.00000000  0.50000000  0.50000000  1
  Sn  Sn17  1  0.50000000  0.00000000  0.00000000  1
  Te  Te18  1  0.00000000  0.50000000  0.00000000  1
  Te  Te19  1  0.50000000  0.00000000  0.50000000  1
