# generated using pymatgen
data_SrMg30CoO32
_symmetry_space_group_name_H-M   'P 1'
_cell_length_a   8.61557911
_cell_length_b   8.59101366
_cell_length_c   8.59101366
_cell_angle_alpha   90.00000000
_cell_angle_beta   90.00000000
_cell_angle_gamma   90.00000000
_symmetry_Int_Tables_number   1
_chemical_formula_structural   SrMg30CoO32
_chemical_formula_sum   'Sr1 Mg30 Co1 O32'
_cell_volume   635.87725932
_cell_formula_units_Z   1
loop_
 _symmetry_equiv_pos_site_id
 _symmetry_equiv_pos_as_xyz
  1  'x, y, z'
loop_
 _atom_site_type_symbol
 _atom_site_label
 _atom_site_symmetry_multiplicity
 _atom_site_fract_x
 _atom_site_fract_y
 _atom_site_fract_z
 _atom_site_occupancy
  Sr  Sr0  1  0.00000000  0.50000000  0.50000000  1
  Mg  Mg1  1  0.00000000  -0.00000000  0.50000000  1
  Mg  Mg2  1  0.00000000  0.50000000  -0.00000000  1
  Mg  Mg3  1  0.50000000  -0.00000000  -0.00000000  1
  Mg  Mg4  1  0.50000000  -0.00000000  0.50000000  1
  Mg  Mg5  1  0.50000000  0.50000000  -0.00000000  1
  Mg  Mg6  1  0.50000000  0.50000000  0.50000000  1
  Mg  Mg7  1  0.00000000  0.24513086  0.24513086  1
  Mg  Mg8  1  0.00000000  0.24513086  0.75486914  1
  Mg  Mg9  1  0.00000000  0.75486914  0.24513086  1
  Mg  Mg10  1  0.00000000  0.75486914  0.75486914  1
  Mg  Mg11  1  0.50000000  0.24944100  0.24944100  1
  Mg  Mg12  1  0.50000000  0.24944100  0.75055900  1
  Mg  Mg13  1  0.50000000  0.75055900  0.24944100  1
  Mg  Mg14  1  0.50000000  0.75055900  0.75055900  1
  Mg  Mg15  1  0.25046357  -0.00000000  0.24839563  1
  Mg  Mg16  1  0.25046357  -0.00000000  0.75160437  1
  Mg  Mg17  1  0.25517776  0.50000000  0.24474281  1
  Mg  Mg18  1  0.25517776  0.50000000  0.75525719  1
  Mg  Mg19  1  0.74953643  -0.00000000  0.24839563  1
  Mg  Mg20  1  0.74953643  -0.00000000  0.75160437  1
  Mg  Mg21  1  0.74482224  0.50000000  0.24474281  1
  Mg  Mg22  1  0.74482224  0.50000000  0.75525719  1
  Mg  Mg23  1  0.25046357  0.24839563  -0.00000000  1
  Mg  Mg24  1  0.25517776  0.24474281  0.50000000  1
  Mg  Mg25  1  0.25046357  0.75160437  -0.00000000  1
  Mg  Mg26  1  0.25517776  0.75525719  0.50000000  1
  Mg  Mg27  1  0.74953643  0.24839563  -0.00000000  1
  Mg  Mg28  1  0.74482224  0.24474281  0.50000000  1
  Mg  Mg29  1  0.74953643  0.75160437  -0.00000000  1
  Mg  Mg30  1  0.74482224  0.75525719  0.50000000  1
  Co  Co31  1  0.00000000  -0.00000000  -0.00000000  1
  O  O32  1  0.25715754  -0.00000000  -0.00000000  1
  O  O33  1  0.25315135  -0.00000000  0.50000000  1
  O  O34  1  0.25315135  0.50000000  -0.00000000  1
  O  O35  1  0.26999861  0.50000000  0.50000000  1
  O  O36  1  0.74284246  -0.00000000  -0.00000000  1
  O  O37  1  0.74684865  -0.00000000  0.50000000  1
  O  O38  1  0.74684865  0.50000000  -0.00000000  1
  O  O39  1  0.73000139  0.50000000  0.50000000  1
  O  O40  1  0.24912823  0.25014914  0.25014914  1
  O  O41  1  0.24912823  0.25014914  0.74985086  1
  O  O42  1  0.24912823  0.74985086  0.25014914  1
  O  O43  1  0.24912823  0.74985086  0.74985086  1
  O  O44  1  0.75087177  0.25014914  0.25014914  1
  O  O45  1  0.75087177  0.25014914  0.74985086  1
  O  O46  1  0.75087177  0.74985086  0.25014914  1
  O  O47  1  0.75087177  0.74985086  0.74985086  1
  O  O48  1  0.00000000  -0.00000000  0.24669802  1
  O  O49  1  0.00000000  -0.00000000  0.75330198  1
  O  O50  1  0.00000000  0.50000000  0.22968152  1
  O  O51  1  0.00000000  0.50000000  0.77031848  1
  O  O52  1  0.50000000  -0.00000000  0.24998946  1
  O  O53  1  0.50000000  -0.00000000  0.75001054  1
  O  O54  1  0.50000000  0.50000000  0.24655039  1
  O  O55  1  0.50000000  0.50000000  0.75344961  1
  O  O56  1  0.00000000  0.24669802  -0.00000000  1
  O  O57  1  0.00000000  0.22968152  0.50000000  1
  O  O58  1  0.00000000  0.75330198  -0.00000000  1
  O  O59  1  0.00000000  0.77031848  0.50000000  1
  O  O60  1  0.50000000  0.24998946  -0.00000000  1
  O  O61  1  0.50000000  0.24655039  0.50000000  1
  O  O62  1  0.50000000  0.75001054  -0.00000000  1
  O  O63  1  0.50000000  0.75344961  0.50000000  1
