# generated using pymatgen
data_PrSmO2
_symmetry_space_group_name_H-M   'P 1'
_cell_length_a   5.03867110
_cell_length_b   5.03867110
_cell_length_c   6.16140612
_cell_angle_alpha   65.86489292
_cell_angle_beta   65.86489292
_cell_angle_gamma   90.00000000
_symmetry_Int_Tables_number   1
_chemical_formula_structural   PrSmO2
_chemical_formula_sum   'Pr2 Sm2 O4'
_cell_volume   127.62169846
_cell_formula_units_Z   2
loop_
 _symmetry_equiv_pos_site_id
 _symmetry_equiv_pos_as_xyz
  1  'x, y, z'
loop_
 _atom_site_type_symbol
 _atom_site_label
 _atom_site_symmetry_multiplicity
 _atom_site_fract_x
 _atom_site_fract_y
 _atom_site_fract_z
 _atom_site_occupancy
  Pr  Pr0  1  0.00000000  0.00000000  0.00000000  1
  Pr  Pr1  1  0.75000000  0.25000000  0.50000000  1
  Sm  Sm2  1  0.50000000  0.50000000  0.00000000  1
  Sm  Sm3  1  0.25000000  0.75000000  0.50000000  1
  O  O4  1  0.25547314  0.25547314  0.48905371  1
  O  O5  1  0.49452686  0.99452686  0.01094629  1
  O  O6  1  0.00547314  0.50547314  0.98905371  1
  O  O7  1  0.74452686  0.74452686  0.51094629  1
