# generated using pymatgen
data_NaMg14AlO16
_symmetry_space_group_name_H-M   'P 1'
_cell_length_a   8.52406004
_cell_length_b   8.49639391
_cell_length_c   4.27307387
_cell_angle_alpha   90.00000000
_cell_angle_beta   90.00000000
_cell_angle_gamma   90.00000000
_symmetry_Int_Tables_number   1
_chemical_formula_structural   NaMg14AlO16
_chemical_formula_sum   'Na1 Mg14 Al1 O16'
_cell_volume   309.47212690
_cell_formula_units_Z   1
loop_
 _symmetry_equiv_pos_site_id
 _symmetry_equiv_pos_as_xyz
  1  'x, y, z'
loop_
 _atom_site_type_symbol
 _atom_site_label
 _atom_site_symmetry_multiplicity
 _atom_site_fract_x
 _atom_site_fract_y
 _atom_site_fract_z
 _atom_site_occupancy
  Na  Na0  1  0.00000000  0.50000000  0.00000000  1
  Mg  Mg1  1  0.50000000  -0.00000000  0.00000000  1
  Mg  Mg2  1  0.50000000  0.50000000  0.00000000  1
  Mg  Mg3  1  0.00000000  0.25541304  0.50000000  1
  Mg  Mg4  1  0.00000000  0.74458696  0.50000000  1
  Mg  Mg5  1  0.50000000  0.25260806  0.50000000  1
  Mg  Mg6  1  0.50000000  0.74739194  0.50000000  1
  Mg  Mg7  1  0.25008700  -0.00000000  0.50000000  1
  Mg  Mg8  1  0.24730357  0.50000000  0.50000000  1
  Mg  Mg9  1  0.74991300  -0.00000000  0.50000000  1
  Mg  Mg10  1  0.75269643  0.50000000  0.50000000  1
  Mg  Mg11  1  0.24995363  0.25431551  0.00000000  1
  Mg  Mg12  1  0.24995363  0.74568449  -0.00000000  1
  Mg  Mg13  1  0.75004637  0.25431551  0.00000000  1
  Mg  Mg14  1  0.75004637  0.74568449  -0.00000000  1
  Al  Al15  1  0.00000000  -0.00000000  0.00000000  1
  O  O16  1  0.23585012  -0.00000000  0.00000000  1
  O  O17  1  0.26265482  0.50000000  0.00000000  1
  O  O18  1  0.76414988  -0.00000000  0.00000000  1
  O  O19  1  0.73734518  0.50000000  0.00000000  1
  O  O20  1  0.24943242  0.24857853  0.50000000  1
  O  O21  1  0.24943242  0.75142147  0.50000000  1
  O  O22  1  0.75056758  0.24857853  0.50000000  1
  O  O23  1  0.75056758  0.75142147  0.50000000  1
  O  O24  1  0.00000000  -0.00000000  0.50000000  1
  O  O25  1  0.00000000  0.50000000  0.50000000  1
  O  O26  1  0.50000000  -0.00000000  0.50000000  1
  O  O27  1  0.50000000  0.50000000  0.50000000  1
  O  O28  1  0.00000000  0.21945732  0.00000000  1
  O  O29  1  -0.00000000  0.78054268  0.00000000  1
  O  O30  1  0.50000000  0.24376985  0.00000000  1
  O  O31  1  0.50000000  0.75623015  -0.00000000  1
