# generated using pymatgen
data_CaMn4O6
_symmetry_space_group_name_H-M   'P 1'
_cell_length_a   3.16120436
_cell_length_b   5.41022207
_cell_length_c   15.61210849
_cell_angle_alpha   90.00000000
_cell_angle_beta   90.00000000
_cell_angle_gamma   106.98677678
_symmetry_Int_Tables_number   1
_chemical_formula_structural   CaMn4O6
_chemical_formula_sum   'Ca2 Mn8 O12'
_cell_volume   255.36194093
_cell_formula_units_Z   2
loop_
 _symmetry_equiv_pos_site_id
 _symmetry_equiv_pos_as_xyz
  1  'x, y, z'
loop_
 _atom_site_type_symbol
 _atom_site_label
 _atom_site_symmetry_multiplicity
 _atom_site_fract_x
 _atom_site_fract_y
 _atom_site_fract_z
 _atom_site_occupancy
  Ca  Ca0  1  0.66132097  0.32264293  0.75000000  1
  Ca  Ca1  1  0.33867903  0.67735707  0.25000000  1
  Mn  Mn2  1  0.86323555  0.72647509  0.04319217  1
  Mn  Mn3  1  0.40770417  0.81540735  0.63545240  1
  Mn  Mn4  1  0.13676245  0.27352391  0.95680783  1
  Mn  Mn5  1  0.59229583  0.18459265  0.36454860  1
  Mn  Mn6  1  0.86323555  0.72647509  0.45680783  1
  Mn  Mn7  1  0.13676245  0.27352391  0.54319217  1
  Mn  Mn8  1  0.59229583  0.18459265  0.13545140  1
  Mn  Mn9  1  0.40770417  0.81540735  0.86454760  1
  O  O10  1  0.49999900  -0.00000000  0.50000000  1
  O  O11  1  0.49999900  -0.00000000  0.00000000  1
  O  O12  1  0.05058129  0.10116158  0.84675352  1
  O  O13  1  0.94941871  0.89883842  0.15324748  1
  O  O14  1  0.94941871  0.89883842  0.34675252  1
  O  O15  1  0.05058129  0.10116158  0.65324748  1
  O  O16  1  0.77812373  0.55624946  0.92626607  1
  O  O17  1  0.22187527  0.44375154  0.07373393  1
  O  O18  1  0.22187527  0.44375154  0.42626507  1
  O  O19  1  0.77812373  0.55624946  0.57373393  1
  O  O20  1  0.32086575  0.64173249  0.75000000  1
  O  O21  1  0.67913225  0.35826651  0.25000000  1
