# generated using pymatgen
data_LiMg30SbO32
_symmetry_space_group_name_H-M   'P 1'
_cell_length_a   8.57675592
_cell_length_b   8.57675592
_cell_length_c   8.57225962
_cell_angle_alpha   90.00000000
_cell_angle_beta   90.00000000
_cell_angle_gamma   90.00000000
_symmetry_Int_Tables_number   1
_chemical_formula_structural   LiMg30SbO32
_chemical_formula_sum   'Li1 Mg30 Sb1 O32'
_cell_volume   630.58177922
_cell_formula_units_Z   1
loop_
 _symmetry_equiv_pos_site_id
 _symmetry_equiv_pos_as_xyz
  1  'x, y, z'
loop_
 _atom_site_type_symbol
 _atom_site_label
 _atom_site_symmetry_multiplicity
 _atom_site_fract_x
 _atom_site_fract_y
 _atom_site_fract_z
 _atom_site_occupancy
  Li  Li0  1  0.00000000  -0.00000000  -0.00000000  1
  Mg  Mg1  1  0.00000000  0.50000000  -0.00000000  1
  Mg  Mg2  1  0.00000000  0.50000000  0.50000000  1
  Mg  Mg3  1  0.50000000  -0.00000000  -0.00000000  1
  Mg  Mg4  1  0.50000000  -0.00000000  0.50000000  1
  Mg  Mg5  1  0.50000000  0.50000000  -0.00000000  1
  Mg  Mg6  1  0.50000000  0.50000000  0.50000000  1
  Mg  Mg7  1  0.00000000  0.25281445  0.24023358  1
  Mg  Mg8  1  0.00000000  0.25281445  0.75976642  1
  Mg  Mg9  1  0.00000000  0.74718555  0.24023358  1
  Mg  Mg10  1  0.00000000  0.74718555  0.75976642  1
  Mg  Mg11  1  0.50000000  0.25001642  0.24823281  1
  Mg  Mg12  1  0.50000000  0.25001642  0.75176719  1
  Mg  Mg13  1  0.50000000  0.74998358  0.24823281  1
  Mg  Mg14  1  0.50000000  0.74998358  0.75176719  1
  Mg  Mg15  1  0.25281445  -0.00000000  0.24023358  1
  Mg  Mg16  1  0.25281445  -0.00000000  0.75976642  1
  Mg  Mg17  1  0.25001642  0.50000000  0.24823281  1
  Mg  Mg18  1  0.25001642  0.50000000  0.75176719  1
  Mg  Mg19  1  0.74718555  -0.00000000  0.24023358  1
  Mg  Mg20  1  0.74718555  -0.00000000  0.75976642  1
  Mg  Mg21  1  0.74998358  0.50000000  0.24823281  1
  Mg  Mg22  1  0.74998358  0.50000000  0.75176719  1
  Mg  Mg23  1  0.24755418  0.24755418  0.00000000  1
  Mg  Mg24  1  0.25559858  0.25559858  0.50000000  1
  Mg  Mg25  1  0.24755418  0.75244582  -0.00000000  1
  Mg  Mg26  1  0.25559858  0.74440142  0.50000000  1
  Mg  Mg27  1  0.75244582  0.24755418  0.00000000  1
  Mg  Mg28  1  0.74440142  0.25559858  0.50000000  1
  Mg  Mg29  1  0.75244582  0.75244582  -0.00000000  1
  Mg  Mg30  1  0.74440142  0.74440142  0.50000000  1
  Sb  Sb31  1  0.00000000  -0.00000000  0.50000000  1
  O  O32  1  0.25901243  -0.00000000  -0.00000000  1
  O  O33  1  0.26271596  -0.00000000  0.50000000  1
  O  O34  1  0.25142343  0.50000000  0.00000000  1
  O  O35  1  0.25192754  0.50000000  0.50000000  1
  O  O36  1  0.74098757  -0.00000000  0.00000000  1
  O  O37  1  0.73728404  -0.00000000  0.50000000  1
  O  O38  1  0.74857657  0.50000000  -0.00000000  1
  O  O39  1  0.74807246  0.50000000  0.50000000  1
  O  O40  1  0.24922589  0.24922589  0.25134223  1
  O  O41  1  0.24922589  0.24922589  0.74865777  1
  O  O42  1  0.24922589  0.75077411  0.25134223  1
  O  O43  1  0.24922589  0.75077411  0.74865777  1
  O  O44  1  0.75077411  0.24922589  0.25134223  1
  O  O45  1  0.75077411  0.24922589  0.74865777  1
  O  O46  1  0.75077411  0.75077411  0.25134223  1
  O  O47  1  0.75077411  0.75077411  0.74865777  1
  O  O48  1  0.00000000  -0.00000000  0.23911687  1
  O  O49  1  0.00000000  -0.00000000  0.76088313  1
  O  O50  1  0.00000000  0.50000000  0.25015316  1
  O  O51  1  0.00000000  0.50000000  0.74984684  1
  O  O52  1  0.50000000  -0.00000000  0.25015316  1
  O  O53  1  0.50000000  -0.00000000  0.74984684  1
  O  O54  1  0.50000000  0.50000000  0.25061916  1
  O  O55  1  0.50000000  0.50000000  0.74938084  1
  O  O56  1  0.00000000  0.25901243  0.00000000  1
  O  O57  1  0.00000000  0.26271596  0.50000000  1
  O  O58  1  0.00000000  0.74098757  -0.00000000  1
  O  O59  1  0.00000000  0.73728404  0.50000000  1
  O  O60  1  0.50000000  0.25142343  0.00000000  1
  O  O61  1  0.50000000  0.25192754  0.50000000  1
  O  O62  1  0.50000000  0.74857657  -0.00000000  1
  O  O63  1  0.50000000  0.74807246  0.50000000  1
