# generated using pymatgen
data_Mg2V3O8
_symmetry_space_group_name_H-M   'P 1'
_cell_length_a   5.90733281
_cell_length_b   5.90733222
_cell_length_c   9.52168717
_cell_angle_alpha   90.00000000
_cell_angle_beta   90.00000000
_cell_angle_gamma   120.00000327
_symmetry_Int_Tables_number   1
_chemical_formula_structural   Mg2V3O8
_chemical_formula_sum   'Mg4 V6 O16'
_cell_volume   287.75796976
_cell_formula_units_Z   2
loop_
 _symmetry_equiv_pos_site_id
 _symmetry_equiv_pos_as_xyz
  1  'x, y, z'
loop_
 _atom_site_type_symbol
 _atom_site_label
 _atom_site_symmetry_multiplicity
 _atom_site_fract_x
 _atom_site_fract_y
 _atom_site_fract_z
 _atom_site_occupancy
  Mg  Mg0  1  0.66666700  0.33333400  0.02059023  1
  Mg  Mg1  1  0.33333300  0.66666600  0.52059123  1
  Mg  Mg2  1  0.66666700  0.33333400  0.42149406  1
  Mg  Mg3  1  0.33333300  0.66666600  0.92149506  1
  V  V4  1  0.67487730  0.83743915  0.24376192  1
  V  V5  1  0.83744015  0.16256185  0.74376192  1
  V  V6  1  0.16256185  0.32512370  0.24376192  1
  V  V7  1  0.83743815  0.67487730  0.74376192  1
  V  V8  1  0.32512370  0.16256185  0.74376192  1
  V  V9  1  0.16256185  0.83743915  0.24376192  1
  O  O10  1  0.83523909  0.16476191  0.14772158  1
  O  O11  1  0.67047818  0.83523909  0.64772058  1
  O  O12  1  0.16476191  0.32952282  0.64772058  1
  O  O13  1  0.83523809  0.67047818  0.14772158  1
  O  O14  1  0.32952182  0.16476191  0.14772158  1
  O  O15  1  0.16476191  0.83523909  0.64772058  1
  O  O16  1  0.51795973  0.48203927  0.86372462  1
  O  O17  1  0.03592146  0.51795973  0.36372362  1
  O  O18  1  0.48204027  0.96407954  0.36372362  1
  O  O19  1  0.51795973  0.03592146  0.86372462  1
  O  O20  1  -0.00000000  -0.00000000  0.35417446  1
  O  O21  1  -0.00000000  -0.00000000  0.85417446  1
  O  O22  1  0.33333300  0.66666600  0.13161790  1
  O  O23  1  0.96407754  0.48203927  0.86372462  1
  O  O24  1  0.48203927  0.51795973  0.36372362  1
  O  O25  1  0.66666700  0.33333400  0.63161790  1
