# generated using pymatgen
data_LaYO3
_symmetry_space_group_name_H-M   'P 1'
_cell_length_a   5.91593262
_cell_length_b   6.12355702
_cell_length_c   8.61089696
_cell_angle_alpha   90.00000000
_cell_angle_beta   90.00000000
_cell_angle_gamma   90.00000000
_symmetry_Int_Tables_number   1
_chemical_formula_structural   LaYO3
_chemical_formula_sum   'La4 Y4 O12'
_cell_volume   311.94309551
_cell_formula_units_Z   4
loop_
 _symmetry_equiv_pos_site_id
 _symmetry_equiv_pos_as_xyz
  1  'x, y, z'
loop_
 _atom_site_type_symbol
 _atom_site_label
 _atom_site_symmetry_multiplicity
 _atom_site_fract_x
 _atom_site_fract_y
 _atom_site_fract_z
 _atom_site_occupancy
  O  O0  1  0.69107553  0.19297544  0.07092367  1
  O  O1  1  0.19107553  0.30702456  0.92907633  1
  O  O2  1  0.80892447  0.69297544  0.42907633  1
  O  O3  1  0.30892447  0.80702456  0.57092367  1
  O  O4  1  0.30892447  0.80702456  0.92907633  1
  O  O5  1  0.80892447  0.69297544  0.07092367  1
  O  O6  1  0.19107553  0.30702456  0.57092367  1
  O  O7  1  0.69107553  0.19297544  0.42907633  1
  O  O8  1  0.13274590  0.06272818  0.25000000  1
  O  O9  1  0.63274590  0.43727182  0.75000000  1
  O  O10  1  0.36725410  0.56272818  0.25000000  1
  O  O11  1  0.86725410  0.93727182  0.75000000  1
  Y  Y12  1  0.00000000  0.00000000  0.00000000  1
  Y  Y13  1  0.50000000  0.50000000  0.00000000  1
  Y  Y14  1  0.50000000  0.50000000  0.50000000  1
  Y  Y15  1  0.00000000  0.00000000  0.50000000  1
  La  La16  1  0.98414837  0.45233003  0.25000000  1
  La  La17  1  0.48414837  0.04766997  0.75000000  1
  La  La18  1  0.51585163  0.95233003  0.25000000  1
  La  La19  1  0.01585163  0.54766997  0.75000000  1
