# generated using pymatgen
data_MnZn(SiO3)2
_symmetry_space_group_name_H-M   'P 1'
_cell_length_a   5.33965959
_cell_length_b   9.20751197
_cell_length_c   18.77025195
_cell_angle_alpha   90.00000000
_cell_angle_beta   90.00000000
_cell_angle_gamma   90.00000000
_symmetry_Int_Tables_number   1
_chemical_formula_structural   MnZn(SiO3)2
_chemical_formula_sum   'Mn8 Zn8 Si16 O48'
_cell_volume   922.83905403
_cell_formula_units_Z   8
loop_
 _symmetry_equiv_pos_site_id
 _symmetry_equiv_pos_as_xyz
  1  'x, y, z'
loop_
 _atom_site_type_symbol
 _atom_site_label
 _atom_site_symmetry_multiplicity
 _atom_site_fract_x
 _atom_site_fract_y
 _atom_site_fract_z
 _atom_site_occupancy
  Mn  Mn0  1  0.37989655  0.98813810  0.12316771  1
  Mn  Mn1  1  0.62010345  0.01186190  0.87683229  1
  Mn  Mn2  1  0.87989655  0.01186190  0.37683229  1
  Mn  Mn3  1  0.12010345  0.98813810  0.62316771  1
  Mn  Mn4  1  0.37989655  0.48813810  0.37683229  1
  Mn  Mn5  1  0.62010345  0.51186190  0.62316771  1
  Mn  Mn6  1  0.87989655  0.51186190  0.12316771  1
  Mn  Mn7  1  0.12010345  0.48813810  0.87683229  1
  Zn  Zn8  1  0.61615483  0.14807497  0.62487435  1
  Zn  Zn9  1  0.38384517  0.85192503  0.37512565  1
  Zn  Zn10  1  0.61615483  0.64807497  0.87512565  1
  Zn  Zn11  1  0.11615483  0.85192503  0.87512565  1
  Zn  Zn12  1  0.88384517  0.14807497  0.12487435  1
  Zn  Zn13  1  0.38384517  0.35192503  0.12487435  1
  Zn  Zn14  1  0.11615483  0.35192503  0.62487435  1
  Zn  Zn15  1  0.88384517  0.64807497  0.37512565  1
  Si  Si16  1  0.56246061  0.66200069  0.22864127  1
  Si  Si17  1  0.70779171  0.83522418  0.52466306  1
  Si  Si18  1  0.79220829  0.83522418  0.02466306  1
  Si  Si19  1  0.93753939  0.16200069  0.77135873  1
  Si  Si20  1  0.06246061  0.33799931  0.27135873  1
  Si  Si21  1  0.43753939  0.83799931  0.72864127  1
  Si  Si22  1  0.20779171  0.66477582  0.52466306  1
  Si  Si23  1  0.70779171  0.33522418  0.97533694  1
  Si  Si24  1  0.79220829  0.33522418  0.47533694  1
  Si  Si25  1  0.93753939  0.66200069  0.72864127  1
  Si  Si26  1  0.43753939  0.33799931  0.77135873  1
  Si  Si27  1  0.56246061  0.16200069  0.27135873  1
  Si  Si28  1  0.29220829  0.16477582  0.47533694  1
  Si  Si29  1  0.06246061  0.83799931  0.22864127  1
  Si  Si30  1  0.29220829  0.66477582  0.02466306  1
  Si  Si31  1  0.20779171  0.16477582  0.97533694  1
  O  O32  1  0.93631652  0.50471259  0.69014389  1
  O  O33  1  0.29075569  0.01645054  0.93541439  1
  O  O34  1  0.06368348  0.49528741  0.30985611  1
  O  O35  1  0.70728037  0.33809405  0.06287955  1
  O  O36  1  0.20728037  0.16190595  0.06287955  1
  O  O37  1  0.91920925  0.21090914  0.94917161  1
  O  O38  1  0.94256743  0.66292456  0.81600081  1
  O  O39  1  0.05743257  0.83707544  0.31600081  1
  O  O40  1  0.70728037  0.83809405  0.43712045  1
  O  O41  1  0.94256743  0.16292456  0.68399919  1
  O  O42  1  0.43631652  0.49528741  0.80985611  1
  O  O43  1  0.79271963  0.33809405  0.56287955  1
  O  O44  1  0.70924431  0.98354946  0.06458561  1
  O  O45  1  0.44256743  0.83707544  0.81600081  1
  O  O46  1  0.56368348  0.00471259  0.30985611  1
  O  O47  1  0.29075569  0.51645054  0.56458561  1
  O  O48  1  0.43631652  0.99528741  0.69014389  1
  O  O49  1  0.16906621  0.76594037  0.69917117  1
  O  O50  1  0.33093379  0.76594037  0.19917117  1
  O  O51  1  0.58079075  0.71090914  0.05082839  1
  O  O52  1  0.79271963  0.83809405  0.93712045  1
  O  O53  1  0.55743257  0.66292456  0.31600081  1
  O  O54  1  0.79075569  0.48354946  0.93541439  1
  O  O55  1  0.16906621  0.26594037  0.80082883  1
  O  O56  1  0.29271963  0.16190595  0.56287955  1
  O  O57  1  0.55743257  0.16292456  0.18399919  1
  O  O58  1  0.70924431  0.48354946  0.43541439  1
  O  O59  1  0.20728037  0.66190595  0.43712045  1
  O  O60  1  0.20924431  0.51645054  0.06458561  1
  O  O61  1  0.66906621  0.73405963  0.69917117  1
  O  O62  1  0.06368348  0.99528741  0.19014389  1
  O  O63  1  0.83093379  0.73405963  0.19917117  1
  O  O64  1  0.83093379  0.23405963  0.30082883  1
  O  O65  1  0.79075569  0.98354946  0.56458561  1
  O  O66  1  0.29271963  0.66190595  0.93712045  1
  O  O67  1  0.20924431  0.01645054  0.43541439  1
  O  O68  1  0.33093379  0.26594037  0.30082883  1
  O  O69  1  0.08079075  0.78909086  0.05082839  1
  O  O70  1  0.41920925  0.78909086  0.55082839  1
  O  O71  1  0.66906621  0.23405963  0.80082883  1
  O  O72  1  0.41920925  0.28909086  0.94917161  1
  O  O73  1  0.58079075  0.21090914  0.44917161  1
  O  O74  1  0.08079075  0.28909086  0.44917161  1
  O  O75  1  0.44256743  0.33707544  0.68399919  1
  O  O76  1  0.56368348  0.50471259  0.19014389  1
  O  O77  1  0.91920925  0.71090914  0.55082839  1
  O  O78  1  0.05743257  0.33707544  0.18399919  1
  O  O79  1  0.93631652  0.00471259  0.80985611  1
