# generated using pymatgen
data_ZnMo3P3O13
_symmetry_space_group_name_H-M   'P 1'
_cell_length_a   6.66190602
_cell_length_b   7.74445284
_cell_length_c   10.80212889
_cell_angle_alpha   99.46085731
_cell_angle_beta   90.00000000
_cell_angle_gamma   90.00000000
_symmetry_Int_Tables_number   1
_chemical_formula_structural   ZnMo3P3O13
_chemical_formula_sum   'Zn2 Mo6 P6 O26'
_cell_volume   549.73176849
_cell_formula_units_Z   2
loop_
 _symmetry_equiv_pos_site_id
 _symmetry_equiv_pos_as_xyz
  1  'x, y, z'
loop_
 _atom_site_type_symbol
 _atom_site_label
 _atom_site_symmetry_multiplicity
 _atom_site_fract_x
 _atom_site_fract_y
 _atom_site_fract_z
 _atom_site_occupancy
  Zn  Zn0  1  0.75000000  0.58740817  0.14946323  1
  Zn  Zn1  1  0.25000000  0.41259183  0.85053677  1
  Mo  Mo2  1  0.25000000  0.35829590  0.20935013  1
  Mo  Mo3  1  0.75000000  0.64170410  0.79064987  1
  Mo  Mo4  1  0.25000000  0.76948665  0.44203740  1
  Mo  Mo5  1  0.50000000  -0.00000000  -0.00000000  1
  Mo  Mo6  1  0.75000000  0.23051335  0.55796260  1
  Mo  Mo7  1  -0.00000000  -0.00000000  -0.00000000  1
  P  P8  1  0.25000000  0.21778838  0.49635821  1
  P  P9  1  0.75000000  0.78221162  0.50364179  1
  P  P10  1  0.25000000  0.73473123  0.76671488  1
  P  P11  1  0.75000000  0.26526877  0.23328512  1
  P  P12  1  0.75000000  0.31693205  0.88680726  1
  P  P13  1  0.25000000  0.68306795  0.11319274  1
  O  O14  1  0.75000000  0.35458767  0.74966692  1
  O  O15  1  0.56510266  0.74682371  0.41630191  1
  O  O16  1  0.25000000  0.79506920  0.64145161  1
  O  O17  1  0.55026278  0.22573606  0.90886848  1
  O  O18  1  0.75000000  0.64927154  0.59807417  1
  O  O19  1  0.75000000  0.88533495  0.89889032  1
  O  O20  1  0.25000000  0.35072846  0.40192583  1
  O  O21  1  0.05026278  0.77426394  0.09113152  1
  O  O22  1  0.25000000  0.03056125  0.41885808  1
  O  O23  1  0.75000000  0.96943875  0.58114192  1
  O  O24  1  0.07181007  0.61210711  0.79063073  1
  O  O25  1  0.25000000  0.11466505  0.10110968  1
  O  O26  1  0.57181007  0.38789289  0.20936927  1
  O  O27  1  0.75000000  0.50905689  0.96435778  1
  O  O28  1  0.75000000  0.20493080  0.35854839  1
  O  O29  1  0.44973722  0.77426394  0.09113152  1
  O  O30  1  0.93489734  0.74682371  0.41630191  1
  O  O31  1  0.43489734  0.25317629  0.58369809  1
  O  O32  1  0.42818993  0.61210711  0.79063073  1
  O  O33  1  0.25000000  0.64541233  0.25033308  1
  O  O34  1  0.75000000  0.10039465  0.12623334  1
  O  O35  1  0.25000000  0.89960535  0.87376666  1
  O  O36  1  0.92818993  0.38789289  0.20936927  1
  O  O37  1  0.94973722  0.22573606  0.90886848  1
  O  O38  1  0.06510266  0.25317629  0.58369809  1
  O  O39  1  0.25000000  0.49094311  0.03564222  1
