# generated using pymatgen
data_CaTiCu(PO4)3
_symmetry_space_group_name_H-M   'P 1'
_cell_length_a   8.81564025
_cell_length_b   8.81564002
_cell_length_c   8.81563999
_cell_angle_alpha   58.69044318
_cell_angle_beta   58.69044361
_cell_angle_gamma   58.69044453
_symmetry_Int_Tables_number   1
_chemical_formula_structural   CaTiCu(PO4)3
_chemical_formula_sum   'Ca2 Ti2 Cu2 P6 O24'
_cell_volume   469.95024220
_cell_formula_units_Z   2
loop_
 _symmetry_equiv_pos_site_id
 _symmetry_equiv_pos_as_xyz
  1  'x, y, z'
loop_
 _atom_site_type_symbol
 _atom_site_label
 _atom_site_symmetry_multiplicity
 _atom_site_fract_x
 _atom_site_fract_y
 _atom_site_fract_z
 _atom_site_occupancy
  Ca  Ca0  1  0.99644954  0.99644954  0.99644954  1
  Ca  Ca1  1  0.49644954  0.49644954  0.49644954  1
  Ti  Ti2  1  0.14630191  0.14630191  0.14630191  1
  Ti  Ti3  1  0.64630191  0.64630191  0.64630191  1
  Cu  Cu4  1  0.35203122  0.35203122  0.35203122  1
  Cu  Cu5  1  0.85203122  0.85203122  0.85203122  1
  P  P6  1  0.03970428  0.46062276  0.75147570  1
  P  P7  1  0.46062276  0.75147570  0.03970428  1
  P  P8  1  0.75147570  0.03970428  0.46062276  1
  P  P9  1  0.25147570  0.96062276  0.53970428  1
  P  P10  1  0.53970428  0.25147570  0.96062276  1
  P  P11  1  0.96062276  0.53970428  0.25147570  1
  O  O12  1  0.12090918  0.51562628  0.29341989  1
  O  O13  1  0.29341989  0.12090918  0.51562628  1
  O  O14  1  0.05508502  0.27144007  0.92251764  1
  O  O15  1  0.51562628  0.29341989  0.12090918  1
  O  O16  1  0.01562628  0.62090918  0.79341989  1
  O  O17  1  0.22610121  0.43927803  0.58235256  1
  O  O18  1  0.27144007  0.92251764  0.05508502  1
  O  O19  1  0.43927803  0.58235256  0.22610121  1
  O  O20  1  0.20697743  0.99943945  0.37026482  1
  O  O21  1  0.58235256  0.22610121  0.43927803  1
  O  O22  1  0.08235256  0.93927803  0.72610121  1
  O  O23  1  0.37026482  0.20697743  0.99943945  1
  O  O24  1  0.62090918  0.79341989  0.01562628  1
  O  O25  1  0.92251764  0.05508502  0.27144007  1
  O  O26  1  0.42251764  0.77144007  0.55508502  1
  O  O27  1  0.79341989  0.01562628  0.62090918  1
  O  O28  1  0.55508502  0.42251764  0.77144007  1
  O  O29  1  0.72610121  0.08235256  0.93927803  1
  O  O30  1  0.77144007  0.55508502  0.42251764  1
  O  O31  1  0.99943945  0.37026482  0.20697743  1
  O  O32  1  0.49943945  0.70697743  0.87026482  1
  O  O33  1  0.93927803  0.72610121  0.08235256  1
  O  O34  1  0.70697743  0.87026482  0.49943945  1
  O  O35  1  0.87026482  0.49943945  0.70697743  1
