# generated using pymatgen
data_Re2O7
_symmetry_space_group_name_H-M   'P 1'
_cell_length_a   6.95144242
_cell_length_b   7.11435648
_cell_length_c   9.18732493
_cell_angle_alpha   112.77933867
_cell_angle_beta   90.00000000
_cell_angle_gamma   90.00000000
_symmetry_Int_Tables_number   1
_chemical_formula_structural   Re2O7
_chemical_formula_sum   'Re4 O14'
_cell_volume   418.92076164
_cell_formula_units_Z   2
loop_
 _symmetry_equiv_pos_site_id
 _symmetry_equiv_pos_as_xyz
  1  'x, y, z'
loop_
 _atom_site_type_symbol
 _atom_site_label
 _atom_site_symmetry_multiplicity
 _atom_site_fract_x
 _atom_site_fract_y
 _atom_site_fract_z
 _atom_site_occupancy
  Re  Re0  1  0.84292438  0.32273379  0.19965102  1
  Re  Re1  1  0.34292438  0.67726621  0.80034898  1
  Re  Re2  1  0.34292438  0.87691723  0.19965102  1
  Re  Re3  1  0.84292438  0.12308277  0.80034898  1
  O  O4  1  0.70007308  0.07744042  0.63728198  1
  O  O5  1  0.20007308  0.92255958  0.36271802  1
  O  O6  1  0.20007308  0.55984156  0.63728198  1
  O  O7  1  0.70007308  0.44015844  0.36271802  1
  O  O8  1  0.05234618  0.23807558  0.77592359  1
  O  O9  1  0.55234618  0.76192442  0.22407641  1
  O  O10  1  0.55234618  0.53784801  0.77592359  1
  O  O11  1  0.05234618  0.46215099  0.22407641  1
  O  O12  1  0.90648074  0.89275571  0.80905162  1
  O  O13  1  0.40648074  0.10724429  0.19094838  1
  O  O14  1  0.73281926  0.28804410  0.00000000  1
  O  O15  1  0.23281926  0.71195590  1.00000000  1
  O  O16  1  0.90648074  0.08370309  0.19094838  1
  O  O17  1  0.40648074  0.91629691  0.80905162  1
