# generated using pymatgen
data_ZnSnP2O7
_symmetry_space_group_name_H-M   'P 1'
_cell_length_a   7.23991452
_cell_length_b   9.28987107
_cell_length_c   9.64819087
_cell_angle_alpha   90.00000000
_cell_angle_beta   114.65319905
_cell_angle_gamma   90.00000000
_symmetry_Int_Tables_number   1
_chemical_formula_structural   ZnSnP2O7
_chemical_formula_sum   'Zn4 Sn4 P8 O28'
_cell_volume   589.76750757
_cell_formula_units_Z   4
loop_
 _symmetry_equiv_pos_site_id
 _symmetry_equiv_pos_as_xyz
  1  'x, y, z'
loop_
 _atom_site_type_symbol
 _atom_site_label
 _atom_site_symmetry_multiplicity
 _atom_site_fract_x
 _atom_site_fract_y
 _atom_site_fract_z
 _atom_site_occupancy
  Zn  Zn0  1  0.10541302  0.94485445  0.80364635  1
  Zn  Zn1  1  0.39458698  0.44485445  0.69635365  1
  Zn  Zn2  1  0.60541302  0.55514555  0.30364635  1
  Zn  Zn3  1  0.89458698  0.05514555  0.19635365  1
  Sn  Sn4  1  0.35175513  0.08697343  0.58192404  1
  Sn  Sn5  1  0.64824487  0.91302657  0.41807596  1
  Sn  Sn6  1  0.14824487  0.58697343  0.91807596  1
  Sn  Sn7  1  0.85175513  0.41302657  0.08192404  1
  P  P8  1  0.17721890  0.75235115  0.26968823  1
  P  P9  1  0.44582583  0.21082909  0.96130863  1
  P  P10  1  0.67721890  0.74764885  0.76968823  1
  P  P11  1  0.94582583  0.28917091  0.46130863  1
  P  P12  1  0.32278110  0.25235115  0.23031177  1
  P  P13  1  0.05417417  0.71082909  0.53869137  1
  P  P14  1  0.55417417  0.78917091  0.03869137  1
  P  P15  1  0.82278110  0.24764885  0.73031177  1
  O  O16  1  0.34820466  0.19083004  0.08099256  1
  O  O17  1  0.61130933  0.59005918  0.74712220  1
  O  O18  1  0.11130933  0.90994082  0.24712220  1
  O  O19  1  0.41041564  0.36483578  0.89779077  1
  O  O20  1  0.65179534  0.80916996  0.91900744  1
  O  O21  1  0.43965986  0.15053546  0.36009337  1
  O  O22  1  0.58958436  0.63516422  0.10220923  1
  O  O23  1  0.34116474  0.09545650  0.83955582  1
  O  O24  1  0.17917543  0.31121426  0.54685460  1
  O  O25  1  0.56034014  0.84946454  0.63990663  1
  O  O26  1  0.93965986  0.34946454  0.86009337  1
  O  O27  1  0.90937808  0.76084707  0.81457042  1
  O  O28  1  0.59062192  0.26084707  0.68542958  1
  O  O29  1  0.84820466  0.30916996  0.58099256  1
  O  O30  1  0.06034014  0.65053546  0.13990663  1
  O  O31  1  0.88869067  0.09005918  0.75287780  1
  O  O32  1  0.09062192  0.23915293  0.18542958  1
  O  O33  1  0.65883526  0.90454350  0.16044418  1
  O  O34  1  0.67917543  0.18878574  0.04685460  1
  O  O35  1  0.32082457  0.81121426  0.95314540  1
  O  O36  1  0.08958436  0.86483578  0.60220923  1
  O  O37  1  0.84116474  0.40454350  0.33955582  1
  O  O38  1  0.15883526  0.59545650  0.66044418  1
  O  O39  1  0.38869067  0.40994082  0.25287780  1
  O  O40  1  0.40937808  0.73915293  0.31457042  1
  O  O41  1  0.91041564  0.13516422  0.39779077  1
  O  O42  1  0.82082457  0.68878574  0.45314540  1
  O  O43  1  0.15179534  0.69083004  0.41900744  1
