# generated using pymatgen
data_SrMgCu(PO4)2
_symmetry_space_group_name_H-M   'P 1'
_cell_length_a   5.65254000
_cell_length_b   6.75173646
_cell_length_c   9.22978962
_cell_angle_alpha   109.18844613
_cell_angle_beta   102.23291737
_cell_angle_gamma   99.40555662
_symmetry_Int_Tables_number   1
_chemical_formula_structural   SrMgCu(PO4)2
_chemical_formula_sum   'Sr2 Mg2 Cu2 P4 O16'
_cell_volume   314.59045594
_cell_formula_units_Z   2
loop_
 _symmetry_equiv_pos_site_id
 _symmetry_equiv_pos_as_xyz
  1  'x, y, z'
loop_
 _atom_site_type_symbol
 _atom_site_label
 _atom_site_symmetry_multiplicity
 _atom_site_fract_x
 _atom_site_fract_y
 _atom_site_fract_z
 _atom_site_occupancy
  Sr  Sr0  1  0.26034058  0.80406458  0.05967739  1
  Sr  Sr1  1  0.73965942  0.19593542  0.94032261  1
  Mg  Mg2  1  0.98955376  0.40204728  0.64801394  1
  Mg  Mg3  1  0.01044624  0.59795272  0.35198606  1
  Cu  Cu4  1  0.64336298  0.84993834  0.54682911  1
  Cu  Cu5  1  0.35663702  0.15006166  0.45317089  1
  P  P6  1  0.39637906  0.42760083  0.24242080  1
  P  P7  1  0.60362094  0.57239917  0.75757920  1
  P  P8  1  0.84176591  0.02741869  0.30112112  1
  P  P9  1  0.15823409  0.97258131  0.69887888  1
  O  O10  1  0.82712340  0.55392636  0.88020141  1
  O  O11  1  0.65117501  0.47782411  0.20870380  1
  O  O12  1  0.65733136  0.80069051  0.75036655  1
  O  O13  1  0.94786847  0.10147290  0.68053594  1
  O  O14  1  0.34882499  0.52217589  0.79129620  1
  O  O15  1  0.03706435  0.73047652  0.58834160  1
  O  O16  1  0.96293565  0.26952348  0.41165840  1
  O  O17  1  0.26017566  0.00671492  0.87458401  1
  O  O18  1  0.34266864  0.19930949  0.24963345  1
  O  O19  1  0.73982434  0.99328508  0.12541599  1
  O  O20  1  0.17287660  0.44607364  0.11979859  1
  O  O21  1  0.38160448  0.59446799  0.40422404  1
  O  O22  1  0.61839552  0.40553201  0.59577596  1
  O  O23  1  0.62308606  0.92933630  0.35565160  1
  O  O24  1  0.05213153  0.89852710  0.31946406  1
  O  O25  1  0.37691394  0.07066370  0.64434840  1
