# generated using pymatgen
data_TiRe(PO4)3
_symmetry_space_group_name_H-M   'P 1'
_cell_length_a   8.81873446
_cell_length_b   8.81873391
_cell_length_c   8.81873446
_cell_angle_alpha   59.00998267
_cell_angle_beta   59.00998294
_cell_angle_gamma   59.00998107
_symmetry_Int_Tables_number   1
_chemical_formula_structural   TiRe(PO4)3
_chemical_formula_sum   'Ti2 Re2 P6 O24'
_cell_volume   474.00655514
_cell_formula_units_Z   2
loop_
 _symmetry_equiv_pos_site_id
 _symmetry_equiv_pos_as_xyz
  1  'x, y, z'
loop_
 _atom_site_type_symbol
 _atom_site_label
 _atom_site_symmetry_multiplicity
 _atom_site_fract_x
 _atom_site_fract_y
 _atom_site_fract_z
 _atom_site_occupancy
  Ti  Ti0  1  0.13867033  0.13867033  0.13867033  1
  Ti  Ti1  1  0.63867033  0.63867033  0.63867033  1
  Re  Re2  1  0.35869935  0.35869935  0.35869935  1
  Re  Re3  1  0.85869935  0.85869935  0.85869935  1
  P  P4  1  0.03330463  0.46781884  0.74632450  1
  P  P5  1  0.46781884  0.74632450  0.03330463  1
  P  P6  1  0.74632450  0.03330463  0.46781884  1
  P  P7  1  0.24632450  0.96781884  0.53330463  1
  P  P8  1  0.53330463  0.24632450  0.96781884  1
  P  P9  1  0.96781884  0.53330463  0.24632450  1
  O  O10  1  0.13903715  0.50835088  0.27712274  1
  O  O11  1  0.27712274  0.13903715  0.50835088  1
  O  O12  1  0.06371312  0.28970432  0.91651477  1
  O  O13  1  0.50835088  0.27712274  0.13903715  1
  O  O14  1  0.00835088  0.63903715  0.77712274  1
  O  O15  1  0.21632062  0.44556702  0.57350377  1
  O  O16  1  0.28970432  0.91651477  0.06371312  1
  O  O17  1  0.44556702  0.57350377  0.21632062  1
  O  O18  1  0.20667355  0.00374635  0.36667207  1
  O  O19  1  0.57350377  0.21632062  0.44556702  1
  O  O20  1  0.07350377  0.94556702  0.71632062  1
  O  O21  1  0.36667207  0.20667355  0.00374635  1
  O  O22  1  0.63903715  0.77712274  0.00835088  1
  O  O23  1  0.91651477  0.06371312  0.28970432  1
  O  O24  1  0.41651477  0.78970432  0.56371312  1
  O  O25  1  0.77712274  0.00835088  0.63903715  1
  O  O26  1  0.56371312  0.41651477  0.78970432  1
  O  O27  1  0.71632062  0.07350377  0.94556702  1
  O  O28  1  0.78970432  0.56371312  0.41651477  1
  O  O29  1  0.00374635  0.36667207  0.20667355  1
  O  O30  1  0.50374635  0.70667355  0.86667207  1
  O  O31  1  0.94556702  0.71632062  0.07350377  1
  O  O32  1  0.70667355  0.86667207  0.50374635  1
  O  O33  1  0.86667207  0.50374635  0.70667355  1
