# generated using pymatgen
data_MgCrF4
_symmetry_space_group_name_H-M   'P 1'
_cell_length_a   5.05397142
_cell_length_b   5.66265619
_cell_length_c   6.25014088
_cell_angle_alpha   116.93763529
_cell_angle_beta   109.57649114
_cell_angle_gamma   89.99741382
_symmetry_Int_Tables_number   1
_chemical_formula_structural   MgCrF4
_chemical_formula_sum   'Mg2 Cr2 F8'
_cell_volume   147.77457838
_cell_formula_units_Z   2
loop_
 _symmetry_equiv_pos_site_id
 _symmetry_equiv_pos_as_xyz
  1  'x, y, z'
loop_
 _atom_site_type_symbol
 _atom_site_label
 _atom_site_symmetry_multiplicity
 _atom_site_fract_x
 _atom_site_fract_y
 _atom_site_fract_z
 _atom_site_occupancy
  Mg  Mg0  1  0.24801011  0.18558706  0.49890062  1
  Mg  Mg1  1  0.74799833  0.81613928  0.49888075  1
  Cr  Cr2  1  0.99809633  0.50073534  0.99925752  1
  Cr  Cr3  1  0.49801505  0.00082908  0.99891407  1
  F  F4  1  0.81859465  0.48984440  0.24025736  1
  F  F5  1  0.66061713  0.20362867  0.71036038  1
  F  F6  1  0.17771324  0.51172268  0.75820049  1
  F  F7  1  0.16054499  0.00905296  0.70999778  1
  F  F8  1  0.33543138  0.79793408  0.28797521  1
  F  F9  1  0.31866820  0.25253836  0.23985899  1
  F  F10  1  0.83538957  0.99238593  0.28762358  1
  F  F11  1  0.67778401  0.74856517  0.75777226  1
