# generated using pymatgen
data_CaMn2O4
_symmetry_space_group_name_H-M   'P 1'
_cell_length_a   3.14650864
_cell_length_b   5.30961372
_cell_length_c   9.79372063
_cell_angle_alpha   90.00000000
_cell_angle_beta   90.00000000
_cell_angle_gamma   107.23569070
_symmetry_Int_Tables_number   1
_chemical_formula_structural   CaMn2O4
_chemical_formula_sum   'Ca2 Mn4 O8'
_cell_volume   156.27361968
_cell_formula_units_Z   2
loop_
 _symmetry_equiv_pos_site_id
 _symmetry_equiv_pos_as_xyz
  1  'x, y, z'
loop_
 _atom_site_type_symbol
 _atom_site_label
 _atom_site_symmetry_multiplicity
 _atom_site_fract_x
 _atom_site_fract_y
 _atom_site_fract_z
 _atom_site_occupancy
  Ca  Ca0  1  0.39654758  0.79309417  0.75000000  1
  Ca  Ca1  1  0.60345242  0.20690583  0.25000000  1
  Mn  Mn2  1  0.86322397  0.72644895  0.06875643  1
  Mn  Mn3  1  0.13677603  0.27355105  0.93124357  1
  Mn  Mn4  1  0.86322397  0.72644895  0.43124357  1
  Mn  Mn5  1  0.13677603  0.27355105  0.56875643  1
  O  O6  1  0.22476333  0.44952766  0.39306564  1
  O  O7  1  0.77523667  0.55047234  0.60693436  1
  O  O8  1  0.77523667  0.55047234  0.89306564  1
  O  O9  1  0.22476333  0.44952766  0.10693436  1
  O  O10  1  0.93826496  0.87652993  0.25000000  1
  O  O11  1  0.06173504  0.12347007  0.75000000  1
  O  O12  1  0.50000000  -0.00000000  0.00000000  1
  O  O13  1  0.50000000  -0.00000000  0.50000000  1
