# generated using pymatgen
data_SrCaCu(PO4)2
_symmetry_space_group_name_H-M   'P 1'
_cell_length_a   5.92619252
_cell_length_b   6.91526350
_cell_length_c   9.32770313
_cell_angle_alpha   108.65891447
_cell_angle_beta   102.55540930
_cell_angle_gamma   99.82218716
_symmetry_Int_Tables_number   1
_chemical_formula_structural   SrCaCu(PO4)2
_chemical_formula_sum   'Sr2 Ca2 Cu2 P4 O16'
_cell_volume   341.38152772
_cell_formula_units_Z   2
loop_
 _symmetry_equiv_pos_site_id
 _symmetry_equiv_pos_as_xyz
  1  'x, y, z'
loop_
 _atom_site_type_symbol
 _atom_site_label
 _atom_site_symmetry_multiplicity
 _atom_site_fract_x
 _atom_site_fract_y
 _atom_site_fract_z
 _atom_site_occupancy
  Sr  Sr0  1  0.27495884  0.81274999  0.06528662  1
  Sr  Sr1  1  0.72504116  0.18725001  0.93471338  1
  Ca  Ca2  1  0.99342086  0.41614026  0.66081768  1
  Ca  Ca3  1  0.00657914  0.58385974  0.33918232  1
  Cu  Cu4  1  0.66001524  0.84431963  0.54602947  1
  Cu  Cu5  1  0.33998476  0.15568037  0.45397053  1
  P  P6  1  0.39585060  0.41987109  0.23240506  1
  P  P7  1  0.60414940  0.58012891  0.76759394  1
  P  P8  1  0.84076245  0.03098960  0.29640021  1
  P  P9  1  0.15923755  0.96901040  0.70359979  1
  O  O10  1  0.83354179  0.56218670  0.87865077  1
  O  O11  1  0.61838704  0.45446390  0.17455110  1
  O  O12  1  0.65014118  0.79789782  0.74825193  1
  O  O13  1  0.95042910  0.08549156  0.68976810  1
  O  O14  1  0.38161296  0.54553610  0.82544890  1
  O  O15  1  0.04196187  0.73079674  0.60234451  1
  O  O16  1  0.95803813  0.26920326  0.39765549  1
  O  O17  1  0.27615328  0.00864805  0.87739781  1
  O  O18  1  0.34985882  0.20210218  0.25174807  1
  O  O19  1  0.72384672  0.99135195  0.12260219  1
  O  O20  1  0.16645821  0.43781330  0.12134923  1
  O  O21  1  0.41933331  0.59342745  0.39636253  1
  O  O22  1  0.58066769  0.40657255  0.60363747  1
  O  O23  1  0.64606221  0.94002239  0.36374083  1
  O  O24  1  0.04957090  0.91450844  0.31023190  1
  O  O25  1  0.35393779  0.05997761  0.63625917  1
