# generated using pymatgen
data_CaTiNi(PO4)3
_symmetry_space_group_name_H-M   'P 1'
_cell_length_a   8.84750782
_cell_length_b   8.84750789
_cell_length_c   8.84750789
_cell_angle_alpha   58.60570575
_cell_angle_beta   58.60570815
_cell_angle_gamma   58.60571331
_symmetry_Int_Tables_number   1
_chemical_formula_structural   CaTiNi(PO4)3
_chemical_formula_sum   'Ca2 Ti2 Ni2 P6 O24'
_cell_volume   474.10942531
_cell_formula_units_Z   2
loop_
 _symmetry_equiv_pos_site_id
 _symmetry_equiv_pos_as_xyz
  1  'x, y, z'
loop_
 _atom_site_type_symbol
 _atom_site_label
 _atom_site_symmetry_multiplicity
 _atom_site_fract_x
 _atom_site_fract_y
 _atom_site_fract_z
 _atom_site_occupancy
  Ca  Ca0  1  0.99679514  0.99679514  0.99679514  1
  Ca  Ca1  1  0.49679514  0.49679514  0.49679514  1
  Ti  Ti2  1  0.14739527  0.14739527  0.14739527  1
  Ti  Ti3  1  0.64739527  0.64739527  0.64739527  1
  Ni  Ni4  1  0.35346562  0.35346562  0.35346562  1
  Ni  Ni5  1  0.85346562  0.85346562  0.85346562  1
  P  P6  1  0.03997708  0.46123738  0.75102505  1
  P  P7  1  0.46123738  0.75102505  0.03997708  1
  P  P8  1  0.75102505  0.03997708  0.46123738  1
  P  P9  1  0.25102505  0.96123738  0.53997708  1
  P  P10  1  0.53997708  0.25102505  0.96123738  1
  P  P11  1  0.96123738  0.53997708  0.25102505  1
  O  O12  1  0.12223302  0.51408475  0.29039530  1
  O  O13  1  0.29039530  0.12223302  0.51408475  1
  O  O14  1  0.05539815  0.27244984  0.92181183  1
  O  O15  1  0.51408475  0.29039530  0.12223302  1
  O  O16  1  0.01408475  0.62223302  0.79039530  1
  O  O17  1  0.22542113  0.43759718  0.58311860  1
  O  O18  1  0.27244984  0.92181183  0.05539815  1
  O  O19  1  0.43759718  0.58311860  0.22542113  1
  O  O20  1  0.20686296  0.00003231  0.37069838  1
  O  O21  1  0.58311860  0.22542113  0.43759718  1
  O  O22  1  0.08311860  0.93759718  0.72542113  1
  O  O23  1  0.37069838  0.20686296  0.00003231  1
  O  O24  1  0.62223302  0.79039530  0.01408475  1
  O  O25  1  0.92181183  0.05539815  0.27244984  1
  O  O26  1  0.42181183  0.77244984  0.55539815  1
  O  O27  1  0.79039530  0.01408475  0.62223302  1
  O  O28  1  0.55539815  0.42181183  0.77244984  1
  O  O29  1  0.72542113  0.08311860  0.93759718  1
  O  O30  1  0.77244984  0.55539815  0.42181183  1
  O  O31  1  0.00003231  0.37069838  0.20686296  1
  O  O32  1  0.50003231  0.70686296  0.87069838  1
  O  O33  1  0.93759718  0.72542113  0.08311860  1
  O  O34  1  0.70686296  0.87069838  0.50003231  1
  O  O35  1  0.87069838  0.50003231  0.70686296  1
