# generated using pymatgen
data_SrZnCu(PO4)2
_symmetry_space_group_name_H-M   'P 1'
_cell_length_a   5.60753692
_cell_length_b   6.88705568
_cell_length_c   9.26968523
_cell_angle_alpha   108.97241594
_cell_angle_beta   102.81021996
_cell_angle_gamma   99.57188129
_symmetry_Int_Tables_number   1
_chemical_formula_structural   SrZnCu(PO4)2
_chemical_formula_sum   'Sr2 Zn2 Cu2 P4 O16'
_cell_volume   318.89580672
_cell_formula_units_Z   2
loop_
 _symmetry_equiv_pos_site_id
 _symmetry_equiv_pos_as_xyz
  1  'x, y, z'
loop_
 _atom_site_type_symbol
 _atom_site_label
 _atom_site_symmetry_multiplicity
 _atom_site_fract_x
 _atom_site_fract_y
 _atom_site_fract_z
 _atom_site_occupancy
  Sr  Sr0  1  0.25433437  0.80167991  0.05707379  1
  Sr  Sr1  1  0.74566563  0.19832009  0.94292621  1
  Zn  Zn2  1  0.99091518  0.38457098  0.64040479  1
  Zn  Zn3  1  0.00908482  0.61542902  0.35959521  1
  Cu  Cu4  1  0.63729199  0.84557166  0.54595927  1
  Cu  Cu5  1  0.36270801  0.15442834  0.45404073  1
  P  P6  1  0.39769941  0.42568913  0.23906632  1
  P  P7  1  0.60230059  0.57431087  0.76093368  1
  P  P8  1  0.83956340  0.02403011  0.29990247  1
  P  P9  1  0.16043660  0.97596989  0.70009753  1
  O  O10  1  0.80978182  0.56247602  0.89595608  1
  O  O11  1  0.66326178  0.47926669  0.21453496  1
  O  O12  1  0.65483113  0.79577870  0.74894323  1
  O  O13  1  0.94185063  0.09714248  0.68343121  1
  O  O14  1  0.33673822  0.52073331  0.78546504  1
  O  O15  1  0.03525136  0.73861114  0.58876296  1
  O  O16  1  0.96474864  0.26138886  0.41123704  1
  O  O17  1  0.26633981  0.00615151  0.87415800  1
  O  O18  1  0.34516887  0.20422130  0.25105677  1
  O  O19  1  0.73366019  0.99384849  0.12584200  1
  O  O20  1  0.19021818  0.43752398  0.10404392  1
  O  O21  1  0.37310708  0.59276851  0.39704292  1
  O  O22  1  0.62689292  0.40723149  0.60295708  1
  O  O23  1  0.62226730  0.92605781  0.35572978  1
  O  O24  1  0.05814937  0.90285752  0.31656879  1
  O  O25  1  0.37773270  0.07394219  0.64427022  1
