# generated using pymatgen
data_TmCoGe2
_symmetry_space_group_name_H-M   'P 1'
_cell_length_a   4.24140438
_cell_length_b   4.05747066
_cell_length_c   8.39580948
_cell_angle_alpha   103.98315476
_cell_angle_beta   90.00000000
_cell_angle_gamma   90.00000000
_symmetry_Int_Tables_number   1
_chemical_formula_structural   TmCoGe2
_chemical_formula_sum   'Tm2 Co2 Ge4'
_cell_volume   140.20502449
_cell_formula_units_Z   2
loop_
 _symmetry_equiv_pos_site_id
 _symmetry_equiv_pos_as_xyz
  1  'x, y, z'
loop_
 _atom_site_type_symbol
 _atom_site_label
 _atom_site_symmetry_multiplicity
 _atom_site_fract_x
 _atom_site_fract_y
 _atom_site_fract_z
 _atom_site_occupancy
  Tm  Tm0  1  0.75000000  0.10828770  0.21657540  1
  Tm  Tm1  1  0.25000000  0.89171230  0.78342460  1
  Co  Co2  1  0.75000000  0.31933816  0.63867633  1
  Co  Co3  1  0.25000000  0.68066184  0.36132367  1
  Ge  Ge4  1  0.75000000  0.45767649  0.91535298  1
  Ge  Ge5  1  0.25000000  0.54232351  0.08464702  1
  Ge  Ge6  1  0.75000000  0.74449523  0.48899045  1
  Ge  Ge7  1  0.25000000  0.25550477  0.51100955  1
