# generated using pymatgen
data_Sr5Ca3Ti5Mn3O24
_symmetry_space_group_name_H-M   'P 1'
_cell_length_a   7.76626635
_cell_length_b   7.80070680
_cell_length_c   7.80625357
_cell_angle_alpha   90.00475076
_cell_angle_beta   89.98912999
_cell_angle_gamma   90.01185743
_symmetry_Int_Tables_number   1
_chemical_formula_structural   Sr5Ca3Ti5Mn3O24
_chemical_formula_sum   'Sr5 Ca3 Ti5 Mn3 O24'
_cell_volume   472.92129609
_cell_formula_units_Z   1
loop_
 _symmetry_equiv_pos_site_id
 _symmetry_equiv_pos_as_xyz
  1  'x, y, z'
loop_
 _atom_site_type_symbol
 _atom_site_label
 _atom_site_symmetry_multiplicity
 _atom_site_fract_x
 _atom_site_fract_y
 _atom_site_fract_z
 _atom_site_occupancy
  Sr  Sr0  1  0.24516663  0.24822386  0.24843312  1
  Sr  Sr1  1  0.24521061  0.24822645  0.75164076  1
  Sr  Sr2  1  0.75478662  0.24842803  0.24832470  1
  Sr  Sr3  1  0.75464783  0.24813426  0.75168682  1
  Sr  Sr4  1  0.75498811  0.75171197  0.24806462  1
  Ca  Ca5  1  0.24248589  0.75286939  0.24676048  1
  Ca  Ca6  1  0.24155271  0.75280567  0.75340850  1
  Ca  Ca7  1  0.75822619  0.75299722  0.75295048  1
  Ti  Ti8  1  0.00084524  0.50429459  0.50148202  1
  Ti  Ti9  1  0.49847525  0.99753234  0.99918788  1
  Ti  Ti10  1  0.49860384  0.99736507  0.50082379  1
  Ti  Ti11  1  0.49853068  0.50247523  0.99912424  1
  Ti  Ti12  1  0.49919202  0.50266747  0.50091530  1
  Mn  Mn13  1  0.00017670  0.99842051  0.99953917  1
  Mn  Mn14  1  0.00033615  0.99899205  0.50064625  1
  Mn  Mn15  1  0.00038735  0.50208715  0.99965501  1
  O  O16  1  0.24692937  0.99453771  0.99916781  1
  O  O17  1  0.24684316  0.99476929  0.50091967  1
  O  O18  1  0.24685516  0.50519979  0.99912752  1
  O  O19  1  0.24903738  0.50413391  0.50093493  1
  O  O20  1  0.75326957  0.99595587  0.99753524  1
  O  O21  1  0.75328386  0.99609306  0.50228346  1
  O  O22  1  0.75339880  0.50403154  0.99764176  1
  O  O23  1  0.75118911  0.50343716  0.50176907  1
  O  O24  1  -0.00000531  0.25047814  0.99962239  1
  O  O25  1  0.00066040  0.24698191  0.50089963  1
  O  O26  1  0.00461766  0.74942851  0.99575889  1
  O  O27  1  0.00236080  0.75269791  0.50217143  1
  O  O28  1  0.49927232  0.24962760  0.99917021  1
  O  O29  1  0.49924441  0.24961062  0.50082677  1
  O  O30  1  0.49833400  0.75024299  0.99819298  1
  O  O31  1  0.49838524  0.75004390  0.50168548  1
  O  O32  1  0.00470387  0.99470160  0.25042419  1
  O  O33  1  0.00004726  0.99125494  0.74949513  1
  O  O34  1  0.00272396  0.50441307  0.24703048  1
  O  O35  1  0.00079764  0.50566797  0.75281998  1
  O  O36  1  0.49802157  0.99615819  0.24964300  1
  O  O37  1  0.49913554  0.99519982  0.75032931  1
  O  O38  1  0.49812768  0.50363295  0.24972399  1
  O  O39  1  0.49915473  0.50447031  0.75018353  1
