# generated using pymatgen
data_CoSO5
_symmetry_space_group_name_H-M   'P 1'
_cell_length_a   5.24041639
_cell_length_b   5.24041639
_cell_length_c   7.34044974
_cell_angle_alpha   108.82113727
_cell_angle_beta   108.82113727
_cell_angle_gamma   97.55660028
_symmetry_Int_Tables_number   1
_chemical_formula_structural   CoSO5
_chemical_formula_sum   'Co2 S2 O10'
_cell_volume   174.24660959
_cell_formula_units_Z   2
loop_
 _symmetry_equiv_pos_site_id
 _symmetry_equiv_pos_as_xyz
  1  'x, y, z'
loop_
 _atom_site_type_symbol
 _atom_site_label
 _atom_site_symmetry_multiplicity
 _atom_site_fract_x
 _atom_site_fract_y
 _atom_site_fract_z
 _atom_site_occupancy
  Co  Co0  1  0.00000000  0.50000000  0.50000000  1
  Co  Co1  1  0.50000000  0.00000000  0.00000000  1
  S  S2  1  0.08898771  0.91101229  0.25000000  1
  S  S3  1  0.91101229  0.08898771  0.75000000  1
  O  O4  1  0.67017322  0.32982678  0.25000000  1
  O  O5  1  0.32982678  0.67017322  0.75000000  1
  O  O6  1  0.77888829  0.81546248  0.13371581  1
  O  O7  1  0.18453752  0.22111171  0.36628419  1
  O  O8  1  0.22111171  0.18453752  0.86628419  1
  O  O9  1  0.81546248  0.77888829  0.63371581  1
  O  O10  1  0.17160363  0.77304094  0.39964069  1
  O  O11  1  0.22695906  0.82839637  0.10035931  1
  O  O12  1  0.82839637  0.22695906  0.60035931  1
  O  O13  1  0.77304094  0.17160363  0.89964069  1
