# generated using pymatgen
data_ZrCu2
_symmetry_space_group_name_H-M   'P 1'
_cell_length_a   4.69031068
_cell_length_b   4.63839049
_cell_length_c   4.87705625
_cell_angle_alpha   90.00000000
_cell_angle_beta   118.74123765
_cell_angle_gamma   90.00000000
_symmetry_Int_Tables_number   1
_chemical_formula_structural   ZrCu2
_chemical_formula_sum   'Zr2 Cu4'
_cell_volume   93.03093255
_cell_formula_units_Z   2
loop_
 _symmetry_equiv_pos_site_id
 _symmetry_equiv_pos_as_xyz
  1  'x, y, z'
loop_
 _atom_site_type_symbol
 _atom_site_label
 _atom_site_symmetry_multiplicity
 _atom_site_fract_x
 _atom_site_fract_y
 _atom_site_fract_z
 _atom_site_occupancy
  Zr  Zr0  1  0.04583030  0.00000000  0.00000000  1
  Zr  Zr1  1  0.51416970  0.50000000  0.00000000  1
  Cu  Cu2  1  0.38203029  0.00000000  0.63818803  1
  Cu  Cu3  1  0.74384226  0.00000000  0.36181197  1
  Cu  Cu4  1  0.81615774  0.50000000  0.63818803  1
  Cu  Cu5  1  0.17796971  0.50000000  0.36181197  1
