# generated using pymatgen
data_LiMg2
_symmetry_space_group_name_H-M   'P 1'
_cell_length_a   3.09546019
_cell_length_b   16.51195655
_cell_length_c   5.13562488
_cell_angle_alpha   90.00000000
_cell_angle_beta   90.00000000
_cell_angle_gamma   90.00000000
_symmetry_Int_Tables_number   1
_chemical_formula_structural   LiMg2
_chemical_formula_sum   'Li4 Mg8'
_cell_volume   262.49259379
_cell_formula_units_Z   4
loop_
 _symmetry_equiv_pos_site_id
 _symmetry_equiv_pos_as_xyz
  1  'x, y, z'
loop_
 _atom_site_type_symbol
 _atom_site_label
 _atom_site_symmetry_multiplicity
 _atom_site_fract_x
 _atom_site_fract_y
 _atom_site_fract_z
 _atom_site_occupancy
  Li  Li0  1  0.50000000  0.22112872  0.25000000  1
  Li  Li1  1  0.00000000  0.27887128  0.75000000  1
  Li  Li2  1  0.00000000  0.72112872  0.25000000  1
  Li  Li3  1  0.50000000  0.77887128  0.75000000  1
  Mg  Mg4  1  0.00000000  0.38662381  0.25000000  1
  Mg  Mg5  1  -0.00000000  0.05691443  0.25000000  1
  Mg  Mg6  1  0.50000000  0.44308557  0.75000000  1
  Mg  Mg7  1  0.50000000  0.11337619  0.75000000  1
  Mg  Mg8  1  0.50000000  0.88662381  0.25000000  1
  Mg  Mg9  1  0.50000000  0.55691443  0.25000000  1
  Mg  Mg10  1  -0.00000000  0.94308557  0.75000000  1
  Mg  Mg11  1  0.00000000  0.61337619  0.75000000  1
