# generated using pymatgen
data_K2PdO4
_symmetry_space_group_name_H-M   'P 1'
_cell_length_a   5.44082822
_cell_length_b   7.30388098
_cell_length_c   6.83602399
_cell_angle_alpha   90.00000000
_cell_angle_beta   90.00000000
_cell_angle_gamma   107.52417675
_symmetry_Int_Tables_number   1
_chemical_formula_structural   K2PdO4
_chemical_formula_sum   'K4 Pd2 O8'
_cell_volume   259.05021581
_cell_formula_units_Z   2
loop_
 _symmetry_equiv_pos_site_id
 _symmetry_equiv_pos_as_xyz
  1  'x, y, z'
loop_
 _atom_site_type_symbol
 _atom_site_label
 _atom_site_symmetry_multiplicity
 _atom_site_fract_x
 _atom_site_fract_y
 _atom_site_fract_z
 _atom_site_occupancy
  K  K0  1  0.82761533  0.16960279  0.94620889  1
  K  K1  1  0.17238467  0.33039721  0.44620889  1
  K  K2  1  0.17238467  0.83039721  0.05379111  1
  K  K3  1  0.82761533  0.66960279  0.55379111  1
  Pd  Pd4  1  0.50000000  0.00000000  0.50000000  1
  Pd  Pd5  1  0.50000000  0.50000000  -0.00000000  1
  O  O6  1  0.33854578  0.73838791  0.43251972  1
  O  O7  1  0.66145422  0.76161209  0.93251972  1
  O  O8  1  0.66145422  0.26161209  0.56748028  1
  O  O9  1  0.33854578  0.23838791  0.06748028  1
  O  O10  1  0.22395959  0.99408901  0.67368073  1
  O  O11  1  0.77604041  0.50591099  0.17368073  1
  O  O12  1  0.77604041  0.00591099  0.32631927  1
  O  O13  1  0.22395959  0.49408901  0.82631927  1
