# generated using pymatgen
data_Nd2CuGe6
_symmetry_space_group_name_H-M   'P 1'
_cell_length_a   4.11374427
_cell_length_b   4.16393098
_cell_length_c   11.15721403
_cell_angle_alpha   90.00000000
_cell_angle_beta   100.62344595
_cell_angle_gamma   90.00000000
_symmetry_Int_Tables_number   1
_chemical_formula_structural   Nd2CuGe6
_chemical_formula_sum   'Nd2 Cu1 Ge6'
_cell_volume   187.84006692
_cell_formula_units_Z   1
loop_
 _symmetry_equiv_pos_site_id
 _symmetry_equiv_pos_as_xyz
  1  'x, y, z'
loop_
 _atom_site_type_symbol
 _atom_site_label
 _atom_site_symmetry_multiplicity
 _atom_site_fract_x
 _atom_site_fract_y
 _atom_site_fract_z
 _atom_site_occupancy
  Nd  Nd0  1  0.99693728  0.00000000  0.99387456  1
  Nd  Nd1  1  0.33004770  0.00000000  0.66009540  1
  Cu  Cu2  1  0.77380797  0.50000000  0.54761593  1
  Ge  Ge3  1  0.71601484  0.00000000  0.43202968  1
  Ge  Ge4  1  0.60273747  -0.00000000  0.20547493  1
  Ge  Ge5  1  0.45087627  0.50000000  0.90175254  1
  Ge  Ge6  1  0.88175823  0.50000000  0.76351646  1
  Ge  Ge7  1  0.10142818  0.50000000  0.20285637  1
  Ge  Ge8  1  0.21539207  0.50000000  0.43078413  1
