# generated using pymatgen
data_CeSe2
_symmetry_space_group_name_H-M   'P 1'
_cell_length_a   4.87128059
_cell_length_b   4.87128059
_cell_length_c   12.06574798
_cell_angle_alpha   90.00000000
_cell_angle_beta   90.00000000
_cell_angle_gamma   119.99999827
_symmetry_Int_Tables_number   1
_chemical_formula_structural   CeSe2
_chemical_formula_sum   'Ce3 Se6'
_cell_volume   247.95403591
_cell_formula_units_Z   3
loop_
 _symmetry_equiv_pos_site_id
 _symmetry_equiv_pos_as_xyz
  1  'x, y, z'
loop_
 _atom_site_type_symbol
 _atom_site_label
 _atom_site_symmetry_multiplicity
 _atom_site_fract_x
 _atom_site_fract_y
 _atom_site_fract_z
 _atom_site_occupancy
  Ce  Ce0  1  0.65702031  0.00001167  0.00001125  1
  Ce  Ce1  1  0.34299136  0.34297969  0.33334525  1
  Ce  Ce2  1  -0.00001167  0.65700864  0.66667825  1
  Se  Se3  1  0.32476984  0.33372799  0.08409854  1
  Se  Se4  1  0.00895815  0.67523016  0.41743254  1
  Se  Se5  1  0.66627201  0.99104185  0.75076554  1
  Se  Se6  1  0.99104452  0.66630922  0.91592321  1
  Se  Se7  1  0.33369078  0.32473530  0.58258921  1
  Se  Se8  1  0.67526470  0.00895548  0.24925621  1
