# generated using pymatgen
data_NaCo2P2O9
_symmetry_space_group_name_H-M   'P 1'
_cell_length_a   6.25761313
_cell_length_b   7.49620818
_cell_length_c   14.20491038
_cell_angle_alpha   90.00000000
_cell_angle_beta   90.00000000
_cell_angle_gamma   90.00000000
_symmetry_Int_Tables_number   1
_chemical_formula_structural   NaCo2P2O9
_chemical_formula_sum   'Na4 Co8 P8 O36'
_cell_volume   666.32920233
_cell_formula_units_Z   4
loop_
 _symmetry_equiv_pos_site_id
 _symmetry_equiv_pos_as_xyz
  1  'x, y, z'
loop_
 _atom_site_type_symbol
 _atom_site_label
 _atom_site_symmetry_multiplicity
 _atom_site_fract_x
 _atom_site_fract_y
 _atom_site_fract_z
 _atom_site_occupancy
  Na  Na0  1  0.75000000  0.89028720  0.77888860  1
  Na  Na1  1  0.75000000  0.60971280  0.27888860  1
  Na  Na2  1  0.25000100  0.39028620  0.72111140  1
  Na  Na3  1  0.25000100  0.10971280  0.22111140  1
  Co  Co4  1  0.75000000  0.35544648  0.87347025  1
  Co  Co5  1  0.25000100  0.64455352  0.12652975  1
  Co  Co6  1  0.25000100  0.85544648  0.62652975  1
  Co  Co7  1  0.75000000  0.14455352  0.37347025  1
  Co  Co8  1  0.50000000  0.00000000  -0.00000000  1
  Co  Co9  1  0.50000000  0.50000000  0.50000000  1
  Co  Co10  1  0.00000000  0.50000000  0.50000000  1
  Co  Co11  1  -0.00000000  -0.00000000  -0.00000000  1
  P  P12  1  0.25000100  0.36095923  0.93588307  1
  P  P13  1  0.75000000  0.63904077  0.06411793  1
  P  P14  1  0.75000000  0.86095923  0.56411693  1
  P  P15  1  0.25000100  0.13904177  0.43588307  1
  P  P16  1  0.75000000  0.39119750  0.68784210  1
  P  P17  1  0.75000000  0.10880250  0.18784210  1
  P  P18  1  0.25000100  0.89119750  0.81215790  1
  P  P19  1  0.25000100  0.60880150  0.31215790  1
  O  O20  1  0.04737884  0.59772189  0.37525062  1
  O  O21  1  0.54737784  0.40227711  0.62474938  1
  O  O22  1  0.95262116  0.09772189  0.12474938  1
  O  O23  1  0.45262116  0.90227811  0.87525062  1
  O  O24  1  0.95262116  0.40227711  0.62474938  1
  O  O25  1  0.45262116  0.59772189  0.37525062  1
  O  O26  1  0.04737884  0.90227811  0.87525062  1
  O  O27  1  0.54737784  0.09772189  0.12474938  1
  O  O28  1  0.25000100  0.32830673  0.48427753  1
  O  O29  1  0.75000000  0.67169427  0.51572247  1
  O  O30  1  0.75000000  0.82830573  0.01572147  1
  O  O31  1  0.25000100  0.17169427  0.98427753  1
  O  O32  1  0.75000000  0.12791615  0.95389039  1
  O  O33  1  0.25000100  0.87208385  0.04610861  1
  O  O34  1  0.25000100  0.62791615  0.54610861  1
  O  O35  1  0.75000000  0.37208485  0.45389139  1
  O  O36  1  0.75000000  0.21761123  0.74762231  1
  O  O37  1  0.25000100  0.78238877  0.25237869  1
  O  O38  1  0.25000100  0.71761123  0.75237769  1
  O  O39  1  0.75000000  0.28238977  0.24762131  1
  O  O40  1  0.44580826  0.13602552  0.36899390  1
  O  O41  1  0.94580826  0.86397448  0.63100610  1
  O  O42  1  0.55419174  0.63602452  0.13100610  1
  O  O43  1  0.05419174  0.36397448  0.86899390  1
  O  O44  1  0.55419174  0.86397448  0.63100610  1
  O  O45  1  0.05419174  0.13602552  0.36899390  1
  O  O46  1  0.44580826  0.36397448  0.86899390  1
  O  O47  1  0.94580826  0.63602452  0.13100610  1
  O  O48  1  0.75000000  0.49030183  0.99317082  1
  O  O49  1  0.25000100  0.03913953  0.73486964  1
  O  O50  1  0.25000100  0.46085947  0.23486964  1
  O  O51  1  0.75000000  0.53913953  0.76513036  1
  O  O52  1  0.75000000  0.00969817  0.49317082  1
  O  O53  1  0.25000100  0.99030183  0.50682918  1
  O  O54  1  0.25000100  0.50969717  0.00682818  1
  O  O55  1  0.75000000  0.96086047  0.26513036  1
