# generated using pymatgen
data_K4Na4Mo5(WO8)3
_symmetry_space_group_name_H-M   'P 1'
_cell_length_a   7.99556117
_cell_length_b   8.04733744
_cell_length_c   7.99280242
_cell_angle_alpha   90.00000000
_cell_angle_beta   90.00000000
_cell_angle_gamma   90.00000000
_symmetry_Int_Tables_number   1
_chemical_formula_structural   K4Na4Mo5(WO8)3
_chemical_formula_sum   'K4 Na4 Mo5 W3 O24'
_cell_volume   514.28071632
_cell_formula_units_Z   1
loop_
 _symmetry_equiv_pos_site_id
 _symmetry_equiv_pos_as_xyz
  1  'x, y, z'
loop_
 _atom_site_type_symbol
 _atom_site_label
 _atom_site_symmetry_multiplicity
 _atom_site_fract_x
 _atom_site_fract_y
 _atom_site_fract_z
 _atom_site_occupancy
  K  K0  1  0.25213126  0.25313382  0.25215302  1
  K  K1  1  0.25213126  0.74686618  0.25215302  1
  K  K2  1  0.74786874  0.25313382  0.25215302  1
  K  K3  1  0.74786874  0.74686618  0.25215302  1
  Na  Na4  1  0.25249227  0.25313103  0.74750490  1
  Na  Na5  1  0.25249227  0.74686897  0.74750490  1
  Na  Na6  1  0.74750773  0.25313103  0.74750490  1
  Na  Na7  1  0.74750773  0.74686897  0.74750490  1
  Mo  Mo8  1  0.00000000  0.50000000  0.99822606  1
  Mo  Mo9  1  -0.00000000  0.50000000  0.50189613  1
  Mo  Mo10  1  0.50000000  0.00000000  0.50119116  1
  Mo  Mo11  1  0.50000000  0.50000000  0.99791569  1
  Mo  Mo12  1  0.50000000  0.50000000  0.50272346  1
  W  W13  1  -0.00000000  -0.00000000  0.99810009  1
  W  W14  1  -0.00000000  -0.00000000  0.50224378  1
  W  W15  1  0.50000000  -0.00000000  0.99745165  1
  O  O16  1  0.25647057  0.00000000  0.99583862  1
  O  O17  1  0.24520603  0.00000000  0.50404007  1
  O  O18  1  0.26204200  0.50000000  0.99551324  1
  O  O19  1  0.25567519  0.50000000  0.50437008  1
  O  O20  1  0.74352943  0.00000000  0.99583862  1
  O  O21  1  0.75479397  -0.00000000  0.50404007  1
  O  O22  1  0.73795800  0.50000000  0.99551324  1
  O  O23  1  0.74432481  0.50000000  0.50437008  1
  O  O24  1  0.00000000  0.23755886  0.99527005  1
  O  O25  1  0.00000000  0.24168939  0.50440460  1
  O  O26  1  0.00000000  0.76244114  0.99527005  1
  O  O27  1  0.00000000  0.75831061  0.50440460  1
  O  O28  1  0.50000000  0.24171387  0.99538564  1
  O  O29  1  0.50000000  0.26056679  0.50468078  1
  O  O30  1  0.50000000  0.75828613  0.99538564  1
  O  O31  1  0.50000000  0.73943321  0.50468078  1
  O  O32  1  0.00000000  -0.00000000  0.25725933  1
  O  O33  1  0.00000000  -0.00000000  0.74420883  1
  O  O34  1  -0.00000000  0.50000000  0.26315147  1
  O  O35  1  0.00000000  0.50000000  0.73899634  1
  O  O36  1  0.50000000  -0.00000000  0.24374564  1
  O  O37  1  0.50000000  -0.00000000  0.75348965  1
  O  O38  1  0.50000000  0.50000000  0.25661871  1
  O  O39  1  0.50000000  0.50000000  0.74514417  1
