# generated using pymatgen
data_Ti4(Fe2O5)3
_symmetry_space_group_name_H-M   'P 1'
_cell_length_a   5.52706030
_cell_length_b   5.53178904
_cell_length_c   27.75012037
_cell_angle_alpha   55.75024482
_cell_angle_beta   55.63128343
_cell_angle_gamma   56.25742873
_symmetry_Int_Tables_number   1
_chemical_formula_structural   Ti4(Fe2O5)3
_chemical_formula_sum   'Ti8 Fe12 O30'
_cell_volume   542.60150414
_cell_formula_units_Z   2
loop_
 _symmetry_equiv_pos_site_id
 _symmetry_equiv_pos_as_xyz
  1  'x, y, z'
loop_
 _atom_site_type_symbol
 _atom_site_label
 _atom_site_symmetry_multiplicity
 _atom_site_fract_x
 _atom_site_fract_y
 _atom_site_fract_z
 _atom_site_occupancy
  Ti  Ti0  1  0.12904327  0.17079263  0.03006121  1
  Ti  Ti1  1  0.34738156  0.35699848  0.26951398  1
  Ti  Ti2  1  0.64005065  0.66265289  0.12704074  1
  Ti  Ti3  1  0.14474888  0.16333515  0.42578769  1
  Ti  Ti4  1  0.14475893  0.13976819  0.62942589  1
  Ti  Ti5  1  0.65840250  0.65011386  0.52534898  1
  Ti  Ti6  1  0.15509028  0.13915748  0.82784606  1
  Ti  Ti7  1  0.35407702  0.33155810  0.87297828  1
  Fe  Fe8  1  0.34862603  0.35767045  0.07394821  1
  Fe  Fe9  1  0.14085907  0.14450615  0.22846622  1
  Fe  Fe10  1  0.84236144  0.85504056  0.17333374  1
  Fe  Fe11  1  0.35015654  0.36011956  0.47254417  1
  Fe  Fe12  1  0.65457052  0.63801889  0.32911047  1
  Fe  Fe13  1  0.86242707  0.85790215  0.37005871  1
  Fe  Fe14  1  0.35615678  0.35193654  0.66923050  1
  Fe  Fe15  1  0.85832335  0.85387953  0.57255328  1
  Fe  Fe16  1  0.64952333  0.64773153  0.72888152  1
  Fe  Fe17  1  0.86804777  0.85669387  0.77002814  1
  Fe  Fe18  1  0.63749503  0.64586028  0.93036432  1
  Fe  Fe19  1  0.85684721  0.85792778  0.97000847  1
  O  O20  1  0.03506423  0.78152598  0.08993416  1
  O  O21  1  0.45557454  0.03314496  0.15179743  1
  O  O22  1  0.78109927  0.41849383  0.01071803  1
  O  O23  1  0.25732828  0.57252221  0.18671611  1
  O  O24  1  0.54421381  0.90992668  0.05649907  1
  O  O25  1  0.07429371  0.71353045  0.28917246  1
  O  O26  1  0.91375993  0.26576172  0.11403622  1
  O  O27  1  0.42169659  0.06292144  0.35051196  1
  O  O28  1  0.72254286  0.45422622  0.21304178  1
  O  O29  1  0.28218296  0.51851894  0.38927184  1
  O  O30  1  0.56776936  0.94541826  0.25151432  1
  O  O31  1  0.03068360  0.79642393  0.48613718  1
  O  O32  1  0.95319306  0.25839268  0.30802684  1
  O  O33  1  0.41332445  0.04844963  0.55688771  1
  O  O34  1  0.77894337  0.43089200  0.40933673  1
  O  O35  1  0.29139329  0.53722235  0.58660788  1
  O  O36  1  0.53845765  0.91628054  0.45764416  1
  O  O37  1  0.05895329  0.76165293  0.68441916  1
  O  O38  1  0.91868140  0.28598978  0.50842705  1
  O  O39  1  0.42643069  0.06380935  0.75138577  1
  O  O40  1  0.77161977  0.41735643  0.61209956  1
  O  O41  1  0.26828835  0.53922390  0.78809047  1
  O  O42  1  0.53048850  0.94485920  0.65477844  1
  O  O43  1  0.08728408  0.75068056  0.88045517  1
  O  O44  1  0.94733102  0.28253826  0.70458974  1
  O  O45  1  0.41698288  0.08572771  0.95025402  1
  O  O46  1  0.75532241  0.41322063  0.81454555  1
  O  O47  1  0.25601720  0.52419340  0.99335820  1
  O  O48  1  0.53274616  0.97057412  0.84871481  1
  O  O49  1  0.96938605  0.25485782  0.90449761  1
