# generated using pymatgen
data_FeSeO5
_symmetry_space_group_name_H-M   'P 1'
_cell_length_a   5.48604183
_cell_length_b   5.48604183
_cell_length_c   7.61329944
_cell_angle_alpha   110.39399544
_cell_angle_beta   110.39399544
_cell_angle_gamma   100.17080096
_symmetry_Int_Tables_number   1
_chemical_formula_structural   FeSeO5
_chemical_formula_sum   'Fe2 Se2 O10'
_cell_volume   189.37464704
_cell_formula_units_Z   2
loop_
 _symmetry_equiv_pos_site_id
 _symmetry_equiv_pos_as_xyz
  1  'x, y, z'
loop_
 _atom_site_type_symbol
 _atom_site_label
 _atom_site_symmetry_multiplicity
 _atom_site_fract_x
 _atom_site_fract_y
 _atom_site_fract_z
 _atom_site_occupancy
  Fe  Fe0  1  -0.00000000  0.00000000  0.50000000  1
  Fe  Fe1  1  0.50000000  0.50000000  0.00000000  1
  Se  Se2  1  0.08145658  0.41854342  0.25000000  1
  Se  Se3  1  0.91854342  0.58145658  0.75000000  1
  O  O4  1  0.21278347  0.32143909  0.08006369  1
  O  O5  1  0.17856091  0.28721653  0.41993631  1
  O  O6  1  0.78721653  0.67856091  0.91993631  1
  O  O7  1  0.82143909  0.71278347  0.58006369  1
  O  O8  1  0.19994788  0.76744761  0.38129081  1
  O  O9  1  0.73255239  0.30005212  0.11870919  1
  O  O10  1  0.80005212  0.23255239  0.61870919  1
  O  O11  1  0.26744761  0.69994788  0.88129081  1
  O  O12  1  0.68064771  0.81935229  0.25000000  1
  O  O13  1  0.31935229  0.18064771  0.75000000  1
