# generated using pymatgen
data_Li9Mn7O16
_symmetry_space_group_name_H-M   'P 1'
_cell_length_a   3.01312711
_cell_length_b   6.06617098
_cell_length_c   16.37281063
_cell_angle_alpha   89.99185380
_cell_angle_beta   89.12544482
_cell_angle_gamma   94.79987825
_symmetry_Int_Tables_number   1
_chemical_formula_structural   Li9Mn7O16
_chemical_formula_sum   'Li9 Mn7 O16'
_cell_volume   298.18004237
_cell_formula_units_Z   1
loop_
 _symmetry_equiv_pos_site_id
 _symmetry_equiv_pos_as_xyz
  1  'x, y, z'
loop_
 _atom_site_type_symbol
 _atom_site_label
 _atom_site_symmetry_multiplicity
 _atom_site_fract_x
 _atom_site_fract_y
 _atom_site_fract_z
 _atom_site_occupancy
  Li  Li0  1  0.00417775  0.50701801  0.01022860  1
  Li  Li1  1  0.50000000  0.25000000  0.12500000  1
  Li  Li2  1  0.99582225  0.99298199  0.23977140  1
  Li  Li3  1  0.49600638  0.75376718  0.87563044  1
  Li  Li4  1  0.00063311  0.99967514  0.75009942  1
  Li  Li5  1  0.50000000  0.25000000  0.62500000  1
  Li  Li6  1  0.99936689  0.50032486  0.49990058  1
  Li  Li7  1  0.50399362  0.74623282  0.37436956  1
  Li  Li8  1  0.50000000  0.75000000  0.12500000  1
  Mn  Mn9  1  0.00301282  0.99157641  0.00595209  1
  Mn  Mn10  1  0.99698718  0.50842359  0.24404791  1
  Mn  Mn11  1  0.49163375  0.25622708  0.37390204  1
  Mn  Mn12  1  0.99990255  0.00097019  0.49869652  1
  Mn  Mn13  1  0.50000000  0.75000000  0.62500000  1
  Mn  Mn14  1  0.00009745  0.49902981  0.75130348  1
  Mn  Mn15  1  0.50836625  0.24377292  0.87609796  1
  O  O16  1  0.53130247  0.21856613  0.99698592  1
  O  O17  1  0.99571518  0.00248624  0.11691842  1
  O  O18  1  0.52523558  0.71668092  0.24957413  1
  O  O19  1  0.96906136  0.48984950  0.87233969  1
  O  O20  1  0.46590758  0.74393180  0.74546147  1
  O  O21  1  0.96712022  0.99432749  0.61920940  1
  O  O22  1  0.46844823  0.24470907  0.49448727  1
  O  O23  1  0.96527222  0.49275713  0.36827137  1
  O  O24  1  0.47476442  0.78331908  0.00042587  1
  O  O25  1  0.00428482  0.49751376  0.13308258  1
  O  O26  1  0.46869753  0.28143387  0.25301508  1
  O  O27  1  0.03472778  0.00724287  0.88172763  1
  O  O28  1  0.53155177  0.25529093  0.75551173  1
  O  O29  1  0.03287978  0.50567251  0.63079060  1
  O  O30  1  0.53409242  0.75606820  0.50453753  1
  O  O31  1  0.03093864  0.01015050  0.37766031  1
