# generated using pymatgen
data_CuH6CI3N
_symmetry_space_group_name_H-M   'P 1'
_cell_length_a   8.35347450
_cell_length_b   10.97821138
_cell_length_c   9.34292977
_cell_angle_alpha   90.00000000
_cell_angle_beta   90.00000000
_cell_angle_gamma   90.00000000
_symmetry_Int_Tables_number   1
_chemical_formula_structural   CuH6CI3N
_chemical_formula_sum   'Cu4 H24 C4 I12 N4'
_cell_volume   856.80466846
_cell_formula_units_Z   4
loop_
 _symmetry_equiv_pos_site_id
 _symmetry_equiv_pos_as_xyz
  1  'x, y, z'
loop_
 _atom_site_type_symbol
 _atom_site_label
 _atom_site_symmetry_multiplicity
 _atom_site_fract_x
 _atom_site_fract_y
 _atom_site_fract_z
 _atom_site_occupancy
  Cu  Cu0  1  0.50000000  -0.00000000  0.50000000  1
  Cu  Cu1  1  -0.00000000  0.00000000  0.00000000  1
  Cu  Cu2  1  0.50000000  0.50000000  0.50000000  1
  Cu  Cu3  1  -0.00000000  0.50000000  -0.00000000  1
  H  H4  1  0.49583409  0.32580356  0.14120764  1
  H  H5  1  0.50416591  0.67419644  0.85879236  1
  H  H6  1  0.00416591  0.67419644  0.64120764  1
  H  H7  1  0.99583409  0.32580356  0.35879236  1
  H  H8  1  0.50416591  0.82580356  0.85879236  1
  H  H9  1  0.49583409  0.17419644  0.14120764  1
  H  H10  1  0.99583409  0.17419644  0.35879236  1
  H  H11  1  0.00416591  0.82580356  0.64120764  1
  H  H12  1  0.33688893  0.25000000  0.07691042  1
  H  H13  1  0.66311107  0.75000000  0.92308958  1
  H  H14  1  0.16311107  0.75000000  0.57691042  1
  H  H15  1  0.83688893  0.25000000  0.42308958  1
  H  H16  1  0.49425615  0.33169036  0.88078907  1
  H  H17  1  0.50574385  0.66830964  0.11921093  1
  H  H18  1  0.00574385  0.66830964  0.38078907  1
  H  H19  1  0.99425615  0.33169036  0.61921193  1
  H  H20  1  0.50574385  0.83169036  0.11921093  1
  H  H21  1  0.49425615  0.16830964  0.88078907  1
  H  H22  1  0.99425615  0.16830964  0.61921193  1
  H  H23  1  0.00574385  0.83169036  0.38078907  1
  H  H24  1  0.66493340  0.25000000  0.94792015  1
  H  H25  1  0.33506660  0.75000000  0.05207985  1
  H  H26  1  0.83506660  0.75000000  0.44792015  1
  H  H27  1  0.16493340  0.25000000  0.55207985  1
  C  C28  1  0.53437468  0.25000000  0.93728035  1
  C  C29  1  0.46562532  0.75000000  0.06271965  1
  C  C30  1  0.96562532  0.75000000  0.43728035  1
  C  C31  1  0.03437468  0.25000000  0.56271965  1
  I  I32  1  0.52879655  0.25000000  0.50418681  1
  I  I33  1  0.47120345  0.75000000  0.49581319  1
  I  I34  1  0.97120345  0.75000000  0.00418681  1
  I  I35  1  0.02879655  0.25000000  0.99581319  1
  I  I36  1  0.73072833  0.98687674  0.67490003  1
  I  I37  1  0.26927167  0.01312326  0.32509997  1
  I  I38  1  0.76927167  0.01312326  0.17490003  1
  I  I39  1  0.23072833  0.98687674  0.82509997  1
  I  I40  1  0.26927167  0.48687674  0.32509997  1
  I  I41  1  0.73072833  0.51312326  0.67490003  1
  I  I42  1  0.23072833  0.51312326  0.82509997  1
  I  I43  1  0.76927167  0.48687674  0.17490003  1
  N  N44  1  0.46122380  0.25000000  0.08301088  1
  N  N45  1  0.53877620  0.75000000  0.91698912  1
  N  N46  1  0.03877620  0.75000000  0.58301088  1
  N  N47  1  0.96122380  0.25000000  0.41698912  1
