# generated using pymatgen
data_Mg2Ga
_symmetry_space_group_name_H-M   'P 1'
_cell_length_a   3.07979163
_cell_length_b   15.96436910
_cell_length_c   4.97644405
_cell_angle_alpha   90.00007686
_cell_angle_beta   90.00000000
_cell_angle_gamma   90.00000000
_symmetry_Int_Tables_number   1
_chemical_formula_structural   Mg2Ga
_chemical_formula_sum   'Mg8 Ga4'
_cell_volume   244.67647791
_cell_formula_units_Z   4
loop_
 _symmetry_equiv_pos_site_id
 _symmetry_equiv_pos_as_xyz
  1  'x, y, z'
loop_
 _atom_site_type_symbol
 _atom_site_label
 _atom_site_symmetry_multiplicity
 _atom_site_fract_x
 _atom_site_fract_y
 _atom_site_fract_z
 _atom_site_occupancy
  Mg  Mg0  1  0.50000000  0.05551226  0.25000019  1
  Mg  Mg1  1  0.00000000  0.22315348  0.25000032  1
  Mg  Mg2  1  0.50000000  0.27684652  0.74999968  1
  Mg  Mg3  1  0.00000000  0.44448774  0.74999981  1
  Mg  Mg4  1  -0.00000000  0.55551226  0.25000019  1
  Mg  Mg5  1  0.50000000  0.72315348  0.25000032  1
  Mg  Mg6  1  -0.00000000  0.77684652  0.74999968  1
  Mg  Mg7  1  0.50000000  0.94448774  0.74999981  1
  Ga  Ga8  1  0.50000000  0.38851687  0.25000006  1
  Ga  Ga9  1  -0.00000000  0.11148313  0.74999994  1
  Ga  Ga10  1  0.00000000  0.88851687  0.25000006  1
  Ga  Ga11  1  0.50000000  0.61148313  0.74999994  1
