# generated using pymatgen
data_TiGa2O5
_symmetry_space_group_name_H-M   'P 1'
_cell_length_a   7.41646546
_cell_length_b   5.27952254
_cell_length_c   10.03580742
_cell_angle_alpha   90.00000000
_cell_angle_beta   90.00000000
_cell_angle_gamma   110.48417269
_symmetry_Int_Tables_number   1
_chemical_formula_structural   TiGa2O5
_chemical_formula_sum   'Ti4 Ga8 O20'
_cell_volume   368.10897567
_cell_formula_units_Z   4
loop_
 _symmetry_equiv_pos_site_id
 _symmetry_equiv_pos_as_xyz
  1  'x, y, z'
loop_
 _atom_site_type_symbol
 _atom_site_label
 _atom_site_symmetry_multiplicity
 _atom_site_fract_x
 _atom_site_fract_y
 _atom_site_fract_z
 _atom_site_occupancy
  Ti  Ti0  1  0.09245108  0.35572900  0.24940096  1
  Ti  Ti1  1  0.43334884  0.73465474  0.05996484  1
  Ti  Ti2  1  0.56665116  0.26534526  0.55996484  1
  Ti  Ti3  1  0.90754892  0.64427100  0.74940096  1
  Ga  Ga4  1  0.07122908  0.28290478  0.56255380  1
  Ga  Ga5  1  0.06797240  0.27419062  0.93560989  1
  Ga  Ga6  1  0.40342719  0.62533318  0.75014529  1
  Ga  Ga7  1  0.43155357  0.72865252  0.43405230  1
  Ga  Ga8  1  0.56844643  0.27134748  0.93405230  1
  Ga  Ga9  1  0.59657281  0.37466682  0.25014529  1
  Ga  Ga10  1  0.92877092  0.71709522  0.06255380  1
  Ga  Ga11  1  0.93202760  0.72580938  0.43560989  1
  O  O12  1  0.02803824  0.09254062  0.11786914  1
  O  O13  1  0.02889169  0.09703945  0.38269837  1
  O  O14  1  0.11183495  0.48432595  0.74911862  1
  O  O15  1  0.15781886  0.61675780  0.07025459  1
  O  O16  1  0.15552507  0.61493912  0.43285343  1
  O  O17  1  0.34882389  0.38439250  0.58159608  1
  O  O18  1  0.34698253  0.38128877  0.92126456  1
  O  O19  1  0.37241428  0.51395126  0.24865796  1
  O  O20  1  0.47744560  0.91348351  0.61717564  1
  O  O21  1  0.47733328  0.89593733  0.88678452  1
  O  O22  1  0.52266672  0.10406267  0.38678452  1
  O  O23  1  0.52255440  0.08651649  0.11717564  1
  O  O24  1  0.62758572  0.48604874  0.74865796  1
  O  O25  1  0.65117611  0.61560750  0.08159608  1
  O  O26  1  0.65301747  0.61871123  0.42126456  1
  O  O27  1  0.84218114  0.38324220  0.57025459  1
  O  O28  1  0.84447493  0.38506088  0.93285343  1
  O  O29  1  0.88816505  0.51567405  0.24911862  1
  O  O30  1  0.97196176  0.90745938  0.61786914  1
  O  O31  1  0.97110831  0.90296055  0.88269837  1
