# generated using pymatgen
data_Ti3VCr2(PO4)6
_symmetry_space_group_name_H-M   'P 1'
_cell_length_a   8.72539671
_cell_length_b   8.64014258
_cell_length_c   8.64014231
_cell_angle_alpha   59.99999899
_cell_angle_beta   60.32269202
_cell_angle_gamma   60.32269159
_symmetry_Int_Tables_number   1
_chemical_formula_structural   Ti3VCr2(PO4)6
_chemical_formula_sum   'Ti3 V1 Cr2 P6 O24'
_cell_volume   462.82106725
_cell_formula_units_Z   1
loop_
 _symmetry_equiv_pos_site_id
 _symmetry_equiv_pos_as_xyz
  1  'x, y, z'
loop_
 _atom_site_type_symbol
 _atom_site_label
 _atom_site_symmetry_multiplicity
 _atom_site_fract_x
 _atom_site_fract_y
 _atom_site_fract_z
 _atom_site_occupancy
  Ti  Ti0  1  0.06528889  0.64490370  0.64490370  1
  Ti  Ti1  1  0.43565838  0.85478087  0.85478087  1
  Ti  Ti2  1  0.93792474  0.35402542  0.35402542  1
  V  V3  1  0.57057785  0.14314038  0.14314038  1
  Cr  Cr4  1  0.00004064  -0.00001321  -0.00001321  1
  Cr  Cr5  1  0.49909500  0.50030200  0.50030200  1
  P  P6  1  0.25031973  0.24921075  0.54266991  1
  P  P7  1  0.25031973  0.95779961  0.24921075  1
  P  P8  1  0.25031973  0.54266991  0.95779961  1
  P  P9  1  0.75167862  0.45711773  0.04136750  1
  P  P10  1  0.75167862  0.04136750  0.74983716  1
  P  P11  1  0.75167862  0.74983716  0.45711773  1
  O  O12  1  0.07242160  0.12293921  0.30483982  1
  O  O13  1  0.07242160  0.49980037  0.12293921  1
  O  O14  1  0.07242160  0.30483982  0.49980037  1
  O  O15  1  0.23725843  0.08393430  0.73707109  1
  O  O16  1  0.42667688  0.19698464  0.38639813  1
  O  O17  1  0.24951248  0.41754796  0.56625981  1
  O  O18  1  0.23725843  0.94173617  0.08393430  1
  O  O19  1  0.24951248  0.76667874  0.41754796  1
  O  O20  1  0.57432545  0.62177725  0.99857609  1
  O  O21  1  0.24951248  0.56625981  0.76667874  1
  O  O22  1  0.76633192  0.26650737  0.05505701  1
  O  O23  1  0.57432545  0.99857609  0.80532120  1
  O  O24  1  0.42667688  0.98994035  0.19698464  1
  O  O25  1  0.23725843  0.73707109  0.94173617  1
  O  O26  1  0.74301010  0.44339398  0.23205140  1
  O  O27  1  0.42667688  0.38639813  0.98994035  1
  O  O28  1  0.74301010  0.23205140  0.58154452  1
  O  O29  1  0.76633192  0.05505701  0.91210370  1
  O  O30  1  0.74301010  0.58154452  0.44339398  1
  O  O31  1  0.57432545  0.80532120  0.62177725  1
  O  O32  1  0.76633192  0.91210370  0.26650737  1
  O  O33  1  0.92560294  0.69162272  0.50466235  1
  O  O34  1  0.92560294  0.50466235  0.87811199  1
  O  O35  1  0.92560294  0.87811199  0.69162272  1
