# generated using pymatgen
data_V2OF5
_symmetry_space_group_name_H-M   'P 1'
_cell_length_a   8.58053093
_cell_length_b   8.52142151
_cell_length_c   4.62986005
_cell_angle_alpha   90.46067486
_cell_angle_beta   89.86373535
_cell_angle_gamma   60.50602105
_symmetry_Int_Tables_number   1
_chemical_formula_structural   V2OF5
_chemical_formula_sum   'V6 O3 F15'
_cell_volume   294.63960177
_cell_formula_units_Z   3
loop_
 _symmetry_equiv_pos_site_id
 _symmetry_equiv_pos_as_xyz
  1  'x, y, z'
loop_
 _atom_site_type_symbol
 _atom_site_label
 _atom_site_symmetry_multiplicity
 _atom_site_fract_x
 _atom_site_fract_y
 _atom_site_fract_z
 _atom_site_occupancy
  V  V0  1  0.00739211  0.33489429  0.99814550  1
  V  V1  1  0.32349214  0.01914932  0.52000286  1
  V  V2  1  0.35449599  0.65943901  0.98320182  1
  V  V3  1  0.66588059  0.33780847  0.50525569  1
  V  V4  1  0.67161566  0.99430700  0.99395925  1
  V  V5  1  0.99765422  0.68819469  0.51753538  1
  O  O6  1  0.21687496  0.20202872  0.73810511  1
  O  O7  1  0.53653142  0.55009147  0.76824830  1
  O  O8  1  0.88566237  0.87080548  0.73318119  1
  F  F9  1  0.11771087  0.11879017  0.24647095  1
  F  F10  1  0.08760196  0.46519849  0.25371226  1
  F  F11  1  0.44741326  0.09137384  0.24919957  1
  F  F12  1  0.12900371  0.75220483  0.24108670  1
  F  F13  1  0.21609467  0.57050573  0.75204588  1
  F  F14  1  0.57168352  0.20944428  0.74730231  1
  F  F15  1  0.23699043  0.87889278  0.74828043  1
  F  F16  1  0.45496599  0.44901470  0.25487192  1
  F  F17  1  0.41853532  0.79108700  0.26048833  1
  F  F18  1  0.76152453  0.11764639  0.24213143  1
  F  F19  1  0.54715799  0.90014746  0.74536768  1
  F  F20  1  0.87857620  0.24057194  0.75436368  1
  F  F21  1  0.78821124  0.42848787  0.25602377  1
  F  F22  1  0.78541220  0.78638914  0.24688672  1
  F  F23  1  0.90835468  0.54780995  0.74285130  1
