# generated using pymatgen
data_RbCd(NO2)3
_symmetry_space_group_name_H-M   'P 1'
_cell_length_a   5.50033665
_cell_length_b   5.50033665
_cell_length_c   5.50033665
_cell_angle_alpha   90.55586737
_cell_angle_beta   90.55586738
_cell_angle_gamma   90.55586732
_symmetry_Int_Tables_number   1
_chemical_formula_structural   RbCd(NO2)3
_chemical_formula_sum   'Rb1 Cd1 N3 O6'
_cell_volume   166.38190610
_cell_formula_units_Z   1
loop_
 _symmetry_equiv_pos_site_id
 _symmetry_equiv_pos_as_xyz
  1  'x, y, z'
loop_
 _atom_site_type_symbol
 _atom_site_label
 _atom_site_symmetry_multiplicity
 _atom_site_fract_x
 _atom_site_fract_y
 _atom_site_fract_z
 _atom_site_occupancy
  N  N0  1  0.06825931  0.46743343  0.02916739  1
  N  N1  1  0.46743343  0.02916739  0.06825931  1
  N  N2  1  0.02916739  0.06825931  0.46743343  1
  O  O3  1  0.58010396  0.22848713  0.06806629  1
  O  O4  1  0.06806629  0.58010396  0.22848713  1
  O  O5  1  0.83909999  0.06034779  0.59652269  1
  O  O6  1  0.59652269  0.83909999  0.06034779  1
  O  O7  1  0.06034779  0.59652269  0.83909999  1
  O  O8  1  0.22848713  0.06806629  0.58010396  1
  Rb  Rb9  1  0.54482995  0.54482995  0.54482995  1
  Cd  Cd10  1  0.01311539  0.01311539  0.01311539  1
