# generated using pymatgen
data_AgMoH4S4N
_symmetry_space_group_name_H-M   'P 1'
_cell_length_a   5.86936976
_cell_length_b   6.53708028
_cell_length_c   6.53708028
_cell_angle_alpha   78.37313280
_cell_angle_beta   63.32500988
_cell_angle_gamma   63.32500988
_symmetry_Int_Tables_number   1
_chemical_formula_structural   AgMoH4S4N
_chemical_formula_sum   'Ag1 Mo1 H4 S4 N1'
_cell_volume   200.26901942
_cell_formula_units_Z   1
loop_
 _symmetry_equiv_pos_site_id
 _symmetry_equiv_pos_as_xyz
  1  'x, y, z'
loop_
 _atom_site_type_symbol
 _atom_site_label
 _atom_site_symmetry_multiplicity
 _atom_site_fract_x
 _atom_site_fract_y
 _atom_site_fract_z
 _atom_site_occupancy
  Ag  Ag0  1  0.75000000  0.50000000  0.50000000  1
  Mo  Mo1  1  0.25000000  0.50000000  0.50000000  1
  H  H2  1  0.69833481  0.86894190  0.93451694  1
  H  H3  1  0.50179364  0.13105810  0.06548306  1
  H  H4  1  0.36714825  0.93451694  0.13105810  1
  H  H5  1  0.43272330  0.06548306  0.86894190  1
  S  S6  1  0.92908346  0.42103862  0.81038100  1
  S  S7  1  0.16050308  0.57896138  0.18961900  1
  S  S8  1  0.26053554  0.81038100  0.57896138  1
  S  S9  1  0.64987792  0.18961900  0.42103862  1
  N  N10  1  0.50000000  0.00000000  -0.00000000  1
