# generated using pymatgen
data_NaLi5Fe2P2(CO7)2
_symmetry_space_group_name_H-M   'P 1'
_cell_length_a   8.59036241
_cell_length_b   6.60702320
_cell_length_c   9.98231589
_cell_angle_alpha   90.38194614
_cell_angle_beta   87.74374745
_cell_angle_gamma   90.40980993
_symmetry_Int_Tables_number   1
_chemical_formula_structural   NaLi5Fe2P2(CO7)2
_chemical_formula_sum   'Na2 Li10 Fe4 P4 C4 O28'
_cell_volume   566.09827640
_cell_formula_units_Z   2
loop_
 _symmetry_equiv_pos_site_id
 _symmetry_equiv_pos_as_xyz
  1  'x, y, z'
loop_
 _atom_site_type_symbol
 _atom_site_label
 _atom_site_symmetry_multiplicity
 _atom_site_fract_x
 _atom_site_fract_y
 _atom_site_fract_z
 _atom_site_occupancy
  Na  Na0  1  0.08468544  0.25328833  0.87673114  1
  Na  Na1  1  0.25129151  0.99736150  0.12413232  1
  Li  Li2  1  0.08772253  0.26128625  0.37654014  1
  Li  Li3  1  0.26986001  0.01880119  0.61088867  1
  Li  Li4  1  0.27137599  0.47706710  0.61493540  1
  Li  Li5  1  0.27256527  0.48269808  0.11584403  1
  Li  Li6  1  0.72901271  0.52159678  0.88807083  1
  Li  Li7  1  0.72769509  0.97716528  0.88795551  1
  Li  Li8  1  0.73416660  0.51387747  0.38585232  1
  Li  Li9  1  0.73487253  0.98710187  0.38446432  1
  Li  Li10  1  0.90647606  0.74939382  0.62516458  1
  Li  Li11  1  0.90600597  0.73904202  0.12744733  1
  Fe  Fe12  1  0.35360347  0.74545449  0.88441649  1
  Fe  Fe13  1  0.34778489  0.74975353  0.39280587  1
  Fe  Fe14  1  0.65610585  0.25149577  0.61321283  1
  Fe  Fe15  1  0.64777007  0.25000508  0.11199648  1
  P  P16  1  0.41795465  0.24946416  0.84958712  1
  P  P17  1  0.41080652  0.25561699  0.35603562  1
  P  P18  1  0.59325850  0.75047744  0.64483625  1
  P  P19  1  0.59091556  0.74600099  0.14545948  1
  C  C20  1  0.04176153  0.74843786  0.86400319  1
  C  C21  1  0.04084184  0.74683324  0.36499592  1
  C  C22  1  0.96116911  0.24992780  0.62754197  1
  C  C23  1  0.94488524  0.25885741  0.14599389  1
  O  O24  1  0.10998352  0.24630104  0.64408371  1
  O  O25  1  0.09295821  0.27733454  0.16470391  1
  O  O26  1  0.08151964  0.75123308  0.98808766  1
  O  O27  1  0.08338086  0.74989948  0.48821412  1
  O  O28  1  0.15024147  0.74231637  0.76883730  1
  O  O29  1  0.14758496  0.74029525  0.26845970  1
  O  O30  1  0.32458778  0.05975713  0.89530783  1
  O  O31  1  0.32273693  0.43157367  0.90665807  1
  O  O32  1  0.31203865  0.06526761  0.39649328  1
  O  O33  1  0.31175811  0.43542217  0.41236578  1
  O  O34  1  0.42630760  0.25733085  0.69236736  1
  O  O35  1  0.42361342  0.74984626  0.59547018  1
  O  O36  1  0.42566755  0.26989144  0.19952718  1
  O  O37  1  0.42560009  0.73017420  0.08914130  1
  O  O38  1  0.58754913  0.25074985  0.89888333  1
  O  O39  1  0.58232890  0.75027644  0.80202085  1
  O  O40  1  0.57687031  0.25133227  0.41024921  1
  O  O41  1  0.57471288  0.75314514  0.30214985  1
  O  O42  1  0.69077927  0.56728261  0.59279085  1
  O  O43  1  0.68979858  0.93569666  0.59365491  1
  O  O44  1  0.69628205  0.56674301  0.09803365  1
  O  O45  1  0.68238060  0.93422784  0.09231527  1
  O  O46  1  0.86334358  0.25145041  0.73078897  1
  O  O47  1  0.84658764  0.24731508  0.24783915  1
  O  O48  1  0.90676125  0.25227598  0.50841089  1
  O  O49  1  0.89032222  0.25104703  0.02662727  1
  O  O50  1  0.89659749  0.75102588  0.83247322  1
  O  O51  1  0.89512134  0.74978630  0.33513650  1
