# generated using pymatgen
data_La2Ta2O9
_symmetry_space_group_name_H-M   'P 1'
_cell_length_a   3.92364310
_cell_length_b   6.79148433
_cell_length_c   8.11878649
_cell_angle_alpha   111.62220871
_cell_angle_beta   103.98334305
_cell_angle_gamma   90.00000008
_symmetry_Int_Tables_number   1
_chemical_formula_structural   La2Ta2O9
_chemical_formula_sum   'La2 Ta2 O9'
_cell_volume   194.20785197
_cell_formula_units_Z   1
loop_
 _symmetry_equiv_pos_site_id
 _symmetry_equiv_pos_as_xyz
  1  'x, y, z'
loop_
 _atom_site_type_symbol
 _atom_site_label
 _atom_site_symmetry_multiplicity
 _atom_site_fract_x
 _atom_site_fract_y
 _atom_site_fract_z
 _atom_site_occupancy
  La  La0  1  0.69507736  0.18647940  0.39015473  1
  La  La1  1  0.30492264  0.81352060  0.60984527  1
  Ta  Ta2  1  0.96188360  0.19603708  0.92376720  1
  Ta  Ta3  1  0.03811640  0.80396292  0.07623280  1
  O  O4  1  0.92070156  0.84504012  0.84140313  1
  O  O5  1  0.07929844  0.15495988  0.15859687  1
  O  O6  1  0.45330463  0.16314700  0.90660926  1
  O  O7  1  0.54669537  0.83685300  0.09339074  1
  O  O8  1  0.00000000  0.50000000  0.00000000  1
  O  O9  1  0.82577938  0.08079815  0.65155876  1
  O  O10  1  0.17422062  0.91920185  0.34844124  1
  O  O11  1  0.27838606  0.43644410  0.55677212  1
  O  O12  1  0.72161394  0.56355590  0.44322788  1
