# generated using pymatgen
data_Ti3VNi2(PO4)6
_symmetry_space_group_name_H-M   'P 1'
_cell_length_a   8.52010489
_cell_length_b   8.64302415
_cell_length_c   8.64302385
_cell_angle_alpha   60.00000104
_cell_angle_beta   59.52160212
_cell_angle_gamma   59.52160490
_symmetry_Int_Tables_number   1
_chemical_formula_structural   Ti3VNi2(PO4)6
_chemical_formula_sum   'Ti3 V1 Ni2 P6 O24'
_cell_volume   446.76884086
_cell_formula_units_Z   1
loop_
 _symmetry_equiv_pos_site_id
 _symmetry_equiv_pos_as_xyz
  1  'x, y, z'
loop_
 _atom_site_type_symbol
 _atom_site_label
 _atom_site_symmetry_multiplicity
 _atom_site_fract_x
 _atom_site_fract_y
 _atom_site_fract_z
 _atom_site_occupancy
  Ti  Ti0  1  0.06565271  0.64478210  0.64478210  1
  Ti  Ti1  1  0.43035672  0.85654776  0.85654776  1
  Ti  Ti2  1  0.93575072  0.35474943  0.35474943  1
  V  V3  1  0.57708126  0.14097325  0.14097325  1
  Ni  Ni4  1  0.99836436  0.00054555  0.00054555  1
  Ni  Ni5  1  0.49709828  0.50096724  0.50096724  1
  P  P6  1  0.25153001  0.24914834  0.54594560  1
  P  P7  1  0.25153001  0.95337705  0.24914834  1
  P  P8  1  0.25153001  0.54594560  0.95337705  1
  P  P9  1  0.75044763  0.45489436  0.04628065  1
  P  P10  1  0.75044763  0.04628065  0.74837735  1
  P  P11  1  0.75044763  0.74837735  0.45489436  1
  O  O12  1  0.06809674  0.11668075  0.31647031  1
  O  O13  1  0.06809674  0.49875320  0.11668075  1
  O  O14  1  0.06809674  0.31647031  0.49875320  1
  O  O15  1  0.22329728  0.09035198  0.74495286  1
  O  O16  1  0.43363330  0.18424339  0.39312045  1
  O  O17  1  0.26553011  0.41207456  0.56584332  1
  O  O18  1  0.22329728  0.94139788  0.09035198  1
  O  O19  1  0.26553011  0.75655201  0.41207456  1
  O  O20  1  0.56853082  0.61665398  0.99864753  1
  O  O21  1  0.26553011  0.56584332  0.75655201  1
  O  O22  1  0.78340082  0.25948901  0.05485573  1
  O  O23  1  0.56853082  0.99864753  0.81616768  1
  O  O24  1  0.43363330  0.98900287  0.18424339  1
  O  O25  1  0.22329728  0.74495286  0.94139788  1
  O  O26  1  0.72493210  0.44595245  0.24220771  1
  O  O27  1  0.43363330  0.39312045  0.98900287  1
  O  O28  1  0.72493210  0.24220771  0.58690774  1
  O  O29  1  0.78340082  0.05485573  0.90225443  1
  O  O30  1  0.72493210  0.58690774  0.44595245  1
  O  O31  1  0.56853082  0.81616768  0.61665398  1
  O  O32  1  0.78340082  0.90225443  0.25948901  1
  O  O33  1  0.92916752  0.67617546  0.50869470  1
  O  O34  1  0.92916752  0.50869470  0.88596232  1
  O  O35  1  0.92916752  0.88596232  0.67617546  1
