# generated using pymatgen
data_SmLuO3
_symmetry_space_group_name_H-M   'P 1'
_cell_length_a   5.95866096
_cell_length_b   8.29914201
_cell_length_c   5.69903573
_cell_angle_alpha   90.00000000
_cell_angle_beta   90.00000000
_cell_angle_gamma   90.00000000
_symmetry_Int_Tables_number   1
_chemical_formula_structural   SmLuO3
_chemical_formula_sum   'Sm4 Lu4 O12'
_cell_volume   281.82742407
_cell_formula_units_Z   4
loop_
 _symmetry_equiv_pos_site_id
 _symmetry_equiv_pos_as_xyz
  1  'x, y, z'
loop_
 _atom_site_type_symbol
 _atom_site_label
 _atom_site_symmetry_multiplicity
 _atom_site_fract_x
 _atom_site_fract_y
 _atom_site_fract_z
 _atom_site_occupancy
  Sm  Sm0  1  0.05489311  0.25000000  0.98537941  1
  Sm  Sm1  1  0.44510689  0.75000000  0.48537941  1
  Sm  Sm2  1  0.55489311  0.25000000  0.51462059  1
  Sm  Sm3  1  0.94510689  0.75000000  0.01462059  1
  Lu  Lu4  1  -0.00000000  -0.00000000  0.50000000  1
  Lu  Lu5  1  0.00000000  0.50000000  0.50000000  1
  Lu  Lu6  1  0.50000000  -0.00000000  -0.00000000  1
  Lu  Lu7  1  0.50000000  0.50000000  -0.00000000  1
  O  O8  1  0.06266221  0.75000000  0.63040401  1
  O  O9  1  0.18835678  0.56774806  0.18557080  1
  O  O10  1  0.18835678  0.93225194  0.18557080  1
  O  O11  1  0.31164322  0.43225194  0.68557080  1
  O  O12  1  0.31164322  0.06774806  0.68557080  1
  O  O13  1  0.43733779  0.25000000  0.13040401  1
  O  O14  1  0.56266221  0.75000000  0.86959599  1
  O  O15  1  0.68835678  0.93225194  0.31442920  1
  O  O16  1  0.68835678  0.56774806  0.31442920  1
  O  O17  1  0.81164322  0.06774806  0.81442920  1
  O  O18  1  0.81164322  0.43225194  0.81442920  1
  O  O19  1  0.93733779  0.25000000  0.36959599  1
