# generated using pymatgen
data_TiCu3(PO4)4
_symmetry_space_group_name_H-M   'P 1'
_cell_length_a   5.08742459
_cell_length_b   9.87345357
_cell_length_c   6.01836884
_cell_angle_alpha   90.00000000
_cell_angle_beta   90.00000000
_cell_angle_gamma   89.18236438
_symmetry_Int_Tables_number   1
_chemical_formula_structural   TiCu3(PO4)4
_chemical_formula_sum   'Ti1 Cu3 P4 O16'
_cell_volume   302.27459677
_cell_formula_units_Z   1
loop_
 _symmetry_equiv_pos_site_id
 _symmetry_equiv_pos_as_xyz
  1  'x, y, z'
loop_
 _atom_site_type_symbol
 _atom_site_label
 _atom_site_symmetry_multiplicity
 _atom_site_fract_x
 _atom_site_fract_y
 _atom_site_fract_z
 _atom_site_occupancy
  Ti  Ti0  1  0.95994842  0.28148460  0.25000000  1
  Cu  Cu1  1  0.12348486  0.69126157  0.75000000  1
  Cu  Cu2  1  0.38092001  0.20192387  0.75000000  1
  Cu  Cu3  1  0.62563167  0.80707905  0.25000000  1
  P  P4  1  0.07745145  0.60928938  0.25000000  1
  P  P5  1  0.40309850  0.10169851  0.25000000  1
  P  P6  1  0.56633711  0.89239608  0.75000000  1
  P  P7  1  0.93919701  0.39798537  0.75000000  1
  O  O8  1  0.12251807  0.45117932  0.25000000  1
  O  O9  1  0.22192025  0.67232292  0.04991556  1
  O  O10  1  0.22192025  0.67232292  0.45008444  1
  O  O11  1  0.24020125  0.37748735  0.75000000  1
  O  O12  1  0.26786745  0.86454441  0.75000000  1
  O  O13  1  0.23731671  0.17065302  0.05756523  1
  O  O14  1  0.23731671  0.17065302  0.44243477  1
  O  O15  1  0.37554951  0.94821412  0.25000000  1
  O  O16  1  0.59783755  0.04768295  0.75000000  1
  O  O17  1  0.71658923  0.82722912  0.55103013  1
  O  O18  1  0.71658923  0.82722912  0.94896987  1
  O  O19  1  0.69126706  0.14291598  0.25000000  1
  O  O20  1  0.77748705  0.63221190  0.25000000  1
  O  O21  1  0.80942455  0.33009894  0.54205503  1
  O  O22  1  0.80942455  0.33009894  0.95794497  1
  O  O23  1  0.88070256  0.55203956  0.75000000  1
