# generated using pymatgen
data_TlCrO3
_symmetry_space_group_name_H-M   'P 1'
_cell_length_a   5.41677112
_cell_length_b   5.52184289
_cell_length_c   7.81910253
_cell_angle_alpha   90.00000000
_cell_angle_beta   90.00000000
_cell_angle_gamma   90.00000000
_symmetry_Int_Tables_number   1
_chemical_formula_structural   TlCrO3
_chemical_formula_sum   'Tl4 Cr4 O12'
_cell_volume   233.87372830
_cell_formula_units_Z   4
loop_
 _symmetry_equiv_pos_site_id
 _symmetry_equiv_pos_as_xyz
  1  'x, y, z'
loop_
 _atom_site_type_symbol
 _atom_site_label
 _atom_site_symmetry_multiplicity
 _atom_site_fract_x
 _atom_site_fract_y
 _atom_site_fract_z
 _atom_site_occupancy
  Tl  Tl0  1  0.51441351  0.54603738  0.25000000  1
  Tl  Tl1  1  0.98558649  0.04603738  0.25000000  1
  Tl  Tl2  1  0.48558649  0.45396262  0.75000000  1
  Tl  Tl3  1  0.01441351  0.95396262  0.75000000  1
  Cr  Cr4  1  0.00000000  0.50000000  -0.00000000  1
  Cr  Cr5  1  0.50000000  0.00000000  0.50000000  1
  Cr  Cr6  1  -0.00000000  0.50000000  0.50000000  1
  Cr  Cr7  1  0.50000000  0.00000000  -0.00000000  1
  O  O8  1  0.39401621  0.94860256  0.25000000  1
  O  O9  1  0.10598379  0.44860256  0.25000000  1
  O  O10  1  0.60598379  0.05139744  0.75000000  1
  O  O11  1  0.89401621  0.55139744  0.75000000  1
  O  O12  1  0.80347876  0.80091017  0.05791942  1
  O  O13  1  0.69652124  0.30091017  0.44208058  1
  O  O14  1  0.19652124  0.19908983  0.55791942  1
  O  O15  1  0.30347876  0.69908983  0.94208058  1
  O  O16  1  0.19652124  0.19908983  0.94208058  1
  O  O17  1  0.30347876  0.69908983  0.55791942  1
  O  O18  1  0.80347876  0.80091017  0.44208058  1
  O  O19  1  0.69652124  0.30091017  0.05791942  1
