# generated using pymatgen
data_Dy5Si3C
_symmetry_space_group_name_H-M   'P 1'
_cell_length_a   6.38242995
_cell_length_b   8.46896964
_cell_length_c   8.46428973
_cell_angle_alpha   120.01828842
_cell_angle_beta   90.00000000
_cell_angle_gamma   90.00000000
_symmetry_Int_Tables_number   1
_chemical_formula_structural   Dy5Si3C
_chemical_formula_sum   'Dy10 Si6 C2'
_cell_volume   396.14823127
_cell_formula_units_Z   2
loop_
 _symmetry_equiv_pos_site_id
 _symmetry_equiv_pos_as_xyz
  1  'x, y, z'
loop_
 _atom_site_type_symbol
 _atom_site_label
 _atom_site_symmetry_multiplicity
 _atom_site_fract_x
 _atom_site_fract_y
 _atom_site_fract_z
 _atom_site_occupancy
  Dy  Dy0  1  0.49999919  0.33337915  0.66677661  1
  Dy  Dy1  1  0.49999919  0.66660254  0.33322339  1
  Dy  Dy2  1  0.99999919  0.66662085  0.33322339  1
  Dy  Dy3  1  0.99999919  0.33339746  0.66677661  1
  Dy  Dy4  1  0.74999431  0.22399739  1.00000000  1
  Dy  Dy5  1  0.75000299  0.77617098  0.77628382  1
  Dy  Dy6  1  0.75000299  -0.00011283  0.22371618  1
  Dy  Dy7  1  0.24999431  0.77600261  0.00000000  1
  Dy  Dy8  1  0.25000299  0.22382902  0.22371618  1
  Dy  Dy9  1  0.25000299  0.00011283  0.77628382  1
  Si  Si10  1  0.75001264  0.59283341  1.00000000  1
  Si  Si11  1  0.74999432  0.40721508  0.40719371  1
  Si  Si12  1  0.74999432  0.00002136  0.59280629  1
  Si  Si13  1  0.25001264  0.40716659  0.00000000  1
  Si  Si14  1  0.24999432  0.59278492  0.59280629  1
  Si  Si15  1  0.24999432  -0.00002136  0.40719371  1
  C  C16  1  0.50000004  0.99999328  0.00000000  1
  C  C17  1  0.00000004  0.00000672  -0.00000000  1
