# generated using pymatgen
data_Cr2FeO4
_symmetry_space_group_name_H-M   'P 1'
_cell_length_a   2.95140508
_cell_length_b   5.08711561
_cell_length_c   9.86023312
_cell_angle_alpha   90.00000000
_cell_angle_beta   90.00000000
_cell_angle_gamma   106.86311734
_symmetry_Int_Tables_number   1
_chemical_formula_structural   Cr2FeO4
_chemical_formula_sum   'Cr4 Fe2 O8'
_cell_volume   141.67714082
_cell_formula_units_Z   2
loop_
 _symmetry_equiv_pos_site_id
 _symmetry_equiv_pos_as_xyz
  1  'x, y, z'
loop_
 _atom_site_type_symbol
 _atom_site_label
 _atom_site_symmetry_multiplicity
 _atom_site_fract_x
 _atom_site_fract_y
 _atom_site_fract_z
 _atom_site_occupancy
  Cr  Cr0  1  0.36719812  0.73439624  0.42812794  1
  Cr  Cr1  1  0.63280188  0.26560376  0.57187206  1
  Cr  Cr2  1  0.36719812  0.73439624  0.07187206  1
  Cr  Cr3  1  0.63280188  0.26560376  0.92812794  1
  Fe  Fe4  1  0.11505489  0.23010978  0.25000000  1
  Fe  Fe5  1  0.88494511  0.76989022  0.75000000  1
  O  O6  1  0.00000000  0.00000000  0.50000000  1
  O  O7  1  0.00000000  0.00000000  0.00000000  1
  O  O8  1  0.46285232  0.92570464  0.25000000  1
  O  O9  1  0.53714768  0.07429536  0.75000000  1
  O  O10  1  0.26825359  0.53650717  0.88824106  1
  O  O11  1  0.73174641  0.46349283  0.11175894  1
  O  O12  1  0.26825359  0.53650717  0.61175894  1
  O  O13  1  0.73174641  0.46349283  0.38824106  1
