# generated using pymatgen
data_Fe4CoB2P
_symmetry_space_group_name_H-M   'P 1'
_cell_length_a   5.35166899
_cell_length_b   5.35166899
_cell_length_c   6.45714357
_cell_angle_alpha   114.48148083
_cell_angle_beta   114.48148083
_cell_angle_gamma   90.00000000
_symmetry_Int_Tables_number   1
_chemical_formula_structural   Fe4CoB2P
_chemical_formula_sum   'Fe8 Co2 B4 P2'
_cell_volume   149.84828038
_cell_formula_units_Z   2
loop_
 _symmetry_equiv_pos_site_id
 _symmetry_equiv_pos_as_xyz
  1  'x, y, z'
loop_
 _atom_site_type_symbol
 _atom_site_label
 _atom_site_symmetry_multiplicity
 _atom_site_fract_x
 _atom_site_fract_y
 _atom_site_fract_z
 _atom_site_occupancy
  Fe  Fe0  1  0.02851160  0.52851160  0.71933518  1
  Fe  Fe1  1  0.69082357  0.19082357  0.71933518  1
  Fe  Fe2  1  0.19082357  0.02851160  0.71933518  1
  Fe  Fe3  1  0.52851160  0.69082357  0.71933518  1
  Fe  Fe4  1  0.97148840  0.47148840  0.28066482  1
  Fe  Fe5  1  0.30917643  0.80917643  0.28066482  1
  Fe  Fe6  1  0.80917643  0.97148840  0.28066482  1
  Fe  Fe7  1  0.47148840  0.30917643  0.28066482  1
  Co  Co8  1  0.50000000  0.50000000  -0.00000000  1
  Co  Co9  1  0.00000000  -0.00000000  -0.00000000  1
  B  B10  1  0.37873798  0.87873798  -0.00000000  1
  B  B11  1  0.62126202  0.12126202  -0.00000000  1
  B  B12  1  0.12126202  0.37873798  -0.00000000  1
  B  B13  1  0.87873798  0.62126202  -0.00000000  1
  P  P14  1  0.25000000  0.25000000  0.50000000  1
  P  P15  1  0.75000000  0.75000000  0.50000000  1
