# generated using pymatgen
data_Pr(Mo3Se4)2
_symmetry_space_group_name_H-M   'P 1'
_cell_length_a   6.83889244
_cell_length_b   6.83889244
_cell_length_c   6.83889239
_cell_angle_alpha   88.92227600
_cell_angle_beta   88.92227600
_cell_angle_gamma   88.92227685
_symmetry_Int_Tables_number   1
_chemical_formula_structural   Pr(Mo3Se4)2
_chemical_formula_sum   'Pr1 Mo6 Se8'
_cell_volume   319.69042462
_cell_formula_units_Z   1
loop_
 _symmetry_equiv_pos_site_id
 _symmetry_equiv_pos_as_xyz
  1  'x, y, z'
loop_
 _atom_site_type_symbol
 _atom_site_label
 _atom_site_symmetry_multiplicity
 _atom_site_fract_x
 _atom_site_fract_y
 _atom_site_fract_z
 _atom_site_occupancy
  Pr  Pr0  1  -0.00000000  -0.00000000  -0.00000000  1
  Mo  Mo1  1  0.57759621  0.76260614  0.43878550  1
  Mo  Mo2  1  0.76260614  0.43878550  0.57759621  1
  Mo  Mo3  1  0.43878550  0.57759621  0.76260614  1
  Mo  Mo4  1  0.42240379  0.23739386  0.56121450  1
  Mo  Mo5  1  0.23739386  0.56121450  0.42240379  1
  Mo  Mo6  1  0.56121450  0.42240379  0.23739386  1
  Se  Se7  1  0.75860533  0.75860533  0.75860533  1
  Se  Se8  1  0.24139467  0.24139467  0.24139467  1
  Se  Se9  1  0.62206106  0.24788244  0.87852478  1
  Se  Se10  1  0.24788244  0.87852478  0.62206106  1
  Se  Se11  1  0.87852478  0.62206106  0.24788244  1
  Se  Se12  1  0.37793894  0.75211756  0.12147522  1
  Se  Se13  1  0.75211756  0.12147522  0.37793894  1
  Se  Se14  1  0.12147522  0.37793894  0.75211756  1
