# generated using pymatgen
data_Cu2Ag(SeO5)2
_symmetry_space_group_name_H-M   'P 1'
_cell_length_a   5.59570502
_cell_length_b   5.59570502
_cell_length_c   7.70486347
_cell_angle_alpha   99.72542293
_cell_angle_beta   105.74228046
_cell_angle_gamma   113.19278601
_symmetry_Int_Tables_number   1
_chemical_formula_structural   Cu2Ag(SeO5)2
_chemical_formula_sum   'Cu2 Ag1 Se2 O10'
_cell_volume   202.80493766
_cell_formula_units_Z   1
loop_
 _symmetry_equiv_pos_site_id
 _symmetry_equiv_pos_as_xyz
  1  'x, y, z'
loop_
 _atom_site_type_symbol
 _atom_site_label
 _atom_site_symmetry_multiplicity
 _atom_site_fract_x
 _atom_site_fract_y
 _atom_site_fract_z
 _atom_site_occupancy
  Cu  Cu0  1  -0.00000000  0.50000000  0.00000000  1
  Cu  Cu1  1  0.50000000  0.00000000  0.00000000  1
  Ag  Ag2  1  -0.00000000  0.50000000  0.50000000  1
  Se  Se3  1  0.78894335  0.91760152  0.70654486  1
  Se  Se4  1  0.21105665  0.08239848  0.29345514  1
  O  O5  1  0.00927643  0.82145013  0.83072656  1
  O  O6  1  0.99072357  0.17854987  0.16927344  1
  O  O7  1  0.69384960  0.78329649  0.47714609  1
  O  O8  1  0.30615040  0.21670351  0.52285391  1
  O  O9  1  0.48901281  0.81289865  0.75990865  1
  O  O10  1  0.94701000  0.27089584  0.75990865  1
  O  O11  1  0.51098719  0.18710135  0.24009135  1
  O  O12  1  0.05299000  0.72910416  0.24009135  1
  O  O13  1  0.62897175  0.32192351  0.95089526  1
  O  O14  1  0.37102825  0.67807649  0.04910474  1
