# generated using pymatgen
data_Nd(Mo3Se4)2
_symmetry_space_group_name_H-M   'P 1'
_cell_length_a   6.81665835
_cell_length_b   6.81665835
_cell_length_c   6.81665795
_cell_angle_alpha   88.97763145
_cell_angle_beta   88.97763145
_cell_angle_gamma   88.97763832
_symmetry_Int_Tables_number   1
_chemical_formula_structural   Nd(Mo3Se4)2
_chemical_formula_sum   'Nd1 Mo6 Se8'
_cell_volume   316.59899626
_cell_formula_units_Z   1
loop_
 _symmetry_equiv_pos_site_id
 _symmetry_equiv_pos_as_xyz
  1  'x, y, z'
loop_
 _atom_site_type_symbol
 _atom_site_label
 _atom_site_symmetry_multiplicity
 _atom_site_fract_x
 _atom_site_fract_y
 _atom_site_fract_z
 _atom_site_occupancy
  Nd  Nd0  1  -0.00000000  -0.00000000  0.00000000  1
  Mo  Mo1  1  0.57687259  0.76454791  0.43999631  1
  Mo  Mo2  1  0.76454791  0.43999631  0.57687259  1
  Mo  Mo3  1  0.43999631  0.57687259  0.76454791  1
  Mo  Mo4  1  0.42312741  0.23545209  0.56000369  1
  Mo  Mo5  1  0.23545209  0.56000369  0.42312741  1
  Mo  Mo6  1  0.56000369  0.42312741  0.23545209  1
  Se  Se7  1  0.75990180  0.75990180  0.75990180  1
  Se  Se8  1  0.24009820  0.24009820  0.24009820  1
  Se  Se9  1  0.62551919  0.24520775  0.87703474  1
  Se  Se10  1  0.24520775  0.87703474  0.62551919  1
  Se  Se11  1  0.87703474  0.62551919  0.24520775  1
  Se  Se12  1  0.37448081  0.75479225  0.12296526  1
  Se  Se13  1  0.75479225  0.12296526  0.37448081  1
  Se  Se14  1  0.12296526  0.37448081  0.75479225  1
