# generated using pymatgen
data_ZnCuH3ClO3
_symmetry_space_group_name_H-M   'P 1'
_cell_length_a   5.58513173
_cell_length_b   6.01593856
_cell_length_c   6.50156485
_cell_angle_alpha   90.00000000
_cell_angle_beta   90.00000000
_cell_angle_gamma   91.62049267
_symmetry_Int_Tables_number   1
_chemical_formula_structural   ZnCuH3ClO3
_chemical_formula_sum   'Zn2 Cu2 H6 Cl2 O6'
_cell_volume   218.36397289
_cell_formula_units_Z   2
loop_
 _symmetry_equiv_pos_site_id
 _symmetry_equiv_pos_as_xyz
  1  'x, y, z'
loop_
 _atom_site_type_symbol
 _atom_site_label
 _atom_site_symmetry_multiplicity
 _atom_site_fract_x
 _atom_site_fract_y
 _atom_site_fract_z
 _atom_site_occupancy
  Zn  Zn0  1  0.00747635  0.47433481  0.25000000  1
  Zn  Zn1  1  0.99252365  0.52566519  0.75000000  1
  Cu  Cu2  1  0.50000000  0.50000000  0.50000000  1
  Cu  Cu3  1  0.50000000  0.50000000  0.00000000  1
  H  H4  1  0.39179099  0.80170707  0.25000000  1
  H  H5  1  0.60820901  0.19829293  0.75000000  1
  H  H6  1  0.81056317  0.80492137  0.46318603  1
  H  H7  1  0.18943683  0.19507863  0.96318603  1
  H  H8  1  0.18943683  0.19507863  0.53681397  1
  H  H9  1  0.81056317  0.80492137  0.03681397  1
  Cl  Cl10  1  0.70892655  0.15610458  0.25000000  1
  Cl  Cl11  1  0.29107345  0.84389542  0.75000000  1
  O  O12  1  0.36396363  0.64049604  0.25000000  1
  O  O13  1  0.63603637  0.35950396  0.75000000  1
  O  O14  1  0.82023154  0.64427873  0.48344763  1
  O  O15  1  0.17976846  0.35572127  0.98344763  1
  O  O16  1  0.17976846  0.35572127  0.51655237  1
  O  O17  1  0.82023154  0.64427873  0.01655237  1
