# generated using pymatgen
data_Li(Mo3S4)2
_symmetry_space_group_name_H-M   'P 1'
_cell_length_a   6.52044745
_cell_length_b   6.52044745
_cell_length_c   6.52044755
_cell_angle_alpha   92.02070292
_cell_angle_beta   92.02070292
_cell_angle_gamma   92.02069034
_symmetry_Int_Tables_number   1
_chemical_formula_structural   Li(Mo3S4)2
_chemical_formula_sum   'Li1 Mo6 S8'
_cell_volume   276.69520755
_cell_formula_units_Z   1
loop_
 _symmetry_equiv_pos_site_id
 _symmetry_equiv_pos_as_xyz
  1  'x, y, z'
loop_
 _atom_site_type_symbol
 _atom_site_label
 _atom_site_symmetry_multiplicity
 _atom_site_fract_x
 _atom_site_fract_y
 _atom_site_fract_z
 _atom_site_occupancy
  Li  Li0  1  0.00000000  -0.00000000  0.00000000  1
  Mo  Mo1  1  0.59223892  0.78352749  0.44929936  1
  Mo  Mo2  1  0.78352749  0.44929936  0.59223892  1
  Mo  Mo3  1  0.44929936  0.59223892  0.78352749  1
  Mo  Mo4  1  0.40776108  0.21647251  0.55070064  1
  Mo  Mo5  1  0.21647251  0.55070064  0.40776108  1
  Mo  Mo6  1  0.55070064  0.40776108  0.21647251  1
  S  S7  1  0.77905267  0.77905267  0.77905267  1
  S  S8  1  0.22094733  0.22094733  0.22094733  1
  S  S9  1  0.61649891  0.26959829  0.86728003  1
  S  S10  1  0.26959829  0.86728003  0.61649891  1
  S  S11  1  0.86728003  0.61649891  0.26959829  1
  S  S12  1  0.38350109  0.73040171  0.13271997  1
  S  S13  1  0.73040171  0.13271997  0.38350109  1
  S  S14  1  0.13271997  0.38350109  0.73040171  1
