# generated using pymatgen
data_Ag(MoSe)3
_symmetry_space_group_name_H-M   'P 1'
_cell_length_a   4.53127839
_cell_length_b   8.42153090
_cell_length_c   8.42411224
_cell_angle_alpha   120.00971137
_cell_angle_beta   90.00000000
_cell_angle_gamma   90.00000000
_symmetry_Int_Tables_number   1
_chemical_formula_structural   Ag(MoSe)3
_chemical_formula_sum   'Ag2 Mo6 Se6'
_cell_volume   278.37104511
_cell_formula_units_Z   2
loop_
 _symmetry_equiv_pos_site_id
 _symmetry_equiv_pos_as_xyz
  1  'x, y, z'
loop_
 _atom_site_type_symbol
 _atom_site_label
 _atom_site_symmetry_multiplicity
 _atom_site_fract_x
 _atom_site_fract_y
 _atom_site_fract_z
 _atom_site_occupancy
  Ag  Ag0  1  0.75000000  0.33344074  0.66665994  1
  Ag  Ag1  1  0.25000000  0.66655926  0.33334006  1
  Mo  Mo2  1  0.75000000  0.05144127  0.84732254  1
  Mo  Mo3  1  0.75000000  0.15277700  0.20418479  1
  Mo  Mo4  1  0.75000000  0.79576218  0.94852581  1
  Mo  Mo5  1  0.25000000  0.94855873  0.15267746  1
  Mo  Mo6  1  0.25000000  0.84722300  0.79581521  1
  Mo  Mo7  1  0.25000000  0.20423782  0.05147419  1
  Se  Se8  1  0.75000000  0.69660527  0.60131992  1
  Se  Se9  1  0.75000000  0.39875085  0.09543416  1
  Se  Se10  1  0.75000000  0.90463892  0.30330160  1
  Se  Se11  1  0.25000000  0.30339473  0.39868008  1
  Se  Se12  1  0.25000000  0.60124915  0.90456584  1
  Se  Se13  1  0.25000000  0.09536108  0.69669840  1
