# generated using pymatgen
data_Pr5Ga3
_symmetry_space_group_name_H-M   'P 1'
_cell_length_a   5.81854453
_cell_length_b   9.27625389
_cell_length_c   9.27625389
_cell_angle_alpha   84.35519479
_cell_angle_beta   71.72212610
_cell_angle_gamma   71.72212610
_symmetry_Int_Tables_number   1
_chemical_formula_structural   Pr5Ga3
_chemical_formula_sum   'Pr10 Ga6'
_cell_volume   451.43189396
_cell_formula_units_Z   2
loop_
 _symmetry_equiv_pos_site_id
 _symmetry_equiv_pos_as_xyz
  1  'x, y, z'
loop_
 _atom_site_type_symbol
 _atom_site_label
 _atom_site_symmetry_multiplicity
 _atom_site_fract_x
 _atom_site_fract_y
 _atom_site_fract_z
 _atom_site_occupancy
  Pr  Pr0  1  0.72236502  0.86169558  0.69357438  1
  Pr  Pr1  1  0.27763498  0.13830442  0.30642562  1
  Pr  Pr2  1  0.77763498  0.30642562  0.13830442  1
  Pr  Pr3  1  0.22236502  0.69357438  0.86169558  1
  Pr  Pr4  1  0.58406060  0.69357438  0.13830442  1
  Pr  Pr5  1  0.41593940  0.30642562  0.86169558  1
  Pr  Pr6  1  0.08406060  0.13830442  0.69357438  1
  Pr  Pr7  1  0.91593940  0.86169558  0.30642562  1
  Pr  Pr8  1  0.75000000  0.50000000  0.50000000  1
  Pr  Pr9  1  0.25000000  0.50000000  0.50000000  1
  Ga  Ga10  1  0.16207468  0.50000000  0.17585063  1
  Ga  Ga11  1  0.83792532  0.50000000  0.82414937  1
  Ga  Ga12  1  0.33792532  0.82414937  0.50000000  1
  Ga  Ga13  1  0.66207468  0.17585063  0.50000000  1
  Ga  Ga14  1  0.25000000  -0.00000000  -0.00000000  1
  Ga  Ga15  1  0.75000000  -0.00000000  -0.00000000  1
