# generated using pymatgen
data_V(Mo3Se4)2
_symmetry_space_group_name_H-M   'P 1'
_cell_length_a   6.67155799
_cell_length_b   6.69432554
_cell_length_c   6.68445720
_cell_angle_alpha   91.63053594
_cell_angle_beta   90.82079181
_cell_angle_gamma   89.92392716
_symmetry_Int_Tables_number   1
_chemical_formula_structural   V(Mo3Se4)2
_chemical_formula_sum   'V1 Mo6 Se8'
_cell_volume   298.38679941
_cell_formula_units_Z   1
loop_
 _symmetry_equiv_pos_site_id
 _symmetry_equiv_pos_as_xyz
  1  'x, y, z'
loop_
 _atom_site_type_symbol
 _atom_site_label
 _atom_site_symmetry_multiplicity
 _atom_site_fract_x
 _atom_site_fract_y
 _atom_site_fract_z
 _atom_site_occupancy
  V  V0  1  -0.00000000  -0.00000000  0.00000000  1
  Mo  Mo1  1  0.57648408  0.77313581  0.45001210  1
  Mo  Mo2  1  0.42351592  0.22686419  0.54998790  1
  Mo  Mo3  1  0.44705471  0.57972934  0.77424361  1
  Mo  Mo4  1  0.55294529  0.42027066  0.22575639  1
  Mo  Mo5  1  0.77406820  0.44678837  0.57691972  1
  Mo  Mo6  1  0.22593180  0.55321163  0.42308028  1
  Se  Se7  1  0.24138618  0.87789097  0.64009815  1
  Se  Se8  1  0.75861382  0.12210903  0.35990185  1
  Se  Se9  1  0.77341497  0.77451563  0.77858617  1
  Se  Se10  1  0.22658503  0.22548437  0.22141383  1
  Se  Se11  1  0.87197652  0.63279932  0.24534587  1
  Se  Se12  1  0.12802348  0.36720068  0.75465413  1
  Se  Se13  1  0.64187783  0.24466282  0.87050807  1
  Se  Se14  1  0.35812217  0.75533718  0.12949193  1
