# generated using pymatgen
data_Ta9V17Se36
_symmetry_space_group_name_H-M   'P 1'
_cell_length_a   3.50017583
_cell_length_b   6.29691632
_cell_length_c   63.22120577
_cell_angle_alpha   115.28308918
_cell_angle_beta   104.52303964
_cell_angle_gamma   89.99992957
_symmetry_Int_Tables_number   1
_chemical_formula_structural   Ta9V17Se36
_chemical_formula_sum   'Ta9 V17 Se36'
_cell_volume   1210.51484820
_cell_formula_units_Z   1
loop_
 _symmetry_equiv_pos_site_id
 _symmetry_equiv_pos_as_xyz
  1  'x, y, z'
loop_
 _atom_site_type_symbol
 _atom_site_label
 _atom_site_symmetry_multiplicity
 _atom_site_fract_x
 _atom_site_fract_y
 _atom_site_fract_z
 _atom_site_occupancy
  Ta  Ta0  1  0.74706863  0.71254732  0.94475096  1
  Ta  Ta1  1  0.74437351  0.68698345  0.83223301  1
  Ta  Ta2  1  0.74501809  0.68780851  0.72129198  1
  Ta  Ta3  1  0.25828410  0.31679393  0.50155070  1
  Ta  Ta4  1  0.74659725  0.68896602  0.61052485  1
  Ta  Ta5  1  0.25722524  0.31782204  0.38958450  1
  Ta  Ta6  1  0.74183012  0.67977393  0.49928529  1
  Ta  Ta7  1  0.74033163  0.68044265  0.38732282  1
  Ta  Ta8  1  0.74407789  0.68980768  0.27589359  1
  V  V9  1  0.99800088  0.00140835  0.88874171  1
  V  V10  1  0.25034717  0.28815201  0.94426992  1
  V  V11  1  0.00032959  0.99498079  0.77813532  1
  V  V12  1  0.25451010  0.31972566  0.83411990  1
  V  V13  1  0.00168874  0.99644214  0.66727034  1
  V  V14  1  0.25559355  0.32074370  0.72321031  1
  V  V15  1  0.00292357  0.99984560  0.55675831  1
  V  V16  1  0.25710700  0.32147655  0.61254704  1
  V  V17  1  0.99922109  0.99864097  0.44439996  1
  V  V18  1  0.99820907  0.99572784  0.33237104  1
  V  V19  1  0.99758972  0.99429390  0.22111737  1
  V  V20  1  0.25521530  0.32310575  0.27782446  1
  V  V21  1  0.00483694  0.00357655  0.11213893  1
  V  V22  1  0.25301161  0.30756490  0.16714749  1
  V  V23  1  0.25588047  0.28282421  0.05671492  1
  V  V24  1  0.74593171  0.68961706  0.16560361  1
  V  V25  1  0.74837091  0.70578516  0.05520596  1
  Se  Se26  1  0.10302194  0.44890319  0.91326921  1
  Se  Se27  1  0.35529909  0.03647885  0.96899499  1
  Se  Se28  1  0.10099097  0.44176850  0.80063014  1
  Se  Se29  1  0.36069758  0.02938214  0.85795913  1
  Se  Se30  1  0.10166085  0.44295241  0.68968682  1
  Se  Se31  1  0.62613639  0.97063359  0.91724614  1
  Se  Se32  1  0.36239511  0.02749291  0.74724239  1
  Se  Se33  1  0.88526289  0.54044995  0.97431105  1
  Se  Se34  1  0.10362311  0.44388108  0.57904786  1
  Se  Se35  1  0.63753109  0.98184121  0.80857205  1
  Se  Se36  1  0.36368494  0.02847370  0.63636874  1
  Se  Se37  1  0.89522559  0.54319359  0.86515343  1
  Se  Se38  1  0.09348608  0.44656494  0.46673113  1
  Se  Se39  1  0.63876736  0.98374545  0.69772117  1
  Se  Se40  1  0.36225369  0.02183604  0.52551532  1
  Se  Se41  1  0.89557784  0.54332871  0.75414889  1
  Se  Se42  1  0.09179430  0.44692803  0.35473577  1
  Se  Se43  1  0.64146500  0.98718049  0.58726391  1
  Se  Se44  1  0.36143308  0.02405591  0.41370502  1
  Se  Se45  1  0.89690275  0.54501150  0.64338895  1
  Se  Se46  1  0.10031646  0.44467278  0.24419992  1
  Se  Se47  1  0.63737034  0.97374383  0.47511896  1
  Se  Se48  1  0.36235908  0.03060859  0.30205287  1
  Se  Se49  1  0.90694647  0.54997106  0.53417076  1
  Se  Se50  1  0.11185970  0.45274553  0.13608381  1
  Se  Se51  1  0.63587230  0.97301705  0.36315079  1
  Se  Se52  1  0.35898366  0.01506005  0.19051632  1
  Se  Se53  1  0.90572037  0.55094866  0.42214513  1
  Se  Se54  1  0.12151134  0.45001709  0.02719846  1
  Se  Se55  1  0.63904542  0.98700362  0.25249268  1
  Se  Se56  1  0.37336214  0.02912979  0.08287667  1
  Se  Se57  1  0.89502515  0.54586247  0.30874569  1
  Se  Se58  1  0.64156075  0.98049977  0.14254044  1
  Se  Se59  1  0.88728815  0.54611589  0.19679005  1
  Se  Se60  1  0.65307007  0.97977835  0.03401710  1
  Se  Se61  1  0.88892510  0.55186664  0.08619395  1
