# generated using pymatgen
data_Na4Al3Si3ClO16
_symmetry_space_group_name_H-M   'P 1'
_cell_length_a   9.19773322
_cell_length_b   9.19562629
_cell_length_c   9.18614142
_cell_angle_alpha   89.93116003
_cell_angle_beta   90.01347759
_cell_angle_gamma   89.85947734
_symmetry_Int_Tables_number   1
_chemical_formula_structural   Na4Al3Si3ClO16
_chemical_formula_sum   'Na8 Al6 Si6 Cl2 O32'
_cell_volume   776.95097630
_cell_formula_units_Z   2
loop_
 _symmetry_equiv_pos_site_id
 _symmetry_equiv_pos_as_xyz
  1  'x, y, z'
loop_
 _atom_site_type_symbol
 _atom_site_label
 _atom_site_symmetry_multiplicity
 _atom_site_fract_x
 _atom_site_fract_y
 _atom_site_fract_z
 _atom_site_occupancy
  Na  Na0  1  0.21346439  0.77907448  0.78494736  1
  Na  Na1  1  0.21790638  0.22080731  0.21881583  1
  Na  Na2  1  0.28288998  0.28817174  0.71866968  1
  Na  Na3  1  0.28524939  0.71686855  0.28605889  1
  Na  Na4  1  0.72761849  0.27162646  0.27427803  1
  Na  Na5  1  0.72052956  0.72147262  0.71950746  1
  Na  Na6  1  0.79058609  0.21252541  0.79076647  1
  Na  Na7  1  0.78510927  0.78495177  0.21757472  1
  Al  Al8  1  0.99872722  0.24980781  0.49984811  1
  Al  Al9  1  0.25159426  0.50043757  0.00026612  1
  Al  Al10  1  0.49936165  0.99976243  0.75057745  1
  Al  Al11  1  0.49912135  0.00016188  0.25081017  1
  Al  Al12  1  0.75062152  0.50065042  0.00143995  1
  Al  Al13  1  0.00038522  0.75063281  0.50142667  1
  Si  Si14  1  0.00081785  0.50067200  0.25046227  1
  Si  Si15  1  0.00142773  0.50046706  0.75181237  1
  Si  Si16  1  0.24946651  0.00048333  0.50005031  1
  Si  Si17  1  0.49982532  0.75027054  0.00135427  1
  Si  Si18  1  0.50208677  0.25025578  0.00017976  1
  Si  Si19  1  0.74888607  0.00017378  0.50180498  1
  Cl  Cl20  1  0.98287533  0.98273814  0.00745963  1
  Cl  Cl21  1  0.52886236  0.52017144  0.51297515  1
  O  O22  1  0.04291033  0.64218960  0.34966087  1
  O  O23  1  0.03945269  0.35729456  0.65200948  1
  O  O24  1  0.14572032  0.45920168  0.15413303  1
  O  O25  1  0.14848503  0.53932641  0.84441882  1
  O  O26  1  0.15221556  0.14395247  0.45804087  1
  O  O27  1  0.15396328  0.85649393  0.54268528  1
  O  O28  1  0.34655071  0.04264541  0.64311167  1
  O  O29  1  0.34248258  0.96041165  0.35302260  1
  O  O30  1  0.36063504  0.34975525  0.95979828  1
  O  O31  1  0.35743588  0.65281030  0.04426439  1
  O  O32  1  0.38326651  0.46270188  0.54157235  1
  O  O33  1  0.45756138  0.15353228  0.14378869  1
  O  O34  1  0.45526356  0.84678614  0.85739005  1
  O  O35  1  0.54075142  0.15236716  0.85668938  1
  O  O36  1  0.54060444  0.84721094  0.14471288  1
  O  O37  1  0.52062128  0.67888415  0.50017864  1
  O  O38  1  0.58379621  0.46023746  0.37682734  1
  O  O39  1  0.62665581  0.48240540  0.63338039  1
  O  O40  1  0.64753182  0.34425282  0.03986433  1
  O  O41  1  0.64453451  0.65467467  0.96049308  1
  O  O42  1  0.64891681  0.04158974  0.36022584  1
  O  O43  1  0.65330545  0.96024867  0.64597210  1
  O  O44  1  0.84578665  0.14411967  0.54008099  1
  O  O45  1  0.84668099  0.85647303  0.46047204  1
  O  O46  1  0.85730289  0.54245087  0.15449009  1
  O  O47  1  0.86034913  0.46157569  0.85092064  1
  O  O48  1  0.88548191  0.02097545  0.13197772  1
  O  O49  1  0.89567743  0.96869509  0.87211026  1
  O  O50  1  0.96201123  0.35419639  0.34419095  1
  O  O51  1  0.96214605  0.64571991  0.65611520  1
  O  O52  1  0.05633311  0.20660808  0.92420197  1
  O  O53  1  0.05065728  0.83732995  0.03891414  1
