# generated using pymatgen
data_Li2CoO3
_symmetry_space_group_name_H-M   'P 1'
_cell_length_a   2.96341863
_cell_length_b   7.50110963
_cell_length_c   5.12910190
_cell_angle_alpha   105.33115704
_cell_angle_beta   73.20891183
_cell_angle_gamma   101.39266952
_symmetry_Int_Tables_number   1
_chemical_formula_structural   Li2CoO3
_chemical_formula_sum   'Li4 Co2 O6'
_cell_volume   104.35882270
_cell_formula_units_Z   2
loop_
 _symmetry_equiv_pos_site_id
 _symmetry_equiv_pos_as_xyz
  1  'x, y, z'
loop_
 _atom_site_type_symbol
 _atom_site_label
 _atom_site_symmetry_multiplicity
 _atom_site_fract_x
 _atom_site_fract_y
 _atom_site_fract_z
 _atom_site_occupancy
  Li  Li0  1  0.33333300  0.16666700  0.50000000  1
  Li  Li1  1  0.99412694  0.50195009  0.51369621  1
  Li  Li2  1  0.67254006  0.83138291  0.48630379  1
  Li  Li3  1  0.33333300  0.66666700  -0.00000000  1
  Co  Co4  1  -0.00665147  0.98867526  0.00197819  1
  Co  Co5  1  0.67331847  0.34465774  -0.00197819  1
  O  O6  1  0.00842570  0.23495958  0.21810918  1
  O  O7  1  0.65835630  0.55667110  0.23995750  1
  O  O8  1  0.34656307  0.92356367  0.23043753  1
  O  O9  1  0.65824130  0.09837342  0.78189082  1
  O  O10  1  0.32010393  0.40976933  0.76956247  1
  O  O11  1  0.00830970  0.77666290  0.76004250  1
