# generated using pymatgen
data_Sr2La2MgRuO8
_symmetry_space_group_name_H-M   'P 1'
_cell_length_a   3.93023880
_cell_length_b   15.81400280
_cell_length_c   6.93021751
_cell_angle_alpha   106.65814042
_cell_angle_beta   106.45102803
_cell_angle_gamma   89.80115732
_symmetry_Int_Tables_number   1
_chemical_formula_structural   Sr2La2MgRuO8
_chemical_formula_sum   'Sr4 La4 Mg2 Ru2 O16'
_cell_volume   394.34428931
_cell_formula_units_Z   2
loop_
 _symmetry_equiv_pos_site_id
 _symmetry_equiv_pos_as_xyz
  1  'x, y, z'
loop_
 _atom_site_type_symbol
 _atom_site_label
 _atom_site_symmetry_multiplicity
 _atom_site_fract_x
 _atom_site_fract_y
 _atom_site_fract_z
 _atom_site_occupancy
  Sr  Sr0  1  0.35108321  0.08812608  0.70570974  1
  Sr  Sr1  1  0.35065379  0.34135319  0.71348084  1
  Sr  Sr2  1  0.64891679  0.16187392  0.29429026  1
  Sr  Sr3  1  0.64934621  0.90864681  0.28651916  1
  La  La4  1  0.34800419  0.58703423  0.72807099  1
  La  La5  1  0.35217232  0.83209218  0.71756453  1
  La  La6  1  0.64782768  0.41790782  0.28243547  1
  La  La7  1  0.65199581  0.66296577  0.27192901  1
  Mg  Mg8  1  0.00191814  0.75024599  0.00243247  1
  Mg  Mg9  1  0.99808186  0.49975401  0.99756753  1
  Ru  Ru10  1  -0.00008103  0.00039820  0.99807381  1
  Ru  Ru11  1  0.00008103  0.24960180  0.00192619  1
  O  O12  1  -0.00000000  0.12500000  -0.00000000  1
  O  O13  1  0.00586692  0.37492990  0.01026236  1
  O  O14  1  -0.00000000  0.62500000  -0.00000000  1
  O  O15  1  0.99413308  0.87507010  0.98973764  1
  O  O16  1  0.15990035  0.03904500  0.32565624  1
  O  O17  1  0.15698290  0.29486623  0.33056604  1
  O  O18  1  0.16229060  0.53905868  0.36006881  1
  O  O19  1  0.16538370  0.78549239  0.35224174  1
  O  O20  1  0.49834047  0.99838517  0.99456188  1
  O  O21  1  0.50165953  0.25161483  0.00543812  1
  O  O22  1  0.50490911  0.50149963  0.01154671  1
  O  O23  1  0.49509089  0.74850037  0.98845329  1
  O  O24  1  0.84009965  0.21095500  0.67434376  1
  O  O25  1  0.83461630  0.46450761  0.64775826  1
  O  O26  1  0.83770940  0.71094132  0.63993119  1
  O  O27  1  0.84301710  0.95513377  0.66943396  1
