# generated using pymatgen
data_Li3Co2O5
_symmetry_space_group_name_H-M   'P 1'
_cell_length_a   5.02675651
_cell_length_b   6.53508343
_cell_length_c   5.81428182
_cell_angle_alpha   76.40663401
_cell_angle_beta   72.67302472
_cell_angle_gamma   97.58286850
_symmetry_Int_Tables_number   1
_chemical_formula_structural   Li3Co2O5
_chemical_formula_sum   'Li6 Co4 O10'
_cell_volume   172.97694060
_cell_formula_units_Z   2
loop_
 _symmetry_equiv_pos_site_id
 _symmetry_equiv_pos_as_xyz
  1  'x, y, z'
loop_
 _atom_site_type_symbol
 _atom_site_label
 _atom_site_symmetry_multiplicity
 _atom_site_fract_x
 _atom_site_fract_y
 _atom_site_fract_z
 _atom_site_occupancy
  Li  Li0  1  0.60000000  0.20000000  0.30000000  1
  Li  Li1  1  0.20763329  0.39409763  0.09809248  1
  Li  Li2  1  0.99236671  0.00590237  0.50190752  1
  Li  Li3  1  0.39956747  0.80256735  0.70218958  1
  Li  Li4  1  0.80043253  0.59743265  0.89781042  1
  Li  Li5  1  0.60000000  0.20000000  0.80000000  1
  Co  Co6  1  0.00594535  0.00515943  0.99530242  1
  Co  Co7  1  0.19405465  0.39484057  0.60469758  1
  Co  Co8  1  0.79656926  0.59431811  0.40795371  1
  Co  Co9  1  0.40343074  0.80568189  0.19204629  1
  O  O10  1  0.93096844  0.29218838  0.92870258  1
  O  O11  1  0.49027863  0.49987254  0.72502514  1
  O  O12  1  0.27469851  0.08083075  0.14266134  1
  O  O13  1  0.71796933  0.90441340  0.32422837  1
  O  O14  1  0.11086673  0.67978510  0.54364707  1
  O  O15  1  0.26903156  0.10781162  0.67129742  1
  O  O16  1  0.92530149  0.31916925  0.45733866  1
  O  O17  1  0.70972137  0.90012746  0.87497486  1
  O  O18  1  0.08913327  0.72021490  0.05635293  1
  O  O19  1  0.48203067  0.49558660  0.27577163  1
