# generated using pymatgen
data_SrLaGaCuO5
_symmetry_space_group_name_H-M   'P 1'
_cell_length_a   5.37563246
_cell_length_b   5.64861302
_cell_length_c   9.18496571
_cell_angle_alpha   107.81193336
_cell_angle_beta   107.29526175
_cell_angle_gamma   90.10990754
_symmetry_Int_Tables_number   1
_chemical_formula_structural   SrLaGaCuO5
_chemical_formula_sum   'Sr2 La2 Ga2 Cu2 O10'
_cell_volume   252.19920654
_cell_formula_units_Z   2
loop_
 _symmetry_equiv_pos_site_id
 _symmetry_equiv_pos_as_xyz
  1  'x, y, z'
loop_
 _atom_site_type_symbol
 _atom_site_label
 _atom_site_symmetry_multiplicity
 _atom_site_fract_x
 _atom_site_fract_y
 _atom_site_fract_z
 _atom_site_occupancy
  Sr  Sr0  1  0.34476313  0.37016327  0.77670795  1
  Sr  Sr1  1  0.84593092  0.90598295  0.77667801  1
  La  La2  1  0.06663847  0.08358367  0.20861256  1
  La  La3  1  0.56516205  0.62529051  0.20805167  1
  Ga  Ga4  1  0.24041201  0.68664734  0.50028358  1
  Ga  Ga5  1  0.73967651  0.31363453  0.50017096  1
  Cu  Cu6  1  0.45326035  0.99845726  0.99237459  1
  Cu  Cu7  1  0.95217419  0.49382790  0.99222138  1
  O  O8  1  0.21087798  0.74254458  0.99818302  1
  O  O9  1  0.08301431  0.37049221  0.48497029  1
  O  O10  1  0.06627695  0.73417205  0.30773844  1
  O  O11  1  0.28340443  0.90326650  0.70113613  1
  O  O12  1  0.21930998  0.26400268  0.02841305  1
  O  O13  1  0.71124088  0.75573864  0.99906223  1
  O  O14  1  0.58341707  0.61419174  0.48468710  1
  O  O15  1  0.56459096  0.07396943  0.30708582  1
  O  O16  1  0.78040824  0.29651561  0.70083858  1
  O  O17  1  0.72144158  0.26751913  0.03278465  1
