# generated using pymatgen
data_Na6GaAs3
_symmetry_space_group_name_H-M   'P 1'
_cell_length_a   8.40470977
_cell_length_b   8.35064785
_cell_length_c   16.36882597
_cell_angle_alpha   94.11996073
_cell_angle_beta   95.85539171
_cell_angle_gamma   119.60527079
_symmetry_Int_Tables_number   1
_chemical_formula_structural   Na6GaAs3
_chemical_formula_sum   'Na24 Ga4 As12'
_cell_volume   983.67417146
_cell_formula_units_Z   4
loop_
 _symmetry_equiv_pos_site_id
 _symmetry_equiv_pos_as_xyz
  1  'x, y, z'
loop_
 _atom_site_type_symbol
 _atom_site_label
 _atom_site_symmetry_multiplicity
 _atom_site_fract_x
 _atom_site_fract_y
 _atom_site_fract_z
 _atom_site_occupancy
  Na  Na0  1  0.02102507  0.83851668  0.07096187  1
  Na  Na1  1  0.14079935  0.96934710  0.41983430  1
  Na  Na2  1  0.07875982  0.56582020  0.18848601  1
  Na  Na3  1  0.04195713  0.23387920  0.30103120  1
  Na  Na4  1  0.36093381  0.85466511  0.53080622  1
  Na  Na5  1  0.21167141  0.44592830  0.68917293  1
  Na  Na6  1  0.43930573  0.94753130  0.30184107  1
  Na  Na7  1  0.20019256  0.35849556  0.50048651  1
  Na  Na8  1  0.31042026  0.50859044  0.06246024  1
  Na  Na9  1  0.28907784  0.15734965  0.80046690  1
  Na  Na10  1  0.64514965  0.84230347  0.00171721  1
  Na  Na11  1  0.62779964  0.74538483  0.79638678  1
  Na  Na12  1  0.37542532  0.25148596  0.20258239  1
  Na  Na13  1  0.35452281  0.15826919  0.99758946  1
  Na  Na14  1  0.70621523  0.84587193  0.19751301  1
  Na  Na15  1  0.68799149  0.49199106  0.93686017  1
  Na  Na16  1  0.81623282  0.65553473  0.50483894  1
  Na  Na17  1  0.55823083  0.05382990  0.70704700  1
  Na  Na18  1  0.78753301  0.57247344  0.30561136  1
  Na  Na19  1  0.97151225  0.76100771  0.69483171  1
  Na  Na20  1  0.78939342  0.27905063  0.44046687  1
  Na  Na21  1  0.92156446  0.43388674  0.81248770  1
  Na  Na22  1  0.84791228  0.03168002  0.57768942  1
  Na  Na23  1  0.97884126  0.16078886  0.92829016  1
  Ga  Ga24  1  0.29548086  0.79871162  0.90881578  1
  Ga  Ga25  1  0.47017847  0.63394112  0.40444606  1
  Ga  Ga26  1  0.52923371  0.35413562  0.59195932  1
  Ga  Ga27  1  0.70381227  0.20126148  0.09208665  1
  As  As28  1  0.00660801  0.82021869  0.87902070  1
  As  As29  1  0.15422189  0.61279023  0.37298467  1
  As  As30  1  0.39611930  0.89744992  0.10480566  1
  As  As31  1  0.30768163  0.50291022  0.87930711  1
  As  As32  1  0.22850799  0.08198048  0.61473487  1
  As  As33  1  0.54244427  0.67151712  0.60245182  1
  As  As34  1  0.46493573  0.32339823  0.40005396  1
  As  As35  1  0.76524921  0.91557230  0.38210191  1
  As  As36  1  0.69236182  0.49826930  0.11985051  1
  As  As37  1  0.60381552  0.10371642  0.89744245  1
  As  As38  1  0.83614696  0.37337870  0.62611960  1
  As  As39  1  0.99383488  0.17976650  0.11943954  1
