# generated using pymatgen
data_Sr16Fe16O43
_symmetry_space_group_name_H-M   'P 1'
_cell_length_a   5.58942377
_cell_length_b   5.58820106
_cell_length_c   44.32113959
_cell_angle_alpha   60.21790429
_cell_angle_beta   59.82584200
_cell_angle_gamma   59.77712764
_symmetry_Int_Tables_number   1
_chemical_formula_structural   Sr16Fe16O43
_chemical_formula_sum   'Sr16 Fe16 O43'
_cell_volume   977.53185326
_cell_formula_units_Z   1
loop_
 _symmetry_equiv_pos_site_id
 _symmetry_equiv_pos_as_xyz
  1  'x, y, z'
loop_
 _atom_site_type_symbol
 _atom_site_label
 _atom_site_symmetry_multiplicity
 _atom_site_fract_x
 _atom_site_fract_y
 _atom_site_fract_z
 _atom_site_occupancy
  Sr  Sr0  1  0.25011641  0.25053164  0.03123654  1
  Sr  Sr1  1  0.24925117  0.25132575  0.15422456  1
  Sr  Sr2  1  0.73482241  0.74862882  0.09569440  1
  Sr  Sr3  1  0.25074883  0.24867425  0.28327544  1
  Sr  Sr4  1  0.75000000  0.75000000  0.21875000  1
  Sr  Sr5  1  0.24988359  0.24946836  0.40626346  1
  Sr  Sr6  1  0.76517759  0.75137118  0.34180560  1
  Sr  Sr7  1  0.24893309  0.24944005  0.52951310  1
  Sr  Sr8  1  0.73459288  0.74786884  0.47077308  1
  Sr  Sr9  1  0.24168036  0.24035597  0.66030625  1
  Sr  Sr10  1  0.74983073  0.74654877  0.59431583  1
  Sr  Sr11  1  0.25831964  0.25964403  0.77719375  1
  Sr  Sr12  1  0.75000000  0.75000000  0.71875000  1
  Sr  Sr13  1  0.25106691  0.25055995  0.90798690  1
  Sr  Sr14  1  0.75016927  0.75345123  0.84318417  1
  Sr  Sr15  1  0.76540712  0.75213116  0.96672692  1
  Fe  Fe16  1  0.97801995  0.01907467  0.99752163  1
  Fe  Fe17  1  -0.00035721  0.00082547  0.12489552  1
  Fe  Fe18  1  0.52207526  0.48191299  0.06492696  1
  Fe  Fe19  1  0.97540712  0.98090231  0.25256061  1
  Fe  Fe20  1  0.52459288  0.51909769  0.18493939  1
  Fe  Fe21  1  0.97792474  0.01808701  0.37257304  1
  Fe  Fe22  1  0.50035721  0.49917453  0.31260448  1
  Fe  Fe23  1  0.00055379  0.00010667  0.49996166  1
  Fe  Fe24  1  0.52198005  0.48092533  0.43997837  1
  Fe  Fe25  1  0.98001571  0.98014059  0.62745428  1
  Fe  Fe26  1  0.52427262  0.51830018  0.56024397  1
  Fe  Fe27  1  0.99756539  0.99976601  0.75030102  1
  Fe  Fe28  1  0.50243461  0.50023399  0.68719898  1
  Fe  Fe29  1  0.97572738  0.98169982  0.87725603  1
  Fe  Fe30  1  0.51998429  0.51985941  0.81004572  1
  Fe  Fe31  1  0.49944621  0.49989333  0.93753834  1
  O  O32  1  0.23630061  0.26876655  0.09300943  1
  O  O33  1  0.22881958  0.78112129  0.08697942  1
  O  O34  1  0.74962991  0.25181116  0.03104755  1
  O  O35  1  0.75086114  0.75006328  0.03144005  1
  O  O36  1  0.24977903  0.73202564  0.15688482  1
  O  O37  1  0.73577427  0.26224423  0.09690815  1
  O  O38  1  0.25000000  0.75000000  0.21875000  1
  O  O39  1  0.70545294  0.21908428  0.16298853  1
  O  O40  1  0.77495123  0.73585296  0.15319437  1
  O  O41  1  0.25022097  0.76797436  0.28061518  1
  O  O42  1  0.75000000  0.25000000  0.21875000  1
  O  O43  1  0.26369939  0.23123345  0.34449057  1
  O  O44  1  0.27118042  0.71887871  0.35052058  1
  O  O45  1  0.79454706  0.28091572  0.27451147  1
  O  O46  1  0.72504877  0.76414704  0.28430563  1
  O  O47  1  0.76422573  0.23775577  0.34059185  1
  O  O48  1  0.23627289  0.26746165  0.46817342  1
  O  O49  1  0.75037009  0.24818884  0.40645245  1
  O  O50  1  0.22863888  0.78140330  0.46183141  1
  O  O51  1  0.25287636  0.72920772  0.53134122  1
  O  O52  1  0.74913886  0.74993672  0.40605995  1
  O  O53  1  0.73655361  0.26385066  0.47196776  1
  O  O54  1  0.70727120  0.21661569  0.53862129  1
  O  O55  1  0.24669170  0.75423537  0.59240157  1
  O  O56  1  0.75359022  0.25626498  0.59401662  1
  O  O57  1  0.77463036  0.73674086  0.52796145  1
  O  O58  1  0.26989289  0.78006592  0.65139747  1
  O  O59  1  0.25000000  0.25000000  0.71875000  1
  O  O60  1  0.78457826  0.26755965  0.65219353  1
  O  O61  1  0.25000000  0.75000000  0.71875000  1
  O  O62  1  0.75000000  0.25000000  0.71875000  1
  O  O63  1  0.74566027  0.74778374  0.65872837  1
  O  O64  1  0.23010711  0.71993408  0.78610253  1
  O  O65  1  0.71542174  0.23244035  0.78530647  1
  O  O66  1  0.25330830  0.74576463  0.84509843  1
  O  O67  1  0.75433973  0.75221626  0.77877163  1
  O  O68  1  0.26372711  0.23253835  0.96932658  1
  O  O69  1  0.74640978  0.24373502  0.84348338  1
  O  O70  1  0.24712364  0.77079228  0.90615878  1
  O  O71  1  0.27136112  0.71859670  0.97566859  1
  O  O72  1  0.79272880  0.28338431  0.89887871  1
  O  O73  1  0.76344639  0.23614934  0.96553224  1
  O  O74  1  0.72536964  0.76325914  0.90953855  1
