# generated using pymatgen
data_Li4Mn3CoO8
_symmetry_space_group_name_H-M   'P 1'
_cell_length_a   2.88219985
_cell_length_b   10.07635244
_cell_length_c   5.45350387
_cell_angle_alpha   79.55963670
_cell_angle_beta   90.00000000
_cell_angle_gamma   81.77747975
_symmetry_Int_Tables_number   1
_chemical_formula_structural   Li4Mn3CoO8
_chemical_formula_sum   'Li4 Mn3 Co1 O8'
_cell_volume   154.10300488
_cell_formula_units_Z   1
loop_
 _symmetry_equiv_pos_site_id
 _symmetry_equiv_pos_as_xyz
  1  'x, y, z'
loop_
 _atom_site_type_symbol
 _atom_site_label
 _atom_site_symmetry_multiplicity
 _atom_site_fract_x
 _atom_site_fract_y
 _atom_site_fract_z
 _atom_site_occupancy
  Li  Li0  1  0.37710076  0.24579848  0.10985712  1
  Li  Li1  1  0.12575569  0.74848863  0.35606951  1
  Li  Li2  1  0.87424431  0.25151137  0.64393049  1
  Li  Li3  1  0.62289924  0.75420152  0.89014288  1
  Mn  Mn4  1  0.75207240  0.49585520  0.25100419  1
  Mn  Mn5  1  0.50000000  -0.00000000  0.50000000  1
  Mn  Mn6  1  0.24792760  0.50414480  0.74899581  1
  Co  Co7  1  -0.00000000  -0.00000000  0.00000000  1
  O  O8  1  0.44052946  0.11894108  0.82724704  1
  O  O9  1  0.19287088  0.61425824  0.08847228  1
  O  O10  1  0.94662780  0.10674440  0.30980822  1
  O  O11  1  0.69021355  0.61957290  0.58494530  1
  O  O12  1  0.30978645  0.38042710  0.41505470  1
  O  O13  1  0.05337220  0.89325560  0.69019178  1
  O  O14  1  0.80712912  0.38574176  0.91152772  1
  O  O15  1  0.55947054  0.88105892  0.17275296  1
