# generated using pymatgen
data_Li4Mn3CoO8
_symmetry_space_group_name_H-M   'P 1'
_cell_length_a   2.89642975
_cell_length_b   19.61218267
_cell_length_c   3.04451846
_cell_angle_alpha   83.72192251
_cell_angle_beta   118.40359676
_cell_angle_gamma   89.99999949
_symmetry_Int_Tables_number   1
_chemical_formula_structural   Li4Mn3CoO8
_chemical_formula_sum   'Li4 Mn3 Co1 O8'
_cell_volume   150.94533550
_cell_formula_units_Z   1
loop_
 _symmetry_equiv_pos_site_id
 _symmetry_equiv_pos_as_xyz
  1  'x, y, z'
loop_
 _atom_site_type_symbol
 _atom_site_label
 _atom_site_symmetry_multiplicity
 _atom_site_fract_x
 _atom_site_fract_y
 _atom_site_fract_z
 _atom_site_occupancy
  Li  Li0  1  0.24967920  0.12186741  0.49935841  1
  Li  Li1  1  0.75021294  0.37448635  0.50042589  1
  Li  Li2  1  0.24978706  0.62551365  0.49957411  1
  Li  Li3  1  0.75032080  0.87813259  0.50064159  1
  Mn  Mn4  1  0.50161634  0.24856663  0.00323267  1
  Mn  Mn5  1  -0.00000000  0.50000000  -0.00000000  1
  Mn  Mn6  1  0.49838366  0.75143337  0.99676733  1
  Co  Co7  1  -0.00000000  0.00000000  -0.00000000  1
  O  O8  1  0.66368195  0.05395138  0.32736390  1
  O  O9  1  0.10516271  0.30652975  0.21032543  1
  O  O10  1  0.60512032  0.55779666  0.21024063  1
  O  O11  1  0.10239742  0.80938388  0.20479484  1
  O  O12  1  0.89760258  0.19061612  0.79520516  1
  O  O13  1  0.39487968  0.44220334  0.78975937  1
  O  O14  1  0.89483729  0.69347025  0.78967457  1
  O  O15  1  0.33631805  0.94604862  0.67263610  1
