# generated using pymatgen
data_Li7Mn4CoO12
_symmetry_space_group_name_H-M   'P 1'
_cell_length_a   5.04404975
_cell_length_b   5.83170954
_cell_length_c   7.93857274
_cell_angle_alpha   100.66871989
_cell_angle_beta   99.62594441
_cell_angle_gamma   73.22580497
_symmetry_Int_Tables_number   1
_chemical_formula_structural   Li7Mn4CoO12
_chemical_formula_sum   'Li7 Mn4 Co1 O12'
_cell_volume   218.10293318
_cell_formula_units_Z   1
loop_
 _symmetry_equiv_pos_site_id
 _symmetry_equiv_pos_as_xyz
  1  'x, y, z'
loop_
 _atom_site_type_symbol
 _atom_site_label
 _atom_site_symmetry_multiplicity
 _atom_site_fract_x
 _atom_site_fract_y
 _atom_site_fract_z
 _atom_site_occupancy
  Li  Li0  1  0.50115399  0.66725613  0.16713387  1
  Li  Li1  1  0.00979048  0.16192064  0.66476397  1
  Li  Li2  1  0.00310192  0.83280030  0.34582958  1
  Li  Li3  1  0.48914817  0.33472107  0.82309364  1
  Li  Li4  1  0.51423242  0.99702311  0.51032394  1
  Li  Li5  1  0.98893940  0.50394290  0.98755404  1
  Li  Li6  1  0.00125457  0.66591725  0.66602398  1
  Mn  Mn7  1  0.99366914  0.99553073  0.99131843  1
  Mn  Mn8  1  0.50236141  0.50483236  0.51092704  1
  Mn  Mn9  1  0.50171219  0.16505665  0.16342271  1
  Mn  Mn10  1  0.00312137  0.33868101  0.34371277  1
  Co  Co11  1  0.48374551  0.83194214  0.82291295  1
  O  O12  1  0.25195023  0.69270025  0.92206984  1
  O  O13  1  0.75798873  0.18940740  0.42571554  1
  O  O14  1  0.75810147  0.85110043  0.08524748  1
  O  O15  1  0.27460532  0.33917700  0.57948560  1
  O  O16  1  0.23104843  0.02065855  0.22686291  1
  O  O17  1  0.71220078  0.52096900  0.73492641  1
  O  O18  1  0.74444226  0.64644596  0.41341420  1
  O  O19  1  0.23281688  0.14562470  0.90962977  1
  O  O20  1  0.27065374  0.81724001  0.57911723  1
  O  O21  1  0.74831240  0.30940012  0.07884943  1
  O  O22  1  0.75436924  0.98623111  0.77794989  1
  O  O23  1  0.27127992  0.48142118  0.26971479  1
