# generated using pymatgen
data_Li4Mn3CoO8
_symmetry_space_group_name_H-M   'P 1'
_cell_length_a   5.07306950
_cell_length_b   5.15998512
_cell_length_c   6.11757537
_cell_angle_alpha   103.61181165
_cell_angle_beta   93.07708711
_cell_angle_gamma   101.26973486
_symmetry_Int_Tables_number   1
_chemical_formula_structural   Li4Mn3CoO8
_chemical_formula_sum   'Li4 Mn3 Co1 O8'
_cell_volume   151.80372086
_cell_formula_units_Z   1
loop_
 _symmetry_equiv_pos_site_id
 _symmetry_equiv_pos_as_xyz
  1  'x, y, z'
loop_
 _atom_site_type_symbol
 _atom_site_label
 _atom_site_symmetry_multiplicity
 _atom_site_fract_x
 _atom_site_fract_y
 _atom_site_fract_z
 _atom_site_occupancy
  Li  Li0  1  0.76149501  0.50226290  0.11800537  1
  Li  Li1  1  0.74036874  0.51403550  0.64593511  1
  Li  Li2  1  0.25963126  0.48596450  0.35406489  1
  Li  Li3  1  0.23850499  0.49773710  0.88199463  1
  Mn  Mn4  1  0.00000000  -0.00000000  0.50000000  1
  Mn  Mn5  1  0.49960654  0.99041664  0.24618889  1
  Mn  Mn6  1  0.50039346  0.00958336  0.75381111  1
  Co  Co7  1  0.00000000  -0.00000000  -0.00000000  1
  O  O8  1  0.85561323  0.24398609  0.80722009  1
  O  O9  1  0.87874685  0.20643958  0.28745636  1
  O  O10  1  0.36129797  0.22633395  0.07634251  1
  O  O11  1  0.36195342  0.23345961  0.57319350  1
  O  O12  1  0.63804658  0.76654039  0.42680650  1
  O  O13  1  0.63870203  0.77366605  0.92365749  1
  O  O14  1  0.12125315  0.79356042  0.71254364  1
  O  O15  1  0.14438677  0.75601391  0.19277991  1
