# generated using pymatgen
data_Li4Mn3CoO8
_symmetry_space_group_name_H-M   'P 1'
_cell_length_a   2.85627392
_cell_length_b   5.13711945
_cell_length_c   10.90929265
_cell_angle_alpha   94.99870944
_cell_angle_beta   89.99999994
_cell_angle_gamma   73.85892600
_symmetry_Int_Tables_number   1
_chemical_formula_structural   Li4Mn3CoO8
_chemical_formula_sum   'Li4 Mn3 Co1 O8'
_cell_volume   153.12834630
_cell_formula_units_Z   1
loop_
 _symmetry_equiv_pos_site_id
 _symmetry_equiv_pos_as_xyz
  1  'x, y, z'
loop_
 _atom_site_type_symbol
 _atom_site_label
 _atom_site_symmetry_multiplicity
 _atom_site_fract_x
 _atom_site_fract_y
 _atom_site_fract_z
 _atom_site_occupancy
  Li  Li0  1  0.25502842  0.48994315  0.11351411  1
  Li  Li1  1  0.74895122  0.50209755  0.37771036  1
  Li  Li2  1  0.25104878  0.49790245  0.62228964  1
  Li  Li3  1  0.74497158  0.51005685  0.88648589  1
  Mn  Mn4  1  0.50932612  0.98134775  0.24173783  1
  Mn  Mn5  1  -0.00000000  0.00000000  0.50000000  1
  Mn  Mn6  1  0.49067388  0.01865225  0.75826217  1
  Co  Co7  1  -0.00000000  0.00000000  0.00000000  1
  O  O8  1  0.37849074  0.24301852  0.94548706  1
  O  O9  1  0.89531204  0.20937592  0.18135569  1
  O  O10  1  0.38420482  0.23159036  0.44358997  1
  O  O11  1  0.87961546  0.24076909  0.69538138  1
  O  O12  1  0.12038454  0.75923091  0.30461862  1
  O  O13  1  0.61579518  0.76840964  0.55641003  1
  O  O14  1  0.10468796  0.79062408  0.81864431  1
  O  O15  1  0.62150926  0.75698148  0.05451294  1
