# generated using pymatgen
data_Li4Mn3CoO8
_symmetry_space_group_name_H-M   'P 1'
_cell_length_a   5.07813207
_cell_length_b   5.10009557
_cell_length_c   6.12894057
_cell_angle_alpha   88.34542963
_cell_angle_beta   87.13699772
_cell_angle_gamma   106.44944719
_symmetry_Int_Tables_number   1
_chemical_formula_structural   Li4Mn3CoO8
_chemical_formula_sum   'Li4 Mn3 Co1 O8'
_cell_volume   151.89280027
_cell_formula_units_Z   1
loop_
 _symmetry_equiv_pos_site_id
 _symmetry_equiv_pos_as_xyz
  1  'x, y, z'
loop_
 _atom_site_type_symbol
 _atom_site_label
 _atom_site_symmetry_multiplicity
 _atom_site_fract_x
 _atom_site_fract_y
 _atom_site_fract_z
 _atom_site_occupancy
  Li  Li0  1  0.99359705  0.50081255  0.24201845  1
  Li  Li1  1  0.50000000  0.50000000  0.50000000  1
  Li  Li2  1  0.00640295  0.49918745  0.75798155  1
  Li  Li3  1  0.50000000  0.50000000  -0.00000000  1
  Mn  Mn4  1  0.49781365  0.99202532  0.24723119  1
  Mn  Mn5  1  0.00000000  0.00000000  0.50000000  1
  Mn  Mn6  1  0.50218635  0.00797468  0.75276881  1
  Co  Co7  1  0.00000000  0.00000000  -0.00000000  1
  O  O8  1  0.75500994  0.22843096  0.02011506  1
  O  O9  1  0.22798598  0.20786142  0.23875293  1
  O  O10  1  0.75217024  0.23091269  0.51703334  1
  O  O11  1  0.26846380  0.24620789  0.74852764  1
  O  O12  1  0.24782976  0.76908731  0.48296666  1
  O  O13  1  0.77201402  0.79213858  0.76124707  1
  O  O14  1  0.24499006  0.77156904  0.97988494  1
  O  O15  1  0.73153620  0.75379211  0.25147236  1
