# generated using pymatgen
data_Li4Mn3CoO8
_symmetry_space_group_name_H-M   'P 1'
_cell_length_a   2.88293099
_cell_length_b   9.89850989
_cell_length_c   5.38257999
_cell_angle_alpha   94.96467717
_cell_angle_beta   90.00000000
_cell_angle_gamma   90.00000000
_symmetry_Int_Tables_number   1
_chemical_formula_structural   Li4Mn3CoO8
_chemical_formula_sum   'Li4 Mn3 Co1 O8'
_cell_volume   153.02490828
_cell_formula_units_Z   1
loop_
 _symmetry_equiv_pos_site_id
 _symmetry_equiv_pos_as_xyz
  1  'x, y, z'
loop_
 _atom_site_type_symbol
 _atom_site_label
 _atom_site_symmetry_multiplicity
 _atom_site_fract_x
 _atom_site_fract_y
 _atom_site_fract_z
 _atom_site_occupancy
  Li  Li0  1  0.50000000  -0.00000000  0.50000000  1
  Li  Li1  1  -0.00000000  0.24890574  0.75315523  1
  Li  Li2  1  0.50000000  0.50000000  -0.00000000  1
  Li  Li3  1  -0.00000000  0.75109426  0.24684477  1
  Mn  Mn4  1  0.50000000  0.24632271  0.23491175  1
  Mn  Mn5  1  -0.00000000  0.50000000  0.50000000  1
  Mn  Mn6  1  0.50000000  0.75367729  0.76508825  1
  Co  Co7  1  -0.00000000  -0.00000000  -0.00000000  1
  O  O8  1  0.50000000  0.88647857  0.12982379  1
  O  O9  1  -0.00000000  0.12877934  0.34113953  1
  O  O10  1  0.50000000  0.38553923  0.61385819  1
  O  O11  1  -0.00000000  0.63805999  0.87449622  1
  O  O12  1  0.50000000  0.11352143  0.87017621  1
  O  O13  1  -0.00000000  0.36194001  0.12550378  1
  O  O14  1  0.50000000  0.61446077  0.38614181  1
  O  O15  1  -0.00000000  0.87122066  0.65886047  1
