# generated using pymatgen
data_Li4Mn3CoO8
_symmetry_space_group_name_H-M   'P 1'
_cell_length_a   3.03048438
_cell_length_b   9.84728893
_cell_length_c   5.12213720
_cell_angle_alpha   86.16151732
_cell_angle_beta   86.12335627
_cell_angle_gamma   84.87593713
_symmetry_Int_Tables_number   1
_chemical_formula_structural   Li4Mn3CoO8
_chemical_formula_sum   'Li4 Mn3 Co1 O8'
_cell_volume   151.61032367
_cell_formula_units_Z   1
loop_
 _symmetry_equiv_pos_site_id
 _symmetry_equiv_pos_as_xyz
  1  'x, y, z'
loop_
 _atom_site_type_symbol
 _atom_site_label
 _atom_site_symmetry_multiplicity
 _atom_site_fract_x
 _atom_site_fract_y
 _atom_site_fract_z
 _atom_site_occupancy
  Li  Li0  1  0.87432072  0.24940097  0.62492860  1
  Li  Li1  1  0.12567928  0.75059903  0.37507140  1
  Li  Li2  1  0.37713677  0.24665387  0.12663205  1
  Li  Li3  1  0.62286323  0.75334613  0.87336795  1
  Mn  Mn4  1  0.24935326  0.50015972  0.75077226  1
  Mn  Mn5  1  0.50000000  0.00000000  0.50000000  1
  Mn  Mn6  1  0.75064674  0.49984028  0.24922774  1
  Co  Co7  1  0.00000000  0.00000000  0.00000000  1
  O  O8  1  0.43288743  0.11191776  0.81395253  1
  O  O9  1  0.66770191  0.61459956  0.55179538  1
  O  O10  1  0.91700725  0.11721728  0.31791486  1
  O  O11  1  0.16736291  0.61500077  0.05306088  1
  O  O12  1  0.33229809  0.38540044  0.44820462  1
  O  O13  1  0.56711257  0.88808224  0.18604747  1
  O  O14  1  0.83263709  0.38499923  0.94693912  1
  O  O15  1  0.08299275  0.88278272  0.68208514  1
