# generated using pymatgen
data_Li4Mn3O7
_symmetry_space_group_name_H-M   'P 1'
_cell_length_a   2.88250528
_cell_length_b   17.54617560
_cell_length_c   5.27326332
_cell_angle_alpha   100.61729024
_cell_angle_beta   90.00000000
_cell_angle_gamma   85.28838432
_symmetry_Int_Tables_number   1
_chemical_formula_structural   Li4Mn3O7
_chemical_formula_sum   'Li8 Mn6 O14'
_cell_volume   261.22247172
_cell_formula_units_Z   2
loop_
 _symmetry_equiv_pos_site_id
 _symmetry_equiv_pos_as_xyz
  1  'x, y, z'
loop_
 _atom_site_type_symbol
 _atom_site_label
 _atom_site_symmetry_multiplicity
 _atom_site_fract_x
 _atom_site_fract_y
 _atom_site_fract_z
 _atom_site_occupancy
  Li  Li0  1  0.50238648  0.99522704  0.50152523  1
  Li  Li1  1  0.92886134  0.14227632  0.78479873  1
  Li  Li2  1  0.35731570  0.28536860  0.07169245  1
  Li  Li3  1  0.78554130  0.42891640  0.35687955  1
  Li  Li4  1  0.21399566  0.57200968  0.64377227  1
  Li  Li5  1  0.07142900  0.85714300  0.21428600  1
  Li  Li6  1  0.64047052  0.71905896  0.92704577  1
  Li  Li7  1  0.57142900  0.85714300  0.71428600  1
  Mn  Mn8  1  0.00352118  0.99295764  0.97450201  1
  Mn  Mn9  1  0.13933582  0.72132836  0.45406899  1
  Mn  Mn10  1  0.43018489  0.13962923  0.27300413  1
  Mn  Mn11  1  0.85775439  0.28449121  0.56967558  1
  Mn  Mn12  1  0.28510261  0.42979379  0.85889642  1
  Mn  Mn13  1  0.71267211  0.57465677  0.15556687  1
  O  O14  1  0.53236196  0.93527708  0.10019601  1
  O  O15  1  0.96370912  0.07258176  0.35730320  1
  O  O16  1  0.38998831  0.22002237  0.67502442  1
  O  O17  1  0.81739514  0.36520972  0.96343581  1
  O  O18  1  0.24585078  0.50829745  0.25191128  1
  O  O19  1  0.11108606  0.77782788  0.77864272  1
  O  O20  1  0.67386269  0.65227561  0.53560790  1
  O  O21  1  0.46899431  0.06201039  0.89296310  1
  O  O22  1  0.89700622  0.20598755  0.17666072  1
  O  O23  1  0.32546186  0.34907528  0.46513619  1
  O  O24  1  0.75286869  0.49426363  0.75354658  1
  O  O25  1  0.17914788  0.64170424  0.07126780  1
  O  O26  1  0.03177094  0.93645812  0.64992828  1
  O  O27  1  0.61049604  0.77900892  0.32837599  1
