# generated using pymatgen
data_Li4Mn3O7
_symmetry_space_group_name_H-M   'P 1'
_cell_length_a   2.99928075
_cell_length_b   13.72915085
_cell_length_c   6.47411428
_cell_angle_alpha   84.51773556
_cell_angle_beta   76.81586961
_cell_angle_gamma   88.43068756
_symmetry_Int_Tables_number   1
_chemical_formula_structural   Li4Mn3O7
_chemical_formula_sum   'Li8 Mn6 O14'
_cell_volume   258.37005052
_cell_formula_units_Z   2
loop_
 _symmetry_equiv_pos_site_id
 _symmetry_equiv_pos_as_xyz
  1  'x, y, z'
loop_
 _atom_site_type_symbol
 _atom_site_label
 _atom_site_symmetry_multiplicity
 _atom_site_fract_x
 _atom_site_fract_y
 _atom_site_fract_z
 _atom_site_occupancy
  Li  Li0  1  0.84914009  0.21751097  0.05420051  1
  Li  Li1  1  0.99155646  0.50227555  0.50340104  1
  Li  Li2  1  0.15130054  0.78343845  0.92516996  1
  Li  Li3  1  0.44809753  0.34827259  0.78369674  1
  Li  Li4  1  0.57142900  0.64285700  0.21428600  1
  Li  Li5  1  0.69475947  0.93744141  0.64487426  1
  Li  Li6  1  0.29371691  0.06820403  0.37437149  1
  Li  Li7  1  0.57142900  0.14285700  0.71428600  1
  Mn  Mn8  1  0.99545246  0.00586810  0.98995292  1
  Mn  Mn9  1  0.14740454  0.27984590  0.43861808  1
  Mn  Mn10  1  0.28828027  0.57100295  0.85894728  1
  Mn  Mn11  1  0.41299842  0.86069885  0.28773475  1
  Mn  Mn12  1  0.72985858  0.42501515  0.14083625  1
  Mn  Mn13  1  0.85457673  0.71471205  0.56962472  1
  O  O14  1  0.46034103  0.09255993  0.03257721  1
  O  O15  1  0.62022227  0.37985910  0.44840708  1
  O  O16  1  0.68721352  0.67896925  0.87960851  1
  O  O17  1  0.00207509  0.25442110  0.72773589  1
  O  O18  1  0.12157229  0.53281347  0.16821709  1
  O  O19  1  0.25826652  0.81898961  0.59450113  1
  O  O20  1  0.82566275  0.96382775  0.30720556  1
  O  O21  1  0.31719425  0.32188725  0.12136644  1
  O  O22  1  0.45564348  0.60674475  0.54896249  1
  O  O23  1  0.52263573  0.90585490  0.98016492  1
  O  O24  1  0.88459048  0.46672539  0.83407087  1
  O  O25  1  0.02128471  0.75290053  0.26035391  1
  O  O26  1  0.14078191  0.03129290  0.70083511  1
  O  O27  1  0.68251597  0.19315407  0.39599379  1
