# generated using pymatgen
data_Li7Mn4CoO12
_symmetry_space_group_name_H-M   'P 1'
_cell_length_a   5.25193393
_cell_length_b   7.74802163
_cell_length_c   5.94657407
_cell_angle_alpha   76.35438073
_cell_angle_beta   70.38076903
_cell_angle_gamma   75.13375728
_symmetry_Int_Tables_number   1
_chemical_formula_structural   Li7Mn4CoO12
_chemical_formula_sum   'Li7 Mn4 Co1 O12'
_cell_volume   217.29961726
_cell_formula_units_Z   1
loop_
 _symmetry_equiv_pos_site_id
 _symmetry_equiv_pos_as_xyz
  1  'x, y, z'
loop_
 _atom_site_type_symbol
 _atom_site_label
 _atom_site_symmetry_multiplicity
 _atom_site_fract_x
 _atom_site_fract_y
 _atom_site_fract_z
 _atom_site_occupancy
  Li  Li0  1  0.99026097  0.00405221  0.50556570  1
  Li  Li1  1  0.00517836  0.32970680  0.16377932  1
  Li  Li2  1  0.49676694  0.83467088  0.66596914  1
  Li  Li3  1  0.50019417  0.16960253  0.33457807  1
  Li  Li4  1  0.00454859  0.66691867  0.83023399  1
  Li  Li5  1  0.50332751  0.49590589  0.99941172  1
  Li  Li6  1  0.49967950  0.16823124  0.83210180  1
  Mn  Mn7  1  0.99944983  0.00173244  0.99906029  1
  Mn  Mn8  1  0.00063743  0.33366646  0.66572098  1
  Mn  Mn9  1  0.99990885  0.66525006  0.33473888  1
  Mn  Mn10  1  0.50034785  0.83508710  0.16465176  1
  Co  Co11  1  0.50032274  0.49635000  0.50332657  1
  O  O12  1  0.77317942  0.91605573  0.32386474  1
  O  O13  1  0.78173628  0.24388197  0.98675560  1
  O  O14  1  0.27914810  0.73857190  0.48722452  1
  O  O15  1  0.23763171  0.06278625  0.15082621  1
  O  O16  1  0.77752994  0.57707811  0.65774500  1
  O  O17  1  0.24354009  0.41389099  0.79665776  1
  O  O18  1  0.21834676  0.09028938  0.67822039  1
  O  O19  1  0.22623757  0.41698348  0.34299490  1
  O  O20  1  0.76243371  0.92032871  0.86444526  1
  O  O21  1  0.75507111  0.27452375  0.51672153  1
  O  O22  1  0.22248841  0.75609053  0.01027656  1
  O  O23  1  0.72203416  0.58834493  0.18512931  1
