# generated using pymatgen
data_Mn3OF5
_symmetry_space_group_name_H-M   'P 1'
_cell_length_a   7.57491208
_cell_length_b   5.89193259
_cell_length_c   5.85832417
_cell_angle_alpha   71.89549051
_cell_angle_beta   73.47966651
_cell_angle_gamma   73.75590551
_symmetry_Int_Tables_number   1
_chemical_formula_structural   Mn3OF5
_chemical_formula_sum   'Mn6 O2 F10'
_cell_volume   232.94538521
_cell_formula_units_Z   2
loop_
 _symmetry_equiv_pos_site_id
 _symmetry_equiv_pos_as_xyz
  1  'x, y, z'
loop_
 _atom_site_type_symbol
 _atom_site_label
 _atom_site_symmetry_multiplicity
 _atom_site_fract_x
 _atom_site_fract_y
 _atom_site_fract_z
 _atom_site_occupancy
  Mn  Mn0  1  0.84342687  0.65216511  0.66042196  1
  Mn  Mn1  1  0.65143407  0.32930782  0.33942490  1
  Mn  Mn2  1  0.32498202  0.64524692  0.66154761  1
  Mn  Mn3  1  0.17191758  0.33485764  0.36204736  1
  Mn  Mn4  1  0.49886273  0.99401527  0.99975721  1
  Mn  Mn5  1  0.00554455  0.03147777  0.97853682  1
  O  O6  1  0.36408322  0.41785295  0.44295652  1
  O  O7  1  0.00082688  0.33006944  0.68523412  1
  F  F8  1  0.68180402  0.00148106  0.63219961  1
  F  F9  1  0.32163026  0.36057557  0.00026146  1
  F  F10  1  0.29811430  0.89444119  0.88563081  1
  F  F11  1  0.63257088  0.56035614  0.57436970  1
  F  F12  1  0.97029665  0.24564659  0.24206130  1
  F  F13  1  0.70746305  0.10508762  0.09048638  1
  F  F14  1  0.02663800  0.77823854  0.76622616  1
  F  F15  1  0.33259653  0.96422355  0.36300738  1
  F  F16  1  0.67234998  0.63073936  0.02626863  1
  F  F17  1  0.99545940  0.72421644  0.28956308  1
