# generated using pymatgen
data_Na4Mn2C4SO16
_symmetry_space_group_name_H-M   'P 1'
_cell_length_a   9.80488195
_cell_length_b   10.01691891
_cell_length_c   9.80488195
_cell_angle_alpha   60.91718137
_cell_angle_beta   89.60866587
_cell_angle_gamma   119.08281863
_symmetry_Int_Tables_number   1
_chemical_formula_structural   Na4Mn2C4SO16
_chemical_formula_sum   'Na8 Mn4 C8 S2 O32'
_cell_volume   697.21034283
_cell_formula_units_Z   2
loop_
 _symmetry_equiv_pos_site_id
 _symmetry_equiv_pos_as_xyz
  1  'x, y, z'
loop_
 _atom_site_type_symbol
 _atom_site_label
 _atom_site_symmetry_multiplicity
 _atom_site_fract_x
 _atom_site_fract_y
 _atom_site_fract_z
 _atom_site_occupancy
  Na  Na0  1  0.91201883  0.25000000  0.33798117  1
  Na  Na1  1  0.66584042  0.75000000  0.08415958  1
  Na  Na2  1  0.33942684  0.25000000  0.33942684  1
  Na  Na3  1  0.91057316  0.25000000  0.91057316  1
  Na  Na4  1  0.91400653  0.82801306  0.33599347  1
  Na  Na5  1  0.33798117  0.25000000  0.91201883  1
  Na  Na6  1  0.33599347  0.67198694  0.91400653  1
  Na  Na7  1  0.08415958  0.75000000  0.66584042  1
  Mn  Mn8  1  0.49708221  0.00064954  0.00079582  1
  Mn  Mn9  1  0.50356733  0.00064954  0.49855464  1
  Mn  Mn10  1  0.49855464  0.49935046  0.50356733  1
  Mn  Mn11  1  0.00079582  0.49935046  0.49708221  1
  C  C12  1  0.71371802  0.06886126  0.71348273  1
  C  C13  1  0.71765501  0.43113874  0.35514424  1
  C  C14  1  0.35514424  0.06886126  0.71765501  1
  C  C15  1  0.71348273  0.43113874  0.71371802  1
  C  C16  1  0.64924333  0.93234362  0.27900224  1
  C  C17  1  0.28865314  0.56765638  0.28310029  1
  C  C18  1  0.28310029  0.93234362  0.28865314  1
  C  C19  1  0.27900224  0.56765638  0.64924333  1
  S  S20  1  0.12500000  0.25000000  0.12500000  1
  S  S21  1  0.87500000  0.75000000  0.87500000  1
  O  O22  1  0.64377903  0.04374037  0.13879365  1
  O  O23  1  0.84793641  0.20594768  0.59822712  1
  O  O24  1  0.69582520  0.29405232  0.35801127  1
  O  O25  1  0.39996234  0.04374037  0.31746597  1
  O  O26  1  0.85437320  0.54607641  0.36237703  1
  O  O27  1  0.30924469  0.36983823  0.06537668  1
  O  O28  1  0.06478509  0.13016177  0.06059354  1
  O  O29  1  0.60225402  0.46416971  0.34271050  1
  O  O30  1  0.69311978  0.03583029  0.86191569  1
  O  O31  1  0.34271050  0.03583029  0.60225402  1
  O  O32  1  0.86191569  0.46416971  0.69311978  1
  O  O33  1  0.06059354  0.36983823  0.06478509  1
  O  O34  1  0.06537668  0.13016177  0.30924469  1
  O  O35  1  0.65729605  0.79855310  0.30082508  1
  O  O36  1  0.40062183  0.70144690  0.14125704  1
  O  O37  1  0.69170321  0.54607641  0.59154656  1
  O  O38  1  0.31746597  0.45625963  0.39996234  1
  O  O39  1  0.35801127  0.20594768  0.69582520  1
  O  O40  1  0.59822712  0.29405232  0.84793641  1
  O  O41  1  0.93503892  0.86832122  0.69112176  1
  O  O42  1  0.94055601  0.63167878  0.93328330  1
  O  O43  1  0.14373098  0.53726852  0.30837038  1
  O  O44  1  0.65436010  0.96273148  0.39353754  1
  O  O45  1  0.30837038  0.96273148  0.14373098  1
  O  O46  1  0.39353754  0.53726852  0.65436010  1
  O  O47  1  0.93328330  0.86832122  0.94055601  1
  O  O48  1  0.69112176  0.63167878  0.93503892  1
  O  O49  1  0.13879365  0.45625963  0.64377903  1
  O  O50  1  0.59154656  0.95392359  0.69170321  1
  O  O51  1  0.30082508  0.70144690  0.65729605  1
  O  O52  1  0.14125704  0.79855310  0.40062183  1
  O  O53  1  0.36237703  0.95392359  0.85437320  1
