# generated using pymatgen
data_LiV4OF11
_symmetry_space_group_name_H-M   'P 1'
_cell_length_a   5.24496001
_cell_length_b   5.49708898
_cell_length_c   17.22918026
_cell_angle_alpha   95.70622694
_cell_angle_beta   82.09178461
_cell_angle_gamma   118.29631222
_symmetry_Int_Tables_number   1
_chemical_formula_structural   LiV4OF11
_chemical_formula_sum   'Li2 V8 O2 F22'
_cell_volume   432.90087566
_cell_formula_units_Z   2
loop_
 _symmetry_equiv_pos_site_id
 _symmetry_equiv_pos_as_xyz
  1  'x, y, z'
loop_
 _atom_site_type_symbol
 _atom_site_label
 _atom_site_symmetry_multiplicity
 _atom_site_fract_x
 _atom_site_fract_y
 _atom_site_fract_z
 _atom_site_occupancy
  Li  Li0  1  0.72059511  0.39954537  0.93842479  1
  Li  Li1  1  0.36127254  0.76916338  0.07099897  1
  V  V2  1  0.76475554  0.25646188  0.75346481  1
  V  V3  1  0.87850353  0.13029966  0.37757433  1
  V  V4  1  0.98363693  0.98314863  0.00078684  1
  V  V5  1  0.50190182  0.50348403  0.50230894  1
  V  V6  1  0.62803127  0.40511175  0.12405855  1
  V  V7  1  0.34611640  0.60348823  0.86721021  1
  V  V8  1  0.25341803  0.75887336  0.25249991  1
  V  V9  1  0.13394825  0.87762316  0.62720832  1
  O  O10  1  0.96592859  0.40045471  0.84476484  1
  O  O11  1  0.69015682  0.68861230  0.06113616  1
  F  F12  1  0.96378442  0.03124551  0.71632476  1
  F  F13  1  0.95408135  0.43634191  0.31010657  1
  F  F14  1  0.71918179  0.29139648  0.46626018  1
  F  F15  1  0.52500981  0.09315120  0.66076414  1
  F  F16  1  0.76826024  0.81137990  0.91014600  1
  F  F17  1  0.76124616  0.21597459  0.02889796  1
  F  F18  1  0.73554456  0.66261587  0.59114065  1
  F  F19  1  0.53826844  0.46116191  0.77943943  1
  F  F20  1  0.80260924  0.81360882  0.43574241  1
  F  F21  1  0.54032897  0.05693825  0.18051855  1
  F  F22  1  0.31518003  0.30701685  0.94012845  1
  F  F23  1  0.20300579  0.18372774  0.56130257  1
  F  F24  1  0.44621589  0.94446715  0.81991479  1
  F  F25  1  0.47182896  0.54704830  0.21833085  1
  F  F26  1  0.27300195  0.34603911  0.40878308  1
  F  F27  1  0.20979746  0.76392792  0.97420976  1
  F  F28  1  0.22092401  0.15244063  0.08983695  1
  F  F29  1  0.48084247  0.91884325  0.34224719  1
  F  F30  1  0.29673768  0.71999116  0.53368478  1
  F  F31  1  0.06672068  0.56587613  0.68483893  1
  F  F32  1  0.04866053  0.59952201  0.15407441  1
  F  F33  1  0.03859675  0.96623486  0.28351293  1
