# generated using pymatgen
data_Li7Mn5O12
_symmetry_space_group_name_H-M   'P 1'
_cell_length_a   2.87548892
_cell_length_b   7.81279347
_cell_length_c   10.46194430
_cell_angle_alpha   106.52951611
_cell_angle_beta   90.00000000
_cell_angle_gamma   100.60425684
_symmetry_Int_Tables_number   1
_chemical_formula_structural   Li7Mn5O12
_chemical_formula_sum   'Li7 Mn5 O12'
_cell_volume   221.13046380
_cell_formula_units_Z   1
loop_
 _symmetry_equiv_pos_site_id
 _symmetry_equiv_pos_as_xyz
  1  'x, y, z'
loop_
 _atom_site_type_symbol
 _atom_site_label
 _atom_site_symmetry_multiplicity
 _atom_site_fract_x
 _atom_site_fract_y
 _atom_site_fract_z
 _atom_site_occupancy
  Li  Li0  1  0.50383970  0.00767941  0.24271275  1
  Li  Li1  1  0.50365372  0.00730744  0.75869101  1
  Li  Li2  1  0.16402918  0.32805736  0.40471315  1
  Li  Li3  1  0.16930482  0.33860864  0.92862085  1
  Li  Li4  1  0.82949330  0.65898759  0.09062025  1
  Li  Li5  1  0.82967928  0.65935956  0.57464199  1
  Li  Li6  1  0.66666700  0.33333300  0.16666700  1
  Mn  Mn7  1  0.00860145  0.01720290  0.01409219  1
  Mn  Mn8  1  0.32473155  0.64946410  0.31924081  1
  Mn  Mn9  1  0.99654917  0.99309835  0.49296484  1
  Mn  Mn10  1  0.66666700  0.33333300  0.66666700  1
  Mn  Mn11  1  0.33678383  0.67356865  0.84036816  1
  O  O12  1  0.43078414  0.86156827  0.04192184  1
  O  O13  1  0.41760820  0.83521640  0.52547696  1
  O  O14  1  0.07518800  0.15037500  0.18828249  1
  O  O15  1  0.09130155  0.18260210  0.70683988  1
  O  O16  1  0.76095456  0.52191013  0.87848933  1
  O  O17  1  0.75741307  0.51482713  0.37139458  1
  O  O18  1  0.57237844  0.14475687  0.45484367  1
  O  O19  1  0.57591993  0.15183987  0.96193842  1
  O  O20  1  0.24203245  0.48406390  0.62649412  1
  O  O21  1  0.25814600  0.51629100  0.14505151  1
  O  O22  1  0.90254886  0.80509873  0.29141116  1
  O  O23  1  0.91572480  0.83145060  0.80785604  1
