# generated using pymatgen
data_Li7Mn4CoO12
_symmetry_space_group_name_H-M   'P 1'
_cell_length_a   5.03682078
_cell_length_b   8.73889161
_cell_length_c   5.21983946
_cell_angle_alpha   105.20912870
_cell_angle_beta   78.66746775
_cell_angle_gamma   94.44683641
_symmetry_Int_Tables_number   1
_chemical_formula_structural   Li7Mn4CoO12
_chemical_formula_sum   'Li7 Mn4 Co1 O12'
_cell_volume   217.30571287
_cell_formula_units_Z   1
loop_
 _symmetry_equiv_pos_site_id
 _symmetry_equiv_pos_as_xyz
  1  'x, y, z'
loop_
 _atom_site_type_symbol
 _atom_site_label
 _atom_site_symmetry_multiplicity
 _atom_site_fract_x
 _atom_site_fract_y
 _atom_site_fract_z
 _atom_site_occupancy
  Li  Li0  1  0.24957127  0.91983698  0.41586795  1
  Li  Li1  1  0.75152875  0.09436208  0.58420023  1
  Li  Li2  1  0.24636389  0.25471843  0.75139988  1
  Li  Li3  1  0.24060973  0.57413964  0.08313736  1
  Li  Li4  1  0.74984759  0.74553222  0.24807671  1
  Li  Li5  1  0.75672805  0.41203373  0.91744139  1
  Li  Li6  1  0.99834916  0.33378694  0.33425198  1
  Mn  Mn7  1  0.00208554  0.00714519  0.00975564  1
  Mn  Mn8  1  0.50322834  0.49187348  0.48775959  1
  Mn  Mn9  1  0.00146549  0.65810114  0.65443405  1
  Mn  Mn10  1  0.49698721  0.83560562  0.83530082  1
  Co  Co11  1  0.50911335  0.17333568  0.18138551  1
  O  O12  1  0.13414853  0.80660940  0.03600008  1
  O  O13  1  0.64496819  0.97252571  0.20651792  1
  O  O14  1  0.13651596  0.11717305  0.32789329  1
  O  O15  1  0.14166371  0.46974862  0.70458797  1
  O  O16  1  0.62491528  0.62573918  0.83708235  1
  O  O17  1  0.61009220  0.30088109  0.53997401  1
  O  O18  1  0.35786868  0.03166781  0.79969680  1
  O  O19  1  0.86275142  0.19317689  0.96292033  1
  O  O20  1  0.39672259  0.37319810  0.16082553  1
  O  O21  1  0.36247382  0.69240169  0.45673961  1
  O  O22  1  0.87251850  0.87563866  0.66557953  1
  O  O23  1  0.84948273  0.54076864  0.29917146  1
