# generated using pymatgen
data_Li7Mn5O12
_symmetry_space_group_name_H-M   'P 1'
_cell_length_a   2.88341758
_cell_length_b   5.09639383
_cell_length_c   15.89357001
_cell_angle_alpha   97.45845551
_cell_angle_beta   90.00000000
_cell_angle_gamma   106.43264701
_symmetry_Int_Tables_number   1
_chemical_formula_structural   Li7Mn5O12
_chemical_formula_sum   'Li7 Mn5 O12'
_cell_volume   221.95543255
_cell_formula_units_Z   1
loop_
 _symmetry_equiv_pos_site_id
 _symmetry_equiv_pos_as_xyz
  1  'x, y, z'
loop_
 _atom_site_type_symbol
 _atom_site_label
 _atom_site_symmetry_multiplicity
 _atom_site_fract_x
 _atom_site_fract_y
 _atom_site_fract_z
 _atom_site_occupancy
  Li  Li0  1  0.75041011  0.50082022  0.09016309  1
  Li  Li1  1  0.24958989  0.49917978  0.24316991  1
  Li  Li2  1  0.74123014  0.48246028  0.40786299  1
  Li  Li3  1  0.25028040  0.50056081  0.58319833  1
  Li  Li4  1  0.74971960  0.49943919  0.75013467  1
  Li  Li5  1  0.25876986  0.51753972  0.92547101  1
  Li  Li6  1  0.50000000  -0.00000000  0.16666700  1
  Mn  Mn7  1  0.01261485  0.02522970  0.01264348  1
  Mn  Mn8  1  0.98738515  0.97477030  0.32068952  1
  Mn  Mn9  1  0.49261403  0.98522806  0.49365447  1
  Mn  Mn10  1  -0.00000000  -0.00000000  0.66666700  1
  Mn  Mn11  1  0.50738597  0.01477194  0.83967853  1
  O  O12  1  0.62017862  0.24035724  0.96812387  1
  O  O13  1  0.11772259  0.23544518  0.11493980  1
  O  O14  1  0.60682831  0.21365662  0.29503836  1
  O  O15  1  0.10403620  0.20807239  0.45234011  1
  O  O16  1  0.61551018  0.23102036  0.62954428  1
  O  O17  1  0.11980899  0.23961799  0.79998024  1
  O  O18  1  0.88227741  0.76455482  0.21839320  1
  O  O19  1  0.37982138  0.75964276  0.36520913  1
  O  O20  1  0.88019101  0.76038201  0.53335376  1
  O  O21  1  0.38448982  0.76897964  0.70378872  1
  O  O22  1  0.89596380  0.79192761  0.88099289  1
  O  O23  1  0.39317169  0.78634338  0.03829564  1
