# generated using pymatgen
data_Na2LiCu(PO3)4
_symmetry_space_group_name_H-M   'P 1'
_cell_length_a   8.11112777
_cell_length_b   8.64596555
_cell_length_c   8.64596574
_cell_angle_alpha   65.58704625
_cell_angle_beta   93.16992945
_cell_angle_gamma   86.83006949
_symmetry_Int_Tables_number   1
_chemical_formula_structural   Na2LiCu(PO3)4
_chemical_formula_sum   'Na4 Li2 Cu2 P8 O24'
_cell_volume   549.23199892
_cell_formula_units_Z   2
loop_
 _symmetry_equiv_pos_site_id
 _symmetry_equiv_pos_as_xyz
  1  'x, y, z'
loop_
 _atom_site_type_symbol
 _atom_site_label
 _atom_site_symmetry_multiplicity
 _atom_site_fract_x
 _atom_site_fract_y
 _atom_site_fract_z
 _atom_site_occupancy
  Na  Na0  1  0.70933714  0.46581272  0.81892478  1
  Na  Na1  1  0.81497563  0.82236109  0.45482309  1
  Na  Na2  1  0.20933714  0.18107522  0.53418728  1
  Na  Na3  1  0.31497563  0.54517691  0.17763891  1
  Li  Li4  1  0.45698717  0.90553379  0.81740175  1
  Li  Li5  1  0.95698517  0.18260025  0.09446121  1
  Cu  Cu6  1  0.10957648  0.84020431  0.85817113  1
  Cu  Cu7  1  0.60957648  0.14182887  0.15979569  1
  P  P8  1  0.32435966  0.21425450  0.91543786  1
  P  P9  1  0.13477651  0.56174436  0.75606829  1
  P  P10  1  0.39061670  0.77490839  0.55177798  1
  P  P11  1  0.82435966  0.08456214  0.78574550  1
  P  P12  1  0.19276943  0.92398721  0.21321833  1
  P  P13  1  0.63477651  0.24393171  0.43825564  1
  P  P14  1  0.89061670  0.44822202  0.22509161  1
  P  P15  1  0.69276943  0.78678167  0.07601279  1
  O  O16  1  0.73732893  0.90882885  0.88153866  1
  O  O17  1  0.19131822  0.60616037  0.90233937  1
  O  O18  1  0.47348150  0.29428282  0.95476187  1
  O  O19  1  0.17662267  0.35909311  0.81402553  1
  O  O20  1  0.84437081  0.17900984  0.89555740  1
  O  O21  1  0.34585607  0.90817521  0.61603841  1
  O  O22  1  0.34437081  0.10444260  0.82099016  1
  O  O23  1  0.95803472  0.60014077  0.68507179  1
  O  O24  1  0.25574940  0.63348910  0.60407150  1
  O  O25  1  0.56243208  0.68939203  0.59507237  1
  O  O26  1  0.67662267  0.18597447  0.64090689  1
  O  O27  1  0.97348150  0.04523813  0.70571718  1
  O  O28  1  0.04349278  0.96049317  0.29195807  1
  O  O29  1  0.35499527  0.85438041  0.34671337  1
  O  O30  1  0.45803472  0.31492821  0.39985923  1
  O  O31  1  0.75574940  0.39592850  0.36651090  1
  O  O32  1  0.06243208  0.40492763  0.31060797  1
  O  O33  1  0.68709981  0.88614777  0.18241127  1
  O  O34  1  0.69131822  0.09766063  0.39383963  1
  O  O35  1  0.18709981  0.81758873  0.11385223  1
  O  O36  1  0.85499527  0.65328663  0.14561959  1
  O  O37  1  0.54349278  0.70804193  0.03950683  1
  O  O38  1  0.84585607  0.38396159  0.09182479  1
  O  O39  1  0.23732893  0.11846134  0.09117115  1
