# generated using pymatgen
data_Li7Mn5O12
_symmetry_space_group_name_H-M   'P 1'
_cell_length_a   2.99225783
_cell_length_b   7.83767077
_cell_length_c   10.16332017
_cell_angle_alpha   69.39222596
_cell_angle_beta   91.86182997
_cell_angle_gamma   83.36174049
_symmetry_Int_Tables_number   1
_chemical_formula_structural   Li7Mn5O12
_chemical_formula_sum   'Li7 Mn5 O12'
_cell_volume   220.91854475
_cell_formula_units_Z   1
loop_
 _symmetry_equiv_pos_site_id
 _symmetry_equiv_pos_as_xyz
  1  'x, y, z'
loop_
 _atom_site_type_symbol
 _atom_site_label
 _atom_site_symmetry_multiplicity
 _atom_site_fract_x
 _atom_site_fract_y
 _atom_site_fract_z
 _atom_site_occupancy
  Li  Li0  1  0.82040467  0.34378354  0.06953706  1
  Li  Li1  1  0.16160375  0.66762124  0.41865149  1
  Li  Li2  1  0.46779543  0.01704555  0.75425496  1
  Li  Li3  1  0.19887157  0.64962145  0.91241204  1
  Li  Li4  1  0.50506325  0.99904576  0.24801551  1
  Li  Li5  1  0.84626133  0.32288246  0.59712894  1
  Li  Li6  1  0.33333300  0.33333300  0.83333300  1
  Mn  Mn7  1  0.98532239  0.01205553  0.99310151  1
  Mn  Mn8  1  0.68134461  0.65461147  0.67356549  1
  Mn  Mn9  1  0.33333300  0.33333300  0.33333300  1
  Mn  Mn10  1  0.65450073  0.66982745  0.16667051  1
  Mn  Mn11  1  0.01216627  0.99683955  0.49999649  1
  O  O12  1  0.44695740  0.14596393  0.03503198  1
  O  O13  1  0.71316343  0.50277458  0.36612039  1
  O  O14  1  0.12509972  0.81591401  0.69706144  1
  O  O15  1  0.73820998  0.51629784  0.86253764  1
  O  O16  1  0.04340950  0.83698531  0.19632562  1
  O  O17  1  0.38940611  0.16726645  0.53461374  1
  O  O18  1  0.27725989  0.49939955  0.13205226  1
  O  O19  1  0.62325750  0.82968169  0.47034138  1
  O  O20  1  0.92845702  0.15036916  0.80412936  1
  O  O21  1  0.54156728  0.85075299  0.96960556  1
  O  O22  1  0.95350357  0.16389242  0.30054661  1
  O  O23  1  0.21970860  0.52070207  0.63163402  1
