# generated using pymatgen
data_MnTeO3
_symmetry_space_group_name_H-M   'P 1'
_cell_length_a   5.51087749
_cell_length_b   6.20632974
_cell_length_c   7.88719730
_cell_angle_alpha   90.00000000
_cell_angle_beta   90.00000000
_cell_angle_gamma   90.00000000
_symmetry_Int_Tables_number   1
_chemical_formula_structural   MnTeO3
_chemical_formula_sum   'Mn4 Te4 O12'
_cell_volume   269.76046851
_cell_formula_units_Z   4
loop_
 _symmetry_equiv_pos_site_id
 _symmetry_equiv_pos_as_xyz
  1  'x, y, z'
loop_
 _atom_site_type_symbol
 _atom_site_label
 _atom_site_symmetry_multiplicity
 _atom_site_fract_x
 _atom_site_fract_y
 _atom_site_fract_z
 _atom_site_occupancy
  Mn  Mn0  1  -0.00000000  0.50000000  0.00000000  1
  Mn  Mn1  1  -0.00000000  0.50000000  0.50000000  1
  Mn  Mn2  1  0.50000000  -0.00000000  0.00000000  1
  Mn  Mn3  1  0.50000000  -0.00000000  0.50000000  1
  Te  Te4  1  0.01345848  0.98964208  0.75000000  1
  Te  Te5  1  0.48654152  0.48964208  0.75000000  1
  Te  Te6  1  0.51345848  0.51035792  0.25000000  1
  Te  Te7  1  0.98654152  0.01035792  0.25000000  1
  O  O8  1  0.17515638  0.43693171  0.25000000  1
  O  O9  1  0.14079853  0.17551421  0.57185133  1
  O  O10  1  0.14079853  0.17551421  0.92814867  1
  O  O11  1  0.35920147  0.67551421  0.57185133  1
  O  O12  1  0.35920147  0.67551421  0.92814867  1
  O  O13  1  0.32484362  0.93693171  0.25000000  1
  O  O14  1  0.67515638  0.06306829  0.75000000  1
  O  O15  1  0.64079853  0.32448579  0.07185133  1
  O  O16  1  0.64079853  0.32448579  0.42814867  1
  O  O17  1  0.85920147  0.82448579  0.07185133  1
  O  O18  1  0.85920147  0.82448579  0.42814867  1
  O  O19  1  0.82484362  0.56306829  0.75000000  1
