# generated using pymatgen
data_Li2Co3TeO8
_symmetry_space_group_name_H-M   'P 1'
_cell_length_a   5.92473143
_cell_length_b   5.92595499
_cell_length_c   9.77777014
_cell_angle_alpha   90.09831801
_cell_angle_beta   89.95083424
_cell_angle_gamma   120.00683172
_symmetry_Int_Tables_number   1
_chemical_formula_structural   Li2Co3TeO8
_chemical_formula_sum   'Li4 Co6 Te2 O16'
_cell_volume   297.28084811
_cell_formula_units_Z   2
loop_
 _symmetry_equiv_pos_site_id
 _symmetry_equiv_pos_as_xyz
  1  'x, y, z'
loop_
 _atom_site_type_symbol
 _atom_site_label
 _atom_site_symmetry_multiplicity
 _atom_site_fract_x
 _atom_site_fract_y
 _atom_site_fract_z
 _atom_site_occupancy
  Li  Li0  1  0.33078265  0.66281796  0.90699279  1
  Li  Li1  1  0.99996091  0.00041258  0.98733619  1
  Li  Li2  1  0.00003909  0.00045167  0.48733619  1
  Li  Li3  1  0.66921735  0.33203630  0.40699279  1
  Co  Co4  1  0.16793951  0.83116461  0.22154148  1
  Co  Co5  1  0.18662952  0.35378950  0.21164458  1
  Co  Co6  1  0.64545186  0.81270863  0.21237818  1
  Co  Co7  1  0.35454814  0.16725577  0.71237818  1
  Co  Co8  1  0.83206049  0.66322610  0.72154148  1
  Co  Co9  1  0.81337048  0.16715998  0.71164458  1
  Te  Te10  1  0.33187156  0.66227974  0.48686461  1
  Te  Te11  1  0.66812844  0.33040717  0.98686461  1
  O  O12  1  0.17384568  0.83213112  0.58868347  1
  O  O13  1  0.03816920  0.51875213  0.35098584  1
  O  O14  1  0.32368243  0.67709038  0.10822162  1
  O  O15  1  0.00161298  0.99756899  0.29533391  1
  O  O16  1  0.99838702  0.99595601  0.79533391  1
  O  O17  1  0.16934465  0.33996418  0.58920010  1
  O  O18  1  0.47981848  0.95949050  0.35215037  1
  O  O19  1  0.48391617  0.51528804  0.35388751  1
  O  O20  1  0.34122611  0.17381601  0.08869833  1
  O  O21  1  0.65877389  0.83258891  0.58869833  1
  O  O22  1  0.52018152  0.47967202  0.85215037  1
  O  O23  1  0.51608383  0.03137186  0.85388751  1
  O  O24  1  0.67631757  0.35340795  0.60822162  1
  O  O25  1  0.82615432  0.65828544  0.08868347  1
  O  O26  1  0.96183080  0.48058293  0.85098584  1
  O  O27  1  0.83065535  0.17062053  0.08920010  1
