# generated using pymatgen
data_Li2MnP2O7
_symmetry_space_group_name_H-M   'P 1'
_cell_length_a   5.43161131
_cell_length_b   6.62023323
_cell_length_c   8.98102186
_cell_angle_alpha   109.03174807
_cell_angle_beta   96.20417917
_cell_angle_gamma   107.69584712
_symmetry_Int_Tables_number   1
_chemical_formula_structural   Li2MnP2O7
_chemical_formula_sum   'Li4 Mn2 P4 O14'
_cell_volume   283.04487949
_cell_formula_units_Z   2
loop_
 _symmetry_equiv_pos_site_id
 _symmetry_equiv_pos_as_xyz
  1  'x, y, z'
loop_
 _atom_site_type_symbol
 _atom_site_label
 _atom_site_symmetry_multiplicity
 _atom_site_fract_x
 _atom_site_fract_y
 _atom_site_fract_z
 _atom_site_occupancy
  Li  Li0  1  0.13708540  0.78576273  0.96831493  1
  Li  Li1  1  0.31806332  0.22662247  0.76729011  1
  Li  Li2  1  0.68193668  0.77337753  0.23270989  1
  Li  Li3  1  0.86291460  0.21423727  0.03168507  1
  Mn  Mn4  1  0.11673687  0.61201230  0.36657072  1
  Mn  Mn5  1  0.88326313  0.38798770  0.63342928  1
  P  P6  1  0.23767475  0.15306912  0.39958583  1
  P  P7  1  0.59069667  0.70452579  0.87497774  1
  P  P8  1  0.40930333  0.29547421  0.12502226  1
  P  P9  1  0.76232525  0.84693088  0.60041417  1
  O  O10  1  0.06128820  0.89906167  0.33144379  1
  O  O11  1  0.07072415  0.30861676  0.42211107  1
  O  O12  1  0.29446402  0.56287895  0.84201541  1
  O  O13  1  0.23425706  0.44230731  0.15060071  1
  O  O14  1  0.30041720  0.10063157  0.95826908  1
  O  O15  1  0.54809361  0.77505015  0.44959705  1
  O  O16  1  0.60950357  0.82439711  0.74280736  1
  O  O17  1  0.39049643  0.17560289  0.25719264  1
  O  O18  1  0.45190639  0.22494985  0.55040295  1
  O  O19  1  0.69958280  0.89936843  0.04173092  1
  O  O20  1  0.76574294  0.55769269  0.84939929  1
  O  O21  1  0.70553598  0.43712105  0.15798459  1
  O  O22  1  0.92927585  0.69138324  0.57788893  1
  O  O23  1  0.93871180  0.10093833  0.66855621  1
