# generated using pymatgen
data_Li7Fe3Sb(PO4)6
_symmetry_space_group_name_H-M   'P 1'
_cell_length_a   8.72427517
_cell_length_b   8.72427471
_cell_length_c   8.94527569
_cell_angle_alpha   89.99999710
_cell_angle_beta   60.81395606
_cell_angle_gamma   119.99999874
_symmetry_Int_Tables_number   1
_chemical_formula_structural   Li7Fe3Sb(PO4)6
_chemical_formula_sum   'Li7 Fe3 Sb1 P6 O24'
_cell_volume   487.27302017
_cell_formula_units_Z   1
loop_
 _symmetry_equiv_pos_site_id
 _symmetry_equiv_pos_as_xyz
  1  'x, y, z'
loop_
 _atom_site_type_symbol
 _atom_site_label
 _atom_site_symmetry_multiplicity
 _atom_site_fract_x
 _atom_site_fract_y
 _atom_site_fract_z
 _atom_site_occupancy
  Li  Li0  1  0.43395257  0.06972742  0.85843486  1
  Li  Li1  1  0.07183772  0.36422615  0.85843486  1
  Li  Li2  1  0.77733899  0.70761257  0.85843486  1
  Li  Li3  1  0.34813640  0.75115016  0.34997575  1
  Li  Li4  1  0.05303901  0.30188885  0.34997575  1
  Li  Li5  1  0.89887409  0.59698624  0.34997575  1
  Li  Li6  1  0.00803036  0.00401518  0.98795445  1
  Fe  Fe7  1  0.68567227  0.34283564  0.97149209  1
  Fe  Fe8  1  0.28175776  0.14087938  0.57736285  1
  Fe  Fe9  1  0.31283318  0.65641659  0.03075023  1
  Sb  Sb10  1  0.68191333  0.84095717  0.47712950  1
  P  P11  1  0.18250596  0.75413415  0.75723567  1
  P  P12  1  0.19757850  0.95896398  0.26624821  1
  P  P13  1  0.48863018  0.42837281  0.75723567  1
  P  P14  1  0.49513726  0.53617329  0.26624821  1
  P  P15  1  0.81439252  0.06025837  0.75723567  1
  P  P16  1  0.77478781  0.23861553  0.26624821  1
  O  O17  1  0.27960552  0.80347532  0.87078481  1
  O  O18  1  0.08700056  0.87100712  0.77580783  1
  O  O19  1  0.00471460  0.54216559  0.82377068  1
  O  O20  1  0.65308500  0.84960968  0.87078481  1
  O  O21  1  0.18161077  0.99113565  0.44013560  1
  O  O22  1  -0.01531735  0.88605605  0.27885510  1
  O  O23  1  0.32573987  0.47613019  0.87078481  1
  O  O24  1  0.35253530  0.80007776  0.55704311  1
  O  O25  1  0.22766723  0.79737398  0.23625430  1
  O  O26  1  0.35318505  0.21599244  0.77580783  1
  O  O27  1  0.63406373  0.46254901  0.82377068  1
  O  O28  1  0.64288014  0.55245754  0.55704311  1
  O  O29  1  0.36938928  0.37825362  0.44013560  1
  O  O30  1  0.33345246  0.53607848  0.23625430  1
  O  O31  1  0.62251830  0.73646225  0.27885510  1
  O  O32  1  0.71368031  0.17151472  0.82377068  1
  O  O33  1  0.56872874  0.19047512  0.44013560  1
  O  O34  1  0.66466741  0.52649304  0.10083905  1
  O  O35  1  0.00819873  0.13719160  0.77580783  1
  O  O36  1  0.89049936  0.09042160  0.55704311  1
  O  O37  1  0.37266791  0.13817436  0.10083905  1
  O  O38  1  0.96637172  0.43029325  0.23625430  1
  O  O39  1  0.76098659  0.23449354  0.10083905  1
  O  O40  1  0.83508985  0.09862660  0.27885510  1
