# generated using pymatgen
data_Li6MnV3(PO4)6
_symmetry_space_group_name_H-M   'P 1'
_cell_length_a   8.68063105
_cell_length_b   8.58230778
_cell_length_c   15.18177629
_cell_angle_alpha   105.62635493
_cell_angle_beta   90.09035427
_cell_angle_gamma   61.42347483
_symmetry_Int_Tables_number   1
_chemical_formula_structural   Li6MnV3(PO4)6
_chemical_formula_sum   'Li12 Mn2 V6 P12 O48'
_cell_volume   945.65088855
_cell_formula_units_Z   2
loop_
 _symmetry_equiv_pos_site_id
 _symmetry_equiv_pos_as_xyz
  1  'x, y, z'
loop_
 _atom_site_type_symbol
 _atom_site_label
 _atom_site_symmetry_multiplicity
 _atom_site_fract_x
 _atom_site_fract_y
 _atom_site_fract_z
 _atom_site_occupancy
  Li  Li0  1  0.30524567  0.75339004  0.31870151  1
  Li  Li1  1  0.17850505  0.73970844  0.54714952  1
  Li  Li2  1  0.67612970  0.74049315  0.04531864  1
  Li  Li3  1  0.16252672  0.26197282  0.19192222  1
  Li  Li4  1  0.20731660  0.68727768  0.83338419  1
  Li  Li5  1  0.71747461  0.68312096  0.33679413  1
  Li  Li6  1  0.28535445  0.24831915  0.64634602  1
  Li  Li7  1  0.76860829  0.25087948  0.14155762  1
  Li  Li8  1  0.78889381  0.76193341  0.81812865  1
  Li  Li9  1  0.67299958  0.24902131  0.68666384  1
  Li  Li10  1  0.35765588  0.18072889  0.97587172  1
  Li  Li11  1  0.85261169  0.18218386  0.47235221  1
  Mn  Mn12  1  0.78366011  0.85601399  0.57251579  1
  Mn  Mn13  1  0.72289117  0.13544236  0.92516018  1
  V  V14  1  0.28550230  0.85762289  0.07282101  1
  V  V15  1  0.02989262  0.35732205  0.82029825  1
  V  V16  1  0.47343015  0.63636685  0.68027414  1
  V  V17  1  0.53543082  0.35838840  0.32065295  1
  V  V18  1  0.21561054  0.13745274  0.42447425  1
  V  V19  1  0.96907501  0.63940771  0.18041371  1
  P  P20  1  0.01465536  0.94790182  0.73433012  1
  P  P21  1  0.51614914  0.95227832  0.23669108  1
  P  P22  1  0.02148398  0.25106907  0.02379207  1
  P  P23  1  0.10599394  0.53704211  0.37499223  1
  P  P24  1  0.39956223  0.45377694  0.12428608  1
  P  P25  1  0.48140896  0.74619693  0.47693456  1
  P  P26  1  0.52439586  0.24566451  0.52354825  1
  P  P27  1  0.59873280  0.53583861  0.87649330  1
  P  P28  1  0.90473037  0.45292705  0.62145291  1
  P  P29  1  0.97642218  0.75110505  0.97533657  1
  P  P30  1  0.48412110  0.04375996  0.76590443  1
  P  P31  1  0.98591936  0.04249058  0.26186158  1
  O  O32  1  0.01320239  0.84491895  0.23710210  1
  O  O33  1  0.46321492  0.91448143  0.13802140  1
  O  O34  1  0.39908135  0.94070986  0.30906265  1
  O  O35  1  0.02105893  0.67834734  0.47095459  1
  O  O36  1  0.29999162  0.90266485  0.46531005  1
  O  O37  1  0.34321263  0.64845844  0.11795289  1
  O  O38  1  0.23102840  0.44501805  0.15052280  1
  O  O39  1  0.27369894  0.54600760  0.34725327  1
  O  O40  1  0.20895746  0.78924047  0.72473554  1
  O  O41  1  0.70648493  0.79000049  0.23072023  1
  O  O42  1  0.20740568  0.09252512  0.03207317  1
  O  O43  1  0.16155112  0.33452581  0.36872444  1
  O  O44  1  0.10260220  0.05572434  0.19041953  1
  O  O45  1  -0.00052049  0.30034054  0.52742553  1
  O  O46  1  0.12136448  0.80618180  0.98964720  1
  O  O47  1  0.43549180  0.68608113  0.55520132  1
  O  O48  1  0.49971841  0.29367329  0.03447739  1
  O  O49  1  0.03103553  0.40965525  0.69473009  1
  O  O50  1  0.04900048  0.59430869  0.87929700  1
  O  O51  1  0.62580242  0.80336467  0.49179325  1
  O  O52  1  0.92692863  0.69427698  0.05432253  1
  O  O53  1  0.03446182  0.07952580  0.36141864  1
  O  O54  1  0.52294979  0.42736780  0.19993843  1
  O  O55  1  0.56022959  0.58948857  0.38089032  1
  O  O56  1  0.51874845  0.84190420  0.73877080  1
  O  O57  1  0.50274104  0.14271461  0.26097584  1
  O  O58  1  0.45149230  0.40186957  0.61887800  1
  O  O59  1  0.94758052  0.40645928  0.11939741  1
  O  O60  1  0.95787033  0.92147301  0.63579794  1
  O  O61  1  0.47084540  0.57689937  0.80314313  1
  O  O62  1  0.06185326  0.31151809  0.94489822  1
  O  O63  1  0.38105422  0.18787151  0.50904662  1
  O  O64  1  0.97412338  0.58181657  0.30357078  1
  O  O65  1  0.57405749  0.30102811  0.44450244  1
  O  O66  1  0.87843403  0.19129488  0.01037033  1
  O  O67  1  0.90537585  0.92414666  0.80431758  1
  O  O68  1  0.51125141  0.68317736  0.97140635  1
  O  O69  1  0.79256889  0.91225838  0.96553497  1
  O  O70  1  0.85365085  0.65148998  0.62232973  1
  O  O71  1  0.28927994  0.19042222  0.76821314  1
  O  O72  1  0.79432258  0.19485143  0.26267916  1
  O  O73  1  0.73620310  0.44306447  0.64638742  1
  O  O74  1  0.76673592  0.54424772  0.84841058  1
  O  O75  1  0.71014926  0.08579341  0.53385498  1
  O  O76  1  0.65156127  0.33524586  0.87388497  1
  O  O77  1  0.59308660  0.06611733  0.69513921  1
  O  O78  1  0.53639401  0.07547126  0.86481125  1
  O  O79  1  0.99327683  0.14270434  0.76426107  1
