# generated using pymatgen
data_Li4CrFe3Sn2(PO4)6
_symmetry_space_group_name_H-M   'P 1'
_cell_length_a   9.23361751
_cell_length_b   9.25685471
_cell_length_c   9.31489306
_cell_angle_alpha   54.92063048
_cell_angle_beta   54.69315072
_cell_angle_gamma   55.30423608
_symmetry_Int_Tables_number   1
_chemical_formula_structural   Li4CrFe3Sn2(PO4)6
_chemical_formula_sum   'Li4 Cr1 Fe3 Sn2 P6 O24'
_cell_volume   497.09246279
_cell_formula_units_Z   1
loop_
 _symmetry_equiv_pos_site_id
 _symmetry_equiv_pos_as_xyz
  1  'x, y, z'
loop_
 _atom_site_type_symbol
 _atom_site_label
 _atom_site_symmetry_multiplicity
 _atom_site_fract_x
 _atom_site_fract_y
 _atom_site_fract_z
 _atom_site_occupancy
  Li  Li0  1  0.69633527  0.11158659  0.34027927  1
  Li  Li1  1  0.28561810  0.90454415  0.63835207  1
  Li  Li2  1  0.65888708  0.28141653  0.90150938  1
  Li  Li3  1  0.89848034  0.64482795  0.28844032  1
  Cr  Cr4  1  0.85546811  0.84373412  0.85223368  1
  Fe  Fe5  1  0.15446457  0.15742768  0.15622642  1
  Fe  Fe6  1  0.32225765  0.35139803  0.33495380  1
  Fe  Fe7  1  0.64643530  0.65488279  0.65950950  1
  Sn  Sn8  1  0.05593332  0.00273054  0.00401737  1
  Sn  Sn9  1  0.45596778  0.48645324  0.47771083  1
  P  P10  1  0.75530299  0.44956930  0.04141487  1
  P  P11  1  0.23646377  0.54780849  0.95672207  1
  P  P12  1  0.55577782  0.95731921  0.23849052  1
  P  P13  1  0.95875523  0.23666602  0.54523100  1
  P  P14  1  0.03498182  0.76277298  0.45145038  1
  P  P15  1  0.45632998  0.03475850  0.76079543  1
  O  O16  1  0.16053163  0.18185538  0.53122316  1
  O  O17  1  0.17787437  0.55070187  0.14988555  1
  O  O18  1  0.12858415  0.89982797  0.25034849  1
  O  O19  1  0.56826516  0.13936045  0.20140481  1
  O  O20  1  0.99599162  0.81030295  0.60406457  1
  O  O21  1  0.18613443  0.55699633  0.46797697  1
  O  O22  1  0.25777668  0.12768394  0.89729561  1
  O  O23  1  0.48613959  0.19335864  0.55525313  1
  O  O24  1  0.18810832  0.39547514  0.98852796  1
  O  O25  1  0.55356629  0.45687761  0.21043669  1
  O  O26  1  0.12095302  0.74674009  0.84510037  1
  O  O27  1  0.39332907  0.01427841  0.18964478  1
  O  O28  1  0.61074906  0.96840640  0.82070701  1
  O  O29  1  0.89261973  0.24223434  0.12473453  1
  O  O30  1  0.44907948  0.51189188  0.83743840  1
  O  O31  1  0.81278758  0.59684059  0.00068566  1
  O  O32  1  0.52495357  0.82165926  0.44621963  1
  O  O33  1  0.75092520  0.85143959  0.11289869  1
  O  O34  1  0.83597925  0.44319644  0.52706880  1
  O  O35  1  0.97928701  0.20369859  0.38844654  1
  O  O36  1  0.43125348  0.88192182  0.76267177  1
  O  O37  1  0.85720807  0.10912284  0.74494525  1
  O  O38  1  0.75362161  0.45578638  0.87441957  1
  O  O39  1  0.85681850  0.78944898  0.44426315  1
