# generated using pymatgen
data_Li4Nb2V3Co3O16
_symmetry_space_group_name_H-M   'P 1'
_cell_length_a   5.99027540
_cell_length_b   5.97526599
_cell_length_c   9.78316282
_cell_angle_alpha   89.88852604
_cell_angle_beta   90.33468407
_cell_angle_gamma   119.75461529
_symmetry_Int_Tables_number   1
_chemical_formula_structural   Li4Nb2V3Co3O16
_chemical_formula_sum   'Li4 Nb2 V3 Co3 O16'
_cell_volume   304.00087550
_cell_formula_units_Z   1
loop_
 _symmetry_equiv_pos_site_id
 _symmetry_equiv_pos_as_xyz
  1  'x, y, z'
loop_
 _atom_site_type_symbol
 _atom_site_label
 _atom_site_symmetry_multiplicity
 _atom_site_fract_x
 _atom_site_fract_y
 _atom_site_fract_z
 _atom_site_occupancy
  Li  Li0  1  0.34195717  0.66845901  0.89990780  1
  Li  Li1  1  0.98739047  0.99530516  0.99358192  1
  Li  Li2  1  0.98771920  0.99701785  0.49020777  1
  Li  Li3  1  0.69130705  0.34467763  0.39959519  1
  Nb  Nb4  1  0.31143259  0.65669953  0.50008799  1
  Nb  Nb5  1  0.65688503  0.33169344  0.99977612  1
  V  V6  1  0.64045812  0.82195874  0.23342545  1
  V  V7  1  0.81877542  0.65246798  0.71677408  1
  V  V8  1  0.81770859  0.17074281  0.72490925  1
  Co  Co9  1  0.16677929  0.82702411  0.20870414  1
  Co  Co10  1  0.16534963  0.33928723  0.20864522  1
  Co  Co11  1  0.34038825  0.17085439  0.71451377  1
  O  O12  1  0.15816118  0.82934890  0.59114076  1
  O  O13  1  0.05913678  0.53038828  0.34607730  1
  O  O14  1  0.37755497  0.68832501  0.10681759  1
  O  O15  1  0.97408884  0.98703172  0.29874502  1
  O  O16  1  0.98265093  0.00243163  0.80215380  1
  O  O17  1  0.16378651  0.33384737  0.59078321  1
  O  O18  1  0.51140936  0.97397492  0.34062828  1
  O  O19  1  0.51282867  0.53974447  0.34126107  1
  O  O20  1  0.32783902  0.16337772  0.08552710  1
  O  O21  1  0.65662532  0.83243965  0.59278088  1
  O  O22  1  0.52929212  0.48796565  0.84268970  1
  O  O23  1  0.52822438  0.03661378  0.84229820  1
  O  O24  1  0.69117990  0.32923478  0.60468295  1
  O  O25  1  0.82002084  0.66085473  0.09351456  1
  O  O26  1  0.96418931  0.47138306  0.84422730  1
  O  O27  1  0.81685903  0.15714940  0.09438458  1
