# generated using pymatgen
data_Li4TiFe3O8
_symmetry_space_group_name_H-M   'P 1'
_cell_length_a   5.66119097
_cell_length_b   6.54054130
_cell_length_c   5.09079104
_cell_angle_alpha   89.90020571
_cell_angle_beta   89.93025238
_cell_angle_gamma   90.55332011
_symmetry_Int_Tables_number   1
_chemical_formula_structural   Li4TiFe3O8
_chemical_formula_sum   'Li4 Ti1 Fe3 O8'
_cell_volume   188.48879008
_cell_formula_units_Z   1
loop_
 _symmetry_equiv_pos_site_id
 _symmetry_equiv_pos_as_xyz
  1  'x, y, z'
loop_
 _atom_site_type_symbol
 _atom_site_label
 _atom_site_symmetry_multiplicity
 _atom_site_fract_x
 _atom_site_fract_y
 _atom_site_fract_z
 _atom_site_occupancy
  Li  Li0  1  0.08050882  0.61882164  0.99031316  1
  Li  Li1  1  0.41957430  0.12837947  0.50098406  1
  Li  Li2  1  0.57839089  0.87641363  0.99045320  1
  Li  Li3  1  0.91183165  0.37483747  0.50101886  1
  Ti  Ti4  1  0.91760385  0.87439084  0.50155639  1
  Fe  Fe5  1  0.09175651  0.13531140  0.98498257  1
  Fe  Fe6  1  0.41708794  0.62476753  0.49952100  1
  Fe  Fe7  1  0.58494763  0.37275964  0.99313988  1
  O  O8  1  0.06768332  0.10766591  0.39560238  1
  O  O9  1  0.09066750  0.64511783  0.39349737  1
  O  O10  1  0.42984335  0.12960695  0.88870427  1
  O  O11  1  0.42050148  0.61529079  0.87331824  1
  O  O12  1  0.57032600  0.38766991  0.37539185  1
  O  O13  1  0.60024224  0.86257469  0.39277688  1
  O  O14  1  0.90184004  0.37633998  0.88798789  1
  O  O15  1  0.91719448  0.87005233  0.85715298  1
