# generated using pymatgen
data_Fe31Si5O48
_symmetry_space_group_name_H-M   'P 1'
_cell_length_a   10.44473408
_cell_length_b   10.43219691
_cell_length_c   10.53974421
_cell_angle_alpha   99.87958592
_cell_angle_beta   119.85676343
_cell_angle_gamma   70.03401369
_symmetry_Int_Tables_number   1
_chemical_formula_structural   Fe31Si5O48
_chemical_formula_sum   'Fe31 Si5 O48'
_cell_volume   936.13318628
_cell_formula_units_Z   1
loop_
 _symmetry_equiv_pos_site_id
 _symmetry_equiv_pos_as_xyz
  1  'x, y, z'
loop_
 _atom_site_type_symbol
 _atom_site_label
 _atom_site_symmetry_multiplicity
 _atom_site_fract_x
 _atom_site_fract_y
 _atom_site_fract_z
 _atom_site_occupancy
  Fe  Fe0  1  0.83286370  0.00370691  0.17379398  1
  Fe  Fe1  1  0.49634770  0.00137284  0.99946148  1
  Fe  Fe2  1  0.88654341  0.31107737  0.15750054  1
  Fe  Fe3  1  0.58231063  0.24892881  0.16958498  1
  Fe  Fe4  1  0.75284410  0.24889744  0.50224294  1
  Fe  Fe5  1  0.91889604  0.24837903  0.83340241  1
  Fe  Fe6  1  0.18047745  0.01380984  0.33312959  1
  Fe  Fe7  1  0.00342612  0.00245342  0.00452179  1
  Fe  Fe8  1  0.50098799  0.50003062  0.99840921  1
  Fe  Fe9  1  0.34743947  0.01394549  0.66521261  1
  Fe  Fe10  1  0.84797405  0.51537176  0.66580438  1
  Fe  Fe11  1  0.68462017  0.51455849  0.33754255  1
  Fe  Fe12  1  0.60944472  0.18654410  0.83783821  1
  Fe  Fe13  1  0.76847450  0.69082182  0.15752991  1
  Fe  Fe14  1  0.16421618  0.00367291  0.83210700  1
  Fe  Fe15  1  0.00138448  0.99762063  0.50103034  1
  Fe  Fe16  1  0.49802729  0.50407608  0.49971771  1
  Fe  Fe17  1  0.66726133  0.49610796  0.82320449  1
  Fe  Fe18  1  0.34261155  0.49392876  0.17609095  1
  Fe  Fe19  1  0.22935856  0.31137776  0.83913044  1
  Fe  Fe20  1  0.73144090  0.81003502  0.84191988  1
  Fe  Fe21  1  0.00107044  0.49691488  0.00018761  1
  Fe  Fe22  1  0.38997254  0.80866697  0.15850833  1
  Fe  Fe23  1  0.65241702  0.98510787  0.33564258  1
  Fe  Fe24  1  0.15072823  0.48440918  0.33441593  1
  Fe  Fe25  1  0.31608023  0.48569620  0.66398794  1
  Fe  Fe26  1  0.81955918  0.98531580  0.66625426  1
  Fe  Fe27  1  0.08507705  0.75026670  0.17198884  1
  Fe  Fe28  1  0.24988787  0.74968636  0.49968192  1
  Fe  Fe29  1  0.40908188  0.75572595  0.82429089  1
  Fe  Fe30  1  0.11099223  0.69157547  0.84356240  1
  Si  Si31  1  0.44330295  0.19896675  0.49417921  1
  Si  Si32  1  0.94563881  0.69487153  0.50028667  1
  Si  Si33  1  0.27735147  0.19287629  0.16599591  1
  Si  Si34  1  0.55491336  0.80629187  0.50010475  1
  Si  Si35  1  0.05575926  0.30278945  0.49881199  1
  O  O36  1  0.95521195  0.11811436  0.16970993  1
  O  O37  1  0.63340686  0.11961334  0.00867298  1
  O  O38  1  0.77820582  0.11527035  0.33606542  1
  O  O39  1  0.93347593  0.12074783  0.65446865  1
  O  O40  1  0.88528874  0.36306750  0.49830442  1
  O  O41  1  0.79890908  0.12296078  0.83463121  1
  O  O42  1  0.44618245  0.13255648  0.16769480  1
  O  O43  1  0.96680566  0.62283870  0.16720462  1
  O  O44  1  0.69446137  0.38286334  0.16155531  1
  O  O45  1  0.61301445  0.13576309  0.49570465  1
  O  O46  1  0.96480335  0.63909960  0.64949355  1
  O  O47  1  0.45936569  0.13958918  0.63884242  1
  O  O48  1  0.71573013  0.38538051  0.66027192  1
  O  O49  1  0.37865723  0.38591333  0.00643465  1
  O  O50  1  0.31276462  0.14703311  0.33310490  1
  O  O51  1  0.55639118  0.38495233  0.33932187  1
  O  O52  1  0.81507803  0.63961758  0.34982584  1
  O  O53  1  0.86408757  0.38167003  0.99100558  1
  O  O54  1  0.88230562  0.87317124  0.01715070  1
  O  O55  1  0.37866187  0.36676880  0.49669220  1
  O  O56  1  0.88240837  0.86405242  0.50046558  1
  O  O57  1  0.29334363  0.11972897  0.83263628  1
  O  O58  1  0.78748793  0.61691014  0.83147620  1
  O  O59  1  0.45974679  0.61166826  0.16282243  1
  O  O60  1  0.54111308  0.38392946  0.83696066  1
  O  O61  1  0.22159364  0.36278216  0.16788236  1
  O  O62  1  0.70681537  0.88500020  0.16834085  1
  O  O63  1  0.61654792  0.63678749  0.49821590  1
  O  O64  1  0.11941274  0.13359858  0.49788205  1
  O  O65  1  0.14478774  0.13215944  0.02972879  1
  O  O66  1  0.13316402  0.62319729  0.01586312  1
  O  O67  1  0.27483578  0.60962099  0.32076573  1
  O  O68  1  0.53542786  0.86172503  0.35094015  1
  O  O69  1  0.18431794  0.36099430  0.64677674  1
  O  O70  1  0.03609024  0.35997320  0.35072421  1
  O  O71  1  0.45294912  0.61241368  0.67709056  1
  O  O72  1  0.61463331  0.62051124  0.98674490  1
  O  O73  1  0.68545380  0.86124956  0.64947635  1
  O  O74  1  0.38437183  0.86875982  0.49799446  1
  O  O75  1  0.30483110  0.62262681  0.83897442  1
  O  O76  1  0.03494196  0.37779693  0.83291647  1
  O  O77  1  0.20247577  0.87128130  0.16893592  1
  O  O78  1  0.53497707  0.87215508  0.83274383  1
  O  O79  1  0.11510181  0.63213374  0.50083552  1
  O  O80  1  0.22576634  0.88055435  0.66854571  1
  O  O81  1  0.37767538  0.86821569  0.99208604  1
  O  O82  1  0.04628792  0.88410823  0.32286280  1
  O  O83  1  0.04185305  0.88319983  0.83608379  1
