# generated using pymatgen
data_AlRhO3
_symmetry_space_group_name_H-M   'P 1'
_cell_length_a   3.15140374
_cell_length_b   3.15147545
_cell_length_c   11.88515459
_cell_angle_alpha   89.99962460
_cell_angle_beta   90.00029929
_cell_angle_gamma   119.99966905
_symmetry_Int_Tables_number   1
_chemical_formula_structural   AlRhO3
_chemical_formula_sum   'Al2 Rh2 O6'
_cell_volume   102.22447529
_cell_formula_units_Z   2
loop_
 _symmetry_equiv_pos_site_id
 _symmetry_equiv_pos_as_xyz
  1  'x, y, z'
loop_
 _atom_site_type_symbol
 _atom_site_label
 _atom_site_symmetry_multiplicity
 _atom_site_fract_x
 _atom_site_fract_y
 _atom_site_fract_z
 _atom_site_occupancy
  Al  Al0  1  0.33333281  0.66671909  0.24998808  1
  Al  Al1  1  0.66665910  0.33333042  0.75000967  1
  Rh  Rh2  1  0.00001018  0.00002127  0.00000149  1
  Rh  Rh3  1  0.99999452  0.00001116  0.49999797  1
  O  O4  1  0.33333771  0.66668090  0.08617187  1
  O  O5  1  0.00000615  0.00005880  0.24997963  1
  O  O6  1  0.33332082  0.66667455  0.41381201  1
  O  O7  1  0.99998584  0.99998865  0.75002112  1
  O  O8  1  0.66667115  0.33335214  0.58618795  1
  O  O9  1  0.66668374  0.33336303  0.91383023  1
