# generated using pymatgen
data_Li2MnV3O8
_symmetry_space_group_name_H-M   'P 1'
_cell_length_a   8.20664921
_cell_length_b   8.66907494
_cell_length_c   8.53248123
_cell_angle_alpha   90.00423597
_cell_angle_beta   89.92095444
_cell_angle_gamma   90.13454337
_symmetry_Int_Tables_number   1
_chemical_formula_structural   Li2MnV3O8
_chemical_formula_sum   'Li8 Mn4 V12 O32'
_cell_volume   607.03307836
_cell_formula_units_Z   4
loop_
 _symmetry_equiv_pos_site_id
 _symmetry_equiv_pos_as_xyz
  1  'x, y, z'
loop_
 _atom_site_type_symbol
 _atom_site_label
 _atom_site_symmetry_multiplicity
 _atom_site_fract_x
 _atom_site_fract_y
 _atom_site_fract_z
 _atom_site_occupancy
  Li  Li0  1  0.00416729  0.00161667  0.00209711  1
  Li  Li1  1  0.24613754  0.25055849  0.24858086  1
  Li  Li2  1  0.25369386  0.74859353  0.74935186  1
  Li  Li3  1  0.49685105  0.00039113  0.50017327  1
  Li  Li4  1  0.50342809  0.49917368  0.99889409  1
  Li  Li5  1  0.74759746  0.24927223  0.75160588  1
  Li  Li6  1  0.75355444  0.74997125  0.25068357  1
  Li  Li7  1  0.99643616  0.49934199  0.50006240  1
  Mn  Mn8  1  0.12354784  0.87568011  0.37536602  1
  Mn  Mn9  1  0.37647663  0.12723567  0.87525323  1
  Mn  Mn10  1  0.62463909  0.62654279  0.62434015  1
  Mn  Mn11  1  0.87725144  0.37138866  0.12129530  1
  V  V12  1  0.12547195  0.12863230  0.62530719  1
  V  V13  1  0.12749691  0.38007188  0.87406828  1
  V  V14  1  0.12629721  0.62493176  0.12329575  1
  V  V15  1  0.37433893  0.37151894  0.62197015  1
  V  V16  1  0.37020426  0.61830102  0.37607240  1
  V  V17  1  0.37669308  0.87016446  0.12781574  1
  V  V18  1  0.61824376  0.36827911  0.37275133  1
  V  V19  1  0.62516286  0.12051362  0.12679857  1
  V  V20  1  0.62587538  0.87438249  0.87636306  1
  V  V21  1  0.87725823  0.13290534  0.37761298  1
  V  V22  1  0.87304634  0.88376656  0.62440685  1
  V  V23  1  0.87624888  0.62905071  0.87270910  1
  O  O24  1  0.11337393  0.11877267  0.39070238  1
  O  O25  1  0.10329194  0.88593630  0.61838280  1
  O  O26  1  0.12056601  0.61117297  0.89032775  1
  O  O27  1  0.13988873  0.14481916  0.86294744  1
  O  O28  1  0.11448264  0.39046292  0.10803946  1
  O  O29  1  0.14055761  0.37131605  0.63870147  1
  O  O30  1  0.14058760  0.62606783  0.35982254  1
  O  O31  1  0.13389805  0.85321442  0.13525943  1
  O  O32  1  0.36686500  0.14477064  0.63467466  1
  O  O33  1  0.35807554  0.37334078  0.85916778  1
  O  O34  1  0.35834041  0.62837225  0.13869699  1
  O  O35  1  0.38680058  0.60905997  0.60804259  1
  O  O36  1  0.36166611  0.85292327  0.36369953  1
  O  O37  1  0.37081640  0.38894183  0.39031416  1
  O  O38  1  0.39503140  0.11345824  0.11746894  1
  O  O39  1  0.39750084  0.87906445  0.88920948  1
  O  O40  1  0.60266685  0.37838178  0.61230213  1
  O  O41  1  0.60434065  0.60749618  0.38072145  1
  O  O42  1  0.62165793  0.89018148  0.11142040  1
  O  O43  1  0.64134898  0.35855767  0.13849228  1
  O  O44  1  0.61400510  0.10939818  0.89178893  1
  O  O45  1  0.63245809  0.13588691  0.36153647  1
  O  O46  1  0.64230861  0.87405349  0.64065819  1
  O  O47  1  0.63403445  0.64541695  0.86378535  1
  O  O48  1  0.87079426  0.34734852  0.37093151  1
  O  O49  1  0.85727139  0.12843358  0.13898578  1
  O  O50  1  0.85892726  0.87118579  0.86152169  1
  O  O51  1  0.88544718  0.89861756  0.38877016  1
  O  O52  1  0.86047416  0.64656199  0.63647001  1
  O  O53  1  0.88035231  0.11346033  0.61002112  1
  O  O54  1  0.89702226  0.38673581  0.87793599  1
  O  O55  1  0.89503302  0.61444968  0.11246995  1
