# generated using pymatgen
data_Nb2FeO6
_symmetry_space_group_name_H-M   'P 1'
_cell_length_a   5.36295918
_cell_length_b   5.82583401
_cell_length_c   14.89995533
_cell_angle_alpha   90.00000000
_cell_angle_beta   90.00000000
_cell_angle_gamma   90.00000000
_symmetry_Int_Tables_number   1
_chemical_formula_structural   Nb2FeO6
_chemical_formula_sum   'Nb8 Fe4 O24'
_cell_volume   465.52988312
_cell_formula_units_Z   4
loop_
 _symmetry_equiv_pos_site_id
 _symmetry_equiv_pos_as_xyz
  1  'x, y, z'
loop_
 _atom_site_type_symbol
 _atom_site_label
 _atom_site_symmetry_multiplicity
 _atom_site_fract_x
 _atom_site_fract_y
 _atom_site_fract_z
 _atom_site_occupancy
  Nb  Nb0  1  0.92721202  0.17147721  0.16470232  1
  Nb  Nb1  1  0.57278798  0.67147721  0.66470232  1
  Nb  Nb2  1  0.07278798  0.32852279  0.66470232  1
  Nb  Nb3  1  0.42721202  0.82852279  0.16470232  1
  Nb  Nb4  1  0.07278798  0.82852279  0.83529768  1
  Nb  Nb5  1  0.57278798  0.17147721  0.83529768  1
  Nb  Nb6  1  0.92721202  0.67147721  0.33529768  1
  Nb  Nb7  1  0.42721202  0.32852279  0.33529768  1
  Fe  Fe8  1  0.75000000  0.15923605  0.50000000  1
  Fe  Fe9  1  0.25000000  0.34076395  0.00000000  1
  Fe  Fe10  1  0.25000000  0.84076395  0.50000000  1
  Fe  Fe11  1  0.75000000  0.65923605  -0.00000000  1
  O  O12  1  0.73982000  0.91164281  0.10059945  1
  O  O13  1  0.12299474  0.60188200  0.91706756  1
  O  O14  1  0.12299474  0.10188200  0.58293244  1
  O  O15  1  0.37700526  0.10188200  0.41706756  1
  O  O16  1  0.09647512  0.85085579  0.23772746  1
  O  O17  1  0.87700526  0.89811800  0.41706756  1
  O  O18  1  0.26018000  0.08835719  0.89940055  1
  O  O19  1  0.40352488  0.35085579  0.73772746  1
  O  O20  1  0.40352488  0.85085579  0.76227254  1
  O  O21  1  0.37700526  0.60188200  0.08293244  1
  O  O22  1  0.76018000  0.91164281  0.89940055  1
  O  O23  1  0.73982000  0.41164281  0.39940055  1
  O  O24  1  0.09647512  0.35085579  0.26227254  1
  O  O25  1  0.23982000  0.08835719  0.10059945  1
  O  O26  1  0.26018000  0.58835719  0.60059945  1
  O  O27  1  0.62299474  0.39811800  0.91706756  1
  O  O28  1  0.23982000  0.58835719  0.39940055  1
  O  O29  1  0.90352488  0.64914421  0.73772746  1
  O  O30  1  0.90352488  0.14914421  0.76227254  1
  O  O31  1  0.62299474  0.89811800  0.58293244  1
  O  O32  1  0.87700526  0.39811800  0.08293244  1
  O  O33  1  0.59647512  0.14914421  0.23772746  1
  O  O34  1  0.59647512  0.64914421  0.26227254  1
  O  O35  1  0.76018000  0.41164281  0.60059945  1
