# generated using pymatgen
data_La2P3H7O11
_symmetry_space_group_name_H-M   'P 1'
_cell_length_a   8.34734402
_cell_length_b   8.59407919
_cell_length_c   9.38097347
_cell_angle_alpha   115.20114206
_cell_angle_beta   99.16552106
_cell_angle_gamma   105.92212057
_symmetry_Int_Tables_number   1
_chemical_formula_structural   La2P3H7O11
_chemical_formula_sum   'La4 P6 H14 O22'
_cell_volume   555.29372404
_cell_formula_units_Z   2
loop_
 _symmetry_equiv_pos_site_id
 _symmetry_equiv_pos_as_xyz
  1  'x, y, z'
loop_
 _atom_site_type_symbol
 _atom_site_label
 _atom_site_symmetry_multiplicity
 _atom_site_fract_x
 _atom_site_fract_y
 _atom_site_fract_z
 _atom_site_occupancy
  La  La0  1  0.40246461  0.20409934  0.64269430  1
  La  La1  1  0.17297609  0.23366977  0.00586455  1
  La  La2  1  0.82702391  0.76633023  0.99413545  1
  La  La3  1  0.59753539  0.79590066  0.35730570  1
  P  P4  1  0.00544132  0.16456638  0.34313180  1
  P  P5  1  0.99455868  0.83543362  0.65686820  1
  P  P6  1  0.83511291  0.27365590  0.73823483  1
  P  P7  1  0.16488709  0.72634410  0.26176517  1
  P  P8  1  0.61675529  0.39821715  0.10594252  1
  P  P9  1  0.38324471  0.60178285  0.89405748  1
  H  H10  1  0.67454391  0.40038922  0.53314645  1
  H  H11  1  0.53264573  0.38925239  0.39194272  1
  H  H12  1  0.73072318  0.33443053  0.17255767  1
  H  H13  1  0.60323442  0.89499885  0.78102308  1
  H  H14  1  0.94522937  0.31165583  0.40068593  1
  H  H15  1  0.32545609  0.59961078  0.46685355  1
  H  H16  1  0.36117641  0.93151582  0.05514943  1
  H  H17  1  0.46735427  0.61074661  0.60805728  1
  H  H18  1  0.03755326  0.71251166  0.34233278  1
  H  H19  1  0.96244674  0.28748834  0.65766722  1
  H  H20  1  0.63882359  0.06848418  0.94485057  1
  H  H21  1  0.26927682  0.66556947  0.82744233  1
  H  H22  1  0.05477063  0.68834417  0.59931407  1
  H  H23  1  0.39676558  0.10500115  0.21897692  1
  O  O24  1  0.49097173  0.43240103  0.21203903  1
  O  O25  1  0.97593168  0.87020696  0.82837621  1
  O  O26  1  0.21589533  0.55598184  0.22060229  1
  O  O27  1  0.91229421  0.25533881  0.88613414  1
  O  O28  1  0.33258525  0.90158712  0.39102382  1
  O  O29  1  0.51629565  0.24651363  0.92495355  1
  O  O30  1  0.81929611  0.76830273  0.52752867  1
  O  O31  1  0.64154309  0.94401666  0.90103469  1
  O  O32  1  0.44662040  0.67123009  0.54155545  1
  O  O33  1  0.35845691  0.05598334  0.09896531  1
  O  O34  1  0.78410467  0.44401816  0.77939771  1
  O  O35  1  0.55337960  0.32876991  0.45844455  1
  O  O36  1  0.27412821  0.41067249  0.86761040  1
  O  O37  1  0.14009247  0.01316492  0.68750090  1
  O  O38  1  0.72587179  0.58932751  0.13238960  1
  O  O39  1  0.48370435  0.75348637  0.07504645  1
  O  O40  1  0.50902827  0.56759897  0.78796097  1
  O  O41  1  0.08770579  0.74466119  0.11386586  1
  O  O42  1  0.66741475  0.09841288  0.60897618  1
  O  O43  1  0.85990753  0.98683508  0.31249910  1
  O  O44  1  0.02406832  0.12979304  0.17162379  1
  O  O45  1  0.18070389  0.23169727  0.47247133  1
