# generated using pymatgen
data_Bi3O4F
_symmetry_space_group_name_H-M   'P 1'
_cell_length_a   5.79207582
_cell_length_b   10.19485715
_cell_length_c   5.82969245
_cell_angle_alpha   63.95850335
_cell_angle_beta   90.00000000
_cell_angle_gamma   106.50317718
_symmetry_Int_Tables_number   1
_chemical_formula_structural   Bi3O4F
_chemical_formula_sum   'Bi6 O8 F2'
_cell_volume   293.42573203
_cell_formula_units_Z   2
loop_
 _symmetry_equiv_pos_site_id
 _symmetry_equiv_pos_as_xyz
  1  'x, y, z'
loop_
 _atom_site_type_symbol
 _atom_site_label
 _atom_site_symmetry_multiplicity
 _atom_site_fract_x
 _atom_site_fract_y
 _atom_site_fract_z
 _atom_site_occupancy
  Bi  Bi0  1  0.36327049  0.31175322  0.96698876  1
  Bi  Bi1  1  0.70696141  0.00000000  0.25000000  1
  Bi  Bi2  1  0.94848273  0.31175322  0.46698876  1
  Bi  Bi3  1  0.29303859  -0.00000000  0.75000000  1
  Bi  Bi4  1  0.05151727  0.68824678  0.53301124  1
  Bi  Bi5  1  0.63672951  0.68824678  0.03301124  1
  O  O6  1  0.50400444  0.14234564  0.95970139  1
  O  O7  1  0.15318907  0.20015158  0.35623432  1
  O  O8  1  0.95303849  0.79984842  0.14376568  1
  O  O9  1  0.63834120  0.14234564  0.45970139  1
  O  O10  1  0.36165880  0.85765436  0.54029861  1
  O  O11  1  0.04696151  0.20015158  0.85623432  1
  O  O12  1  0.84681093  0.79984842  0.64376568  1
  O  O13  1  0.49599556  0.85765436  0.04029861  1
  F  F14  1  0.00000000  0.50000000  0.00000000  1
  F  F15  1  0.50000000  0.50000000  0.50000000  1
