# generated using pymatgen
data_Sr(H8O5)2
_symmetry_space_group_name_H-M   'P 1'
_cell_length_a   6.42929203
_cell_length_b   6.42929203
_cell_length_c   11.52078326
_cell_angle_alpha   90.65922114
_cell_angle_beta   89.34077886
_cell_angle_gamma   88.27952304
_symmetry_Int_Tables_number   1
_chemical_formula_structural   Sr(H8O5)2
_chemical_formula_sum   'Sr2 H32 O20'
_cell_volume   475.94109819
_cell_formula_units_Z   2
loop_
 _symmetry_equiv_pos_site_id
 _symmetry_equiv_pos_as_xyz
  1  'x, y, z'
loop_
 _atom_site_type_symbol
 _atom_site_label
 _atom_site_symmetry_multiplicity
 _atom_site_fract_x
 _atom_site_fract_y
 _atom_site_fract_z
 _atom_site_occupancy
  Sr  Sr0  1  0.99160474  0.97563175  0.26033385  1
  Sr  Sr1  1  0.02436825  0.00839526  0.76033385  1
  H  H2  1  0.02798302  0.42847059  0.37412824  1
  H  H3  1  0.15837645  0.27367950  0.45300414  1
  H  H4  1  0.72931654  0.59673737  0.34436736  1
  H  H5  1  0.84391874  0.68851783  0.45882466  1
  H  H6  1  0.67169403  0.14530054  0.43934268  1
  H  H7  1  0.57928467  0.28232430  0.33755814  1
  H  H8  1  0.42854278  0.94954299  0.36904845  1
  H  H9  1  0.39374482  0.70431451  0.34916836  1
  H  H10  1  0.85469946  0.32830597  0.93934268  1
  H  H11  1  0.71767570  0.42071533  0.83755814  1
  H  H12  1  0.29568549  0.60625518  0.84916836  1
  H  H13  1  0.05045701  0.57145722  0.86904845  1
  H  H14  1  0.40326263  0.27068346  0.84436736  1
  H  H15  1  0.31148217  0.15608126  0.95882466  1
  H  H16  1  0.57152941  0.97201698  0.87412824  1
  H  H17  1  0.72632050  0.84162355  0.95300414  1
  H  H18  1  0.95142265  0.65139894  0.63088227  1
  H  H19  1  0.70061860  0.61763537  0.64886295  1
  H  H20  1  0.28957846  0.36781964  0.63959650  1
  H  H21  1  0.04181211  0.35247933  0.61003789  1
  H  H22  1  0.35696572  0.68332841  0.64069572  1
  H  H23  1  0.28247238  0.81676766  0.53009787  1
  H  H24  1  0.64667152  0.03550235  0.61931421  1
  H  H25  1  0.62990339  0.28363687  0.64147396  1
  H  H26  1  0.31667159  0.64303428  0.14069572  1
  H  H27  1  0.18323234  0.71752762  0.03009787  1
  H  H28  1  0.96449765  0.35332848  0.11931421  1
  H  H29  1  0.71636313  0.37009661  0.14147396  1
  H  H30  1  0.64752067  0.95818789  0.11003789  1
  H  H31  1  0.63218036  0.71042154  0.13959650  1
  H  H32  1  0.34860106  0.04857735  0.13088227  1
  H  H33  1  0.38236463  0.29938140  0.14886295  1
  O  O34  1  0.53102397  0.51145874  0.30895829  1
  O  O35  1  0.48854126  0.46897603  0.80895829  1
  O  O36  1  0.49828411  0.47734126  0.67985596  1
  O  O37  1  0.52265874  0.50171589  0.17985596  1
  O  O38  1  0.09808134  0.28817090  0.37516646  1
  O  O39  1  0.86954097  0.66084260  0.37491844  1
  O  O40  1  0.62745036  0.13055429  0.35813751  1
  O  O41  1  0.31950674  0.84259248  0.37544205  1
  O  O42  1  0.86944571  0.37254964  0.85813751  1
  O  O43  1  0.15740752  0.68049326  0.87544205  1
  O  O44  1  0.33915740  0.13045903  0.87491844  1
  O  O45  1  0.71182910  0.90191866  0.87516646  1
  O  O46  1  0.81279934  0.71169880  0.61691328  1
  O  O47  1  0.17230237  0.27301998  0.61364268  1
  O  O48  1  0.25757215  0.79777392  0.61485483  1
  O  O49  1  0.72612147  0.16105353  0.61224322  1
  O  O50  1  0.20222608  0.74242785  0.11485483  1
  O  O51  1  0.83894647  0.27387853  0.11224322  1
  O  O52  1  0.72698002  0.82769763  0.11364268  1
  O  O53  1  0.28830120  0.18720066  0.11691328  1
