# generated using pymatgen
data_K2Pt(NO2)4
_symmetry_space_group_name_H-M   'P 1'
_cell_length_a   7.96940372
_cell_length_b   9.89017129
_cell_length_c   13.69265940
_cell_angle_alpha   90.00000000
_cell_angle_beta   90.00000000
_cell_angle_gamma   84.78161657
_symmetry_Int_Tables_number   1
_chemical_formula_structural   K2Pt(NO2)4
_chemical_formula_sum   'K8 Pt4 N16 O32'
_cell_volume   1074.76538868
_cell_formula_units_Z   4
loop_
 _symmetry_equiv_pos_site_id
 _symmetry_equiv_pos_as_xyz
  1  'x, y, z'
loop_
 _atom_site_type_symbol
 _atom_site_label
 _atom_site_symmetry_multiplicity
 _atom_site_fract_x
 _atom_site_fract_y
 _atom_site_fract_z
 _atom_site_occupancy
  K  K0  1  0.41252747  0.24493841  0.16520525  1
  K  K1  1  0.50160162  0.73194574  0.14389013  1
  K  K2  1  0.00160162  0.73194574  0.35610987  1
  K  K3  1  0.08747253  0.75506159  0.66520525  1
  K  K4  1  0.99839838  0.26805426  0.64389013  1
  K  K5  1  0.91252747  0.24493841  0.33479475  1
  K  K6  1  0.49839838  0.26805426  0.85610987  1
  K  K7  1  0.58747253  0.75506159  0.83479475  1
  Pt  Pt8  1  0.50000000  0.50000000  0.50000000  1
  Pt  Pt9  1  0.00000000  -0.00000000  -0.00000000  1
  Pt  Pt10  1  0.50000000  -0.00000000  0.50000000  1
  Pt  Pt11  1  0.00000000  0.50000000  -0.00000000  1
  N  N12  1  0.26151792  0.94365266  0.51991825  1
  N  N13  1  0.00286916  0.94183581  0.14449098  1
  N  N14  1  0.49693045  0.56074486  0.64289459  1
  N  N15  1  0.26466107  0.43353527  0.51708307  1
  N  N16  1  0.00306955  0.43925514  0.14289459  1
  N  N17  1  0.50306955  0.43925514  0.35710541  1
  N  N18  1  0.23848208  0.05634734  0.01991825  1
  N  N19  1  0.73848208  0.05634734  0.48008175  1
  N  N20  1  0.49713084  0.05816419  0.64449098  1
  N  N21  1  0.99713084  0.05816419  0.85550902  1
  N  N22  1  0.76151792  0.94365266  0.98008175  1
  N  N23  1  0.50286916  0.94183581  0.35550902  1
  N  N24  1  0.73533893  0.56646473  0.48291693  1
  N  N25  1  0.99693045  0.56074486  0.85710541  1
  N  N26  1  0.23533893  0.56646473  0.01708307  1
  N  N27  1  0.76466107  0.43353527  0.98291693  1
  O  O28  1  0.52256204  0.02670792  0.28953088  1
  O  O29  1  0.16108016  0.49633267  0.57426425  1
  O  O30  1  0.07053879  0.32367794  0.16480998  1
  O  O31  1  0.06344586  0.48533370  0.79179011  1
  O  O32  1  0.66155866  0.01119443  0.92382059  1
  O  O33  1  0.00928248  0.17985008  0.83433972  1
  O  O34  1  0.72470312  0.32928240  0.02559750  1
  O  O35  1  0.33844134  0.98880557  0.07617941  1
  O  O36  1  0.49071752  0.82014992  0.33433972  1
  O  O37  1  0.22470312  0.32928240  0.47440250  1
  O  O38  1  0.66108016  0.49633267  0.92573575  1
  O  O39  1  0.78288893  0.16267121  0.51825654  1
  O  O40  1  0.83844134  0.98880557  0.42382059  1
  O  O41  1  0.97743796  0.97329208  0.78953088  1
  O  O42  1  0.33891984  0.50366733  0.07426425  1
  O  O43  1  0.47743796  0.97329208  0.71046912  1
  O  O44  1  0.28288893  0.16267121  0.98174346  1
  O  O45  1  0.92946121  0.67632206  0.83519002  1
  O  O46  1  0.42946121  0.67632206  0.66480998  1
  O  O47  1  0.27529688  0.67071760  0.97440250  1
  O  O48  1  0.99071752  0.82014992  0.16566028  1
  O  O49  1  0.83891984  0.50366733  0.42573575  1
  O  O50  1  0.16155866  0.01119443  0.57617941  1
  O  O51  1  0.21711107  0.83732879  0.48174346  1
  O  O52  1  0.93655414  0.51466630  0.20820989  1
  O  O53  1  0.57053879  0.32367794  0.33519002  1
  O  O54  1  0.43655414  0.51466630  0.29179011  1
  O  O55  1  0.71711107  0.83732879  0.01825654  1
  O  O56  1  0.02256204  0.02670792  0.21046912  1
  O  O57  1  0.77529688  0.67071760  0.52559750  1
  O  O58  1  0.50928248  0.17985008  0.66566028  1
  O  O59  1  0.56344586  0.48533370  0.70820989  1
