# generated using pymatgen
data_Ag2As2O7
_symmetry_space_group_name_H-M   'P 1'
_cell_length_a   6.30090216
_cell_length_b   7.39208266
_cell_length_c   13.94846187
_cell_angle_alpha   90.00000000
_cell_angle_beta   90.00000000
_cell_angle_gamma   107.98315932
_symmetry_Int_Tables_number   1
_chemical_formula_structural   Ag2As2O7
_chemical_formula_sum   'Ag8 As8 O28'
_cell_volume   617.93621926
_cell_formula_units_Z   4
loop_
 _symmetry_equiv_pos_site_id
 _symmetry_equiv_pos_as_xyz
  1  'x, y, z'
loop_
 _atom_site_type_symbol
 _atom_site_label
 _atom_site_symmetry_multiplicity
 _atom_site_fract_x
 _atom_site_fract_y
 _atom_site_fract_z
 _atom_site_occupancy
  Ag  Ag0  1  0.41140704  0.56321042  0.75793623  1
  Ag  Ag1  1  0.91140704  0.06321042  0.74206377  1
  Ag  Ag2  1  0.58859296  0.43678958  0.24206377  1
  Ag  Ag3  1  0.08859296  0.93678958  0.25793623  1
  Ag  Ag4  1  0.26732423  0.32314710  0.02065874  1
  Ag  Ag5  1  0.76732423  0.82314710  0.47934126  1
  Ag  Ag6  1  0.73267577  0.67685290  0.97934126  1
  Ag  Ag7  1  0.23267577  0.17685290  0.52065874  1
  As  As8  1  0.41109190  0.05216923  0.80629877  1
  As  As9  1  0.91109190  0.55216923  0.69370123  1
  As  As10  1  0.58890810  0.94783077  0.19370123  1
  As  As11  1  0.08890810  0.44783077  0.30629877  1
  As  As12  1  0.31561700  0.81686589  0.99788999  1
  As  As13  1  0.81561700  0.31686589  0.50211001  1
  As  As14  1  0.68438300  0.18313411  0.00211001  1
  As  As15  1  0.18438300  0.68313411  0.49788999  1
  O  O16  1  0.37426819  0.06861172  0.04206354  1
  O  O17  1  0.87426819  0.56861172  0.45793646  1
  O  O18  1  0.62573181  0.93138828  0.95793646  1
  O  O19  1  0.12573181  0.43138828  0.54206354  1
  O  O20  1  0.04370900  0.72755517  0.04161538  1
  O  O21  1  0.54370900  0.22755517  0.45838462  1
  O  O22  1  0.95629100  0.27244483  0.95838462  1
  O  O23  1  0.45629100  0.77244483  0.54161538  1
  O  O24  1  0.37738316  0.60025380  0.95440210  1
  O  O25  1  0.87738316  0.10025380  0.54559790  1
  O  O26  1  0.62261684  0.39974620  0.04559790  1
  O  O27  1  0.12261684  0.89974620  0.45440210  1
  O  O28  1  0.21782804  0.87825617  0.87648965  1
  O  O29  1  0.71782804  0.37825617  0.62351035  1
  O  O30  1  0.78217196  0.12174383  0.12351035  1
  O  O31  1  0.28217196  0.62174383  0.37648965  1
  O  O32  1  0.57738406  0.23768134  0.87788611  1
  O  O33  1  0.07738406  0.73768134  0.62211389  1
  O  O34  1  0.42261594  0.76231866  0.12211389  1
  O  O35  1  0.92261594  0.26231866  0.37788611  1
  O  O36  1  0.56075729  0.93617660  0.74261083  1
  O  O37  1  0.06075729  0.43617660  0.75738917  1
  O  O38  1  0.43924271  0.06382340  0.25738917  1
  O  O39  1  0.93924271  0.56382340  0.24261083  1
  O  O40  1  0.26642726  0.16482109  0.73643569  1
  O  O41  1  0.76642726  0.66482109  0.76356431  1
  O  O42  1  0.73357274  0.83517891  0.26356431  1
  O  O43  1  0.23357274  0.33517891  0.23643569  1
