# generated using pymatgen
data_Fe3O4
_symmetry_space_group_name_H-M   'P 1'
_cell_length_a   6.07783062
_cell_length_b   6.09004690
_cell_length_c   17.20899720
_cell_angle_alpha   89.85883437
_cell_angle_beta   90.01315990
_cell_angle_gamma   89.93206310
_symmetry_Int_Tables_number   1
_chemical_formula_structural   Fe3O4
_chemical_formula_sum   'Fe24 O32'
_cell_volume   636.97613061
_cell_formula_units_Z   8
loop_
 _symmetry_equiv_pos_site_id
 _symmetry_equiv_pos_as_xyz
  1  'x, y, z'
loop_
 _atom_site_type_symbol
 _atom_site_label
 _atom_site_symmetry_multiplicity
 _atom_site_fract_x
 _atom_site_fract_y
 _atom_site_fract_z
 _atom_site_occupancy
  Fe  Fe0  1  0.50739146  0.99486612  0.18583149  1
  Fe  Fe1  1  0.25073540  0.50014470  0.62305498  1
  Fe  Fe2  1  0.75251370  0.00188985  0.37508611  1
  Fe  Fe3  1  0.49820422  0.99879237  0.68466740  1
  Fe  Fe4  1  0.00392685  0.49938518  0.93742674  1
  Fe  Fe5  1  0.50179240  0.50793684  0.31323372  1
  Fe  Fe6  1  0.00043022  0.49304859  0.43670478  1
  Fe  Fe7  1  0.49996234  0.24602737  0.49751076  1
  Fe  Fe8  1  0.49319468  0.50523345  0.81344095  1
  Fe  Fe9  1  0.99987562  0.00459921  0.56257538  1
  Fe  Fe10  1  0.00538765  0.75421605  0.25319964  1
  Fe  Fe11  1  0.49990965  0.75110078  0.49884354  1
  Fe  Fe12  1  0.74497322  0.50053697  0.62322359  1
  Fe  Fe13  1  0.75052563  0.00064821  0.87567430  1
  Fe  Fe14  1  0.25058567  0.49882157  0.12670314  1
  Fe  Fe15  1  0.25197684  0.00119517  0.37439815  1
  Fe  Fe16  1  0.75334683  0.49912435  0.12685687  1
  Fe  Fe17  1  0.99441505  0.99859806  0.06512889  1
  Fe  Fe18  1  0.49914255  0.24840412  0.00047147  1
  Fe  Fe19  1  0.49958752  0.74983567  0.99990483  1
  Fe  Fe20  1  0.99604610  0.24987955  0.75000210  1
  Fe  Fe21  1  0.99492508  0.75106256  0.74912883  1
  Fe  Fe22  1  0.25134643  0.00001914  0.87511748  1
  Fe  Fe23  1  0.00516597  0.24927922  0.25006951  1
  O  O24  1  0.99921799  0.26555279  0.63027051  1
  O  O25  1  0.00120353  0.74663254  0.36965577  1
  O  O26  1  0.49722012  0.71902989  0.62281238  1
  O  O27  1  0.00639709  0.75748226  0.87234173  1
  O  O28  1  0.77685595  0.00180889  0.75279757  1
  O  O29  1  0.77087785  0.49976444  0.74274881  1
  O  O30  1  0.50214376  0.76298341  0.37734722  1
  O  O31  1  0.24219692  0.51018979  0.24760651  1
  O  O32  1  0.48840084  0.22949862  0.88455760  1
  O  O33  1  0.73117947  0.99753704  0.00009579  1
  O  O34  1  0.50225886  0.25572700  0.38048674  1
  O  O35  1  0.26134652  0.99876153  0.99840527  1
  O  O36  1  0.22116057  0.50107186  0.74119361  1
  O  O37  1  0.99818128  0.73648649  0.62842350  1
  O  O38  1  0.26121626  0.01086468  0.50223821  1
  O  O39  1  0.75941038  0.50945945  0.24330892  1
  O  O40  1  0.76651254  0.99132371  0.24822272  1
  O  O41  1  0.22293035  0.99909820  0.75815005  1
  O  O42  1  0.26844025  0.49925082  0.00137287  1
  O  O43  1  0.49912284  0.27811694  0.61969583  1
  O  O44  1  0.73848030  0.01045146  0.50237338  1
  O  O45  1  0.99074993  0.26405811  0.12270998  1
  O  O46  1  0.74447404  0.48933751  0.50550914  1
  O  O47  1  0.48686706  0.76592954  0.88436354  1
  O  O48  1  0.25621103  0.48961813  0.50520024  1
  O  O49  1  0.00942623  0.24456159  0.87205372  1
  O  O50  1  0.00249492  0.23887355  0.37285795  1
  O  O51  1  0.51235743  0.25857430  0.11884634  1
  O  O52  1  0.51113796  0.73695564  0.11732275  1
  O  O53  1  0.73337417  0.49946701  0.00192628  1
  O  O54  1  0.98993418  0.73694713  0.12752521  1
  O  O55  1  0.24286028  0.98994057  0.24572424  1
