# generated using pymatgen
data_CuClO
_symmetry_space_group_name_H-M   'P 1'
_cell_length_a   6.68572662
_cell_length_b   10.97341798
_cell_length_c   12.83170927
_cell_angle_alpha   90.00000000
_cell_angle_beta   90.00000000
_cell_angle_gamma   90.00000000
_symmetry_Int_Tables_number   1
_chemical_formula_structural   CuClO
_chemical_formula_sum   'Cu16 Cl16 O16'
_cell_volume   941.40184982
_cell_formula_units_Z   16
loop_
 _symmetry_equiv_pos_site_id
 _symmetry_equiv_pos_as_xyz
  1  'x, y, z'
loop_
 _atom_site_type_symbol
 _atom_site_label
 _atom_site_symmetry_multiplicity
 _atom_site_fract_x
 _atom_site_fract_y
 _atom_site_fract_z
 _atom_site_occupancy
  Cu  Cu0  1  0.52605691  0.53955986  0.98969481  1
  Cu  Cu1  1  0.47394309  0.46044014  0.48969481  1
  Cu  Cu2  1  0.02605691  0.96044014  0.48969481  1
  Cu  Cu3  1  0.97394309  0.03955986  0.98969481  1
  Cu  Cu4  1  0.02820442  0.55935097  0.01261862  1
  Cu  Cu5  1  0.97179558  0.44064903  0.51261862  1
  Cu  Cu6  1  0.52820442  0.94064903  0.51261862  1
  Cu  Cu7  1  0.47179558  0.05935097  0.01261862  1
  Cu  Cu8  1  0.30166250  0.82502685  0.03599921  1
  Cu  Cu9  1  0.69833750  0.17497315  0.53599921  1
  Cu  Cu10  1  0.80166250  0.67497315  0.53599921  1
  Cu  Cu11  1  0.19833750  0.32502685  0.03599921  1
  Cu  Cu12  1  0.69583867  0.77595177  0.96246222  1
  Cu  Cu13  1  0.30416133  0.22404823  0.46246222  1
  Cu  Cu14  1  0.19583867  0.72404823  0.46246222  1
  Cu  Cu15  1  0.80416133  0.27595177  0.96246222  1
  Cl  Cl16  1  0.76316472  0.47255720  0.19189150  1
  Cl  Cl17  1  0.23683528  0.52744280  0.69189150  1
  Cl  Cl18  1  0.26316472  0.02744280  0.69189150  1
  Cl  Cl19  1  0.73683528  0.97255720  0.19189150  1
  Cl  Cl20  1  0.24494561  0.65654624  0.80419996  1
  Cl  Cl21  1  0.75505439  0.34345376  0.30419996  1
  Cl  Cl22  1  0.74494561  0.84345376  0.30419996  1
  Cl  Cl23  1  0.25505439  0.15654624  0.80419996  1
  Cl  Cl24  1  0.57037659  0.38008567  0.88304066  1
  Cl  Cl25  1  0.42962341  0.61991433  0.38304066  1
  Cl  Cl26  1  0.07037659  0.11991433  0.38304066  1
  Cl  Cl27  1  0.92962341  0.88008567  0.88304066  1
  Cl  Cl28  1  0.07324555  0.71972578  0.11925916  1
  Cl  Cl29  1  0.92675445  0.28027422  0.61925916  1
  Cl  Cl30  1  0.57324555  0.78027422  0.61925916  1
  Cl  Cl31  1  0.42675445  0.21972578  0.11925916  1
  O  O32  1  0.28221676  0.48708008  0.04492835  1
  O  O33  1  0.71778324  0.51291992  0.54492835  1
  O  O34  1  0.78221676  0.01291992  0.54492835  1
  O  O35  1  0.21778324  0.98708008  0.04492835  1
  O  O36  1  0.78260200  0.61249035  0.96059715  1
  O  O37  1  0.21739800  0.38750965  0.46059715  1
  O  O38  1  0.28260200  0.88750965  0.46059715  1
  O  O39  1  0.71739800  0.11249035  0.96059715  1
  O  O40  1  0.48716205  0.70030163  0.03462255  1
  O  O41  1  0.51283795  0.29969837  0.53462255  1
  O  O42  1  0.98716205  0.79969837  0.53462255  1
  O  O43  1  0.01283795  0.20030163  0.03462255  1
  O  O44  1  0.99395137  0.40080633  0.96068581  1
  O  O45  1  0.00604863  0.59919367  0.46068581  1
  O  O46  1  0.49395137  0.09919367  0.46068581  1
  O  O47  1  0.50604863  0.90080633  0.96068581  1
