# generated using pymatgen
data_CdHg3
_symmetry_space_group_name_H-M   'P 1'
_cell_length_a   6.10401465
_cell_length_b   6.10401465
_cell_length_c   6.10401465
_cell_angle_alpha   135.17687544
_cell_angle_beta   135.17687544
_cell_angle_gamma   65.25549892
_symmetry_Int_Tables_number   1
_chemical_formula_structural   CdHg3
_chemical_formula_sum   'Cd1 Hg3'
_cell_volume   111.36609620
_cell_formula_units_Z   1
loop_
 _symmetry_equiv_pos_site_id
 _symmetry_equiv_pos_as_xyz
  1  'x, y, z'
loop_
 _atom_site_type_symbol
 _atom_site_label
 _atom_site_symmetry_multiplicity
 _atom_site_fract_x
 _atom_site_fract_y
 _atom_site_fract_z
 _atom_site_occupancy
  Cd  Cd0  1  -0.00000000  -0.00000000  0.00000000  1
  Hg  Hg1  1  0.75000100  0.25000000  0.50000100  1
  Hg  Hg2  1  0.25000000  0.75000100  0.50000100  1
  Hg  Hg3  1  0.50000000  0.50000000  0.00000000  1
