# generated using pymatgen
data_Ca5Cr3O13
_symmetry_space_group_name_H-M   'P 1'
_cell_length_a   9.82716038
_cell_length_b   10.05459921
_cell_length_c   6.96198071
_cell_angle_alpha   90.00000000
_cell_angle_beta   90.00000000
_cell_angle_gamma   119.91602592
_symmetry_Int_Tables_number   1
_chemical_formula_structural   Ca5Cr3O13
_chemical_formula_sum   'Ca10 Cr6 O26'
_cell_volume   596.24276776
_cell_formula_units_Z   2
loop_
 _symmetry_equiv_pos_site_id
 _symmetry_equiv_pos_as_xyz
  1  'x, y, z'
loop_
 _atom_site_type_symbol
 _atom_site_label
 _atom_site_symmetry_multiplicity
 _atom_site_fract_x
 _atom_site_fract_y
 _atom_site_fract_z
 _atom_site_occupancy
  Ca  Ca0  1  0.34943219  0.67303070  0.49916584  1
  Ca  Ca1  1  0.65056781  0.32696930  0.99916584  1
  Ca  Ca2  1  0.65056781  0.32696930  0.50083416  1
  Ca  Ca3  1  0.34943219  0.67303070  0.00083416  1
  Ca  Ca4  1  0.77618963  0.77234291  0.25000000  1
  Ca  Ca5  1  0.98112261  0.19925121  0.25000000  1
  Ca  Ca6  1  0.23268986  0.01761970  0.25000000  1
  Ca  Ca7  1  0.22381037  0.22765709  0.75000000  1
  Ca  Ca8  1  0.01887739  0.80074879  0.75000000  1
  Ca  Ca9  1  0.76731014  0.98238030  0.75000000  1
  Cr  Cr10  1  0.96815989  0.59182565  0.25000000  1
  Cr  Cr11  1  0.62181465  0.03241636  0.25000000  1
  Cr  Cr12  1  0.40643988  0.37878024  0.25000000  1
  Cr  Cr13  1  0.03184011  0.40817435  0.75000000  1
  Cr  Cr14  1  0.37818535  0.96758364  0.75000000  1
  Cr  Cr15  1  0.59356012  0.62121976  0.75000000  1
  O  O16  1  0.15954777  0.65517843  0.25000000  1
  O  O17  1  0.50393034  0.83661960  0.25000000  1
  O  O18  1  0.34177214  0.50807802  0.25000000  1
  O  O19  1  0.84045223  0.34482157  0.75000000  1
  O  O20  1  0.49606966  0.16338040  0.75000000  1
  O  O21  1  0.65822786  0.49192198  0.75000000  1
  O  O22  1  0.86633081  0.39880667  0.25000000  1
  O  O23  1  0.53125945  0.14180840  0.25000000  1
  O  O24  1  0.61054724  0.47350686  0.25000000  1
  O  O25  1  0.13366919  0.60119333  0.75000000  1
  O  O26  1  0.46874055  0.85819160  0.75000000  1
  O  O27  1  0.38945276  0.52649314  0.75000000  1
  O  O28  1  0.91775023  0.65571404  0.44242951  1
  O  O29  1  0.74444314  0.08949427  0.44724508  1
  O  O30  1  0.34529327  0.25655384  0.44415297  1
  O  O31  1  0.08224977  0.34428596  0.94242951  1
  O  O32  1  0.25555686  0.91050573  0.94724508  1
  O  O33  1  0.65470673  0.74344616  0.94415297  1
  O  O34  1  0.08224977  0.34428596  0.55757049  1
  O  O35  1  0.25555686  0.91050573  0.55275492  1
  O  O36  1  0.65470673  0.74344616  0.55584703  1
  O  O37  1  0.91775023  0.65571404  0.05757049  1
  O  O38  1  0.74444314  0.08949427  0.05275492  1
  O  O39  1  0.34529327  0.25655384  0.05584703  1
  O  O40  1  0.99603931  0.99187475  0.25000000  1
  O  O41  1  0.00396069  0.00812525  0.75000000  1
