# generated using pymatgen
data_Na4TeMo6H40(NO20)2
_symmetry_space_group_name_H-M   'P 1'
_cell_length_a   11.03972144
_cell_length_b   10.97243625
_cell_length_c   10.98665100
_cell_angle_alpha   96.70929504
_cell_angle_beta   118.77059229
_cell_angle_gamma   112.83688951
_symmetry_Int_Tables_number   1
_chemical_formula_structural   Na4TeMo6H40(NO20)2
_chemical_formula_sum   'Na4 Te1 Mo6 H40 N2 O40'
_cell_volume   996.28465626
_cell_formula_units_Z   1
loop_
 _symmetry_equiv_pos_site_id
 _symmetry_equiv_pos_as_xyz
  1  'x, y, z'
loop_
 _atom_site_type_symbol
 _atom_site_label
 _atom_site_symmetry_multiplicity
 _atom_site_fract_x
 _atom_site_fract_y
 _atom_site_fract_z
 _atom_site_occupancy
  Na  Na0  1  0.37398838  0.87079527  0.53900287  1
  Na  Na1  1  0.62601162  0.12920473  0.46099713  1
  Na  Na2  1  0.25191036  0.28467516  0.65220370  1
  Na  Na3  1  0.74808964  0.71532484  0.34779630  1
  Te  Te4  1  -0.00000000  0.00000000  -0.00000000  1
  Mo  Mo5  1  0.09394259  0.33486073  0.13445984  1
  Mo  Mo6  1  0.90605741  0.66513927  0.86554016  1
  Mo  Mo7  1  0.62129150  0.73251022  0.82584419  1
  Mo  Mo8  1  0.37870850  0.26748978  0.17415581  1
  Mo  Mo9  1  0.71819090  0.06907204  0.95974417  1
  Mo  Mo10  1  0.28180910  0.93092796  0.04025583  1
  H  H11  1  0.77222949  0.47318484  0.03531734  1
  H  H12  1  0.22777051  0.52681516  0.96468266  1
  H  H13  1  0.78082146  0.47822818  0.19873179  1
  H  H14  1  0.21917854  0.52177182  0.80126821  1
  H  H15  1  0.39662575  0.59434449  0.96993892  1
  H  H16  1  0.60337425  0.40565551  0.03006108  1
  H  H17  1  0.70822276  0.32248397  0.07139130  1
  H  H18  1  0.29177724  0.67751603  0.92860870  1
  H  H19  1  0.69558074  0.95445325  0.64585080  1
  H  H20  1  0.30441926  0.04554675  0.35414920  1
  H  H21  1  0.59821406  0.84164728  0.48665910  1
  H  H22  1  0.40178594  0.15835272  0.51334090  1
  H  H23  1  0.12867987  0.61115663  0.28027981  1
  H  H24  1  0.87132013  0.38884337  0.71972019  1
  H  H25  1  0.15144136  0.72554871  0.20608594  1
  H  H26  1  0.84855864  0.27445129  0.79391406  1
  H  H27  1  0.10926406  0.84756209  0.58162689  1
  H  H28  1  0.89073594  0.15243791  0.41837311  1
  H  H29  1  0.21438418  0.80376765  0.69783015  1
  H  H30  1  0.78561582  0.19623235  0.30216985  1
  H  H31  1  0.01977574  0.10963800  0.31600587  1
  H  H32  1  0.98022426  0.89036200  0.68399413  1
  H  H33  1  0.01267497  0.99918310  0.39136723  1
  H  H34  1  0.98732503  0.00081690  0.60863277  1
  H  H35  1  0.01170751  0.76373570  0.30016996  1
  H  H36  1  0.98829249  0.23626430  0.69983004  1
  H  H37  1  0.90657909  0.80554114  0.18026519  1
  H  H38  1  0.09342091  0.19445886  0.81973481  1
  H  H39  1  0.79936233  0.48589537  0.43205789  1
  H  H40  1  0.20063767  0.51410463  0.56794211  1
  H  H41  1  0.96042860  0.61818053  0.47441306  1
  H  H42  1  0.03957140  0.38181947  0.52558694  1
  H  H43  1  0.63252015  0.66194209  0.54525820  1
  H  H44  1  0.36747985  0.33805791  0.45474180  1
  H  H45  1  0.48178008  0.57596176  0.37957194  1
  H  H46  1  0.51821992  0.42403824  0.62042806  1
  H  H47  1  0.63732547  0.84088246  0.12009782  1
  H  H48  1  0.36267453  0.15911754  0.87990218  1
  H  H49  1  0.57160193  0.86566843  0.21240470  1
  H  H50  1  0.42839807  0.13433157  0.78759530  1
  N  N51  1  0.71738995  0.42133063  0.08440099  1
  N  N52  1  0.28261005  0.57866937  0.91559901  1
  O  O53  1  0.29861186  0.34199402  0.27317690  1
  O  O54  1  0.70138814  0.65800598  0.72682310  1
  O  O55  1  0.86954229  0.23866656  0.95911297  1
  O  O56  1  0.13045771  0.76133344  0.04088703  1
  O  O57  1  0.08284722  0.41816993  0.27149584  1
  O  O58  1  0.91715278  0.58183007  0.72850416  1
  O  O59  1  0.16566600  0.46649421  0.07200201  1
  O  O60  1  0.83433400  0.53350579  0.92799799  1
  O  O61  1  0.88488611  0.81856927  0.01045222  1
  O  O62  1  0.11511389  0.18143073  0.98954778  1
  O  O63  1  0.97606068  0.11179144  0.13156264  1
  O  O64  1  0.02393932  0.88820856  0.86843736  1
  O  O65  1  0.78658150  0.95585197  0.83804596  1
  O  O66  1  0.21341850  0.04414803  0.16195404  1
  O  O67  1  0.64801532  0.88110161  0.97265438  1
  O  O68  1  0.35198468  0.11889839  0.02734562  1
  O  O69  1  0.45352714  0.71003835  0.66192074  1
  O  O70  1  0.54647286  0.28996165  0.33807926  1
  O  O71  1  0.54934496  0.59308894  0.88001912  1
  O  O72  1  0.45065504  0.40691106  0.11998088  1
  O  O73  1  0.71752275  0.15505438  0.10463919  1
  O  O74  1  0.28247725  0.84494562  0.89536081  1
  O  O75  1  0.54654230  0.03727409  0.79254981  1
  O  O76  1  0.45345770  0.96272591  0.20745019  1
  O  O77  1  0.61835829  0.93385565  0.53920689  1
  O  O78  1  0.38164171  0.06614435  0.46079311  1
  O  O79  1  0.15424334  0.71015755  0.29437707  1
  O  O80  1  0.84575666  0.28984245  0.70562293  1
  O  O81  1  0.83975595  0.21068337  0.40946242  1
  O  O82  1  0.16024405  0.78931663  0.59053758  1
  O  O83  1  0.96690172  0.90268103  0.59116963  1
  O  O84  1  0.03309828  0.09731897  0.40883037  1
  O  O85  1  0.93327124  0.79553225  0.27716853  1
  O  O86  1  0.06672876  0.20446775  0.72283147  1
  O  O87  1  0.15468614  0.44937069  0.60745211  1
  O  O88  1  0.84531386  0.55062931  0.39254789  1
  O  O89  1  0.58722227  0.66384799  0.44302794  1
  O  O90  1  0.41277773  0.33615201  0.55697206  1
  O  O91  1  0.38855170  0.19275073  0.81107818  1
  O  O92  1  0.61144830  0.80724927  0.18892182  1
