# generated using pymatgen
data_Ac2Mg
_symmetry_space_group_name_H-M   'P 1'
_cell_length_a   4.09184580
_cell_length_b   9.58572825
_cell_length_c   6.07456088
_cell_angle_alpha   90.00000000
_cell_angle_beta   90.00000000
_cell_angle_gamma   77.67630877
_symmetry_Int_Tables_number   1
_chemical_formula_structural   Ac2Mg
_chemical_formula_sum   'Ac4 Mg2'
_cell_volume   232.77422527
_cell_formula_units_Z   2
loop_
 _symmetry_equiv_pos_site_id
 _symmetry_equiv_pos_as_xyz
  1  'x, y, z'
loop_
 _atom_site_type_symbol
 _atom_site_label
 _atom_site_symmetry_multiplicity
 _atom_site_fract_x
 _atom_site_fract_y
 _atom_site_fract_z
 _atom_site_occupancy
  Ac  Ac0  1  0.95013026  0.09973849  -0.00000000  1
  Ac  Ac1  1  0.63890762  0.72218375  0.00000000  1
  Ac  Ac2  1  0.49431174  0.01137351  0.50000000  1
  Ac  Ac3  1  0.80553638  0.38892725  0.50000000  1
  Mg  Mg4  1  0.29273070  0.41453561  0.00000000  1
  Mg  Mg5  1  0.15171130  0.69657439  0.50000000  1
