# generated using pymatgen
data_Ba3(H6Ir)2
_symmetry_space_group_name_H-M   'P 1'
_cell_length_a   7.77080052
_cell_length_b   8.06714003
_cell_length_c   5.30447132
_cell_angle_alpha   89.99999999
_cell_angle_beta   83.59216172
_cell_angle_gamma   121.26972221
_symmetry_Int_Tables_number   1
_chemical_formula_structural   Ba3(H6Ir)2
_chemical_formula_sum   'Ba3 H12 Ir2'
_cell_volume   281.78893764
_cell_formula_units_Z   1
loop_
 _symmetry_equiv_pos_site_id
 _symmetry_equiv_pos_as_xyz
  1  'x, y, z'
loop_
 _atom_site_type_symbol
 _atom_site_label
 _atom_site_symmetry_multiplicity
 _atom_site_fract_x
 _atom_site_fract_y
 _atom_site_fract_z
 _atom_site_occupancy
  Ba  Ba0  1  -0.00000000  0.00000000  0.00000000  1
  Ba  Ba1  1  0.57433829  0.28716915  0.28901708  1
  Ba  Ba2  1  0.42566171  0.71283085  0.71098292  1
  H  H3  1  0.61279404  0.67389528  0.19513423  1
  H  H4  1  0.61279404  0.93889877  0.19513423  1
  H  H5  1  0.19184994  0.09592497  0.39036804  1
  H  H6  1  0.38720596  0.32610472  0.80486577  1
  H  H7  1  0.38720596  0.06110123  0.80486577  1
  H  H8  1  0.80815006  0.90407503  0.60963196  1
  H  H9  1  0.68078065  0.15271694  0.77108333  1
  H  H10  1  0.68078065  0.52806370  0.77108333  1
  H  H11  1  0.82853964  0.41426982  0.76666035  1
  H  H12  1  0.31921935  0.84728306  0.22891667  1
  H  H13  1  0.31921935  0.47193630  0.22891667  1
  H  H14  1  0.17146036  0.58573018  0.23333965  1
  Ir  Ir15  1  0.58112968  0.29056484  0.78697819  1
  Ir  Ir16  1  0.41887032  0.70943516  0.21302181  1
