# generated using pymatgen
data_K2RbBiI6
_symmetry_space_group_name_H-M   'P 1'
_cell_length_a   9.25080229
_cell_length_b   9.25080290
_cell_length_c   9.25080287
_cell_angle_alpha   59.99999835
_cell_angle_beta   59.99999754
_cell_angle_gamma   59.99999767
_symmetry_Int_Tables_number   1
_chemical_formula_structural   K2RbBiI6
_chemical_formula_sum   'K2 Rb1 Bi1 I6'
_cell_volume   559.78754855
_cell_formula_units_Z   1
loop_
 _symmetry_equiv_pos_site_id
 _symmetry_equiv_pos_as_xyz
  1  'x, y, z'
loop_
 _atom_site_type_symbol
 _atom_site_label
 _atom_site_symmetry_multiplicity
 _atom_site_fract_x
 _atom_site_fract_y
 _atom_site_fract_z
 _atom_site_occupancy
  K  K0  1  0.25000000  0.25000000  0.25000000  1
  K  K1  1  0.75000000  0.75000000  0.75000000  1
  Rb  Rb2  1  0.50000000  0.50000000  0.50000000  1
  Bi  Bi3  1  0.00000000  -0.00000000  0.00000000  1
  I  I4  1  0.23510021  0.76489979  0.23510021  1
  I  I5  1  0.76489979  0.76489979  0.23510021  1
  I  I6  1  0.76489979  0.23510021  0.76489979  1
  I  I7  1  0.76489979  0.23510021  0.23510021  1
  I  I8  1  0.23510021  0.76489979  0.76489979  1
  I  I9  1  0.23510021  0.23510021  0.76489979  1
