# generated using pymatgen
data_Cs
_symmetry_space_group_name_H-M   'P 1'
_cell_length_a   13.37549380
_cell_length_b   13.37549380
_cell_length_c   13.37549380
_cell_angle_alpha   90.00000000
_cell_angle_beta   90.00000000
_cell_angle_gamma   90.00000000
_symmetry_Int_Tables_number   1
_chemical_formula_structural   Cs
_chemical_formula_sum   Cs20
_cell_volume   2392.92712773
_cell_formula_units_Z   20
loop_
 _symmetry_equiv_pos_site_id
 _symmetry_equiv_pos_as_xyz
  1  'x, y, z'
loop_
 _atom_site_type_symbol
 _atom_site_label
 _atom_site_symmetry_multiplicity
 _atom_site_fract_x
 _atom_site_fract_y
 _atom_site_fract_z
 _atom_site_occupancy
  Cs  Cs0  1  0.87500000  0.70348344  0.04651656  1
  Cs  Cs1  1  0.06232556  0.06232556  0.06232556  1
  Cs  Cs2  1  0.20348344  0.45348344  0.12500000  1
  Cs  Cs3  1  0.81232456  0.31232556  0.18767444  1
  Cs  Cs4  1  0.45348344  0.12500000  0.20348344  1
  Cs  Cs5  1  0.54651756  0.62500000  0.29651656  1
  Cs  Cs6  1  0.18767444  0.81232456  0.31232556  1
  Cs  Cs7  1  0.79651756  0.95348344  0.37500000  1
  Cs  Cs8  1  0.93767444  0.56232556  0.43767444  1
  Cs  Cs9  1  0.12500000  0.20348344  0.45348344  1
  Cs  Cs10  1  0.62500000  0.29651656  0.54651756  1
  Cs  Cs11  1  0.43767444  0.93767444  0.56232556  1
  Cs  Cs12  1  0.29651656  0.54651756  0.62500000  1
  Cs  Cs13  1  0.68767444  0.68767444  0.68767444  1
  Cs  Cs14  1  0.04651656  0.87500000  0.70348344  1
  Cs  Cs15  1  0.95348344  0.37500000  0.79651756  1
  Cs  Cs16  1  0.31232556  0.18767444  0.81232456  1
  Cs  Cs17  1  0.70348344  0.04651656  0.87500000  1
  Cs  Cs18  1  0.56232556  0.43767444  0.93767444  1
  Cs  Cs19  1  0.37500000  0.79651756  0.95348344  1
