# generated using pymatgen
data_Ho2CoRu
_symmetry_space_group_name_H-M   'P 1'
_cell_length_a   4.76559748
_cell_length_b   4.76549419
_cell_length_c   4.76558446
_cell_angle_alpha   60.00051144
_cell_angle_beta   60.00076805
_cell_angle_gamma   60.00029017
_symmetry_Int_Tables_number   1
_chemical_formula_structural   Ho2CoRu
_chemical_formula_sum   'Ho2 Co1 Ru1'
_cell_volume   76.52998464
_cell_formula_units_Z   1
loop_
 _symmetry_equiv_pos_site_id
 _symmetry_equiv_pos_as_xyz
  1  'x, y, z'
loop_
 _atom_site_type_symbol
 _atom_site_label
 _atom_site_symmetry_multiplicity
 _atom_site_fract_x
 _atom_site_fract_y
 _atom_site_fract_z
 _atom_site_occupancy
  Ho  Ho0  1  -0.00000103  0.99999993  0.00000117  1
  Ho  Ho1  1  0.49999982  0.50000122  0.49999896  1
  Co  Co2  1  0.25000132  0.25000064  0.25000099  1
  Ru  Ru3  1  0.74999989  0.74999822  0.74999887  1
