# generated using pymatgen
data_Mg16Al12Sn
_symmetry_space_group_name_H-M   'P 1'
_cell_length_a   9.23508991
_cell_length_b   9.10126194
_cell_length_c   9.09362131
_cell_angle_alpha   109.09215087
_cell_angle_beta   109.69168193
_cell_angle_gamma   109.95931590
_symmetry_Int_Tables_number   1
_chemical_formula_structural   Mg16Al12Sn
_chemical_formula_sum   'Mg16 Al12 Sn1'
_cell_volume   585.94867792
_cell_formula_units_Z   1
loop_
 _symmetry_equiv_pos_site_id
 _symmetry_equiv_pos_as_xyz
  1  'x, y, z'
loop_
 _atom_site_type_symbol
 _atom_site_label
 _atom_site_symmetry_multiplicity
 _atom_site_fract_x
 _atom_site_fract_y
 _atom_site_fract_z
 _atom_site_occupancy
  Mg  Mg0  1  0.34060432  0.00610580  0.00000000  1
  Mg  Mg1  1  0.99983278  0.00080063  0.99999900  1
  Mg  Mg2  1  0.99853649  0.34394400  1.00000000  1
  Mg  Mg3  1  0.31270417  0.60198907  0.00000000  1
  Mg  Mg4  1  0.67837552  0.68101290  0.28117983  1
  Mg  Mg5  1  0.59773900  0.99794493  0.31154193  1
  Mg  Mg6  1  0.00456860  0.60480259  0.31830809  1
  Mg  Mg7  1  0.00363095  0.99821283  0.35053525  1
  Mg  Mg8  1  0.71198488  0.39522052  0.39244819  1
  Mg  Mg9  1  0.40097448  0.71825364  0.40245785  1
  Mg  Mg10  1  0.99851664  0.31579579  0.59754415  1
  Mg  Mg11  1  0.31953570  0.00277233  0.60755181  1
  Mg  Mg12  1  0.65309370  0.64767658  0.64946375  1
  Mg  Mg13  1  0.68626052  0.28649450  0.68169091  1
  Mg  Mg14  1  0.28619807  0.68640400  0.68846007  1
  Mg  Mg15  1  0.39719669  0.39983407  0.71882017  1
  Al  Al16  1  0.63250566  0.80883945  -0.00000000  1
  Al  Al17  1  0.82353387  0.64303273  1.00000000  1
  Al  Al18  1  0.36039396  0.36853723  0.18332691  1
  Al  Al19  1  0.18686891  0.82032243  0.18519163  1
  Al  Al20  1  0.82360342  0.17838824  0.18918440  1
  Al  Al21  1  0.18019401  0.36817489  0.37013749  1
  Al  Al22  1  0.36624729  0.18454463  0.36913175  1
  Al  Al23  1  0.99711554  0.81541487  0.63086925  1
  Al  Al24  1  0.81005852  0.99803840  0.62986451  1
  Al  Al25  1  0.63442002  0.98920384  0.81081560  1
  Al  Al26  1  0.00167827  0.63513279  0.81480937  1
  Al  Al27  1  0.17706605  0.18521032  0.81667209  1
  Sn  Sn28  1  0.61656497  0.31789500  1.00000000  1
