# generated using pymatgen
data_Mg16Al12Ga
_symmetry_space_group_name_H-M   'P 1'
_cell_length_a   9.11818901
_cell_length_b   9.11818753
_cell_length_c   9.11818901
_cell_angle_alpha   109.47122580
_cell_angle_beta   109.47122188
_cell_angle_gamma   109.47122580
_symmetry_Int_Tables_number   1
_chemical_formula_structural   Mg16Al12Ga
_chemical_formula_sum   'Mg16 Al12 Ga1'
_cell_volume   583.58449928
_cell_formula_units_Z   1
loop_
 _symmetry_equiv_pos_site_id
 _symmetry_equiv_pos_as_xyz
  1  'x, y, z'
loop_
 _atom_site_type_symbol
 _atom_site_label
 _atom_site_symmetry_multiplicity
 _atom_site_fract_x
 _atom_site_fract_y
 _atom_site_fract_z
 _atom_site_occupancy
  Mg  Mg0  1  0.33529624  1.00000000  1.00000000  1
  Mg  Mg1  1  1.00000000  0.33529524  1.00000000  1
  Mg  Mg2  1  0.59888921  0.31399684  1.00000000  1
  Mg  Mg3  1  0.31399684  0.59889021  0.00000000  1
  Mg  Mg4  1  0.68600316  0.68600316  0.28489237  1
  Mg  Mg5  1  0.00000000  0.59889021  0.31399684  1
  Mg  Mg6  1  0.59889021  0.99999900  0.31399684  1
  Mg  Mg7  1  1.00000000  1.00000000  0.33529624  1
  Mg  Mg8  1  0.40111079  0.71510763  0.40111079  1
  Mg  Mg9  1  0.71510763  0.40111079  0.40111079  1
  Mg  Mg10  1  1.00000000  0.31399684  0.59888921  1
  Mg  Mg11  1  0.31399684  0.99999900  0.59889021  1
  Mg  Mg12  1  0.66470276  0.66470376  0.66470276  1
  Mg  Mg13  1  0.68600316  0.28489337  0.68600316  1
  Mg  Mg14  1  0.28489237  0.68600316  0.68600316  1
  Mg  Mg15  1  0.40111079  0.40111079  0.71510763  1
  Al  Al16  1  0.81370975  0.63069948  0.99999900  1
  Al  Al17  1  0.63069948  0.81370975  0.99999900  1
  Al  Al18  1  0.36930152  0.36930152  0.18301027  1
  Al  Al19  1  0.18629125  0.81698873  0.18629125  1
  Al  Al20  1  0.81698973  0.18629025  0.18629125  1
  Al  Al21  1  0.36930152  0.18301027  0.36930152  1
  Al  Al22  1  0.18301027  0.36930152  0.36930152  1
  Al  Al23  1  0.81370975  0.99999900  0.63069948  1
  Al  Al24  1  0.99999900  0.81370975  0.63069948  1
  Al  Al25  1  0.63069948  0.99999900  0.81370975  1
  Al  Al26  1  0.99999900  0.63069948  0.81370975  1
  Al  Al27  1  0.18629125  0.18629025  0.81698973  1
  Ga  Ga28  1  0.00000000  0.00000000  0.00000000  1
