# generated using pymatgen
data_Mg16Al12Cd
_symmetry_space_group_name_H-M   'P 1'
_cell_length_a   9.14435197
_cell_length_b   9.14435213
_cell_length_c   9.14435197
_cell_angle_alpha   109.47122274
_cell_angle_beta   109.47122104
_cell_angle_gamma   109.47122274
_symmetry_Int_Tables_number   1
_chemical_formula_structural   Mg16Al12Cd
_chemical_formula_sum   'Mg16 Al12 Cd1'
_cell_volume   588.62254760
_cell_formula_units_Z   1
loop_
 _symmetry_equiv_pos_site_id
 _symmetry_equiv_pos_as_xyz
  1  'x, y, z'
loop_
 _atom_site_type_symbol
 _atom_site_label
 _atom_site_symmetry_multiplicity
 _atom_site_fract_x
 _atom_site_fract_y
 _atom_site_fract_z
 _atom_site_occupancy
  Mg  Mg0  1  0.59945044  0.31378365  0.99999900  1
  Mg  Mg1  1  0.99999900  0.33920892  0.99999900  1
  Mg  Mg2  1  0.31378465  0.59944944  0.00000000  1
  Mg  Mg3  1  0.33920792  0.00000000  0.00000000  1
  Mg  Mg4  1  0.68621535  0.68621535  0.28566578  1
  Mg  Mg5  1  0.59945044  0.00000000  0.31378365  1
  Mg  Mg6  1  0.00000000  0.59944944  0.31378465  1
  Mg  Mg7  1  0.00000000  0.00000000  0.33920792  1
  Mg  Mg8  1  0.71433522  0.40055056  0.40055056  1
  Mg  Mg9  1  0.40055056  0.71433422  0.40055056  1
  Mg  Mg10  1  0.99999900  0.31378365  0.59945044  1
  Mg  Mg11  1  0.31378365  0.00000000  0.59945044  1
  Mg  Mg12  1  0.66079008  0.66079008  0.66079008  1
  Mg  Mg13  1  0.28566578  0.68621535  0.68621535  1
  Mg  Mg14  1  0.68621535  0.28566678  0.68621535  1
  Mg  Mg15  1  0.40055056  0.40055056  0.71433522  1
  Al  Al16  1  0.81386938  0.63079992  0.99999900  1
  Al  Al17  1  0.63080092  0.81386838  -0.00000000  1
  Al  Al18  1  0.36919908  0.36920008  0.18306746  1
  Al  Al19  1  0.81693054  0.18613162  0.18613062  1
  Al  Al20  1  0.18613162  0.81693054  0.18613162  1
  Al  Al21  1  0.18306746  0.36920008  0.36919908  1
  Al  Al22  1  0.36920008  0.18306746  0.36920008  1
  Al  Al23  1  0.81386938  0.99999900  0.63079992  1
  Al  Al24  1  -0.00000000  0.81386838  0.63080092  1
  Al  Al25  1  0.99999900  0.63079992  0.81386938  1
  Al  Al26  1  0.63079992  0.99999900  0.81386938  1
  Al  Al27  1  0.18613062  0.18613162  0.81693054  1
  Cd  Cd28  1  0.00000000  -0.00000000  0.00000000  1
