# generated using pymatgen
data_Mg16ScAl12
_symmetry_space_group_name_H-M   'P 1'
_cell_length_a   9.10149234
_cell_length_b   9.10149240
_cell_length_c   9.10149234
_cell_angle_alpha   109.47122084
_cell_angle_beta   109.47123015
_cell_angle_gamma   109.47122084
_symmetry_Int_Tables_number   1
_chemical_formula_structural   Mg16ScAl12
_chemical_formula_sum   'Mg16 Sc1 Al12'
_cell_volume   580.38460261
_cell_formula_units_Z   1
loop_
 _symmetry_equiv_pos_site_id
 _symmetry_equiv_pos_as_xyz
  1  'x, y, z'
loop_
 _atom_site_type_symbol
 _atom_site_label
 _atom_site_symmetry_multiplicity
 _atom_site_fract_x
 _atom_site_fract_y
 _atom_site_fract_z
 _atom_site_occupancy
  Mg  Mg0  1  0.31801723  0.60274303  0.99999900  1
  Mg  Mg1  1  0.60274203  0.31801823  0.99999900  1
  Mg  Mg2  1  0.00000000  0.34982333  0.00000000  1
  Mg  Mg3  1  0.34982333  1.00000000  0.00000100  1
  Mg  Mg4  1  0.68198177  0.68198177  0.28472480  1
  Mg  Mg5  1  0.99999900  0.60274303  0.31801723  1
  Mg  Mg6  1  0.60274203  0.99999900  0.31801823  1
  Mg  Mg7  1  0.00000100  1.00000000  0.34982333  1
  Mg  Mg8  1  0.71527720  0.39725797  0.39725797  1
  Mg  Mg9  1  0.39725797  0.71527720  0.39725797  1
  Mg  Mg10  1  0.31801823  0.99999900  0.60274203  1
  Mg  Mg11  1  0.99999900  0.31801823  0.60274203  1
  Mg  Mg12  1  0.65017567  0.65017567  0.65017567  1
  Mg  Mg13  1  0.68198177  0.28472480  0.68198177  1
  Mg  Mg14  1  0.28472480  0.68198177  0.68198177  1
  Mg  Mg15  1  0.39725797  0.39725797  0.71527720  1
  Sc  Sc16  1  0.00000000  0.00000000  0.00000000  1
  Al  Al17  1  0.81493079  0.63430776  0.00000000  1
  Al  Al18  1  0.63430776  0.81493179  0.00000000  1
  Al  Al19  1  0.36569424  0.36569324  0.18062303  1
  Al  Al20  1  0.18506921  0.81937597  0.18506921  1
  Al  Al21  1  0.81937497  0.18506921  0.18506921  1
  Al  Al22  1  0.36569324  0.18062303  0.36569324  1
  Al  Al23  1  0.18062303  0.36569324  0.36569424  1
  Al  Al24  1  0.81493079  0.00000100  0.63430776  1
  Al  Al25  1  0.00000000  0.81493179  0.63430776  1
  Al  Al26  1  0.63430776  0.00000100  0.81493079  1
  Al  Al27  1  0.00000000  0.63430776  0.81493079  1
  Al  Al28  1  0.18506921  0.18506921  0.81937497  1
