# generated using pymatgen
data_MgHg2
_symmetry_space_group_name_H-M   'P 1'
_cell_length_a   3.28894260
_cell_length_b   6.88826502
_cell_length_c   6.85966805
_cell_angle_alpha   69.00207171
_cell_angle_beta   89.99999979
_cell_angle_gamma   103.81189820
_symmetry_Int_Tables_number   1
_chemical_formula_structural   MgHg2
_chemical_formula_sum   'Mg2 Hg4'
_cell_volume   140.26264285
_cell_formula_units_Z   2
loop_
 _symmetry_equiv_pos_site_id
 _symmetry_equiv_pos_as_xyz
  1  'x, y, z'
loop_
 _atom_site_type_symbol
 _atom_site_label
 _atom_site_symmetry_multiplicity
 _atom_site_fract_x
 _atom_site_fract_y
 _atom_site_fract_z
 _atom_site_occupancy
  Mg  Mg0  1  0.66685990  0.33371680  0.65980235  1
  Mg  Mg1  1  0.38869710  0.77739420  0.72908865  1
  Hg  Hg2  1  0.72532876  0.45065451  0.03920962  1
  Hg  Hg3  1  0.33022824  0.66045749  0.34967838  1
  Hg  Hg4  1  0.05570943  0.11141986  0.40457366  1
  Hg  Hg5  1  0.99984557  0.99969114  0.98431534  1
