# generated using pymatgen
data_MgHg3
_symmetry_space_group_name_H-M   'P 1'
_cell_length_a   3.24956200
_cell_length_b   6.36903989
_cell_length_c   5.45753806
_cell_angle_alpha   64.63124334
_cell_angle_beta   90.00000000
_cell_angle_gamma   75.22013248
_symmetry_Int_Tables_number   1
_chemical_formula_structural   MgHg3
_chemical_formula_sum   'Mg1 Hg3'
_cell_volume   97.90818843
_cell_formula_units_Z   1
loop_
 _symmetry_equiv_pos_site_id
 _symmetry_equiv_pos_as_xyz
  1  'x, y, z'
loop_
 _atom_site_type_symbol
 _atom_site_label
 _atom_site_symmetry_multiplicity
 _atom_site_fract_x
 _atom_site_fract_y
 _atom_site_fract_z
 _atom_site_occupancy
  Mg  Mg0  1  0.75000100  0.49999900  0.08635262  1
  Hg  Hg1  1  0.02749976  0.94499747  0.00770307  1
  Hg  Hg2  1  0.47250024  0.05500153  0.45270154  1
  Hg  Hg3  1  0.25000200  0.49999900  0.61990976  1
