# generated using pymatgen
data_Tb5Mg
_symmetry_space_group_name_H-M   'P 1'
_cell_length_a   6.16138069
_cell_length_b   6.16138195
_cell_length_c   6.62834754
_cell_angle_alpha   117.69564719
_cell_angle_beta   62.30434454
_cell_angle_gamma   119.99998309
_symmetry_Int_Tables_number   1
_chemical_formula_structural   Tb5Mg
_chemical_formula_sum   'Tb5 Mg1'
_cell_volume   183.87630488
_cell_formula_units_Z   1
loop_
 _symmetry_equiv_pos_site_id
 _symmetry_equiv_pos_as_xyz
  1  'x, y, z'
loop_
 _atom_site_type_symbol
 _atom_site_label
 _atom_site_symmetry_multiplicity
 _atom_site_fract_x
 _atom_site_fract_y
 _atom_site_fract_z
 _atom_site_occupancy
  Tb  Tb0  1  0.99288124  0.99999900  0.00000000  1
  Tb  Tb1  1  0.67378576  0.34045176  0.00000000  1
  Tb  Tb2  1  0.33333300  0.65954824  1.00000000  1
  Tb  Tb3  1  0.50137061  0.83196239  0.49588616  1
  Tb  Tb4  1  0.16529539  0.16803761  0.50411384  1
  Mg  Mg5  1  0.83333300  0.49999900  0.49999900  1
