# generated using pymatgen
data_SrYb3
_symmetry_space_group_name_H-M   'P 1'
_cell_length_a   7.96479835
_cell_length_b   7.96479949
_cell_length_c   6.48471761
_cell_angle_alpha   90.00000000
_cell_angle_beta   90.00000000
_cell_angle_gamma   119.99999521
_symmetry_Int_Tables_number   1
_chemical_formula_structural   SrYb3
_chemical_formula_sum   'Sr2 Yb6'
_cell_volume   356.26351914
_cell_formula_units_Z   2
loop_
 _symmetry_equiv_pos_site_id
 _symmetry_equiv_pos_as_xyz
  1  'x, y, z'
loop_
 _atom_site_type_symbol
 _atom_site_label
 _atom_site_symmetry_multiplicity
 _atom_site_fract_x
 _atom_site_fract_y
 _atom_site_fract_z
 _atom_site_occupancy
  Sr  Sr0  1  0.33333400  0.66666800  0.75000000  1
  Sr  Sr1  1  0.66666600  0.33333300  0.25000000  1
  Yb  Yb2  1  0.16417517  0.32835133  0.25000000  1
  Yb  Yb3  1  0.67164867  0.83582383  0.25000000  1
  Yb  Yb4  1  0.16417517  0.83582383  0.25000000  1
  Yb  Yb5  1  0.83582483  0.67164967  0.75000000  1
  Yb  Yb6  1  0.32835033  0.16417517  0.75000000  1
  Yb  Yb7  1  0.83582383  0.16417517  0.75000000  1
