# generated using pymatgen
data_CaHfS3
_symmetry_space_group_name_H-M   'P 1'
_cell_length_a   6.56026855
_cell_length_b   7.01785278
_cell_length_c   9.59823212
_cell_angle_alpha   90.00000000
_cell_angle_beta   90.00000000
_cell_angle_gamma   90.00000000
_symmetry_Int_Tables_number   1
_chemical_formula_structural   CaHfS3
_chemical_formula_sum   'Ca4 Hf4 S12'
_cell_volume   441.89299783
_cell_formula_units_Z   4
loop_
 _symmetry_equiv_pos_site_id
 _symmetry_equiv_pos_as_xyz
  1  'x, y, z'
loop_
 _atom_site_type_symbol
 _atom_site_label
 _atom_site_symmetry_multiplicity
 _atom_site_fract_x
 _atom_site_fract_y
 _atom_site_fract_z
 _atom_site_occupancy
  Ca  Ca0  1  0.47189723  0.58932081  0.25000000  1
  Ca  Ca1  1  0.02810277  0.08932081  0.25000000  1
  Ca  Ca2  1  0.52810277  0.41067919  0.75000000  1
  Ca  Ca3  1  0.97189723  0.91067919  0.75000000  1
  Hf  Hf4  1  -0.00000000  0.50000000  -0.00000000  1
  Hf  Hf5  1  0.50000000  0.00000000  0.50000000  1
  Hf  Hf6  1  -0.00000000  0.50000000  0.50000000  1
  Hf  Hf7  1  0.50000000  0.00000000  -0.00000000  1
  S  S8  1  0.88021046  0.46728720  0.25000000  1
  S  S9  1  0.61978954  0.96728720  0.25000000  1
  S  S10  1  0.11978954  0.53271280  0.75000000  1
  S  S11  1  0.38021046  0.03271280  0.75000000  1
  S  S12  1  0.68341244  0.69040368  0.93880429  1
  S  S13  1  0.81658756  0.19040368  0.56119571  1
  S  S14  1  0.31658756  0.30959632  0.43880429  1
  S  S15  1  0.18341244  0.80959632  0.06119571  1
  S  S16  1  0.31658756  0.30959632  0.06119571  1
  S  S17  1  0.18341244  0.80959632  0.43880429  1
  S  S18  1  0.68341244  0.69040368  0.56119571  1
  S  S19  1  0.81658756  0.19040368  0.93880429  1
