# generated using pymatgen
data_Y3AlNiS7
_symmetry_space_group_name_H-M   'P 1'
_cell_length_a   6.16810071
_cell_length_b   9.53897789
_cell_length_c   9.53893892
_cell_angle_alpha   119.99931070
_cell_angle_beta   90.00000000
_cell_angle_gamma   90.00000000
_symmetry_Int_Tables_number   1
_chemical_formula_structural   Y3AlNiS7
_chemical_formula_sum   'Y6 Al2 Ni2 S14'
_cell_volume   486.05678999
_cell_formula_units_Z   2
loop_
 _symmetry_equiv_pos_site_id
 _symmetry_equiv_pos_as_xyz
  1  'x, y, z'
loop_
 _atom_site_type_symbol
 _atom_site_label
 _atom_site_symmetry_multiplicity
 _atom_site_fract_x
 _atom_site_fract_y
 _atom_site_fract_z
 _atom_site_occupancy
  Y  Y0  1  0.27758274  0.22476914  0.37555264  1
  Y  Y1  1  0.27758545  0.62444821  0.84921632  1
  Y  Y2  1  0.27758180  0.15078347  0.77523080  1
  Y  Y3  1  0.77758274  0.77523086  0.62444736  1
  Y  Y4  1  0.77758545  0.37555179  0.15078368  1
  Y  Y5  1  0.77758180  0.84921653  0.22476920  1
  Al  Al6  1  0.84651992  0.33332576  0.66666535  1
  Al  Al7  1  0.34651992  0.66667424  0.33333465  1
  Ni  Ni8  1  0.44894850  0.00001073  -0.00000025  1
  Ni  Ni9  1  0.94894850  0.99998927  0.00000025  1
  S  S10  1  0.68206062  0.13380396  0.23137168  1
  S  S11  1  0.68205778  0.76865041  0.90243836  1
  S  S12  1  0.68205803  0.09757698  0.86620383  1
  S  S13  1  0.18206062  0.86619604  0.76862832  1
  S  S14  1  0.18205778  0.23134959  0.09756164  1
  S  S15  1  0.18205803  0.90242302  0.13379617  1
  S  S16  1  0.00396762  0.08932851  0.51851315  1
  S  S17  1  0.00395789  0.48148094  0.57081281  1
  S  S18  1  0.00395287  0.42918393  0.91066639  1
  S  S19  1  0.50396762  0.91067149  0.48148685  1
  S  S20  1  0.50395789  0.51851906  0.42918719  1
  S  S21  1  0.50395287  0.57081607  0.08933361  1
  S  S22  1  0.48572678  0.33331825  0.66666168  1
  S  S23  1  0.98572678  0.66668175  0.33333832  1
