# generated using pymatgen
data_Na2InCuCl6
_symmetry_space_group_name_H-M   'P 1'
_cell_length_a   7.11017683
_cell_length_b   7.11017707
_cell_length_c   7.11017705
_cell_angle_alpha   59.99999906
_cell_angle_beta   59.99999872
_cell_angle_gamma   59.99999879
_symmetry_Int_Tables_number   1
_chemical_formula_structural   Na2InCuCl6
_chemical_formula_sum   'Na2 In1 Cu1 Cl6'
_cell_volume   254.17113263
_cell_formula_units_Z   1
loop_
 _symmetry_equiv_pos_site_id
 _symmetry_equiv_pos_as_xyz
  1  'x, y, z'
loop_
 _atom_site_type_symbol
 _atom_site_label
 _atom_site_symmetry_multiplicity
 _atom_site_fract_x
 _atom_site_fract_y
 _atom_site_fract_z
 _atom_site_occupancy
  Na  Na0  1  0.25000000  0.25000000  0.25000000  1
  Na  Na1  1  0.75000000  0.75000000  0.75000000  1
  In  In2  1  0.00000000  -0.00000000  -0.00000000  1
  Cu  Cu3  1  0.50000000  0.50000000  0.50000000  1
  Cl  Cl4  1  0.25387378  0.74612622  0.25387378  1
  Cl  Cl5  1  0.74612622  0.74612622  0.25387378  1
  Cl  Cl6  1  0.74612622  0.25387378  0.74612622  1
  Cl  Cl7  1  0.74612622  0.25387378  0.25387378  1
  Cl  Cl8  1  0.25387378  0.74612622  0.74612622  1
  Cl  Cl9  1  0.25387378  0.25387378  0.74612622  1
