# generated using pymatgen
data_CsHo2Ag3Te5
_symmetry_space_group_name_H-M   'P 1'
_cell_length_a   4.67106329
_cell_length_b   8.52953263
_cell_length_c   18.63810057
_cell_angle_alpha   90.00000000
_cell_angle_beta   90.00000000
_cell_angle_gamma   105.89153178
_symmetry_Int_Tables_number   1
_chemical_formula_structural   CsHo2Ag3Te5
_chemical_formula_sum   'Cs2 Ho4 Ag6 Te10'
_cell_volume   714.19891739
_cell_formula_units_Z   2
loop_
 _symmetry_equiv_pos_site_id
 _symmetry_equiv_pos_as_xyz
  1  'x, y, z'
loop_
 _atom_site_type_symbol
 _atom_site_label
 _atom_site_symmetry_multiplicity
 _atom_site_fract_x
 _atom_site_fract_y
 _atom_site_fract_z
 _atom_site_occupancy
  Cs  Cs0  1  0.44203112  0.88406225  0.25000000  1
  Cs  Cs1  1  0.55796888  0.11593775  0.75000000  1
  Ho  Ho2  1  0.30703298  0.61406596  0.90548192  1
  Ho  Ho3  1  0.69296702  0.38593404  0.09451808  1
  Ho  Ho4  1  0.30703298  0.61406596  0.59451808  1
  Ho  Ho5  1  0.69296702  0.38593404  0.40548192  1
  Ag  Ag6  1  0.15863869  0.31727737  0.25000000  1
  Ag  Ag7  1  0.84136131  0.68272263  0.75000000  1
  Ag  Ag8  1  0.91813632  0.83627264  0.46295009  1
  Ag  Ag9  1  0.08186368  0.16372736  0.53704991  1
  Ag  Ag10  1  0.91813632  0.83627264  0.03704991  1
  Ag  Ag11  1  0.08186368  0.16372736  0.96295009  1
  Te  Te12  1  0.93183577  0.86367154  0.88281385  1
  Te  Te13  1  0.06816423  0.13632846  0.11718615  1
  Te  Te14  1  0.93183577  0.86367154  0.61718615  1
  Te  Te15  1  0.06816423  0.13632846  0.38281385  1
  Te  Te16  1  0.31872901  0.63745802  0.43051892  1
  Te  Te17  1  0.68127099  0.36254198  0.56948108  1
  Te  Te18  1  0.31872901  0.63745802  0.06948108  1
  Te  Te19  1  0.68127099  0.36254198  0.93051892  1
  Te  Te20  1  0.75496613  0.50993226  0.25000000  1
  Te  Te21  1  0.24503387  0.49006774  0.75000000  1
