# generated using pymatgen
data_Ca3UO6
_symmetry_space_group_name_H-M   'P 1'
_cell_length_a   5.76511822
_cell_length_b   5.99585494
_cell_length_c   8.37471664
_cell_angle_alpha   90.00000000
_cell_angle_beta   90.45739063
_cell_angle_gamma   90.00000000
_symmetry_Int_Tables_number   1
_chemical_formula_structural   Ca3UO6
_chemical_formula_sum   'Ca6 U2 O12'
_cell_volume   289.47803616
_cell_formula_units_Z   2
loop_
 _symmetry_equiv_pos_site_id
 _symmetry_equiv_pos_as_xyz
  1  'x, y, z'
loop_
 _atom_site_type_symbol
 _atom_site_label
 _atom_site_symmetry_multiplicity
 _atom_site_fract_x
 _atom_site_fract_y
 _atom_site_fract_z
 _atom_site_occupancy
  Ca  Ca0  1  0.74786141  0.49586270  0.25090831  1
  Ca  Ca1  1  0.25213859  0.99586270  0.74909169  1
  Ca  Ca2  1  0.74435985  0.94445033  0.00690535  1
  Ca  Ca3  1  0.25564015  0.44445033  0.99309465  1
  Ca  Ca4  1  0.23294368  0.54850247  0.50856449  1
  Ca  Ca5  1  0.76705632  0.04850247  0.49143551  1
  U  U6  1  0.74483917  0.49422070  0.75048362  1
  U  U7  1  0.25516083  0.99422070  0.24951638  1
  O  O8  1  0.38011465  0.92514657  0.48261413  1
  O  O9  1  0.61988535  0.42514657  0.51738587  1
  O  O10  1  0.44421324  0.66593052  0.80422587  1
  O  O11  1  0.55578676  0.16593052  0.19577413  1
  O  O12  1  0.91900110  0.78438308  0.67386204  1
  O  O13  1  0.08099890  0.28438308  0.32613796  1
  O  O14  1  0.87097731  0.56276839  0.98338215  1
  O  O15  1  0.12902269  0.06276839  0.01661785  1
  O  O16  1  0.95693707  0.81818160  0.30572849  1
  O  O17  1  0.04306293  0.31818160  0.69427151  1
  O  O18  1  0.42255120  0.70455362  0.17103221  1
  O  O19  1  0.57744880  0.20455362  0.82896779  1
