# generated using pymatgen
data_Yb2Mg
_symmetry_space_group_name_H-M   'P 1'
_cell_length_a   3.89841595
_cell_length_b   7.10459758
_cell_length_c   8.08779978
_cell_angle_alpha   74.06791555
_cell_angle_beta   90.00000000
_cell_angle_gamma   105.92379397
_symmetry_Int_Tables_number   1
_chemical_formula_structural   Yb2Mg
_chemical_formula_sum   'Yb4 Mg2'
_cell_volume   206.44703347
_cell_formula_units_Z   2
loop_
 _symmetry_equiv_pos_site_id
 _symmetry_equiv_pos_as_xyz
  1  'x, y, z'
loop_
 _atom_site_type_symbol
 _atom_site_label
 _atom_site_symmetry_multiplicity
 _atom_site_fract_x
 _atom_site_fract_y
 _atom_site_fract_z
 _atom_site_occupancy
  Yb  Yb0  1  0.00472989  0.00945878  0.93378620  1
  Yb  Yb1  1  0.70854866  0.41709931  0.06280759  1
  Yb  Yb2  1  0.34700534  0.69401069  0.32608141  1
  Yb  Yb3  1  0.05082611  0.10165222  0.45510280  1
  Mg  Mg4  1  0.69474682  0.38949563  0.65093103  1
  Mg  Mg5  1  0.36080818  0.72161637  0.73795697  1
