# generated using pymatgen
data_Nd3GaFeS7
_symmetry_space_group_name_H-M   'P 1'
_cell_length_a   6.10608084
_cell_length_b   9.96489919
_cell_length_c   10.01684347
_cell_angle_alpha   119.98496633
_cell_angle_beta   90.00000000
_cell_angle_gamma   90.00000000
_symmetry_Int_Tables_number   1
_chemical_formula_structural   Nd3GaFeS7
_chemical_formula_sum   'Nd6 Ga2 Fe2 S14'
_cell_volume   527.91347746
_cell_formula_units_Z   2
loop_
 _symmetry_equiv_pos_site_id
 _symmetry_equiv_pos_as_xyz
  1  'x, y, z'
loop_
 _atom_site_type_symbol
 _atom_site_label
 _atom_site_symmetry_multiplicity
 _atom_site_fract_x
 _atom_site_fract_y
 _atom_site_fract_z
 _atom_site_occupancy
  Nd  Nd0  1  0.02403850  0.14947619  0.37697455  1
  Nd  Nd1  1  0.02490487  0.62689055  0.77433943  1
  Nd  Nd2  1  0.02446497  0.22544174  0.85053825  1
  Nd  Nd3  1  0.52403850  0.85052381  0.62302545  1
  Nd  Nd4  1  0.52490487  0.37310945  0.22566057  1
  Nd  Nd5  1  0.52446497  0.77455826  0.14946175  1
  Ga  Ga6  1  0.94624093  0.66585152  0.33306306  1
  Ga  Ga7  1  0.44624093  0.33414848  0.66693694  1
  Fe  Fe8  1  0.32540009  0.00085400  0.00159078  1
  Fe  Fe9  1  0.82540009  0.99914600  0.99840922  1
  S  S10  1  0.29594590  0.42670670  0.51971655  1
  S  S11  1  0.29639117  0.48099783  0.90650571  1
  S  S12  1  0.29589773  0.09229181  0.57375453  1
  S  S13  1  0.79594590  0.57329330  0.48028345  1
  S  S14  1  0.79639117  0.51900217  0.09349429  1
  S  S15  1  0.79589773  0.90770819  0.42624547  1
  S  S16  1  0.31651084  0.66661157  0.33301820  1
  S  S17  1  0.81651084  0.33338843  0.66698180  1
  S  S18  1  0.08839291  0.86191194  0.09497906  1
  S  S19  1  0.08828192  0.90534314  0.76624689  1
  S  S20  1  0.08750016  0.23265485  0.13823552  1
  S  S21  1  0.58839291  0.13808806  0.90502094  1
  S  S22  1  0.58828192  0.09465686  0.23375311  1
  S  S23  1  0.58750016  0.76734515  0.86176448  1
