# generated using pymatgen
data_NaCe3GeS7
_symmetry_space_group_name_H-M   'P 1'
_cell_length_a   5.86409970
_cell_length_b   10.28402289
_cell_length_c   10.28847044
_cell_angle_alpha   120.00212670
_cell_angle_beta   90.00000000
_cell_angle_gamma   90.00000000
_symmetry_Int_Tables_number   1
_chemical_formula_structural   NaCe3GeS7
_chemical_formula_sum   'Na2 Ce6 Ge2 S14'
_cell_volume   537.32434534
_cell_formula_units_Z   2
loop_
 _symmetry_equiv_pos_site_id
 _symmetry_equiv_pos_as_xyz
  1  'x, y, z'
loop_
 _atom_site_type_symbol
 _atom_site_label
 _atom_site_symmetry_multiplicity
 _atom_site_fract_x
 _atom_site_fract_y
 _atom_site_fract_z
 _atom_site_occupancy
  Na  Na0  1  0.01902436  0.99983827  0.99997843  1
  Na  Na1  1  0.51902436  0.00016173  0.00002157  1
  Ce  Ce2  1  0.74868967  0.23299411  0.36068758  1
  Ce  Ce3  1  0.74787252  0.63902974  0.87186165  1
  Ce  Ce4  1  0.74860024  0.12823208  0.76720981  1
  Ce  Ce5  1  0.24868967  0.76700589  0.63931242  1
  Ce  Ce6  1  0.24787252  0.36097026  0.12813835  1
  Ce  Ce7  1  0.24860024  0.87176792  0.23279019  1
  Ge  Ge8  1  0.16567723  0.33335271  0.66663815  1
  Ge  Ge9  1  0.66567723  0.66664729  0.33336185  1
  S  S10  1  0.54366864  0.33328055  0.66662527  1
  S  S11  1  0.04366864  0.66671945  0.33337473  1
  S  S12  1  0.77158233  0.25843036  0.09191460  1
  S  S13  1  0.77144945  0.90781029  0.16610541  1
  S  S14  1  0.77138517  0.83356351  0.74166851  1
  S  S15  1  0.27158233  0.74156964  0.90808540  1
  S  S16  1  0.27144945  0.09218971  0.83389459  1
  S  S17  1  0.27138517  0.16643649  0.25833149  1
  S  S18  1  0.00962952  0.41411176  0.89475819  1
  S  S19  1  0.00947709  0.10520018  0.51933142  1
  S  S20  1  0.00948378  0.48101974  0.58621463  1
  S  S21  1  0.50962952  0.58588824  0.10524181  1
  S  S22  1  0.50947709  0.89479982  0.48066858  1
  S  S23  1  0.50948378  0.51898026  0.41378537  1
