# generated using pymatgen
data_Pr3GaFeS7
_symmetry_space_group_name_H-M   'P 1'
_cell_length_a   6.03177563
_cell_length_b   10.07125043
_cell_length_c   10.13190999
_cell_angle_alpha   119.54654923
_cell_angle_beta   90.00000000
_cell_angle_gamma   90.00000000
_symmetry_Int_Tables_number   1
_chemical_formula_structural   Pr3GaFeS7
_chemical_formula_sum   'Pr6 Ga2 Fe2 S14'
_cell_volume   535.44745312
_cell_formula_units_Z   2
loop_
 _symmetry_equiv_pos_site_id
 _symmetry_equiv_pos_as_xyz
  1  'x, y, z'
loop_
 _atom_site_type_symbol
 _atom_site_label
 _atom_site_symmetry_multiplicity
 _atom_site_fract_x
 _atom_site_fract_y
 _atom_site_fract_z
 _atom_site_occupancy
  Pr  Pr0  1  0.29241309  0.85697229  0.22928697  1
  Pr  Pr1  1  0.29335581  0.76908039  0.62340880  1
  Pr  Pr2  1  0.29293189  0.37352330  0.14540123  1
  Pr  Pr3  1  0.79241309  0.14302771  0.77071303  1
  Pr  Pr4  1  0.79335581  0.23091961  0.37659120  1
  Pr  Pr5  1  0.79293189  0.62647670  0.85459877  1
  Ga  Ga6  1  0.37281810  0.33293870  0.66696622  1
  Ga  Ga7  1  0.87281810  0.66706130  0.33303378  1
  Fe  Fe8  1  0.50253333  0.00036186  0.00034158  1
  Fe  Fe9  1  0.00253333  0.99963814  0.99965842  1
  S  S10  1  0.24136904  0.14264373  0.23490408  1
  S  S11  1  0.24145323  0.76795049  0.90747336  1
  S  S12  1  0.24241359  0.08993132  0.85892102  1
  S  S13  1  0.74136904  0.85735627  0.76509592  1
  S  S14  1  0.74145323  0.23204951  0.09252664  1
  S  S15  1  0.74241359  0.91006868  0.14107898  1
  S  S16  1  0.02153901  0.57809785  0.09601265  1
  S  S17  1  0.02225893  0.90506091  0.48119850  1
  S  S18  1  0.02232006  0.51723784  0.42234818  1
  S  S19  1  0.52153901  0.42190215  0.90398735  1
  S  S20  1  0.52225893  0.09493909  0.51880150  1
  S  S21  1  0.52232006  0.48276216  0.57765182  1
  S  S22  1  0.00082391  0.33371470  0.66708484  1
  S  S23  1  0.50082391  0.66628530  0.33291516  1
