# generated using pymatgen
data_La3AlFeS7
_symmetry_space_group_name_H-M   'P 1'
_cell_length_a   5.99537793
_cell_length_b   10.20345600
_cell_length_c   10.24818497
_cell_angle_alpha   119.58107359
_cell_angle_beta   90.00000000
_cell_angle_gamma   90.00000000
_symmetry_Int_Tables_number   1
_chemical_formula_structural   La3AlFeS7
_chemical_formula_sum   'La6 Al2 Fe2 S14'
_cell_volume   545.20437863
_cell_formula_units_Z   2
loop_
 _symmetry_equiv_pos_site_id
 _symmetry_equiv_pos_as_xyz
  1  'x, y, z'
loop_
 _atom_site_type_symbol
 _atom_site_label
 _atom_site_symmetry_multiplicity
 _atom_site_fract_x
 _atom_site_fract_y
 _atom_site_fract_z
 _atom_site_occupancy
  La  La0  1  0.25624935  0.23447018  0.37654879  1
  La  La1  1  0.25523531  0.62709756  0.85821779  1
  La  La2  1  0.25457170  0.13879110  0.76671978  1
  La  La3  1  0.75624935  0.76552982  0.62345121  1
  La  La4  1  0.75523531  0.37290244  0.14178221  1
  La  La5  1  0.75457170  0.86120890  0.23328022  1
  Al  Al6  1  0.83667419  0.33307338  0.66706906  1
  Al  Al7  1  0.33667419  0.66692662  0.33293094  1
  Fe  Fe8  1  0.47864938  0.99971845  0.99972402  1
  Fe  Fe9  1  0.97864938  0.00028155  0.00027598  1
  S  S10  1  0.71485932  0.14412946  0.23302944  1
  S  S11  1  0.71504658  0.76953925  0.91034162  1
  S  S12  1  0.71568788  0.08664586  0.85733070  1
  S  S13  1  0.21485932  0.85587054  0.76697056  1
  S  S14  1  0.21504658  0.23046075  0.08965838  1
  S  S15  1  0.21568788  0.91335414  0.14266930  1
  S  S16  1  0.98095518  0.10091121  0.52025551  1
  S  S17  1  0.98110589  0.48130527  0.58202985  1
  S  S18  1  0.98007513  0.41745099  0.89793461  1
  S  S19  1  0.48095518  0.89908879  0.47974449  1
  S  S20  1  0.48110589  0.51869473  0.41797015  1
  S  S21  1  0.48007513  0.58254901  0.10206539  1
  S  S22  1  0.46689010  0.33366378  0.66690528  1
  S  S23  1  0.96689010  0.66633622  0.33309472  1
