# generated using pymatgen
data_Gd3AlZnS7
_symmetry_space_group_name_H-M   'P 1'
_cell_length_a   6.20964412
_cell_length_b   9.76516677
_cell_length_c   9.76481047
_cell_angle_alpha   119.99935455
_cell_angle_beta   90.00000000
_cell_angle_gamma   90.00000000
_symmetry_Int_Tables_number   1
_chemical_formula_structural   Gd3AlZnS7
_chemical_formula_sum   'Gd6 Al2 Zn2 S14'
_cell_volume   512.79484455
_cell_formula_units_Z   2
loop_
 _symmetry_equiv_pos_site_id
 _symmetry_equiv_pos_as_xyz
  1  'x, y, z'
loop_
 _atom_site_type_symbol
 _atom_site_label
 _atom_site_symmetry_multiplicity
 _atom_site_fract_x
 _atom_site_fract_y
 _atom_site_fract_z
 _atom_site_occupancy
  Gd  Gd0  1  0.26558041  0.23233637  0.37708187  1
  Gd  Gd1  1  0.26558266  0.62291630  0.85526095  1
  Gd  Gd2  1  0.26558537  0.14474055  0.76766073  1
  Gd  Gd3  1  0.76558041  0.76766363  0.62291813  1
  Gd  Gd4  1  0.76558266  0.37708370  0.14473905  1
  Gd  Gd5  1  0.76558537  0.85525945  0.23233927  1
  Al  Al6  1  0.83801639  0.33334272  0.66667224  1
  Al  Al7  1  0.33801639  0.66665728  0.33332776  1
  Zn  Zn8  1  0.49674703  0.00000402  0.99999864  1
  Zn  Zn9  1  0.99674703  0.99999598  0.00000136  1
  S  S10  1  0.68125425  0.14420688  0.24370787  1
  S  S11  1  0.68125315  0.75629506  0.90048810  1
  S  S12  1  0.68125259  0.09950597  0.85579865  1
  S  S13  1  0.18125425  0.85579312  0.75629213  1
  S  S14  1  0.18125315  0.24370494  0.09951190  1
  S  S15  1  0.18125259  0.90049403  0.14420135  1
  S  S16  1  0.99508520  0.09524479  0.51833668  1
  S  S17  1  0.99506613  0.48164934  0.57692310  1
  S  S18  1  0.99506514  0.42308593  0.90473580  1
  S  S19  1  0.49508520  0.90475521  0.48166332  1
  S  S20  1  0.49506613  0.51835066  0.42307690  1
  S  S21  1  0.49506514  0.57691407  0.09526420  1
  S  S22  1  0.47551167  0.33332864  0.66666318  1
  S  S23  1  0.97551167  0.66667136  0.33333682  1
