# generated using pymatgen
data_Sc2Ir
_symmetry_space_group_name_H-M   'P 1'
_cell_length_a   8.72206862
_cell_length_b   8.72206862
_cell_length_c   8.72206862
_cell_angle_alpha   60.00000000
_cell_angle_beta   60.00000000
_cell_angle_gamma   60.00000000
_symmetry_Int_Tables_number   1
_chemical_formula_structural   Sc2Ir
_chemical_formula_sum   'Sc16 Ir8'
_cell_volume   469.18433127
_cell_formula_units_Z   8
loop_
 _symmetry_equiv_pos_site_id
 _symmetry_equiv_pos_as_xyz
  1  'x, y, z'
loop_
 _atom_site_type_symbol
 _atom_site_label
 _atom_site_symmetry_multiplicity
 _atom_site_fract_x
 _atom_site_fract_y
 _atom_site_fract_z
 _atom_site_occupancy
  Sc  Sc0  1  0.00000000  -0.00000000  0.50000000  1
  Sc  Sc1  1  0.00000000  0.50000000  -0.00000000  1
  Sc  Sc2  1  0.50000000  -0.00000000  -0.00000000  1
  Sc  Sc3  1  0.00000000  -0.00000000  -0.00000000  1
  Sc  Sc4  1  0.43656902  0.81343098  0.81343098  1
  Sc  Sc5  1  0.81343098  0.43656902  0.43656902  1
  Sc  Sc6  1  0.81343098  0.43656902  0.81343098  1
  Sc  Sc7  1  0.43656902  0.81343098  0.43656902  1
  Sc  Sc8  1  0.81343098  0.81343098  0.43656902  1
  Sc  Sc9  1  0.43656902  0.43656902  0.81343098  1
  Sc  Sc10  1  0.56343098  0.18656902  0.18656902  1
  Sc  Sc11  1  0.18656902  0.56343098  0.56343098  1
  Sc  Sc12  1  0.18656902  0.56343098  0.18656902  1
  Sc  Sc13  1  0.56343098  0.18656902  0.56343098  1
  Sc  Sc14  1  0.18656902  0.18656902  0.56343098  1
  Sc  Sc15  1  0.56343098  0.56343098  0.18656902  1
  Ir  Ir16  1  0.21558207  0.21558207  0.85325380  1
  Ir  Ir17  1  0.21558207  0.85325380  0.21558207  1
  Ir  Ir18  1  0.85325380  0.21558207  0.21558207  1
  Ir  Ir19  1  0.21558207  0.21558207  0.21558207  1
  Ir  Ir20  1  0.78441793  0.78441793  0.14674620  1
  Ir  Ir21  1  0.78441793  0.14674620  0.78441793  1
  Ir  Ir22  1  0.14674620  0.78441793  0.78441793  1
  Ir  Ir23  1  0.78441793  0.78441793  0.78441793  1
