# generated using pymatgen
data_YF3
_symmetry_space_group_name_H-M   'P 1'
_cell_length_a   6.85752098
_cell_length_b   6.85755218
_cell_length_c   7.02504441
_cell_angle_alpha   90.00112917
_cell_angle_beta   89.99913899
_cell_angle_gamma   119.99909532
_symmetry_Int_Tables_number   1
_chemical_formula_structural   YF3
_chemical_formula_sum   'Y6 F18'
_cell_volume   286.10136538
_cell_formula_units_Z   6
loop_
 _symmetry_equiv_pos_site_id
 _symmetry_equiv_pos_as_xyz
  1  'x, y, z'
loop_
 _atom_site_type_symbol
 _atom_site_label
 _atom_site_symmetry_multiplicity
 _atom_site_fract_x
 _atom_site_fract_y
 _atom_site_fract_z
 _atom_site_occupancy
  Y  Y0  1  0.34515010  0.34514568  0.75001362  1
  Y  Y1  1  0.65483607  -0.00001528  0.74999487  1
  Y  Y2  1  -0.00000998  0.65482924  0.75000298  1
  Y  Y3  1  0.34516393  0.00001528  0.25000513  1
  Y  Y4  1  0.00000998  0.34517076  0.24999702  1
  Y  Y5  1  0.65484990  0.65485432  0.24998638  1
  F  F6  1  0.69355838  0.62597479  0.57807976  1
  F  F7  1  0.37405667  0.06759499  0.57808766  1
  F  F8  1  0.93239209  0.30644839  0.57807745  1
  F  F9  1  0.69356200  0.06759671  0.07808172  1
  F  F10  1  0.93240310  0.62595613  0.07807959  1
  F  F11  1  0.37406532  0.30646968  0.07808837  1
  F  F12  1  0.30644162  0.37402521  0.42192024  1
  F  F13  1  0.62594333  0.93240501  0.42191234  1
  F  F14  1  0.06760791  0.69355161  0.42192255  1
  F  F15  1  0.30643800  0.93240329  0.92191828  1
  F  F16  1  0.06759690  0.37404387  0.92192041  1
  F  F17  1  0.62593468  0.69353032  0.92191163  1
  F  F18  1  0.33332328  0.66665800  0.68607647  1
  F  F19  1  0.33333178  0.66666546  0.18609068  1
  F  F20  1  0.66667672  0.33334200  0.31392353  1
  F  F21  1  0.66666822  0.33333454  0.81390932  1
  F  F22  1  -0.00001181  0.00001246  0.74999833  1
  F  F23  1  0.00001181  0.99998754  0.25000167  1
