# generated using pymatgen
data_CuMoO4
_symmetry_space_group_name_H-M   'P 1'
_cell_length_a   6.38189800
_cell_length_b   7.30734105
_cell_length_c   7.51210616
_cell_angle_alpha   73.91588721
_cell_angle_beta   73.04860083
_cell_angle_gamma   85.02958223
_symmetry_Int_Tables_number   1
_chemical_formula_structural   CuMoO4
_chemical_formula_sum   'Cu4 Mo4 O16'
_cell_volume   321.98022114
_cell_formula_units_Z   4
loop_
 _symmetry_equiv_pos_site_id
 _symmetry_equiv_pos_as_xyz
  1  'x, y, z'
loop_
 _atom_site_type_symbol
 _atom_site_label
 _atom_site_symmetry_multiplicity
 _atom_site_fract_x
 _atom_site_fract_y
 _atom_site_fract_z
 _atom_site_occupancy
  Cu  Cu0  1  0.18582158  0.68788755  0.15973061  1
  Cu  Cu1  1  0.81417842  0.31211245  0.84026939  1
  Cu  Cu2  1  0.80793762  0.70125708  0.49698244  1
  Cu  Cu3  1  0.19206238  0.29874292  0.50301756  1
  Mo  Mo4  1  0.78330962  0.72493983  0.00355225  1
  Mo  Mo5  1  0.21669038  0.27506017  0.99644775  1
  Mo  Mo6  1  0.21579741  0.73057893  0.63948299  1
  Mo  Mo7  1  0.78420259  0.26942107  0.36051701  1
  O  O8  1  0.14402588  0.65075618  0.92333818  1
  O  O9  1  0.85597412  0.34924382  0.07666182  1
  O  O10  1  0.49793776  0.66928794  0.57791368  1
  O  O11  1  0.50206224  0.33071206  0.42208632  1
  O  O12  1  0.86117949  0.63755146  0.24745876  1
  O  O13  1  0.13882051  0.36244854  0.75254124  1
  O  O14  1  0.49944099  0.67461174  0.08560148  1
  O  O15  1  0.50055901  0.32538826  0.91439852  1
  O  O16  1  0.13097069  0.69014748  0.42846709  1
  O  O17  1  0.86902931  0.30985252  0.57153291  1
  O  O18  1  0.78588571  0.02354610  0.40468222  1
  O  O19  1  0.21411429  0.97645390  0.59531778  1
  O  O20  1  0.79883042  0.96935045  0.95703164  1
  O  O21  1  0.20116958  0.03064955  0.04296836  1
  O  O22  1  0.85876995  0.69077004  0.74771631  1
  O  O23  1  0.14123005  0.30922996  0.25228369  1
