# generated using pymatgen
data_Zr9BMo4
_symmetry_space_group_name_H-M   'P 1'
_cell_length_a   8.61280871
_cell_length_b   8.64314637
_cell_length_c   8.64314637
_cell_angle_alpha   120.02260162
_cell_angle_beta   90.00000000
_cell_angle_gamma   90.00000000
_symmetry_Int_Tables_number   1
_chemical_formula_structural   Zr9BMo4
_chemical_formula_sum   'Zr18 B2 Mo8'
_cell_volume   557.08339499
_cell_formula_units_Z   2
loop_
 _symmetry_equiv_pos_site_id
 _symmetry_equiv_pos_as_xyz
  1  'x, y, z'
loop_
 _atom_site_type_symbol
 _atom_site_label
 _atom_site_symmetry_multiplicity
 _atom_site_fract_x
 _atom_site_fract_y
 _atom_site_fract_z
 _atom_site_occupancy
  Zr  Zr0  1  0.55607356  0.79691145  0.59391128  1
  Zr  Zr1  1  0.55603245  0.79693136  0.20306864  1
  Zr  Zr2  1  0.55607356  0.40608872  0.20308855  1
  Zr  Zr3  1  0.44392644  0.20308855  0.40608872  1
  Zr  Zr4  1  0.44396755  0.20306864  0.79693136  1
  Zr  Zr5  1  0.44392644  0.59391128  0.79691145  1
  Zr  Zr6  1  0.05607356  0.20308855  0.40608872  1
  Zr  Zr7  1  0.05603245  0.20306864  0.79693136  1
  Zr  Zr8  1  0.05607356  0.59391128  0.79691145  1
  Zr  Zr9  1  0.94392644  0.79691145  0.59391128  1
  Zr  Zr10  1  0.94396755  0.79693136  0.20306864  1
  Zr  Zr11  1  0.94392644  0.40608872  0.20308855  1
  Zr  Zr12  1  0.75000000  0.46151089  0.92315940  1
  Zr  Zr13  1  0.75000000  0.46144821  0.53855179  1
  Zr  Zr14  1  0.75000000  0.07684060  0.53848911  1
  Zr  Zr15  1  0.25000000  0.53848911  0.07684060  1
  Zr  Zr16  1  0.25000000  0.53855179  0.46144821  1
  Zr  Zr17  1  0.25000000  0.92315940  0.46151089  1
  B  B18  1  0.75000000  0.66668919  0.33331081  1
  B  B19  1  0.25000000  0.33331081  0.66668919  1
  Mo  Mo20  1  0.75000000  0.11003957  0.22029415  1
  Mo  Mo21  1  0.75000000  0.11007528  0.88992472  1
  Mo  Mo22  1  0.75000000  0.77970585  0.88996043  1
  Mo  Mo23  1  0.25000000  0.88996043  0.77970585  1
  Mo  Mo24  1  0.25000000  0.88992472  0.11007528  1
  Mo  Mo25  1  0.25000000  0.22029415  0.11003957  1
  Mo  Mo26  1  0.50000000  -0.00000000  0.00000000  1
  Mo  Mo27  1  -0.00000000  -0.00000000  0.00000000  1
