# generated using pymatgen
data_K2SnH2OF6
_symmetry_space_group_name_H-M   'P 1'
_cell_length_a   9.20633736
_cell_length_b   9.20633736
_cell_length_c   10.94481800
_cell_angle_alpha   112.67309588
_cell_angle_beta   112.67309588
_cell_angle_gamma   94.78820537
_symmetry_Int_Tables_number   1
_chemical_formula_structural   K2SnH2OF6
_chemical_formula_sum   'K8 Sn4 H8 O4 F24'
_cell_volume   759.90434053
_cell_formula_units_Z   4
loop_
 _symmetry_equiv_pos_site_id
 _symmetry_equiv_pos_as_xyz
  1  'x, y, z'
loop_
 _atom_site_type_symbol
 _atom_site_label
 _atom_site_symmetry_multiplicity
 _atom_site_fract_x
 _atom_site_fract_y
 _atom_site_fract_z
 _atom_site_occupancy
  K  K0  1  0.25145929  0.00145929  0.00291858  1
  K  K1  1  0.49854071  0.24854071  0.49708142  1
  K  K2  1  0.74854071  0.99854071  0.99708142  1
  K  K3  1  0.50145929  0.75145929  0.50291858  1
  K  K4  1  0.66128449  0.41128449  0.25000000  1
  K  K5  1  0.08871551  0.83871551  0.25000000  1
  K  K6  1  0.33871551  0.58871551  0.75000000  1
  K  K7  1  0.91128449  0.16128449  0.75000000  1
  Sn  Sn8  1  0.59367349  0.90632651  0.25000000  1
  Sn  Sn9  1  0.15632651  0.34367349  0.25000000  1
  Sn  Sn10  1  0.40632651  0.09367349  0.75000000  1
  Sn  Sn11  1  0.84367349  0.65632651  0.75000000  1
  H  H12  1  0.74288177  0.60894990  0.10366446  1
  H  H13  1  0.00528545  0.63921731  0.39633554  1
  H  H14  1  0.89105010  0.75711823  0.39633554  1
  H  H15  1  0.86078269  0.49471455  0.10366446  1
  H  H16  1  0.25711823  0.39105010  0.89633554  1
  H  H17  1  0.99471455  0.36078269  0.60366446  1
  H  H18  1  0.10894990  0.24288177  0.60366446  1
  H  H19  1  0.13921731  0.50528545  0.89633554  1
  O  O20  1  0.76968638  0.51968638  0.03937275  1
  O  O21  1  0.98031362  0.73031362  0.46062725  1
  O  O22  1  0.23031362  0.48031362  0.96062725  1
  O  O23  1  0.01968638  0.26968638  0.53937275  1
  F  F24  1  0.67345019  0.00440235  0.47060490  1
  F  F25  1  0.03379745  0.20284529  0.02939510  1
  F  F26  1  0.49559765  0.82654981  0.02939510  1
  F  F27  1  0.29715471  0.46620255  0.47060490  1
  F  F28  1  0.32654981  0.99559765  0.52939510  1
  F  F29  1  0.96620255  0.79715471  0.97060490  1
  F  F30  1  0.50440235  0.17345019  0.97060490  1
  F  F31  1  0.70284529  0.53379745  0.52939510  1
  F  F32  1  0.59079770  0.68916758  0.25159960  1
  F  F33  1  0.93756798  0.33919810  0.24840040  1
  F  F34  1  0.81083242  0.90920230  0.24840040  1
  F  F35  1  0.16080190  0.56243202  0.25159960  1
  F  F36  1  0.40920230  0.31083242  0.74840040  1
  F  F37  1  0.06243202  0.66080190  0.75159960  1
  F  F38  1  0.18916758  0.09079770  0.75159960  1
  F  F39  1  0.83919810  0.43756798  0.74840040  1
  F  F40  1  0.36783818  0.89592109  0.23273403  1
  F  F41  1  0.16318706  0.13510415  0.26726597  1
  F  F42  1  0.60407891  0.13216182  0.26726597  1
  F  F43  1  0.36489585  0.33681294  0.23273403  1
  F  F44  1  0.63216182  0.10407891  0.76726597  1
  F  F45  1  0.83681294  0.86489585  0.73273403  1
  F  F46  1  0.39592109  0.86783818  0.73273403  1
  F  F47  1  0.63510415  0.66318706  0.76726597  1
