# generated using pymatgen
data_Ca4MgB12As2(H19O24)2
_symmetry_space_group_name_H-M   'P 1'
_cell_length_a   6.27003633
_cell_length_b   15.77342189
_cell_length_c   20.23311766
_cell_angle_alpha   90.00000000
_cell_angle_beta   90.00000000
_cell_angle_gamma   99.17349443
_symmetry_Int_Tables_number   1
_chemical_formula_structural   Ca4MgB12As2(H19O24)2
_chemical_formula_sum   'Ca8 Mg2 B24 As4 H76 O96'
_cell_volume   1975.46064988
_cell_formula_units_Z   2
loop_
 _symmetry_equiv_pos_site_id
 _symmetry_equiv_pos_as_xyz
  1  'x, y, z'
loop_
 _atom_site_type_symbol
 _atom_site_label
 _atom_site_symmetry_multiplicity
 _atom_site_fract_x
 _atom_site_fract_y
 _atom_site_fract_z
 _atom_site_occupancy
  Ca  Ca0  1  0.21141985  0.23155619  0.28970343  1
  Ca  Ca1  1  0.78858015  0.26844381  0.78970343  1
  Ca  Ca2  1  0.78858015  0.76844381  0.71029657  1
  Ca  Ca3  1  0.21141985  0.73155619  0.21029657  1
  Ca  Ca4  1  0.71495006  0.44833485  0.04961484  1
  Ca  Ca5  1  0.28504994  0.05166515  0.54961484  1
  Ca  Ca6  1  0.28504994  0.55166515  0.95038516  1
  Ca  Ca7  1  0.71495006  0.94833485  0.45038516  1
  Mg  Mg8  1  0.00000000  0.50000000  0.50000000  1
  Mg  Mg9  1  0.00000000  0.00000000  0.00000000  1
  B  B10  1  0.01726354  0.79513781  0.38320151  1
  B  B11  1  0.98273646  0.70486219  0.88320151  1
  B  B12  1  0.98273646  0.20486219  0.61679849  1
  B  B13  1  0.01726354  0.29513781  0.11679849  1
  B  B14  1  0.43978494  0.95078651  0.22239033  1
  B  B15  1  0.56021506  0.54921349  0.72239033  1
  B  B16  1  0.56021506  0.04921349  0.77760967  1
  B  B17  1  0.43978494  0.45078651  0.27760967  1
  B  B18  1  0.17670057  0.94353895  0.41977851  1
  B  B19  1  0.82329943  0.55646105  0.91977851  1
  B  B20  1  0.82329943  0.05646105  0.58022149  1
  B  B21  1  0.17670057  0.44353895  0.08022149  1
  B  B22  1  0.35432585  0.86465599  0.32712943  1
  B  B23  1  0.64567415  0.63534401  0.82712943  1
  B  B24  1  0.64567415  0.13534401  0.67287057  1
  B  B25  1  0.35432585  0.36465599  0.17287057  1
  B  B26  1  0.42583312  0.03376216  0.32820309  1
  B  B27  1  0.57416688  0.46623784  0.82820309  1
  B  B28  1  0.57416688  0.96623784  0.67179691  1
  B  B29  1  0.42583312  0.53376216  0.17179691  1
  B  B30  1  0.17859098  0.10612439  0.40213840  1
  B  B31  1  0.82140902  0.39387561  0.90213840  1
  B  B32  1  0.82140902  0.89387561  0.59786160  1
  B  B33  1  0.17859098  0.60612439  0.09786160  1
  As  As34  1  0.48893631  0.24958808  0.45159435  1
  As  As35  1  0.51106369  0.25041192  0.95159435  1
  As  As36  1  0.51106369  0.75041192  0.54840565  1
  As  As37  1  0.48893631  0.74958808  0.04840565  1
  H  H38  1  0.29596367  0.87259713  0.49344538  1
  H  H39  1  0.70403633  0.62740287  0.99344538  1
  H  H40  1  0.70403633  0.12740287  0.50655462  1
  H  H41  1  0.29596367  0.37259713  0.00655462  1
  H  H42  1  0.47042553  0.88949364  0.13846349  1
  H  H43  1  0.52957447  0.61050636  0.63846349  1
  H  H44  1  0.52957447  0.11050636  0.86153651  1
  H  H45  1  0.47042553  0.38949364  0.36153651  1
  H  H46  1  0.74295698  0.09008496  0.35774383  1
  H  H47  1  0.25704302  0.40991504  0.85774383  1
  H  H48  1  0.25704302  0.90991504  0.64225617  1
  H  H49  1  0.74295698  0.59008496  0.14225617  1
  H  H50  1  0.76550800  0.71889404  0.43025764  1
  H  H51  1  0.23449200  0.78110596  0.93025764  1
  H  H52  1  0.23449200  0.28110596  0.56974236  1
  H  H53  1  0.76550800  0.21889404  0.06974236  1
  H  H54  1  0.93731195  0.18384457  0.41862621  1
  H  H55  1  0.06268805  0.31615543  0.91862621  1
  H  H56  1  0.06268805  0.81615543  0.58137379  1
  H  H57  1  0.93731195  0.68384457  0.08137379  1
  H  H58  1  0.57974164  0.79398136  0.35506138  1
  H  H59  1  0.42025836  0.70601864  0.85506138  1
  H  H60  1  0.42025836  0.20601864  0.64493862  1
  H  H61  1  0.57974164  0.29398136  0.14493862  1
  H  H62  1  0.88653055  0.85848860  0.22184137  1
  H  H63  1  0.11346945  0.64151140  0.72184137  1
  H  H64  1  0.11346945  0.14151140  0.77815863  1
  H  H65  1  0.88653055  0.35848860  0.27815863  1
  H  H66  1  0.78680292  0.29380980  0.33328930  1
  H  H67  1  0.21319708  0.20619020  0.83328930  1
  H  H68  1  0.21319708  0.70619020  0.66671070  1
  H  H69  1  0.78680292  0.79380980  0.16671070  1
  H  H70  1  0.50929497  0.13257444  0.22879047  1
  H  H71  1  0.49070503  0.36742556  0.72879047  1
  H  H72  1  0.49070503  0.86742556  0.77120953  1
  H  H73  1  0.50929497  0.63257444  0.27120953  1
  H  H74  1  0.95018445  0.06881734  0.22740157  1
  H  H75  1  0.04981555  0.43118266  0.72740157  1
  H  H76  1  0.04981555  0.93118266  0.77259843  1
  H  H77  1  0.95018445  0.56881734  0.27259843  1
  H  H78  1  0.91877877  0.15233988  0.18465811  1
  H  H79  1  0.08122123  0.34766012  0.68465811  1
  H  H80  1  0.08122123  0.84766012  0.81534189  1
  H  H81  1  0.91877877  0.65233988  0.31534189  1
  H  H82  1  0.41193100  0.59548604  0.46778313  1
  H  H83  1  0.58806900  0.90451396  0.96778313  1
  H  H84  1  0.58806900  0.40451396  0.53221687  1
  H  H85  1  0.41193100  0.09548604  0.03221687  1
  H  H86  1  0.35032711  0.51700530  0.41742030  1
  H  H87  1  0.64967289  0.98299470  0.91742030  1
  H  H88  1  0.64967289  0.48299470  0.58257970  1
  H  H89  1  0.35032711  0.01700530  0.08257970  1
  H  H90  1  0.85767485  0.09270647  0.09463401  1
  H  H91  1  0.14232515  0.40729353  0.59463401  1
  H  H92  1  0.14232515  0.90729353  0.90536599  1
  H  H93  1  0.85767485  0.59270647  0.40536599  1
  H  H94  1  0.71954897  0.00276277  0.11335608  1
  H  H95  1  0.28045103  0.49723723  0.61335608  1
  H  H96  1  0.28045103  0.99723723  0.88664392  1
  H  H97  1  0.71954897  0.50276277  0.38664392  1
  H  H98  1  0.16992554  0.35816404  0.47696023  1
  H  H99  1  0.83007446  0.14183596  0.97696023  1
  H  H100  1  0.83007446  0.64183596  0.52303977  1
  H  H101  1  0.16992554  0.85816404  0.02303977  1
  H  H102  1  0.91860387  0.32537762  0.47071926  1
  H  H103  1  0.08139613  0.17462238  0.97071926  1
  H  H104  1  0.08139613  0.67462238  0.52928074  1
  H  H105  1  0.91860387  0.82537762  0.02928074  1
  H  H106  1  0.04075301  0.95979727  0.29139652  1
  H  H107  1  0.95924699  0.54020273  0.79139652  1
  H  H108  1  0.95924699  0.04020273  0.70860348  1
  H  H109  1  0.04075301  0.45979727  0.20860348  1
  H  H110  1  0.80215686  0.97299683  0.29834824  1
  H  H111  1  0.19784314  0.52700317  0.79834824  1
  H  H112  1  0.19784314  0.02700317  0.70165176  1
  H  H113  1  0.80215686  0.47299683  0.20165176  1
  O  O114  1  0.17462621  0.79430349  0.33628279  1
  O  O115  1  0.82537379  0.70569651  0.83628279  1
  O  O116  1  0.82537379  0.20569651  0.66371721  1
  O  O117  1  0.17462621  0.29430349  0.16371721  1
  O  O118  1  0.00128718  0.86928435  0.41831738  1
  O  O119  1  0.99871282  0.63071565  0.91831738  1
  O  O120  1  0.99871282  0.13071565  0.58168262  1
  O  O121  1  0.00128718  0.36928435  0.08168262  1
  O  O122  1  0.38827354  0.87331655  0.25486495  1
  O  O123  1  0.61172646  0.62668345  0.75486495  1
  O  O124  1  0.61172646  0.12668345  0.74513505  1
  O  O125  1  0.38827354  0.37331655  0.24513505  1
  O  O126  1  0.29121406  0.94804707  0.35223838  1
  O  O127  1  0.70878594  0.55195293  0.85223838  1
  O  O128  1  0.70878594  0.05195293  0.64776162  1
  O  O129  1  0.29121406  0.44804707  0.14776162  1
  O  O130  1  0.08484381  0.02122037  0.42932192  1
  O  O131  1  0.91515619  0.47877963  0.92932192  1
  O  O132  1  0.91515619  0.97877963  0.57067808  1
  O  O133  1  0.08484381  0.52122037  0.07067808  1
  O  O134  1  0.45354224  0.02731499  0.25551354  1
  O  O135  1  0.54645776  0.47268501  0.75551354  1
  O  O136  1  0.54645776  0.97268501  0.74448646  1
  O  O137  1  0.45354224  0.52731499  0.24448646  1
  O  O138  1  0.30690891  0.10120864  0.34277490  1
  O  O139  1  0.69309109  0.39879136  0.84277490  1
  O  O140  1  0.69309109  0.89879136  0.65722510  1
  O  O141  1  0.30690891  0.60120864  0.15722510  1
  O  O142  1  0.31523861  0.14954269  0.45906607  1
  O  O143  1  0.68476139  0.35045731  0.95906607  1
  O  O144  1  0.68476139  0.85045731  0.54093393  1
  O  O145  1  0.31523861  0.64954269  0.04093393  1
  O  O146  1  0.74062852  0.22811212  0.47088787  1
  O  O147  1  0.25937148  0.27188788  0.97088787  1
  O  O148  1  0.25937148  0.77188788  0.52911213  1
  O  O149  1  0.74062852  0.72811212  0.02911213  1
  O  O150  1  0.39612540  0.31674759  0.50751238  1
  O  O151  1  0.60387460  0.18325241  0.00751238  1
  O  O152  1  0.60387460  0.68325241  0.49248762  1
  O  O153  1  0.39612540  0.81674759  0.99248762  1
  O  O154  1  0.47665831  0.28861924  0.37278698  1
  O  O155  1  0.52334169  0.21138076  0.87278698  1
  O  O156  1  0.52334169  0.71138076  0.62721302  1
  O  O157  1  0.47665831  0.78861924  0.12721302  1
  O  O158  1  0.86935307  0.72127622  0.39178908  1
  O  O159  1  0.13064693  0.77872378  0.89178908  1
  O  O160  1  0.13064693  0.27872378  0.60821092  1
  O  O161  1  0.86935307  0.22127622  0.10821092  1
  O  O162  1  0.54644766  0.85135283  0.36394882  1
  O  O163  1  0.45355234  0.64864717  0.86394882  1
  O  O164  1  0.45355234  0.14864717  0.63605118  1
  O  O165  1  0.54644766  0.35135283  0.13605118  1
  O  O166  1  0.32739171  0.93213721  0.47411405  1
  O  O167  1  0.67260829  0.56786279  0.97411405  1
  O  O168  1  0.67260829  0.06786279  0.52588595  1
  O  O169  1  0.32739171  0.43213721  0.02588595  1
  O  O170  1  0.47685018  0.95095925  0.15471285  1
  O  O171  1  0.52314982  0.54904075  0.65471285  1
  O  O172  1  0.52314982  0.04904075  0.84528715  1
  O  O173  1  0.47685018  0.45095925  0.34528715  1
  O  O174  1  0.63743000  0.03667809  0.36129315  1
  O  O175  1  0.36257000  0.46332191  0.86129315  1
  O  O176  1  0.36257000  0.96332191  0.63870685  1
  O  O177  1  0.63743000  0.53667809  0.13870685  1
  O  O178  1  0.01186743  0.15767813  0.38276903  1
  O  O179  1  0.98813257  0.34232187  0.88276903  1
  O  O180  1  0.98813257  0.84232187  0.61723097  1
  O  O181  1  0.01186743  0.65767813  0.11723097  1
  O  O182  1  0.90737368  0.30560134  0.30189429  1
  O  O183  1  0.09262632  0.19439866  0.80189429  1
  O  O184  1  0.09262632  0.69439866  0.69810571  1
  O  O185  1  0.90737368  0.80560134  0.19810571  1
  O  O186  1  0.50418662  0.19498621  0.21944116  1
  O  O187  1  0.49581338  0.30501379  0.71944116  1
  O  O188  1  0.49581338  0.80501379  0.78055884  1
  O  O189  1  0.50418662  0.69498621  0.28055884  1
  O  O190  1  0.97800843  0.13204274  0.22562768  1
  O  O191  1  0.02199157  0.36795726  0.72562768  1
  O  O192  1  0.02199157  0.86795726  0.77437232  1
  O  O193  1  0.97800843  0.63204274  0.27437232  1
  O  O194  1  0.29824131  0.04629012  0.04462665  1
  O  O195  1  0.70175869  0.45370988  0.54462665  1
  O  O196  1  0.70175869  0.95370988  0.95537335  1
  O  O197  1  0.29824131  0.54629012  0.45537335  1
  O  O198  1  0.84968087  0.03046745  0.08957056  1
  O  O199  1  0.15031913  0.46953255  0.58957056  1
  O  O200  1  0.15031913  0.96953255  0.91042944  1
  O  O201  1  0.84968087  0.53046745  0.41042944  1
  O  O202  1  0.02999368  0.87793660  0.03287964  1
  O  O203  1  0.97000632  0.62206340  0.53287964  1
  O  O204  1  0.97000632  0.12206340  0.96712036  1
  O  O205  1  0.02999368  0.37793660  0.46712036  1
  O  O206  1  0.90927979  0.96097771  0.26522844  1
  O  O207  1  0.09072021  0.53902229  0.76522844  1
  O  O208  1  0.09072021  0.03902229  0.73477156  1
  O  O209  1  0.90927979  0.46097771  0.23477156  1
