# generated using pymatgen
data_AlZnB5H21C6(NO2)5
_symmetry_space_group_name_H-M   'P 1'
_cell_length_a   7.68168474
_cell_length_b   9.26430088
_cell_length_c   14.43507027
_cell_angle_alpha   75.87915797
_cell_angle_beta   74.56903422
_cell_angle_gamma   65.50680261
_symmetry_Int_Tables_number   1
_chemical_formula_structural   AlZnB5H21C6(NO2)5
_chemical_formula_sum   'Al2 Zn2 B10 H42 C12 N10 O20'
_cell_volume   890.61324686
_cell_formula_units_Z   2
loop_
 _symmetry_equiv_pos_site_id
 _symmetry_equiv_pos_as_xyz
  1  'x, y, z'
loop_
 _atom_site_type_symbol
 _atom_site_label
 _atom_site_symmetry_multiplicity
 _atom_site_fract_x
 _atom_site_fract_y
 _atom_site_fract_z
 _atom_site_occupancy
  Al  Al0  1  0.58472788  0.75722450  0.03833654  1
  Al  Al1  1  0.61971108  0.25722450  0.53833654  1
  Zn  Zn2  1  0.85137315  0.48382510  0.72612734  1
  Zn  Zn3  1  0.93867441  0.98382510  0.22612734  1
  B  B4  1  0.44895678  0.09759005  0.92793491  1
  B  B5  1  0.52551827  0.59759005  0.42793491  1
  B  B6  1  0.49202224  0.23860391  0.76168854  1
  B  B7  1  0.50768530  0.73860391  0.26168854  1
  B  B8  1  0.31368895  0.40013063  0.90009538  1
  B  B9  1  0.38608504  0.90013063  0.40009538  1
  B  B10  1  0.03021907  0.62610873  0.97410923  1
  B  B11  1  0.36956297  0.12610873  0.47410923  1
  B  B12  1  0.36502993  0.59608640  0.97533504  1
  B  B13  1  0.06354862  0.09608640  0.47533504  1
  H  H14  1  0.01909699  0.13110901  0.93390485  1
  H  H15  1  0.91588915  0.63110901  0.43390485  1
  H  H16  1  0.80343488  0.16404390  0.89345538  1
  H  H17  1  0.13906584  0.66404390  0.39345538  1
  H  H18  1  0.08313904  0.00867314  0.78547161  1
  H  H19  1  0.12271620  0.50867314  0.28547161  1
  H  H20  1  0.19881484  0.14629356  0.76785015  1
  H  H21  1  0.88704146  0.64629356  0.26785015  1
  H  H22  1  0.40200596  0.74376488  0.77247393  1
  H  H23  1  0.08175523  0.24376488  0.27247393  1
  H  H24  1  0.37318404  0.81765505  0.64840337  1
  H  H25  1  0.16075754  0.31765505  0.14840337  1
  H  H26  1  0.69024238  0.84492450  0.60696802  1
  H  H27  1  0.85786510  0.34492450  0.10696802  1
  H  H28  1  0.54118336  0.95823559  0.70052900  1
  H  H29  1  0.80005205  0.45823559  0.20052900  1
  H  H30  1  0.90518004  0.91055956  0.68634917  1
  H  H31  1  0.49791124  0.41055956  0.18634917  1
  H  H32  1  0.02733147  0.73650470  0.76603817  1
  H  H33  1  0.47012566  0.23650470  0.26603817  1
  H  H34  1  0.20247807  0.71828159  0.59468640  1
  H  H35  1  0.48455393  0.21828159  0.09468640  1
  H  H36  1  0.98788343  0.74828452  0.55787120  1
  H  H37  1  0.70596086  0.24828452  0.05787120  1
  H  H38  1  0.72851133  0.41806387  0.90680159  1
  H  H39  1  0.94662321  0.91806387  0.40680159  1
  H  H40  1  0.95814070  0.40618807  0.89236096  1
  H  H41  1  0.74331027  0.90618807  0.39236096  1
  H  H42  1  0.05005962  0.21910220  0.63196643  1
  H  H43  1  0.09887175  0.71910220  0.13196643  1
  H  H44  1  0.84377944  0.20922180  0.69650210  1
  H  H45  1  0.25049666  0.70922180  0.19650210  1
  H  H46  1  0.51067604  0.51256333  0.71055881  1
  H  H47  1  0.26620182  0.01256333  0.21055881  1
  H  H48  1  0.61043490  0.58228694  0.60270049  1
  H  H49  1  0.20457767  0.08228694  0.10270049  1
  H  H50  1  0.15124290  0.47187902  0.57984123  1
  H  H51  1  0.79703686  0.97187902  0.07984123  1
  H  H52  1  0.20921949  0.46643097  0.68271023  1
  H  H53  1  0.64163930  0.96643097  0.18271023  1
  H  H54  1  0.71131051  0.76365577  0.81376769  1
  H  H55  1  0.71126603  0.26365577  0.31376769  1
  C  C56  1  0.93326299  0.19518555  0.87587061  1
  C  C57  1  0.99568086  0.69518555  0.37587061  1
  C  C58  1  0.05626532  0.13672598  0.77995066  1
  C  C59  1  0.02705805  0.63672598  0.27995066  1
  C  C60  1  0.47960800  0.74989117  0.69668198  1
  C  C61  1  0.07381885  0.24989117  0.19668198  1
  C  C62  1  0.61759736  0.83541637  0.68357814  1
  C  C63  1  0.86340814  0.33541637  0.18357814  1
  C  C64  1  0.94373517  0.77980587  0.70713269  1
  C  C65  1  0.56932627  0.27980587  0.20713269  1
  C  C66  1  0.06587695  0.69690407  0.61898202  1
  C  C67  1  0.61823697  0.19690407  0.11898202  1
  N  N68  1  0.86796529  0.37126436  0.86833008  1
  N  N69  1  0.89244027  0.87126436  0.36833008  1
  N  N70  1  0.95869685  0.23708770  0.69848817  1
  N  N71  1  0.10572728  0.73708770  0.19848817  1
  N  N72  1  0.59029673  0.58371361  0.67571035  1
  N  N73  1  0.15027930  0.08371361  0.17571035  1
  N  N74  1  0.10141864  0.52330741  0.64180642  1
  N  N75  1  0.73346753  0.02330741  0.14180642  1
  N  N76  1  0.76740644  0.74143340  0.74386751  1
  N  N77  1  0.74729265  0.24143340  0.24386751  1
  O  O78  1  0.47672870  0.95918042  0.99072707  1
  O  O79  1  0.57336381  0.45918042  0.49072707  1
  O  O80  1  0.53372064  0.09572669  0.82823181  1
  O  O81  1  0.54232086  0.59572669  0.32823181  1
  O  O82  1  0.56959688  0.23232201  0.66623764  1
  O  O83  1  0.53184348  0.73232201  0.16623764  1
  O  O84  1  0.33545257  0.24201000  0.95978388  1
  O  O85  1  0.46275356  0.74201000  0.45978388  1
  O  O86  1  0.37636216  0.38375474  0.79412677  1
  O  O87  1  0.44575633  0.88375474  0.29412677  1
  O  O88  1  0.10598234  0.50604595  0.91775069  1
  O  O89  1  0.47022102  0.00604595  0.41775069  1
  O  O90  1  0.43604797  0.46884687  0.92495609  1
  O  O91  1  0.17014908  0.96884687  0.42495609  1
  O  O92  1  0.83710241  0.70172348  0.00314251  1
  O  O93  1  0.45803160  0.20172348  0.50314251  1
  O  O94  1  0.16031693  0.67356509  0.00192773  1
  O  O95  1  0.16419025  0.17356509  0.50192773  1
  O  O96  1  0.48793445  0.64503800  0.99993940  1
  O  O97  1  0.86708816  0.14503800  0.49993940  1
