# generated using pymatgen
data_Tb6Mn23
_symmetry_space_group_name_H-M   'P 1'
_cell_length_a   8.52676741
_cell_length_b   8.52676741
_cell_length_c   8.52676741
_cell_angle_alpha   60.00000000
_cell_angle_beta   60.00000000
_cell_angle_gamma   60.00000000
_symmetry_Int_Tables_number   1
_chemical_formula_structural   Tb6Mn23
_chemical_formula_sum   'Tb6 Mn23'
_cell_volume   438.36740310
_cell_formula_units_Z   1
loop_
 _symmetry_equiv_pos_site_id
 _symmetry_equiv_pos_as_xyz
  1  'x, y, z'
loop_
 _atom_site_type_symbol
 _atom_site_label
 _atom_site_symmetry_multiplicity
 _atom_site_fract_x
 _atom_site_fract_y
 _atom_site_fract_z
 _atom_site_occupancy
  Tb  Tb0  1  0.70477660  0.29522340  0.29522340  1
  Tb  Tb1  1  0.70477660  0.29522340  0.70477660  1
  Tb  Tb2  1  0.70477660  0.70477660  0.29522340  1
  Tb  Tb3  1  0.29522340  0.70477660  0.70477660  1
  Tb  Tb4  1  0.29522340  0.70477660  0.29522340  1
  Tb  Tb5  1  0.29522340  0.29522340  0.70477660  1
  Mn  Mn6  1  -0.00000000  0.00000000  -0.00000000  1
  Mn  Mn7  1  0.50000000  0.00000000  -0.00000000  1
  Mn  Mn8  1  0.50000000  0.00000000  0.50000000  1
  Mn  Mn9  1  0.50000000  0.50000000  -0.00000000  1
  Mn  Mn10  1  -0.00000000  0.50000000  0.50000000  1
  Mn  Mn11  1  -0.00000000  0.50000000  -0.00000000  1
  Mn  Mn12  1  -0.00000000  0.00000000  0.50000000  1
  Mn  Mn13  1  0.63370260  0.12209913  0.12209913  1
  Mn  Mn14  1  0.12209913  0.63370260  0.12209913  1
  Mn  Mn15  1  0.12209913  0.12209913  0.63370260  1
  Mn  Mn16  1  0.12209913  0.12209913  0.12209913  1
  Mn  Mn17  1  0.36629740  0.87790087  0.87790087  1
  Mn  Mn18  1  0.87790087  0.36629740  0.87790087  1
  Mn  Mn19  1  0.87790087  0.87790087  0.36629740  1
  Mn  Mn20  1  0.87790087  0.87790087  0.87790087  1
  Mn  Mn21  1  0.03303637  0.32232121  0.32232121  1
  Mn  Mn22  1  0.32232121  0.03303637  0.32232121  1
  Mn  Mn23  1  0.32232121  0.32232121  0.03303637  1
  Mn  Mn24  1  0.32232121  0.32232121  0.32232121  1
  Mn  Mn25  1  0.96696363  0.67767879  0.67767879  1
  Mn  Mn26  1  0.67767879  0.96696363  0.67767879  1
  Mn  Mn27  1  0.67767879  0.67767879  0.96696363  1
  Mn  Mn28  1  0.67767879  0.67767879  0.67767879  1
