# generated using pymatgen
data_PH9CN4O3
_symmetry_space_group_name_H-M   'P 1'
_cell_length_a   10.83549009
_cell_length_b   14.08601587
_cell_length_c   17.52944470
_cell_angle_alpha   90.00000000
_cell_angle_beta   90.00000000
_cell_angle_gamma   90.00000000
_symmetry_Int_Tables_number   1
_chemical_formula_structural   PH9CN4O3
_chemical_formula_sum   'P16 H144 C16 N64 O48'
_cell_volume   2675.49960566
_cell_formula_units_Z   16
loop_
 _symmetry_equiv_pos_site_id
 _symmetry_equiv_pos_as_xyz
  1  'x, y, z'
loop_
 _atom_site_type_symbol
 _atom_site_label
 _atom_site_symmetry_multiplicity
 _atom_site_fract_x
 _atom_site_fract_y
 _atom_site_fract_z
 _atom_site_occupancy
  P  P0  1  0.81395897  0.48404730  0.06591968  1
  P  P1  1  0.68604103  0.98404730  0.43408032  1
  P  P2  1  0.68604103  0.51595270  0.56591968  1
  P  P3  1  0.81395897  0.01595270  0.93408032  1
  P  P4  1  0.18604103  0.51595270  0.93408032  1
  P  P5  1  0.31395897  0.01595270  0.56591968  1
  P  P6  1  0.31395897  0.48404730  0.43408032  1
  P  P7  1  0.18604103  0.98404730  0.06591968  1
  P  P8  1  0.05955330  0.59947995  0.07509349  1
  P  P9  1  0.44044670  0.09947995  0.42490651  1
  P  P10  1  0.44044670  0.40052005  0.57509349  1
  P  P11  1  0.05955330  0.90052005  0.92490651  1
  P  P12  1  0.94044670  0.40052005  0.92490651  1
  P  P13  1  0.55955330  0.90052005  0.57509349  1
  P  P14  1  0.55955330  0.59947995  0.42490651  1
  P  P15  1  0.94044670  0.09947995  0.07509349  1
  H  H16  1  0.86860874  0.62784095  0.02291280  1
  H  H17  1  0.63139126  0.12784095  0.47708720  1
  H  H18  1  0.63139126  0.37215905  0.52291280  1
  H  H19  1  0.86860874  0.87215905  0.97708720  1
  H  H20  1  0.13139126  0.37215905  0.97708720  1
  H  H21  1  0.36860874  0.87215905  0.52291280  1
  H  H22  1  0.36860874  0.62784095  0.47708720  1
  H  H23  1  0.13139126  0.12784095  0.02291280  1
  H  H24  1  0.88599721  0.33501742  0.04071185  1
  H  H25  1  0.61400279  0.83501742  0.45928815  1
  H  H26  1  0.61400279  0.66498258  0.54071185  1
  H  H27  1  0.88599721  0.16498258  0.95928815  1
  H  H28  1  0.11400279  0.66498258  0.95928815  1
  H  H29  1  0.38599721  0.16498258  0.54071185  1
  H  H30  1  0.38599721  0.33501742  0.45928815  1
  H  H31  1  0.11400279  0.83501742  0.04071185  1
  H  H32  1  0.50179931  0.21857324  0.28633043  1
  H  H33  1  0.99820069  0.71857324  0.21366957  1
  H  H34  1  0.99820069  0.78142676  0.78633043  1
  H  H35  1  0.50179931  0.28142676  0.71366957  1
  H  H36  1  0.49820069  0.78142676  0.71366957  1
  H  H37  1  0.00179931  0.28142676  0.78633043  1
  H  H38  1  0.00179931  0.21857324  0.21366957  1
  H  H39  1  0.49820069  0.71857324  0.28633043  1
  H  H40  1  0.44662050  0.19903248  0.19249791  1
  H  H41  1  0.05337950  0.69903248  0.30750209  1
  H  H42  1  0.05337950  0.80096752  0.69249791  1
  H  H43  1  0.44662050  0.30096752  0.80750209  1
  H  H44  1  0.55337950  0.80096752  0.80750209  1
  H  H45  1  0.94662050  0.30096752  0.69249791  1
  H  H46  1  0.94662050  0.19903248  0.30750209  1
  H  H47  1  0.55337950  0.69903248  0.19249791  1
  H  H48  1  0.72473385  0.23705631  0.09930863  1
  H  H49  1  0.77526615  0.73705631  0.40069137  1
  H  H50  1  0.77526615  0.76294369  0.59930863  1
  H  H51  1  0.72473385  0.26294369  0.90069137  1
  H  H52  1  0.27526615  0.76294369  0.90069137  1
  H  H53  1  0.22473385  0.26294369  0.59930863  1
  H  H54  1  0.22473385  0.23705631  0.40069137  1
  H  H55  1  0.27526615  0.73705631  0.09930863  1
  H  H56  1  0.56247757  0.21871552  0.08957458  1
  H  H57  1  0.93752243  0.71871552  0.41042542  1
  H  H58  1  0.93752243  0.78128448  0.58957458  1
  H  H59  1  0.56247757  0.28128448  0.91042542  1
  H  H60  1  0.43752243  0.78128448  0.91042542  1
  H  H61  1  0.06247757  0.28128448  0.58957458  1
  H  H62  1  0.06247757  0.21871552  0.41042542  1
  H  H63  1  0.43752243  0.71871552  0.08957458  1
  H  H64  1  0.79148064  0.30063888  0.21387842  1
  H  H65  1  0.70851936  0.80063888  0.28612158  1
  H  H66  1  0.70851936  0.69936112  0.71387842  1
  H  H67  1  0.79148064  0.19936112  0.78612158  1
  H  H68  1  0.20851936  0.69936112  0.78612158  1
  H  H69  1  0.29148064  0.19936112  0.71387842  1
  H  H70  1  0.29148064  0.30063888  0.28612158  1
  H  H71  1  0.20851936  0.80063888  0.21387842  1
  H  H72  1  0.70474530  0.28245954  0.29664095  1
  H  H73  1  0.79525470  0.78245954  0.20335905  1
  H  H74  1  0.79525470  0.71754046  0.79664095  1
  H  H75  1  0.70474530  0.21754046  0.70335905  1
  H  H76  1  0.29525470  0.71754046  0.70335905  1
  H  H77  1  0.20474530  0.21754046  0.79664095  1
  H  H78  1  0.20474530  0.28245954  0.20335905  1
  H  H79  1  0.29525470  0.78245954  0.29664095  1
  H  H80  1  0.33413313  0.48447279  0.26103028  1
  H  H81  1  0.16586687  0.98447279  0.23896972  1
  H  H82  1  0.16586687  0.51552721  0.76103028  1
  H  H83  1  0.33413313  0.01552721  0.73896972  1
  H  H84  1  0.66586687  0.51552721  0.73896972  1
  H  H85  1  0.83413313  0.01552721  0.76103028  1
  H  H86  1  0.83413313  0.48447279  0.23896972  1
  H  H87  1  0.66586687  0.98447279  0.26103028  1
  H  H88  1  0.26543859  0.50446966  0.16978671  1
  H  H89  1  0.23456141  0.00446966  0.33021329  1
  H  H90  1  0.23456141  0.49553034  0.66978671  1
  H  H91  1  0.26543859  0.99553034  0.83021329  1
  H  H92  1  0.73456141  0.49553034  0.83021329  1
  H  H93  1  0.76543859  0.99553034  0.66978671  1
  H  H94  1  0.76543859  0.50446966  0.33021329  1
  H  H95  1  0.73456141  0.00446966  0.16978671  1
  H  H96  1  0.55032899  0.48287733  0.07076662  1
  H  H97  1  0.94967101  0.98287733  0.42923338  1
  H  H98  1  0.94967101  0.51712267  0.57076662  1
  H  H99  1  0.55032899  0.01712267  0.92923338  1
  H  H100  1  0.44967101  0.51712267  0.92923338  1
  H  H101  1  0.05032899  0.01712267  0.57076662  1
  H  H102  1  0.05032899  0.48287733  0.42923338  1
  H  H103  1  0.44967101  0.98287733  0.07076662  1
  H  H104  1  0.38842947  0.47811766  0.05881484  1
  H  H105  1  0.11157053  0.97811766  0.44118516  1
  H  H106  1  0.11157053  0.52188234  0.55881484  1
  H  H107  1  0.38842947  0.02188234  0.94118516  1
  H  H108  1  0.61157053  0.52188234  0.94118516  1
  H  H109  1  0.88842947  0.02188234  0.55881484  1
  H  H110  1  0.88842947  0.47811766  0.44118516  1
  H  H111  1  0.61157053  0.97811766  0.05881484  1
  H  H112  1  0.63925644  0.46614210  0.18767051  1
  H  H113  1  0.86074356  0.96614210  0.31232949  1
  H  H114  1  0.86074356  0.53385790  0.68767051  1
  H  H115  1  0.63925644  0.03385790  0.81232949  1
  H  H116  1  0.36074356  0.53385790  0.81232949  1
  H  H117  1  0.13925644  0.03385790  0.68767051  1
  H  H118  1  0.13925644  0.46614210  0.31232949  1
  H  H119  1  0.36074356  0.96614210  0.18767051  1
  H  H120  1  0.55175003  0.48990080  0.27037885  1
  H  H121  1  0.94824997  0.98990080  0.22962115  1
  H  H122  1  0.94824997  0.51009920  0.77037885  1
  H  H123  1  0.55175003  0.01009920  0.72962115  1
  H  H124  1  0.44824997  0.51009920  0.72962115  1
  H  H125  1  0.05175003  0.01009920  0.77037885  1
  H  H126  1  0.05175003  0.48990080  0.22962115  1
  H  H127  1  0.44824997  0.98990080  0.27037885  1
  H  H128  1  0.07436284  0.27809064  0.10170989  1
  H  H129  1  0.42563716  0.77809064  0.39829011  1
  H  H130  1  0.42563716  0.72190936  0.60170989  1
  H  H131  1  0.07436284  0.22190936  0.89829011  1
  H  H132  1  0.92563716  0.72190936  0.89829011  1
  H  H133  1  0.57436284  0.22190936  0.60170989  1
  H  H134  1  0.57436284  0.27809064  0.39829011  1
  H  H135  1  0.92563716  0.77809064  0.10170989  1
  H  H136  1  0.12877515  0.38259689  0.10838819  1
  H  H137  1  0.37122485  0.88259689  0.39161181  1
  H  H138  1  0.37122485  0.61740311  0.60838819  1
  H  H139  1  0.12877515  0.11740311  0.89161181  1
  H  H140  1  0.87122485  0.61740311  0.89161181  1
  H  H141  1  0.62877515  0.11740311  0.60838819  1
  H  H142  1  0.62877515  0.38259689  0.39161181  1
  H  H143  1  0.87122485  0.88259689  0.10838819  1
  H  H144  1  0.68269479  0.74268953  0.08408391  1
  H  H145  1  0.81730521  0.24268953  0.41591609  1
  H  H146  1  0.81730521  0.25731047  0.58408391  1
  H  H147  1  0.68269479  0.75731047  0.91591609  1
  H  H148  1  0.31730521  0.25731047  0.91591609  1
  H  H149  1  0.18269479  0.75731047  0.58408391  1
  H  H150  1  0.18269479  0.74268953  0.41591609  1
  H  H151  1  0.31730521  0.24268953  0.08408391  1
  H  H152  1  0.65050890  0.63415489  0.06872934  1
  H  H153  1  0.84949110  0.13415489  0.43127066  1
  H  H154  1  0.84949110  0.36584511  0.56872934  1
  H  H155  1  0.65050890  0.86584511  0.93127066  1
  H  H156  1  0.34949110  0.36584511  0.93127066  1
  H  H157  1  0.15050890  0.86584511  0.56872934  1
  H  H158  1  0.15050890  0.63415489  0.43127066  1
  H  H159  1  0.34949110  0.13415489  0.06872934  1
  C  C160  1  0.62506610  0.24095874  0.19739177  1
  C  C161  1  0.87493390  0.74095874  0.30260823  1
  C  C162  1  0.87493390  0.75904126  0.69739177  1
  C  C163  1  0.62506610  0.25904126  0.80260823  1
  C  C164  1  0.37493390  0.75904126  0.80260823  1
  C  C165  1  0.12506610  0.25904126  0.69739177  1
  C  C166  1  0.12506610  0.24095874  0.30260823  1
  C  C167  1  0.37493390  0.74095874  0.19739177  1
  C  C168  1  0.45288107  0.48156580  0.16991623  1
  C  C169  1  0.04711893  0.98156580  0.33008377  1
  C  C170  1  0.04711893  0.51843420  0.66991623  1
  C  C171  1  0.45288107  0.01843420  0.83008377  1
  C  C172  1  0.54711893  0.51843420  0.83008377  1
  C  C173  1  0.95288107  0.01843420  0.66991623  1
  C  C174  1  0.95288107  0.48156580  0.33008377  1
  C  C175  1  0.54711893  0.98156580  0.16991623  1
  N  N176  1  0.90919691  0.57765667  0.05683501  1
  N  N177  1  0.59080309  0.07765667  0.44316499  1
  N  N178  1  0.59080309  0.42234333  0.55683501  1
  N  N179  1  0.90919691  0.92234333  0.94316499  1
  N  N180  1  0.09080309  0.42234333  0.94316499  1
  N  N181  1  0.40919691  0.92234333  0.55683501  1
  N  N182  1  0.40919691  0.57765667  0.44316499  1
  N  N183  1  0.09080309  0.07765667  0.05683501  1
  N  N184  1  0.86703397  0.39535532  0.01003396  1
  N  N185  1  0.63296603  0.89535532  0.48996604  1
  N  N186  1  0.63296603  0.60464468  0.51003396  1
  N  N187  1  0.86703397  0.10464468  0.98996604  1
  N  N188  1  0.13296603  0.60464468  0.98996604  1
  N  N189  1  0.36703397  0.10464468  0.51003396  1
  N  N190  1  0.36703397  0.39535532  0.48996604  1
  N  N191  1  0.13296603  0.89535532  0.01003396  1
  N  N192  1  0.51573129  0.22051106  0.22858874  1
  N  N193  1  0.98426871  0.72051106  0.27141126  1
  N  N194  1  0.98426871  0.77948894  0.72858874  1
  N  N195  1  0.51573129  0.27948894  0.77141126  1
  N  N196  1  0.48426871  0.77948894  0.77141126  1
  N  N197  1  0.01573129  0.27948894  0.72858874  1
  N  N198  1  0.01573129  0.22051106  0.27141126  1
  N  N199  1  0.48426871  0.72051106  0.22858874  1
  N  N200  1  0.63807724  0.23693484  0.12133333  1
  N  N201  1  0.86192276  0.73693484  0.37866667  1
  N  N202  1  0.86192276  0.76306516  0.62133333  1
  N  N203  1  0.63807724  0.26306516  0.87866667  1
  N  N204  1  0.36192276  0.76306516  0.87866667  1
  N  N205  1  0.13807724  0.26306516  0.62133333  1
  N  N206  1  0.13807724  0.23693484  0.37866667  1
  N  N207  1  0.36192276  0.73693484  0.12133333  1
  N  N208  1  0.72241315  0.26457335  0.24083175  1
  N  N209  1  0.77758685  0.76457335  0.25916825  1
  N  N210  1  0.77758685  0.73542665  0.74083175  1
  N  N211  1  0.72241315  0.23542665  0.75916825  1
  N  N212  1  0.27758685  0.73542665  0.75916825  1
  N  N213  1  0.22241315  0.23542665  0.74083175  1
  N  N214  1  0.22241315  0.26457335  0.25916825  1
  N  N215  1  0.27758685  0.76457335  0.24083175  1
  N  N216  1  0.34215285  0.49184704  0.20261226  1
  N  N217  1  0.15784715  0.99184704  0.29738774  1
  N  N218  1  0.15784715  0.50815296  0.70261226  1
  N  N219  1  0.34215285  0.00815296  0.79738774  1
  N  N220  1  0.65784715  0.50815296  0.79738774  1
  N  N221  1  0.84215285  0.00815296  0.70261226  1
  N  N222  1  0.84215285  0.49184704  0.29738774  1
  N  N223  1  0.65784715  0.99184704  0.20261226  1
  N  N224  1  0.46375509  0.47560880  0.09437809  1
  N  N225  1  0.03624491  0.97560880  0.40562191  1
  N  N226  1  0.03624491  0.52439120  0.59437809  1
  N  N227  1  0.46375509  0.02439120  0.90562191  1
  N  N228  1  0.53624491  0.52439120  0.90562191  1
  N  N229  1  0.96375509  0.02439120  0.59437809  1
  N  N230  1  0.96375509  0.47560880  0.40562191  1
  N  N231  1  0.53624491  0.97560880  0.09437809  1
  N  N232  1  0.55498941  0.47585835  0.21310443  1
  N  N233  1  0.94501059  0.97585835  0.28689557  1
  N  N234  1  0.94501059  0.52414165  0.71310443  1
  N  N235  1  0.55498941  0.02414165  0.78689557  1
  N  N236  1  0.44501059  0.52414165  0.78689557  1
  N  N237  1  0.05498941  0.02414165  0.71310443  1
  N  N238  1  0.05498941  0.47585835  0.28689557  1
  N  N239  1  0.44501059  0.97585835  0.21310443  1
  O  O240  1  0.80926392  0.44480168  0.14588657  1
  O  O241  1  0.69073608  0.94480168  0.35411343  1
  O  O242  1  0.69073608  0.55519832  0.64588657  1
  O  O243  1  0.80926392  0.05519832  0.85411343  1
  O  O244  1  0.19073608  0.55519832  0.85411343  1
  O  O245  1  0.30926392  0.05519832  0.64588657  1
  O  O246  1  0.30926392  0.44480168  0.35411343  1
  O  O247  1  0.19073608  0.94480168  0.14588657  1
  O  O248  1  0.69280841  0.52235738  0.03401664  1
  O  O249  1  0.80719159  0.02235738  0.46598336  1
  O  O250  1  0.80719159  0.47764262  0.53401664  1
  O  O251  1  0.69280841  0.97764262  0.96598336  1
  O  O252  1  0.30719159  0.47764262  0.96598336  1
  O  O253  1  0.19280841  0.97764262  0.53401664  1
  O  O254  1  0.19280841  0.52235738  0.46598336  1
  O  O255  1  0.30719159  0.02235738  0.03401664  1
  O  O256  1  0.10976797  0.51747126  0.12140429  1
  O  O257  1  0.39023203  0.01747126  0.37859571  1
  O  O258  1  0.39023203  0.48252874  0.62140429  1
  O  O259  1  0.10976797  0.98252874  0.87859571  1
  O  O260  1  0.89023203  0.48252874  0.87859571  1
  O  O261  1  0.60976797  0.98252874  0.62140429  1
  O  O262  1  0.60976797  0.51747126  0.37859571  1
  O  O263  1  0.89023203  0.01747126  0.12140429  1
  O  O264  1  0.06541028  0.70087411  0.10597293  1
  O  O265  1  0.43458972  0.20087411  0.39402707  1
  O  O266  1  0.43458972  0.29912589  0.60597293  1
  O  O267  1  0.06541028  0.79912589  0.89402707  1
  O  O268  1  0.93458972  0.29912589  0.89402707  1
  O  O269  1  0.56541028  0.79912589  0.60597293  1
  O  O270  1  0.56541028  0.70087411  0.39402707  1
  O  O271  1  0.93458972  0.20087411  0.10597293  1
  O  O272  1  0.15218255  0.31495791  0.10441779  1
  O  O273  1  0.34781745  0.81495791  0.39558221  1
  O  O274  1  0.34781745  0.68504209  0.60441779  1
  O  O275  1  0.15218255  0.18504209  0.89558221  1
  O  O276  1  0.84781745  0.68504209  0.89558221  1
  O  O277  1  0.65218255  0.18504209  0.60441779  1
  O  O278  1  0.65218255  0.31495791  0.39558221  1
  O  O279  1  0.84781745  0.81495791  0.10441779  1
  O  O280  1  0.61790735  0.69496729  0.08979231  1
  O  O281  1  0.88209265  0.19496729  0.41020769  1
  O  O282  1  0.88209265  0.30503271  0.58979231  1
  O  O283  1  0.61790735  0.80503271  0.91020769  1
  O  O284  1  0.38209265  0.30503271  0.91020769  1
  O  O285  1  0.11790735  0.80503271  0.58979231  1
  O  O286  1  0.11790735  0.69496729  0.41020769  1
  O  O287  1  0.38209265  0.19496729  0.08979231  1
