# generated using pymatgen
data_Cr2Bi3O11
_symmetry_space_group_name_H-M   'P 1'
_cell_length_a   5.64704189
_cell_length_b   12.37969153
_cell_length_c   14.18874920
_cell_angle_alpha   90.00000000
_cell_angle_beta   92.61953653
_cell_angle_gamma   90.00000000
_symmetry_Int_Tables_number   1
_chemical_formula_structural   Cr2Bi3O11
_chemical_formula_sum   'Cr8 Bi12 O44'
_cell_volume   990.87960356
_cell_formula_units_Z   4
loop_
 _symmetry_equiv_pos_site_id
 _symmetry_equiv_pos_as_xyz
  1  'x, y, z'
loop_
 _atom_site_type_symbol
 _atom_site_label
 _atom_site_symmetry_multiplicity
 _atom_site_fract_x
 _atom_site_fract_y
 _atom_site_fract_z
 _atom_site_occupancy
  Cr  Cr0  1  0.83712185  0.12281511  0.39233831  1
  Cr  Cr1  1  0.66287815  0.62281511  0.60766169  1
  Cr  Cr2  1  0.16287815  0.87718489  0.60766169  1
  Cr  Cr3  1  0.33712185  0.37718489  0.39233831  1
  Cr  Cr4  1  0.66385046  0.40820066  0.82765568  1
  Cr  Cr5  1  0.83614954  0.90820066  0.17234432  1
  Cr  Cr6  1  0.33614954  0.59179934  0.17234432  1
  Cr  Cr7  1  0.16385046  0.09179934  0.82765568  1
  Bi  Bi8  1  0.66865744  0.12378798  0.00189529  1
  Bi  Bi9  1  0.83134256  0.62378798  0.99810471  1
  Bi  Bi10  1  0.33134256  0.87621202  0.99810471  1
  Bi  Bi11  1  0.16865744  0.37621202  0.00189529  1
  Bi  Bi12  1  0.75651823  0.85687742  0.81634731  1
  Bi  Bi13  1  0.74348177  0.35687742  0.18365269  1
  Bi  Bi14  1  0.24348177  0.14312258  0.18365269  1
  Bi  Bi15  1  0.25651823  0.64312258  0.81634731  1
  Bi  Bi16  1  0.83125078  0.35195394  0.57533536  1
  Bi  Bi17  1  0.66874922  0.85195394  0.42466464  1
  Bi  Bi18  1  0.16874922  0.64804606  0.42466464  1
  Bi  Bi19  1  0.33125078  0.14804606  0.57533536  1
  O  O20  1  0.40667219  0.35988211  0.79722197  1
  O  O21  1  0.09332781  0.85988211  0.20277803  1
  O  O22  1  0.59332781  0.64011789  0.20277803  1
  O  O23  1  0.90667219  0.14011789  0.79722197  1
  O  O24  1  0.61765448  0.95819023  0.92892615  1
  O  O25  1  0.88234552  0.45819023  0.07107385  1
  O  O26  1  0.38234552  0.04180977  0.07107385  1
  O  O27  1  0.11765448  0.54180977  0.92892615  1
  O  O28  1  0.31576482  0.31291926  0.28872030  1
  O  O29  1  0.18423518  0.81291926  0.71127970  1
  O  O30  1  0.68423518  0.68708074  0.71127970  1
  O  O31  1  0.81576482  0.18708074  0.28872030  1
  O  O32  1  0.51317276  0.24375723  0.10798145  1
  O  O33  1  0.98682724  0.74375723  0.89201855  1
  O  O34  1  0.48682724  0.75624277  0.89201855  1
  O  O35  1  0.01317276  0.25624277  0.10798145  1
  O  O36  1  0.07607841  0.42612579  0.42397972  1
  O  O37  1  0.42392159  0.92612579  0.57602028  1
  O  O38  1  0.92392159  0.57387421  0.57602028  1
  O  O39  1  0.57607841  0.07387421  0.42397972  1
  O  O40  1  0.16708617  0.58217153  0.26539799  1
  O  O41  1  0.33291383  0.08217153  0.73460201  1
  O  O42  1  0.83291383  0.41782847  0.73460201  1
  O  O43  1  0.66708617  0.91782847  0.26539799  1
  O  O44  1  0.47657045  0.52208230  0.61261076  1
  O  O45  1  0.02342955  0.02208230  0.38738924  1
  O  O46  1  0.52342955  0.47791770  0.38738924  1
  O  O47  1  0.97657045  0.97791770  0.61261076  1
  O  O48  1  0.84552663  0.71617450  0.36289263  1
  O  O49  1  0.65447337  0.21617450  0.63710737  1
  O  O50  1  0.15447337  0.28382550  0.63710737  1
  O  O51  1  0.34552663  0.78382550  0.36289263  1
  O  O52  1  0.54378384  0.70802944  0.52350607  1
  O  O53  1  0.95621616  0.20802944  0.47649393  1
  O  O54  1  0.45621616  0.29197056  0.47649393  1
  O  O55  1  0.04378384  0.79197056  0.52350607  1
  O  O56  1  0.89367889  0.03507733  0.12524481  1
  O  O57  1  0.60632111  0.53507733  0.87475519  1
  O  O58  1  0.10632111  0.96492267  0.87475519  1
  O  O59  1  0.39367889  0.46492267  0.12524481  1
  O  O60  1  0.29483944  0.16923011  0.91244661  1
  O  O61  1  0.20516056  0.66923011  0.08755339  1
  O  O62  1  0.70516056  0.83076989  0.08755339  1
  O  O63  1  0.79483944  0.33076989  0.91244661  1
