# generated using pymatgen
data_Mn5SiC
_symmetry_space_group_name_H-M   'P 1'
_cell_length_a   6.37276756
_cell_length_b   6.37276756
_cell_length_c   7.50478687
_cell_angle_alpha   90.00000000
_cell_angle_beta   90.00000000
_cell_angle_gamma   104.56967697
_symmetry_Int_Tables_number   1
_chemical_formula_structural   Mn5SiC
_chemical_formula_sum   'Mn20 Si4 C4'
_cell_volume   294.98449011
_cell_formula_units_Z   4
loop_
 _symmetry_equiv_pos_site_id
 _symmetry_equiv_pos_as_xyz
  1  'x, y, z'
loop_
 _atom_site_type_symbol
 _atom_site_label
 _atom_site_symmetry_multiplicity
 _atom_site_fract_x
 _atom_site_fract_y
 _atom_site_fract_z
 _atom_site_occupancy
  Mn  Mn0  1  0.81314196  0.51101954  0.87455523  1
  Mn  Mn1  1  0.51101954  0.81314196  0.87455523  1
  Mn  Mn2  1  0.18685804  0.48898046  0.37455523  1
  Mn  Mn3  1  0.48898046  0.18685804  0.37455523  1
  Mn  Mn4  1  0.54041620  0.54041620  0.17692532  1
  Mn  Mn5  1  0.45958380  0.45958380  0.67692532  1
  Mn  Mn6  1  0.86094814  0.86094814  0.69027597  1
  Mn  Mn7  1  0.13905186  0.13905186  0.19027597  1
  Mn  Mn8  1  0.12176441  0.87188888  0.93976819  1
  Mn  Mn9  1  0.87188888  0.12176441  0.93976819  1
  Mn  Mn10  1  0.87823559  0.12811112  0.43976819  1
  Mn  Mn11  1  0.12811112  0.87823559  0.43976819  1
  Mn  Mn12  1  0.93964312  0.70515133  0.19093368  1
  Mn  Mn13  1  0.70515133  0.93964312  0.19093368  1
  Mn  Mn14  1  0.06035688  0.29484867  0.69093368  1
  Mn  Mn15  1  0.29484867  0.06035688  0.69093368  1
  Mn  Mn16  1  0.81674906  0.51561586  0.50210280  1
  Mn  Mn17  1  0.51561586  0.81674906  0.50210280  1
  Mn  Mn18  1  0.18325094  0.48438414  0.00210280  1
  Mn  Mn19  1  0.48438414  0.18325094  0.00210280  1
  Si  Si20  1  0.17352796  0.66424442  0.68853444  1
  Si  Si21  1  0.66424442  0.17352796  0.68853444  1
  Si  Si22  1  0.82647204  0.33575558  0.18853444  1
  Si  Si23  1  0.33575558  0.82647204  0.18853444  1
  C  C24  1  0.79816621  0.79816621  0.97461063  1
  C  C25  1  0.20183379  0.20183379  0.47461063  1
  C  C26  1  0.80723126  0.80723126  0.40779939  1
  C  C27  1  0.19276874  0.19276874  0.90779939  1
