# generated using pymatgen
data_Ca2Mn2Si4H8O17
_symmetry_space_group_name_H-M   'P 1'
_cell_length_a   5.54411643
_cell_length_b   5.54411643
_cell_length_c   12.09898236
_cell_angle_alpha   88.76828073
_cell_angle_beta   88.76828073
_cell_angle_gamma   69.57008721
_symmetry_Int_Tables_number   1
_chemical_formula_structural   Ca2Mn2Si4H8O17
_chemical_formula_sum   'Ca2 Mn2 Si4 H8 O17'
_cell_volume   348.37790808
_cell_formula_units_Z   1
loop_
 _symmetry_equiv_pos_site_id
 _symmetry_equiv_pos_as_xyz
  1  'x, y, z'
loop_
 _atom_site_type_symbol
 _atom_site_label
 _atom_site_symmetry_multiplicity
 _atom_site_fract_x
 _atom_site_fract_y
 _atom_site_fract_z
 _atom_site_occupancy
  Ca  Ca0  1  0.68248430  0.72915051  0.73740406  1
  Ca  Ca1  1  0.27084949  0.31751570  0.26259594  1
  Mn  Mn2  1  0.00562046  0.50977214  0.99696738  1
  Mn  Mn3  1  0.49022786  0.99437954  0.00303262  1
  Si  Si4  1  0.02789912  0.04920334  0.84689907  1
  Si  Si5  1  0.95079666  0.97210088  0.15310093  1
  Si  Si6  1  0.10844022  0.10161570  0.60372927  1
  Si  Si7  1  0.89838430  0.89155978  0.39627073  1
  H  H8  1  0.95028566  0.48701184  0.51706352  1
  H  H9  1  0.51298816  0.04971434  0.48293648  1
  H  H10  1  0.46323567  0.40818015  0.90203982  1
  H  H11  1  0.59181985  0.53676433  0.09796018  1
  H  H12  1  0.44931647  0.30118034  0.66899133  1
  H  H13  1  0.69881966  0.55068353  0.33100867  1
  H  H14  1  0.28051363  0.49464525  0.75550827  1
  H  H15  1  0.50535475  0.71948637  0.24449173  1
  O  O16  1  0.85761122  0.89517556  0.90720226  1
  O  O17  1  0.10482444  0.14238878  0.09279774  1
  O  O18  1  0.98907056  0.99561097  0.71330422  1
  O  O19  1  0.00438903  0.01092944  0.28669578  1
  O  O20  1  0.92510140  0.36367088  0.86158630  1
  O  O21  1  0.63632912  0.07489860  0.13841370  1
  O  O22  1  0.08614349  0.66235150  0.12974159  1
  O  O23  1  0.33764850  0.91385651  0.87025841  1
  O  O24  1  0.04502540  0.95497460  0.50000000  1
  O  O25  1  0.41512335  0.04195565  0.61211354  1
  O  O26  1  0.95804435  0.58487665  0.38788646  1
  O  O27  1  0.94128579  0.41614693  0.59505392  1
  O  O28  1  0.58385307  0.05871421  0.40494608  1
  O  O29  1  0.37002417  0.35544905  0.96133945  1
  O  O30  1  0.64455095  0.62997583  0.03866055  1
  O  O31  1  0.44514375  0.45100483  0.71618841  1
  O  O32  1  0.54899517  0.55485625  0.28381159  1
