# generated using pymatgen
data_Ti6Ga16Ni7
_symmetry_space_group_name_H-M   'P 1'
_cell_length_a   8.38596898
_cell_length_b   8.38596898
_cell_length_c   8.38596898
_cell_angle_alpha   60.00000000
_cell_angle_beta   60.00000000
_cell_angle_gamma   60.00000000
_symmetry_Int_Tables_number   1
_chemical_formula_structural   Ti6Ga16Ni7
_chemical_formula_sum   'Ti6 Ga16 Ni7'
_cell_volume   417.00835500
_cell_formula_units_Z   1
loop_
 _symmetry_equiv_pos_site_id
 _symmetry_equiv_pos_as_xyz
  1  'x, y, z'
loop_
 _atom_site_type_symbol
 _atom_site_label
 _atom_site_symmetry_multiplicity
 _atom_site_fract_x
 _atom_site_fract_y
 _atom_site_fract_z
 _atom_site_occupancy
  Ti  Ti0  1  0.68885291  0.31114709  0.31114709  1
  Ti  Ti1  1  0.68885291  0.31114709  0.68885291  1
  Ti  Ti2  1  0.68885291  0.68885291  0.31114709  1
  Ti  Ti3  1  0.31114709  0.68885291  0.68885291  1
  Ti  Ti4  1  0.31114709  0.68885291  0.31114709  1
  Ti  Ti5  1  0.31114709  0.31114709  0.68885291  1
  Ga  Ga6  1  0.63694870  0.12101710  0.12101710  1
  Ga  Ga7  1  0.12101710  0.63694870  0.12101710  1
  Ga  Ga8  1  0.12101710  0.12101710  0.63694870  1
  Ga  Ga9  1  0.12101710  0.12101710  0.12101710  1
  Ga  Ga10  1  0.36305130  0.87898290  0.87898290  1
  Ga  Ga11  1  0.87898290  0.36305130  0.87898290  1
  Ga  Ga12  1  0.87898290  0.87898290  0.36305130  1
  Ga  Ga13  1  0.87898290  0.87898290  0.87898290  1
  Ga  Ga14  1  0.96944067  0.34351978  0.34351978  1
  Ga  Ga15  1  0.34351978  0.96944067  0.34351978  1
  Ga  Ga16  1  0.34351978  0.34351978  0.96944067  1
  Ga  Ga17  1  0.34351978  0.34351978  0.34351978  1
  Ga  Ga18  1  0.03055933  0.65648022  0.65648022  1
  Ga  Ga19  1  0.65648022  0.03055933  0.65648022  1
  Ga  Ga20  1  0.65648022  0.65648022  0.03055933  1
  Ga  Ga21  1  0.65648022  0.65648022  0.65648022  1
  Ni  Ni22  1  -0.00000000  0.00000000  0.00000000  1
  Ni  Ni23  1  0.50000000  0.00000000  0.00000000  1
  Ni  Ni24  1  0.50000000  0.00000000  0.50000000  1
  Ni  Ni25  1  0.50000000  0.50000000  0.00000000  1
  Ni  Ni26  1  -0.00000000  0.50000000  0.50000000  1
  Ni  Ni27  1  -0.00000000  0.50000000  0.00000000  1
  Ni  Ni28  1  -0.00000000  0.00000000  0.50000000  1
