# generated using pymatgen
data_NaNbO3
_symmetry_space_group_name_H-M   'P 1'
_cell_length_a   5.70324286
_cell_length_b   5.69195123
_cell_length_c   15.99121842
_cell_angle_alpha   90.00000000
_cell_angle_beta   90.00000000
_cell_angle_gamma   90.00000000
_symmetry_Int_Tables_number   1
_chemical_formula_structural   NaNbO3
_chemical_formula_sum   'Na8 Nb8 O24'
_cell_volume   519.11621065
_cell_formula_units_Z   8
loop_
 _symmetry_equiv_pos_site_id
 _symmetry_equiv_pos_as_xyz
  1  'x, y, z'
loop_
 _atom_site_type_symbol
 _atom_site_label
 _atom_site_symmetry_multiplicity
 _atom_site_fract_x
 _atom_site_fract_y
 _atom_site_fract_z
 _atom_site_occupancy
  Na  Na0  1  -0.00000000  0.51224841  0.25000000  1
  Na  Na1  1  -0.00000000  0.48775159  0.75000000  1
  Na  Na2  1  0.50000000  0.99329130  0.25000000  1
  Na  Na3  1  0.50000000  0.00670870  0.75000000  1
  Na  Na4  1  0.47935603  0.00000000  -0.00000000  1
  Na  Na5  1  0.52064397  -0.00000000  0.50000000  1
  Na  Na6  1  0.99760007  0.50000000  -0.00000000  1
  Na  Na7  1  0.00239993  0.50000000  0.50000000  1
  Nb  Nb8  1  0.97645807  0.00319651  0.12509783  1
  Nb  Nb9  1  0.97645807  0.99680349  0.87490217  1
  Nb  Nb10  1  0.02354193  0.99680349  0.62509783  1
  Nb  Nb11  1  0.02354193  0.00319651  0.37490217  1
  Nb  Nb12  1  0.47956272  0.50102015  0.12479592  1
  Nb  Nb13  1  0.47956272  0.49897985  0.87520408  1
  Nb  Nb14  1  0.52043728  0.49897985  0.62479592  1
  Nb  Nb15  1  0.52043728  0.50102015  0.37520408  1
  O  O16  1  0.75361267  0.25211127  0.12493615  1
  O  O17  1  0.75361267  0.74788873  0.87506385  1
  O  O18  1  0.24638733  0.74788873  0.62493615  1
  O  O19  1  0.24638733  0.25211127  0.37506385  1
  O  O20  1  0.25426563  0.24861235  0.12131067  1
  O  O21  1  0.25426563  0.75138765  0.87868933  1
  O  O22  1  0.74573437  0.75138765  0.62131067  1
  O  O23  1  0.74573437  0.24861235  0.37868933  1
  O  O24  1  0.75477811  0.74907889  0.12866161  1
  O  O25  1  0.75477811  0.25092111  0.87133839  1
  O  O26  1  0.24522189  0.25092111  0.62866161  1
  O  O27  1  0.24522189  0.74907889  0.37133839  1
  O  O28  1  0.25395761  0.75176528  0.12503684  1
  O  O29  1  0.25395761  0.24823472  0.87496316  1
  O  O30  1  0.74604239  0.24823472  0.62503684  1
  O  O31  1  0.74604239  0.75176528  0.37496316  1
  O  O32  1  -0.00000000  0.00920599  0.25000000  1
  O  O33  1  -0.00000000  0.99079401  0.75000000  1
  O  O34  1  0.50000000  0.49083226  0.25000000  1
  O  O35  1  0.50000000  0.50916774  0.75000000  1
  O  O36  1  0.99786787  -0.00000000  -0.00000000  1
  O  O37  1  0.00213213  -0.00000000  0.50000000  1
  O  O38  1  0.51508957  0.50000000  -0.00000000  1
  O  O39  1  0.48491043  0.50000000  0.50000000  1
