# generated using pymatgen
data_Na2Si4H30C10N2O
_symmetry_space_group_name_H-M   'P 1'
_cell_length_a   11.93784459
_cell_length_b   18.53648961
_cell_length_c   24.01094971
_cell_angle_alpha   90.00000000
_cell_angle_beta   90.00000000
_cell_angle_gamma   108.81493931
_symmetry_Int_Tables_number   1
_chemical_formula_structural   Na2Si4H30C10N2O
_chemical_formula_sum   'Na16 Si32 H240 C80 N16 O8'
_cell_volume   5029.36650422
_cell_formula_units_Z   8
loop_
 _symmetry_equiv_pos_site_id
 _symmetry_equiv_pos_as_xyz
  1  'x, y, z'
loop_
 _atom_site_type_symbol
 _atom_site_label
 _atom_site_symmetry_multiplicity
 _atom_site_fract_x
 _atom_site_fract_y
 _atom_site_fract_z
 _atom_site_occupancy
  Na  Na0  1  0.34290005  0.19872814  0.30079264  1
  Na  Na1  1  0.84290005  0.69872814  0.19920736  1
  Na  Na2  1  0.65709995  0.80127186  0.69920736  1
  Na  Na3  1  0.15709995  0.30127186  0.80079264  1
  Na  Na4  1  0.11012591  0.14812150  0.40471010  1
  Na  Na5  1  0.61012591  0.64812150  0.09528990  1
  Na  Na6  1  0.88987409  0.85187850  0.59528990  1
  Na  Na7  1  0.38987409  0.35187850  0.90471010  1
  Na  Na8  1  0.42865229  0.21209795  0.43026622  1
  Na  Na9  1  0.92865229  0.71209795  0.06973378  1
  Na  Na10  1  0.57134771  0.78790205  0.56973378  1
  Na  Na11  1  0.07134771  0.28790205  0.93026622  1
  Na  Na12  1  0.66202048  0.26361513  0.32522778  1
  Na  Na13  1  0.16202048  0.76361513  0.17477222  1
  Na  Na14  1  0.33797952  0.73638487  0.67477222  1
  Na  Na15  1  0.83797952  0.23638487  0.82522778  1
  Si  Si16  1  0.53930457  0.16789325  0.20449365  1
  Si  Si17  1  0.03930457  0.66789325  0.29550635  1
  Si  Si18  1  0.46069543  0.83210675  0.79550635  1
  Si  Si19  1  0.96069543  0.33210675  0.70449365  1
  Si  Si20  1  0.49017723  0.08926388  0.31858222  1
  Si  Si21  1  0.99017723  0.58926388  0.18141778  1
  Si  Si22  1  0.50982277  0.91073612  0.68141778  1
  Si  Si23  1  0.00982277  0.41073612  0.81858222  1
  Si  Si24  1  0.28100672  0.04396818  0.40715638  1
  Si  Si25  1  0.78100672  0.54396818  0.09284362  1
  Si  Si26  1  0.71899328  0.95603182  0.59284362  1
  Si  Si27  1  0.21899328  0.45603182  0.90715638  1
  Si  Si28  1  0.22887593  0.09590781  0.52273218  1
  Si  Si29  1  0.72887593  0.59590781  0.97726782  1
  Si  Si30  1  0.77112407  0.90409219  0.47726782  1
  Si  Si31  1  0.27112407  0.40409219  0.02273218  1
  Si  Si32  1  0.70580282  0.34471198  0.45773608  1
  Si  Si33  1  0.20580282  0.84471198  0.04226392  1
  Si  Si34  1  0.29419718  0.65528802  0.54226392  1
  Si  Si35  1  0.79419718  0.15528802  0.95773608  1
  Si  Si36  1  0.52597185  0.37285498  0.37734648  1
  Si  Si37  1  0.02597185  0.87285498  0.12265352  1
  Si  Si38  1  0.47402815  0.62714502  0.62265352  1
  Si  Si39  1  0.97402815  0.12714502  0.87734648  1
  Si  Si40  1  0.24827470  0.31943343  0.35589327  1
  Si  Si41  1  0.74827470  0.81943343  0.14410673  1
  Si  Si42  1  0.75172530  0.68056657  0.64410673  1
  Si  Si43  1  0.25172530  0.18056657  0.85589327  1
  Si  Si44  1  0.05445467  0.21910129  0.28062900  1
  Si  Si45  1  0.55445467  0.71910129  0.21937100  1
  Si  Si46  1  0.94554533  0.78089871  0.71937100  1
  Si  Si47  1  0.44554533  0.28089871  0.78062900  1
  H  H48  1  0.34983483  0.19300561  0.17911688  1
  H  H49  1  0.84983483  0.69300561  0.32088312  1
  H  H50  1  0.65016517  0.80699439  0.82088312  1
  H  H51  1  0.15016517  0.30699439  0.67911688  1
  H  H52  1  0.33573784  0.09489341  0.17020650  1
  H  H53  1  0.83573784  0.59489341  0.32979350  1
  H  H54  1  0.66426216  0.90510659  0.82979350  1
  H  H55  1  0.16426216  0.40510659  0.67020650  1
  H  H56  1  0.41427225  0.16378436  0.12044496  1
  H  H57  1  0.91427225  0.66378436  0.37955504  1
  H  H58  1  0.58572775  0.83621564  0.87955504  1
  H  H59  1  0.08572775  0.33621564  0.62044496  1
  H  H60  1  0.55280867  0.03803405  0.18045246  1
  H  H61  1  0.05280867  0.53803405  0.31954754  1
  H  H62  1  0.44719133  0.96196595  0.81954754  1
  H  H63  1  0.94719133  0.46196595  0.68045246  1
  H  H64  1  0.69666334  0.10685096  0.18456314  1
  H  H65  1  0.19666334  0.60685096  0.31543686  1
  H  H66  1  0.30333666  0.89314904  0.81543686  1
  H  H67  1  0.80333666  0.39314904  0.68456314  1
  H  H68  1  0.60479873  0.10424473  0.12592031  1
  H  H69  1  0.10479873  0.60424473  0.37407969  1
  H  H70  1  0.39520127  0.89575527  0.87407969  1
  H  H71  1  0.89520127  0.39575527  0.62592031  1
  H  H72  1  0.61202237  0.31149944  0.19459735  1
  H  H73  1  0.11202237  0.81149944  0.30540265  1
  H  H74  1  0.38797763  0.68850056  0.80540265  1
  H  H75  1  0.88797763  0.18850056  0.69459735  1
  H  H76  1  0.63949191  0.26425824  0.13461948  1
  H  H77  1  0.13949191  0.76425824  0.36538052  1
  H  H78  1  0.36050809  0.73574176  0.86538052  1
  H  H79  1  0.86050809  0.23574176  0.63461948  1
  H  H80  1  0.73328101  0.27487064  0.19328339  1
  H  H81  1  0.23328101  0.77487064  0.30671661  1
  H  H82  1  0.26671899  0.72512936  0.80671661  1
  H  H83  1  0.76671899  0.22512936  0.69328339  1
  H  H84  1  0.42007876  0.94611217  0.31893656  1
  H  H85  1  0.92007876  0.44611217  0.18106344  1
  H  H86  1  0.57992124  0.05388783  0.68106344  1
  H  H87  1  0.07992124  0.55388783  0.81893656  1
  H  H88  1  0.50237518  0.98288117  0.25828501  1
  H  H89  1  0.00237518  0.48288117  0.24171499  1
  H  H90  1  0.49762482  0.01711883  0.74171499  1
  H  H91  1  0.99762482  0.51711883  0.75828501  1
  H  H92  1  0.35246608  0.98023177  0.26322060  1
  H  H93  1  0.85246608  0.48023177  0.23677940  1
  H  H94  1  0.64753392  0.01976823  0.73677940  1
  H  H95  1  0.14753392  0.51976823  0.76322060  1
  H  H96  1  0.59737068  0.03961378  0.39055063  1
  H  H97  1  0.09737068  0.53961378  0.10944937  1
  H  H98  1  0.40262932  0.96038622  0.60944937  1
  H  H99  1  0.90262932  0.46038622  0.89055063  1
  H  H100  1  0.65129535  0.14033680  0.39001249  1
  H  H101  1  0.15129535  0.64033680  0.10998751  1
  H  H102  1  0.34870465  0.85966320  0.60998751  1
  H  H103  1  0.84870465  0.35966320  0.89001249  1
  H  H104  1  0.69488574  0.08787577  0.33653836  1
  H  H105  1  0.19488574  0.58787577  0.16346164  1
  H  H106  1  0.30511426  0.91212423  0.66346164  1
  H  H107  1  0.80511426  0.41212423  0.83653836  1
  H  H108  1  0.07934074  0.95689653  0.38269235  1
  H  H109  1  0.57934074  0.45689653  0.11730765  1
  H  H110  1  0.92065926  0.04310347  0.61730765  1
  H  H111  1  0.42065926  0.54310347  0.88269235  1
  H  H112  1  0.18211037  0.95997917  0.32837628  1
  H  H113  1  0.68211037  0.45997917  0.17162372  1
  H  H114  1  0.81788963  0.04002083  0.67162372  1
  H  H115  1  0.31788963  0.54002083  0.82837628  1
  H  H116  1  0.12297904  0.03539161  0.33565597  1
  H  H117  1  0.62297904  0.53539161  0.16434403  1
  H  H118  1  0.87702096  0.96460839  0.66434403  1
  H  H119  1  0.37702096  0.46460839  0.83565597  1
  H  H120  1  0.26147933  0.92910766  0.46486379  1
  H  H121  1  0.76147933  0.42910766  0.03513621  1
  H  H122  1  0.73852067  0.07089234  0.53513621  1
  H  H123  1  0.23852067  0.57089234  0.96486379  1
  H  H124  1  0.41154293  0.98870652  0.46397120  1
  H  H125  1  0.91154293  0.48870652  0.03602880  1
  H  H126  1  0.58845707  0.01129348  0.53602880  1
  H  H127  1  0.08845707  0.51129348  0.96397120  1
  H  H128  1  0.34996442  0.92911805  0.40606508  1
  H  H129  1  0.84996442  0.42911805  0.09393492  1
  H  H130  1  0.65003558  0.07088195  0.59393492  1
  H  H131  1  0.15003558  0.57088195  0.90606508  1
  H  H132  1  0.18043596  0.95449244  0.54159289  1
  H  H133  1  0.68043596  0.45449244  0.95840711  1
  H  H134  1  0.81956404  0.04550756  0.45840711  1
  H  H135  1  0.31956404  0.54550756  0.04159289  1
  H  H136  1  0.04844921  0.98014225  0.53593114  1
  H  H137  1  0.54844921  0.48014225  0.96406886  1
  H  H138  1  0.95155079  0.01985775  0.46406886  1
  H  H139  1  0.45155079  0.51985775  0.03593114  1
  H  H140  1  0.13724264  0.00255499  0.59741954  1
  H  H141  1  0.63724264  0.50255499  0.90258046  1
  H  H142  1  0.86275736  0.99744501  0.40258046  1
  H  H143  1  0.36275736  0.49744501  0.09741954  1
  H  H144  1  0.19334152  0.22093499  0.53632419  1
  H  H145  1  0.69334152  0.72093499  0.96367581  1
  H  H146  1  0.80665848  0.77906501  0.46367581  1
  H  H147  1  0.30665848  0.27906501  0.03632419  1
  H  H148  1  0.14620992  0.16014742  0.59460916  1
  H  H149  1  0.64620992  0.66014742  0.90539084  1
  H  H150  1  0.85379008  0.83985258  0.40539084  1
  H  H151  1  0.35379008  0.33985258  0.09460916  1
  H  H152  1  0.05569761  0.14505330  0.53425824  1
  H  H153  1  0.55569761  0.64505330  0.96574176  1
  H  H154  1  0.94430239  0.85494670  0.46574176  1
  H  H155  1  0.44430239  0.35494670  0.03425824  1
  H  H156  1  0.42670755  0.08769419  0.55117615  1
  H  H157  1  0.92670755  0.58769419  0.94882385  1
  H  H158  1  0.57329245  0.91230581  0.44882385  1
  H  H159  1  0.07329245  0.41230581  0.05117615  1
  H  H160  1  0.35557965  0.11690908  0.60806136  1
  H  H161  1  0.85557965  0.61690908  0.89193864  1
  H  H162  1  0.64442035  0.88309092  0.39193864  1
  H  H163  1  0.14442035  0.38309092  0.10806136  1
  H  H164  1  0.42518486  0.18330167  0.55561899  1
  H  H165  1  0.92518486  0.68330167  0.94438101  1
  H  H166  1  0.57481514  0.81669833  0.44438101  1
  H  H167  1  0.07481514  0.31669833  0.05561899  1
  H  H168  1  0.70296831  0.21184567  0.48409543  1
  H  H169  1  0.20296831  0.71184567  0.01590457  1
  H  H170  1  0.29703169  0.78815433  0.51590457  1
  H  H171  1  0.79703169  0.28815433  0.98409543  1
  H  H172  1  0.83162512  0.28424729  0.50759221  1
  H  H173  1  0.33162512  0.78424729  0.99240779  1
  H  H174  1  0.16837488  0.71575271  0.49240779  1
  H  H175  1  0.66837488  0.21575271  0.00759221  1
  H  H176  1  0.82143364  0.25499182  0.43698663  1
  H  H177  1  0.32143364  0.75499182  0.06301337  1
  H  H178  1  0.17856636  0.74500818  0.56301337  1
  H  H179  1  0.67856636  0.24500818  0.93698663  1
  H  H180  1  0.57152738  0.31719459  0.54130795  1
  H  H181  1  0.07152738  0.81719459  0.95869205  1
  H  H182  1  0.42847262  0.68280541  0.45869205  1
  H  H183  1  0.92847262  0.18280541  0.04130795  1
  H  H184  1  0.62331607  0.41659821  0.52679544  1
  H  H185  1  0.12331607  0.91659821  0.97320456  1
  H  H186  1  0.37668393  0.58340179  0.47320456  1
  H  H187  1  0.87668393  0.08340179  0.02679544  1
  H  H188  1  0.71815650  0.37275917  0.55964661  1
  H  H189  1  0.21815650  0.87275917  0.94035339  1
  H  H190  1  0.28184350  0.62724083  0.44035339  1
  H  H191  1  0.78184350  0.12724083  0.05964661  1
  H  H192  1  0.88435065  0.42488022  0.40353439  1
  H  H193  1  0.38435065  0.92488022  0.09646561  1
  H  H194  1  0.11564935  0.57511978  0.59646561  1
  H  H195  1  0.61564935  0.07511978  0.90353439  1
  H  H196  1  0.90537144  0.43727924  0.47649832  1
  H  H197  1  0.40537144  0.93727924  0.02350168  1
  H  H198  1  0.09462856  0.56272076  0.52350168  1
  H  H199  1  0.59462856  0.06272076  0.97649832  1
  H  H200  1  0.81883132  0.48405682  0.44066327  1
  H  H201  1  0.31883132  0.98405682  0.05933673  1
  H  H202  1  0.18116868  0.51594318  0.55933673  1
  H  H203  1  0.68116868  0.01594318  0.94066327  1
  H  H204  1  0.47146425  0.49129033  0.39298487  1
  H  H205  1  0.97146425  0.99129033  0.10701513  1
  H  H206  1  0.52853575  0.50870967  0.60701513  1
  H  H207  1  0.02853575  0.00870967  0.89298487  1
  H  H208  1  0.61058192  0.49985129  0.42260620  1
  H  H209  1  0.11058192  0.99985129  0.07739380  1
  H  H210  1  0.38941808  0.50014871  0.57739380  1
  H  H211  1  0.88941808  0.00014871  0.92260620  1
  H  H212  1  0.47901460  0.44687960  0.45793805  1
  H  H213  1  0.97901460  0.94687960  0.04206195  1
  H  H214  1  0.52098540  0.55312040  0.54206195  1
  H  H215  1  0.02098540  0.05312040  0.95793805  1
  H  H216  1  0.53378391  0.44375186  0.28760437  1
  H  H217  1  0.03378391  0.94375186  0.21239563  1
  H  H218  1  0.46621609  0.55624814  0.71239563  1
  H  H219  1  0.96621609  0.05624814  0.78760437  1
  H  H220  1  0.57667053  0.36233118  0.27615444  1
  H  H221  1  0.07667053  0.86233118  0.22384556  1
  H  H222  1  0.42332947  0.63766882  0.72384556  1
  H  H223  1  0.92332947  0.13766882  0.77615444  1
  H  H224  1  0.67724828  0.44449777  0.30854429  1
  H  H225  1  0.17724828  0.94449777  0.19145571  1
  H  H226  1  0.32275172  0.55550223  0.69145571  1
  H  H227  1  0.82275172  0.05550223  0.80854429  1
  H  H228  1  0.17242359  0.41349226  0.30766936  1
  H  H229  1  0.67242359  0.91349226  0.19233064  1
  H  H230  1  0.82757641  0.58650774  0.69233064  1
  H  H231  1  0.32757641  0.08650774  0.80766936  1
  H  H232  1  0.29980349  0.40713779  0.27239175  1
  H  H233  1  0.79980349  0.90713779  0.22760825  1
  H  H234  1  0.70019651  0.59286221  0.72760825  1
  H  H235  1  0.20019651  0.09286221  0.77239175  1
  H  H236  1  0.31432897  0.45993155  0.33532513  1
  H  H237  1  0.81432897  0.95993155  0.16467487  1
  H  H238  1  0.68567103  0.54006845  0.66467487  1
  H  H239  1  0.18567103  0.04006845  0.83532513  1
  H  H240  1  0.10449628  0.34165391  0.42358187  1
  H  H241  1  0.60449628  0.84165391  0.07641813  1
  H  H242  1  0.89550372  0.65834609  0.57641813  1
  H  H243  1  0.39550372  0.15834609  0.92358187  1
  H  H244  1  0.25207610  0.39004159  0.44529464  1
  H  H245  1  0.75207610  0.89004159  0.05470536  1
  H  H246  1  0.74792390  0.60995841  0.55470536  1
  H  H247  1  0.24792390  0.10995841  0.94529464  1
  H  H248  1  0.18976523  0.29076843  0.45647761  1
  H  H249  1  0.68976523  0.79076843  0.04352239  1
  H  H250  1  0.81023477  0.70923157  0.54352239  1
  H  H251  1  0.31023477  0.20923157  0.95647761  1
  H  H252  1  0.14733506  0.31763269  0.20770693  1
  H  H253  1  0.64733506  0.81763269  0.29229307  1
  H  H254  1  0.85266494  0.68236731  0.79229307  1
  H  H255  1  0.35266494  0.18236731  0.70770693  1
  H  H256  1  0.02072464  0.24594991  0.18130140  1
  H  H257  1  0.52072464  0.74594991  0.31869860  1
  H  H258  1  0.97927536  0.75405009  0.81869860  1
  H  H259  1  0.47927536  0.25405009  0.68130140  1
  H  H260  1  0.15665536  0.22706699  0.18817741  1
  H  H261  1  0.65665536  0.72706699  0.31182259  1
  H  H262  1  0.84334464  0.77293301  0.81182259  1
  H  H263  1  0.34334464  0.27293301  0.68817741  1
  H  H264  1  0.88801789  0.23616898  0.33872742  1
  H  H265  1  0.38801789  0.73616898  0.16127258  1
  H  H266  1  0.11198211  0.76383102  0.66127258  1
  H  H267  1  0.61198211  0.26383102  0.83872742  1
  H  H268  1  0.86282214  0.24093498  0.26548476  1
  H  H269  1  0.36282214  0.74093498  0.23451524  1
  H  H270  1  0.13717786  0.75906502  0.73451524  1
  H  H271  1  0.63717786  0.25906502  0.76548476  1
  H  H272  1  0.96004848  0.32170421  0.30056066  1
  H  H273  1  0.46004848  0.82170421  0.19943934  1
  H  H274  1  0.03995152  0.67829579  0.69943934  1
  H  H275  1  0.53995152  0.17829579  0.80056066  1
  H  H276  1  0.93831622  0.08507697  0.31138738  1
  H  H277  1  0.43831622  0.58507697  0.18861262  1
  H  H278  1  0.06168378  0.91492303  0.68861262  1
  H  H279  1  0.56168378  0.41492303  0.81138738  1
  H  H280  1  0.03050563  0.08402831  0.25309316  1
  H  H281  1  0.53050563  0.58402831  0.24690684  1
  H  H282  1  0.96949437  0.91597169  0.74690684  1
  H  H283  1  0.46949437  0.41597169  0.75309316  1
  H  H284  1  0.89811818  0.10671583  0.24400261  1
  H  H285  1  0.39811818  0.60671583  0.25599739  1
  H  H286  1  0.10188182  0.89328417  0.75599739  1
  H  H287  1  0.60188182  0.39328417  0.74400261  1
  C  C288  1  0.39611354  0.15346067  0.16515293  1
  C  C289  1  0.89611354  0.65346067  0.33484707  1
  C  C290  1  0.60388646  0.84653933  0.83484707  1
  C  C291  1  0.10388646  0.34653933  0.66515293  1
  C  C292  1  0.60466504  0.09753217  0.17149355  1
  C  C293  1  0.10466504  0.59753217  0.32850645  1
  C  C294  1  0.39533496  0.90246783  0.82850645  1
  C  C295  1  0.89533496  0.40246783  0.67149355  1
  C  C296  1  0.64103814  0.26398252  0.18034303  1
  C  C297  1  0.14103814  0.76398252  0.31965697  1
  C  C298  1  0.35896186  0.73601748  0.81965697  1
  C  C299  1  0.85896186  0.23601748  0.68034303  1
  C  C300  1  0.43513180  0.99065774  0.28687045  1
  C  C301  1  0.93513180  0.49065774  0.21312955  1
  C  C302  1  0.56486820  0.00934226  0.71312955  1
  C  C303  1  0.06486820  0.50934226  0.78687045  1
  C  C304  1  0.62057211  0.08970011  0.36301554  1
  C  C305  1  0.12057211  0.58970011  0.13698446  1
  C  C306  1  0.37942789  0.91029989  0.63698446  1
  C  C307  1  0.87942789  0.41029989  0.86301554  1
  C  C308  1  0.15450270  0.99474681  0.35922199  1
  C  C309  1  0.65450270  0.49474681  0.14077801  1
  C  C310  1  0.84549730  0.00525319  0.64077801  1
  C  C311  1  0.34549730  0.50525319  0.85922199  1
  C  C312  1  0.33173720  0.96605202  0.43825134  1
  C  C313  1  0.83173720  0.46605202  0.06174866  1
  C  C314  1  0.66826280  0.03394798  0.56174866  1
  C  C315  1  0.16826280  0.53394798  0.93825134  1
  C  C316  1  0.13956466  0.99806802  0.55178031  1
  C  C317  1  0.63956466  0.49806802  0.94821969  1
  C  C318  1  0.86043534  0.00193198  0.44821969  1
  C  C319  1  0.36043534  0.50193198  0.05178031  1
  C  C320  1  0.14789614  0.16163363  0.54885244  1
  C  C321  1  0.64789614  0.66163363  0.95114756  1
  C  C322  1  0.85210386  0.83836637  0.45114756  1
  C  C323  1  0.35210386  0.33836637  0.04885244  1
  C  C324  1  0.37251683  0.12329817  0.56299170  1
  C  C325  1  0.87251683  0.62329817  0.93700830  1
  C  C326  1  0.62748317  0.87670183  0.43700830  1
  C  C327  1  0.12748317  0.37670183  0.06299170  1
  C  C328  1  0.77052145  0.26571342  0.47232296  1
  C  C329  1  0.27052145  0.76571342  0.02767704  1
  C  C330  1  0.22947855  0.73428658  0.52767704  1
  C  C331  1  0.72947855  0.23428658  0.97232296  1
  C  C332  1  0.64888020  0.36469438  0.52769411  1
  C  C333  1  0.14888020  0.86469438  0.97230589  1
  C  C334  1  0.35111980  0.63530562  0.47230589  1
  C  C335  1  0.85111980  0.13530562  0.02769411  1
  C  C336  1  0.84042924  0.43069412  0.44269014  1
  C  C337  1  0.34042924  0.93069412  0.05730986  1
  C  C338  1  0.15957076  0.56930588  0.55730986  1
  C  C339  1  0.65957076  0.06930588  0.94269014  1
  C  C340  1  0.52030576  0.46003441  0.41657609  1
  C  C341  1  0.02030576  0.96003441  0.08342391  1
  C  C342  1  0.47969424  0.53996559  0.58342391  1
  C  C343  1  0.97969424  0.03996559  0.91657609  1
  C  C344  1  0.58361941  0.40888567  0.30590551  1
  C  C345  1  0.08361941  0.90888567  0.19409449  1
  C  C346  1  0.41638059  0.59111433  0.69409449  1
  C  C347  1  0.91638059  0.09111433  0.80590551  1
  C  C348  1  0.26069079  0.40786007  0.31380736  1
  C  C349  1  0.76069079  0.90786007  0.18619264  1
  C  C350  1  0.73930921  0.59213993  0.68619264  1
  C  C351  1  0.23930921  0.09213993  0.81380736  1
  C  C352  1  0.19382119  0.33687227  0.42681272  1
  C  C353  1  0.69382119  0.83687227  0.07318728  1
  C  C354  1  0.80617881  0.66312773  0.57318728  1
  C  C355  1  0.30617881  0.16312773  0.92681272  1
  C  C356  1  0.09953113  0.25606918  0.20782964  1
  C  C357  1  0.59953113  0.75606918  0.29217036  1
  C  C358  1  0.90046887  0.74393082  0.79217036  1
  C  C359  1  0.40046887  0.24393082  0.70782964  1
  C  C360  1  0.92938710  0.25901123  0.29876822  1
  C  C361  1  0.42938710  0.75901123  0.20123178  1
  C  C362  1  0.07061290  0.74098877  0.70123178  1
  C  C363  1  0.57061290  0.24098877  0.79876822  1
  C  C364  1  0.97368953  0.11382624  0.27202061  1
  C  C365  1  0.47368953  0.61382624  0.22797939  1
  C  C366  1  0.02631047  0.88617376  0.72797939  1
  C  C367  1  0.52631047  0.38617376  0.77202061  1
  N  N368  1  0.51930091  0.16513618  0.27507660  1
  N  N369  1  0.01930091  0.66513618  0.22492340  1
  N  N370  1  0.48069909  0.83486382  0.72492340  1
  N  N371  1  0.98069909  0.33486382  0.77507660  1
  N  N372  1  0.24881401  0.10480084  0.45246272  1
  N  N373  1  0.74881401  0.60480084  0.04753728  1
  N  N374  1  0.75118599  0.89519916  0.54753728  1
  N  N375  1  0.25118599  0.39519916  0.95246272  1
  N  N376  1  0.60038287  0.31834175  0.40645983  1
  N  N377  1  0.10038287  0.81834175  0.09354017  1
  N  N378  1  0.39961713  0.68165825  0.59354017  1
  N  N379  1  0.89961713  0.18165825  0.90645983  1
  N  N380  1  0.16730332  0.23432959  0.32766450  1
  N  N381  1  0.66730332  0.73432959  0.17233550  1
  N  N382  1  0.83269668  0.76567041  0.67233550  1
  N  N383  1  0.33269668  0.26567041  0.82766450  1
  O  O384  1  0.38771723  0.10011539  0.36456419  1
  O  O385  1  0.88771723  0.60011539  0.13543581  1
  O  O386  1  0.61228277  0.89988461  0.63543581  1
  O  O387  1  0.11228277  0.39988461  0.86456419  1
  O  O388  1  0.38551577  0.31251508  0.36621022  1
  O  O389  1  0.88551577  0.81251508  0.13378978  1
  O  O390  1  0.61448423  0.68748492  0.63378978  1
  O  O391  1  0.11448423  0.18748492  0.86621022  1
