# generated using pymatgen
data_KInH8(CO3)4
_symmetry_space_group_name_H-M   'P 1'
_cell_length_a   8.98752300
_cell_length_b   9.16126163
_cell_length_c   9.16126163
_cell_angle_alpha   76.07759173
_cell_angle_beta   60.62538211
_cell_angle_gamma   60.62538211
_symmetry_Int_Tables_number   1
_chemical_formula_structural   KInH8(CO3)4
_chemical_formula_sum   'K2 In2 H16 C8 O24'
_cell_volume   572.81818021
_cell_formula_units_Z   2
loop_
 _symmetry_equiv_pos_site_id
 _symmetry_equiv_pos_as_xyz
  1  'x, y, z'
loop_
 _atom_site_type_symbol
 _atom_site_label
 _atom_site_symmetry_multiplicity
 _atom_site_fract_x
 _atom_site_fract_y
 _atom_site_fract_z
 _atom_site_occupancy
  K  K0  1  0.62500000  0.25000000  0.25000000  1
  K  K1  1  0.37500000  0.75000000  0.75000000  1
  In  In2  1  0.12500000  0.25000000  0.25000000  1
  In  In3  1  0.87500000  0.75000000  0.75000000  1
  H  H4  1  0.31989086  0.66694923  0.17037587  1
  H  H5  1  0.65721595  0.83305077  0.32962413  1
  H  H6  1  0.99026673  0.82962413  0.16694923  1
  H  H7  1  0.48684008  0.67037587  0.33305077  1
  H  H8  1  0.68010914  0.33305077  0.82962413  1
  H  H9  1  0.34278405  0.16694923  0.67037587  1
  H  H10  1  0.00973327  0.17037587  0.83305077  1
  H  H11  1  0.51315992  0.32962413  0.66694923  1
  H  H12  1  0.11742866  0.92498522  0.10224012  1
  H  H13  1  0.64465400  0.57501478  0.39775988  1
  H  H14  1  0.71966878  0.89775988  0.42498522  1
  H  H15  1  0.54241388  0.60224012  0.07501478  1
  H  H16  1  0.88257134  0.07501478  0.89775988  1
  H  H17  1  0.35534600  0.42498522  0.60224012  1
  H  H18  1  0.28033122  0.10224012  0.57501478  1
  H  H19  1  0.45758612  0.39775988  0.92498522  1
  C  C20  1  0.92213952  0.02031146  0.47459903  1
  C  C21  1  0.91705000  0.47968854  0.02540097  1
  C  C22  1  0.89673854  0.52540097  0.52031146  1
  C  C23  1  0.44245097  0.97459903  0.97968854  1
  C  C24  1  0.07786048  0.97968854  0.52540097  1
  C  C25  1  0.08295000  0.52031146  0.97459903  1
  C  C26  1  0.10326146  0.47459903  0.47968854  1
  C  C27  1  0.55754903  0.02540097  0.02031146  1
  O  O28  1  0.90967432  0.12586950  0.35899222  1
  O  O29  1  0.89453603  0.37413050  0.14100778  1
  O  O30  1  0.76866653  0.64100778  0.62586950  1
  O  O31  1  0.53554382  0.85899222  0.87413050  1
  O  O32  1  0.09032568  0.87413050  0.64100778  1
  O  O33  1  0.10546397  0.62586950  0.85899222  1
  O  O34  1  0.23133347  0.35899222  0.37413050  1
  O  O35  1  0.46445618  0.14100778  0.12586950  1
  O  O36  1  0.81785780  0.94388766  0.55248133  1
  O  O37  1  0.81422679  0.55611234  0.94751867  1
  O  O38  1  0.87033913  0.44751867  0.44388766  1
  O  O39  1  0.26174546  0.05248133  0.05611234  1
  O  O40  1  0.18214220  0.05611234  0.44751867  1
  O  O41  1  0.18577321  0.44388766  0.05248133  1
  O  O42  1  0.12966087  0.55248133  0.55611234  1
  O  O43  1  0.73825454  0.94751867  0.94388766  1
  O  O44  1  0.43786544  0.60416574  0.18515048  1
  O  O45  1  0.72718166  0.89583426  0.31484952  1
  O  O46  1  0.12301592  0.81484952  0.10416574  1
  O  O47  1  0.54203118  0.68515048  0.39583426  1
  O  O48  1  0.56213456  0.39583426  0.81484952  1
  O  O49  1  0.27281834  0.10416574  0.68515048  1
  O  O50  1  0.87698408  0.18515048  0.89583426  1
  O  O51  1  0.45796882  0.31484952  0.60416574  1
