# generated using pymatgen
data_Cd3P2
_symmetry_space_group_name_H-M   'P 1'
_cell_length_a   10.84019280
_cell_length_b   10.84019280
_cell_length_c   10.84019280
_cell_angle_alpha   109.47122063
_cell_angle_beta   109.47122063
_cell_angle_gamma   109.47122063
_symmetry_Int_Tables_number   1
_chemical_formula_structural   Cd3P2
_chemical_formula_sum   'Cd24 P16'
_cell_volume   980.59376717
_cell_formula_units_Z   8
loop_
 _symmetry_equiv_pos_site_id
 _symmetry_equiv_pos_as_xyz
  1  'x, y, z'
loop_
 _atom_site_type_symbol
 _atom_site_label
 _atom_site_symmetry_multiplicity
 _atom_site_fract_x
 _atom_site_fract_y
 _atom_site_fract_z
 _atom_site_occupancy
  Cd  Cd0  1  0.74976665  0.27630888  0.23225952  1
  Cd  Cd1  1  0.45595064  0.22369112  0.47345777  1
  Cd  Cd2  1  0.75023335  0.48249287  0.02654223  1
  Cd  Cd3  1  0.04404936  0.01750713  0.26774048  1
  Cd  Cd4  1  0.27630888  0.23225952  0.74976665  1
  Cd  Cd5  1  0.22369112  0.47345777  0.45595064  1
  Cd  Cd6  1  0.48249287  0.02654223  0.75023335  1
  Cd  Cd7  1  0.01750713  0.26774048  0.04404936  1
  Cd  Cd8  1  0.23225952  0.74976665  0.27630888  1
  Cd  Cd9  1  0.47345777  0.45595064  0.22369112  1
  Cd  Cd10  1  0.02654223  0.75023335  0.48249287  1
  Cd  Cd11  1  0.26774048  0.04404936  0.01750713  1
  Cd  Cd12  1  0.25023335  0.72369112  0.76774048  1
  Cd  Cd13  1  0.54404936  0.77630888  0.52654223  1
  Cd  Cd14  1  0.24976665  0.51750713  0.97345777  1
  Cd  Cd15  1  0.95595064  0.98249287  0.73225952  1
  Cd  Cd16  1  0.72369112  0.76774048  0.25023335  1
  Cd  Cd17  1  0.77630888  0.52654223  0.54404936  1
  Cd  Cd18  1  0.51750713  0.97345777  0.24976665  1
  Cd  Cd19  1  0.98249287  0.73225952  0.95595064  1
  Cd  Cd20  1  0.76774048  0.25023335  0.72369112  1
  Cd  Cd21  1  0.52654223  0.54404936  0.77630888  1
  Cd  Cd22  1  0.97345777  0.24976665  0.51750713  1
  Cd  Cd23  1  0.73225952  0.95595064  0.98249287  1
  P  P24  1  0.00000000  0.50000000  0.50000000  1
  P  P25  1  0.50000000  -0.00000000  0.50000000  1
  P  P26  1  0.50000000  0.50000000  0.00000000  1
  P  P27  1  0.00000000  -0.00000000  0.00000000  1
  P  P28  1  0.98415476  0.75000000  0.23415476  1
  P  P29  1  0.51584524  0.25000000  0.26584524  1
  P  P30  1  0.75000000  0.23415476  0.98415476  1
  P  P31  1  0.25000000  0.26584524  0.51584524  1
  P  P32  1  0.23415476  0.98415476  0.75000000  1
  P  P33  1  0.26584524  0.51584524  0.25000000  1
  P  P34  1  0.01584524  0.25000000  0.76584524  1
  P  P35  1  0.48415476  0.75000000  0.73415476  1
  P  P36  1  0.25000000  0.76584524  0.01584524  1
  P  P37  1  0.75000000  0.73415476  0.48415476  1
  P  P38  1  0.76584524  0.01584524  0.25000000  1
  P  P39  1  0.73415476  0.48415476  0.75000000  1
