# generated using pymatgen
data_Na6BSe5O21
_symmetry_space_group_name_H-M   'P 1'
_cell_length_a   10.23563265
_cell_length_b   10.23563265
_cell_length_c   11.79227135
_cell_angle_alpha   115.72152058
_cell_angle_beta   115.72152063
_cell_angle_gamma   90.00000000
_symmetry_Int_Tables_number   1
_chemical_formula_structural   Na6BSe5O21
_chemical_formula_sum   'Na12 B2 Se10 O42'
_cell_volume   975.37751277
_cell_formula_units_Z   2
loop_
 _symmetry_equiv_pos_site_id
 _symmetry_equiv_pos_as_xyz
  1  'x, y, z'
loop_
 _atom_site_type_symbol
 _atom_site_label
 _atom_site_symmetry_multiplicity
 _atom_site_fract_x
 _atom_site_fract_y
 _atom_site_fract_z
 _atom_site_occupancy
  Na  Na0  1  0.85884247  0.02382700  0.66418608  1
  Na  Na1  1  0.80534361  0.64035908  0.66418608  1
  Na  Na2  1  0.97617300  0.19465639  0.33581392  1
  Na  Na3  1  0.35964092  0.14115753  0.33581392  1
  Na  Na4  1  0.29680842  0.14695377  0.65207553  1
  Na  Na5  1  0.35526711  0.50512176  0.65207553  1
  Na  Na6  1  0.85304623  0.64473289  0.34792447  1
  Na  Na7  1  0.49487824  0.70319158  0.34792447  1
  Na  Na8  1  0.75816325  0.26745434  0.04030361  1
  Na  Na9  1  0.28214035  0.77284926  0.04030361  1
  Na  Na10  1  0.73254566  0.71785965  0.95969639  1
  Na  Na11  1  0.22715074  0.24183675  0.95969639  1
  B  B12  1  0.25000000  0.75000000  0.50000000  1
  B  B13  1  0.75000000  0.25000000  0.50000000  1
  Se  Se14  1  0.00000000  0.00000000  0.00000000  1
  Se  Se15  1  0.50000000  0.50000000  0.00000000  1
  Se  Se16  1  0.55613192  0.86128592  0.70661733  1
  Se  Se17  1  0.15048541  0.84533141  0.70661733  1
  Se  Se18  1  0.13871408  0.84951459  0.29338267  1
  Se  Se19  1  0.15466859  0.44386808  0.29338267  1
  Se  Se20  1  0.65451668  0.31738298  0.70842020  1
  Se  Se21  1  0.05390352  0.39103722  0.70842020  1
  Se  Se22  1  0.68261702  0.94609648  0.29157980  1
  Se  Se23  1  0.60896278  0.34548332  0.29157980  1
  O  O24  1  0.50079725  0.00079725  0.00159449  1
  O  O25  1  0.99920275  0.49920275  0.99840551  1
  O  O26  1  0.01773368  0.06446073  0.89755864  1
  O  O27  1  0.87982496  0.83309791  0.89755864  1
  O  O28  1  0.93553927  0.12017504  0.10244136  1
  O  O29  1  0.16690209  0.98226632  0.10244136  1
  O  O30  1  0.39941743  0.32386424  0.89792305  1
  O  O31  1  0.49850562  0.57405881  0.89792305  1
  O  O32  1  0.67613576  0.50149438  0.10207695  1
  O  O33  1  0.42594119  0.60058257  0.10207695  1
  O  O34  1  0.60213024  0.01505169  0.86089415  1
  O  O35  1  0.25876391  0.84584247  0.86089415  1
  O  O36  1  0.98494831  0.74123609  0.13910585  1
  O  O37  1  0.15415753  0.39786976  0.13910585  1
  O  O38  1  0.65671569  0.85725509  0.62690272  1
  O  O39  1  0.97018702  0.76964763  0.62690272  1
  O  O40  1  0.14274491  0.02981298  0.37309728  1
  O  O41  1  0.23035237  0.34328431  0.37309728  1
  O  O42  1  0.53906428  0.70760085  0.71714322  1
  O  O43  1  0.17807894  0.00954237  0.71714322  1
  O  O44  1  0.29239915  0.82192106  0.28285678  1
  O  O45  1  0.99045763  0.46093572  0.28285678  1
  O  O46  1  0.71809158  0.25766174  0.82675248  1
  O  O47  1  0.10866090  0.56909073  0.82675248  1
  O  O48  1  0.74233826  0.89133910  0.17324752  1
  O  O49  1  0.43090927  0.28190842  0.17324752  1
  O  O50  1  0.73098231  0.49230874  0.76909356  1
  O  O51  1  0.03811125  0.27678482  0.76909356  1
  O  O52  1  0.50769126  0.96188875  0.23090644  1
  O  O53  1  0.72321518  0.26901769  0.23090644  1
  O  O54  1  0.46914784  0.27534014  0.61267026  1
  O  O55  1  0.14352243  0.33733013  0.61267026  1
  O  O56  1  0.72465986  0.85647757  0.38732974  1
  O  O57  1  0.66266987  0.53085216  0.38732974  1
  O  O58  1  0.71196920  0.19956863  0.58426295  1
  O  O59  1  0.87229375  0.38469432  0.58426295  1
  O  O60  1  0.80043137  0.12770625  0.41573705  1
  O  O61  1  0.61530568  0.28803080  0.41573705  1
  O  O62  1  0.12427427  0.79421493  0.41201662  1
  O  O63  1  0.28774235  0.61780168  0.41201662  1
  O  O64  1  0.20578507  0.71225765  0.58798338  1
  O  O65  1  0.38219832  0.87572573  0.58798338  1
