# generated using pymatgen
data_Li2Ca3N6
_symmetry_space_group_name_H-M   'P 1'
_cell_length_a   4.86886338
_cell_length_b   8.06415847
_cell_length_c   14.21357430
_cell_angle_alpha   90.00000000
_cell_angle_beta   90.00000000
_cell_angle_gamma   90.00000000
_symmetry_Int_Tables_number   1
_chemical_formula_structural   Li2Ca3N6
_chemical_formula_sum   'Li8 Ca12 N24'
_cell_volume   558.07163091
_cell_formula_units_Z   4
loop_
 _symmetry_equiv_pos_site_id
 _symmetry_equiv_pos_as_xyz
  1  'x, y, z'
loop_
 _atom_site_type_symbol
 _atom_site_label
 _atom_site_symmetry_multiplicity
 _atom_site_fract_x
 _atom_site_fract_y
 _atom_site_fract_z
 _atom_site_occupancy
  Li  Li0  1  0.50000000  0.00000000  0.33897568  1
  Li  Li1  1  0.00000000  0.00000000  0.33897568  1
  Li  Li2  1  0.50000000  0.00000000  0.66102432  1
  Li  Li3  1  0.00000000  0.00000000  0.66102432  1
  Li  Li4  1  0.50000000  0.50000000  0.83719218  1
  Li  Li5  1  -0.00000000  0.50000000  0.83719218  1
  Li  Li6  1  0.50000000  0.50000000  0.16280782  1
  Li  Li7  1  -0.00000000  0.50000000  0.16280782  1
  Ca  Ca8  1  0.75000000  0.31777211  0.00000000  1
  Ca  Ca9  1  0.25000000  0.68222789  0.00000000  1
  Ca  Ca10  1  0.75000000  0.81809568  0.50000000  1
  Ca  Ca11  1  0.25000000  0.18190432  0.50000000  1
  Ca  Ca12  1  0.75000000  0.84114438  0.16171679  1
  Ca  Ca13  1  0.25000000  0.15885562  0.16171679  1
  Ca  Ca14  1  0.25000000  0.15885562  0.83828321  1
  Ca  Ca15  1  0.75000000  0.84114438  0.83828321  1
  Ca  Ca16  1  0.75000000  0.33933410  0.66344928  1
  Ca  Ca17  1  0.25000000  0.66066590  0.66344928  1
  Ca  Ca18  1  0.25000000  0.66066590  0.33655072  1
  Ca  Ca19  1  0.75000000  0.33933410  0.33655072  1
  N  N20  1  0.75000000  0.28807264  0.17280876  1
  N  N21  1  0.25000000  0.71192736  0.17280876  1
  N  N22  1  0.25000000  0.71192736  0.82719124  1
  N  N23  1  0.75000000  0.28807264  0.82719124  1
  N  N24  1  0.75000000  0.13351802  0.80003661  1
  N  N25  1  0.25000000  0.86648198  0.80003661  1
  N  N26  1  0.25000000  0.86648198  0.19996339  1
  N  N27  1  0.75000000  0.13351802  0.19996339  1
  N  N28  1  0.75000000  0.78448508  0.67446565  1
  N  N29  1  0.25000000  0.21551492  0.67446565  1
  N  N30  1  0.25000000  0.21551492  0.32553435  1
  N  N31  1  0.75000000  0.78448508  0.32553435  1
  N  N32  1  0.75000000  0.63194572  0.29389718  1
  N  N33  1  0.25000000  0.36805428  0.29389718  1
  N  N34  1  0.25000000  0.36805428  0.70610282  1
  N  N35  1  0.75000000  0.63194572  0.70610282  1
  N  N36  1  0.75000000  0.61230560  0.04613188  1
  N  N37  1  0.25000000  0.38769440  0.04613188  1
  N  N38  1  0.25000000  0.38769440  0.95386812  1
  N  N39  1  0.75000000  0.61230560  0.95386812  1
  N  N40  1  0.75000000  0.11134377  0.54633019  1
  N  N41  1  0.25000000  0.88865623  0.54633019  1
  N  N42  1  0.25000000  0.88865623  0.45366981  1
  N  N43  1  0.75000000  0.11134377  0.45366981  1
