# generated using pymatgen
data_NdH3CSO7
_symmetry_space_group_name_H-M   'P 1'
_cell_length_a   7.05116983
_cell_length_b   7.05116983
_cell_length_c   11.93528670
_cell_angle_alpha   90.00000000
_cell_angle_beta   90.00000000
_cell_angle_gamma   90.00000000
_symmetry_Int_Tables_number   1
_chemical_formula_structural   NdH3CSO7
_chemical_formula_sum   'Nd4 H12 C4 S4 O28'
_cell_volume   593.41047136
_cell_formula_units_Z   4
loop_
 _symmetry_equiv_pos_site_id
 _symmetry_equiv_pos_as_xyz
  1  'x, y, z'
loop_
 _atom_site_type_symbol
 _atom_site_label
 _atom_site_symmetry_multiplicity
 _atom_site_fract_x
 _atom_site_fract_y
 _atom_site_fract_z
 _atom_site_occupancy
  Nd  Nd0  1  0.87086357  0.61313846  0.72228591  1
  Nd  Nd1  1  0.12913643  0.38686154  0.22228591  1
  Nd  Nd2  1  0.61313846  0.12913643  0.47228591  1
  Nd  Nd3  1  0.38686154  0.87086357  0.97228591  1
  H  H4  1  0.36227674  0.52433613  0.68600652  1
  H  H5  1  0.63772326  0.47566387  0.18600652  1
  H  H6  1  0.52433613  0.63772326  0.43600652  1
  H  H7  1  0.47566387  0.36227674  0.93600652  1
  H  H8  1  0.04062344  0.88430436  0.54459344  1
  H  H9  1  0.95937656  0.11569564  0.04459344  1
  H  H10  1  0.88430436  0.95937656  0.29459344  1
  H  H11  1  0.11569564  0.04062344  0.79459344  1
  H  H12  1  0.10540789  0.67623795  0.50804690  1
  H  H13  1  0.89459211  0.32376205  0.00804690  1
  H  H14  1  0.67623795  0.89459211  0.25804690  1
  H  H15  1  0.32376205  0.10540789  0.75804690  1
  C  C16  1  0.36656483  0.61527472  0.76110097  1
  C  C17  1  0.63343517  0.38472528  0.26110097  1
  C  C18  1  0.61527472  0.63343517  0.51110097  1
  C  C19  1  0.38472528  0.36656483  0.01110097  1
  S  S20  1  0.73041649  0.11144268  0.77630302  1
  S  S21  1  0.26958351  0.88855732  0.27630302  1
  S  S22  1  0.11144268  0.26958351  0.52630302  1
  S  S23  1  0.88855732  0.73041649  0.02630302  1
  O  O24  1  0.87691517  0.95951535  0.75874764  1
  O  O25  1  0.12308483  0.04048465  0.25874764  1
  O  O26  1  0.95951535  0.12308483  0.50874764  1
  O  O27  1  0.04048465  0.87691517  0.00874764  1
  O  O28  1  0.61164309  0.06453673  0.87439304  1
  O  O29  1  0.38835691  0.93546327  0.37439304  1
  O  O30  1  0.06453673  0.38835691  0.62439304  1
  O  O31  1  0.93546327  0.61164309  0.12439304  1
  O  O32  1  0.60680711  0.12719481  0.67596001  1
  O  O33  1  0.39319289  0.87280519  0.17596001  1
  O  O34  1  0.12719481  0.39319289  0.42596001  1
  O  O35  1  0.87280519  0.60680711  0.92596001  1
  O  O36  1  0.82638393  0.29362976  0.79884652  1
  O  O37  1  0.17361607  0.70637024  0.29884652  1
  O  O38  1  0.29362976  0.17361607  0.54884652  1
  O  O39  1  0.70637024  0.82638393  0.04884652  1
  O  O40  1  0.21132945  0.66207465  0.80738407  1
  O  O41  1  0.78867055  0.33792535  0.30738407  1
  O  O42  1  0.66207465  0.78867055  0.55738407  1
  O  O43  1  0.33792535  0.21132945  0.05738407  1
  O  O44  1  0.52704344  0.66672539  0.80067416  1
  O  O45  1  0.47295656  0.33327461  0.30067416  1
  O  O46  1  0.66672539  0.47295656  0.55067416  1
  O  O47  1  0.33327461  0.52704344  0.05067416  1
  O  O48  1  0.06971291  0.75553109  0.57215780  1
  O  O49  1  0.93028709  0.24446891  0.07215780  1
  O  O50  1  0.75553109  0.93028709  0.32215780  1
  O  O51  1  0.24446891  0.06971291  0.82215780  1
