# generated using pymatgen
data_Sr2CuCO5
_symmetry_space_group_name_H-M   'P 1'
_cell_length_a   7.87774366
_cell_length_b   7.87774366
_cell_length_c   9.46754986
_cell_angle_alpha   114.58477385
_cell_angle_beta   114.58477385
_cell_angle_gamma   90.00000000
_symmetry_Int_Tables_number   1
_chemical_formula_structural   Sr2CuCO5
_chemical_formula_sum   'Sr8 Cu4 C4 O20'
_cell_volume   475.08502083
_cell_formula_units_Z   4
loop_
 _symmetry_equiv_pos_site_id
 _symmetry_equiv_pos_as_xyz
  1  'x, y, z'
loop_
 _atom_site_type_symbol
 _atom_site_label
 _atom_site_symmetry_multiplicity
 _atom_site_fract_x
 _atom_site_fract_y
 _atom_site_fract_z
 _atom_site_occupancy
  Sr  Sr0  1  0.88641602  0.88641602  0.77283203  1
  Sr  Sr1  1  0.11358398  0.11358398  0.22716797  1
  Sr  Sr2  1  0.61367871  0.61367871  0.22735743  1
  Sr  Sr3  1  0.38632129  0.38632129  0.77264257  1
  Sr  Sr4  1  0.39652645  0.89652645  0.79305290  1
  Sr  Sr5  1  0.10347355  0.60347355  0.20694710  1
  Sr  Sr6  1  0.61983000  0.11983000  0.23966000  1
  Sr  Sr7  1  0.88017000  0.38017000  0.76034000  1
  Cu  Cu8  1  0.75010185  0.25013450  0.00005560  1
  Cu  Cu9  1  0.24995376  0.74992110  0.00005560  1
  Cu  Cu10  1  0.74986550  0.75004624  0.99994440  1
  Cu  Cu11  1  0.25007890  0.24989815  0.99994440  1
  C  C12  1  0.50859509  0.98713581  0.50227317  1
  C  C13  1  0.99367808  0.51513736  0.50227317  1
  C  C14  1  0.01286419  0.00632192  0.49772683  1
  C  C15  1  0.48486264  0.49140491  0.49772683  1
  O  O16  1  0.99161353  0.24237347  0.98284745  1
  O  O17  1  0.99123391  0.74047397  0.98284745  1
  O  O18  1  0.75762653  0.00876609  0.01715255  1
  O  O19  1  0.25952603  0.00838647  0.01715255  1
  O  O20  1  0.50928626  0.76001985  0.01901907  1
  O  O21  1  0.50973281  0.25899922  0.01901907  1
  O  O22  1  0.23998015  0.49026719  0.98098093  1
  O  O23  1  0.74100078  0.49071374  0.98098093  1
  O  O24  1  0.07939967  0.97862902  0.63475932  1
  O  O25  1  0.55535965  0.65613029  0.63475932  1
  O  O26  1  0.02137098  0.44464035  0.36524068  1
  O  O27  1  0.34386971  0.92060033  0.36524068  1
  O  O28  1  0.02083670  0.18004973  0.51571460  1
  O  O29  1  0.49487790  0.33566488  0.51571460  1
  O  O30  1  0.81995027  0.50512210  0.48428540  1
  O  O31  1  0.66433512  0.97916330  0.48428540  1
  O  O32  1  0.52099142  0.06234801  0.65817501  1
  O  O33  1  0.13718359  0.59582700  0.65817501  1
  O  O34  1  0.93765199  0.86281641  0.34182499  1
  O  O35  1  0.40417300  0.47900858  0.34182499  1
