# generated using pymatgen
data_H12WC2(S2N)2
_symmetry_space_group_name_H-M   'P 1'
_cell_length_a   7.24544782
_cell_length_b   9.65779287
_cell_length_c   16.23712196
_cell_angle_alpha   90.00000000
_cell_angle_beta   90.00000000
_cell_angle_gamma   90.00000000
_symmetry_Int_Tables_number   1
_chemical_formula_structural   H12WC2(S2N)2
_chemical_formula_sum   'H48 W4 C8 S16 N8'
_cell_volume   1136.19316602
_cell_formula_units_Z   4
loop_
 _symmetry_equiv_pos_site_id
 _symmetry_equiv_pos_as_xyz
  1  'x, y, z'
loop_
 _atom_site_type_symbol
 _atom_site_label
 _atom_site_symmetry_multiplicity
 _atom_site_fract_x
 _atom_site_fract_y
 _atom_site_fract_z
 _atom_site_occupancy
  H  H0  1  0.86488591  0.61549205  0.89448080  1
  H  H1  1  0.63511409  0.11549205  0.60551920  1
  H  H2  1  0.36488591  0.38450795  0.10551920  1
  H  H3  1  0.13511409  0.88450795  0.39448080  1
  H  H4  1  0.13511409  0.38450795  0.10551920  1
  H  H5  1  0.36488591  0.88450795  0.39448080  1
  H  H6  1  0.63511409  0.61549205  0.89448080  1
  H  H7  1  0.86488591  0.11549205  0.60551920  1
  H  H8  1  0.75000000  0.46217050  0.90533324  1
  H  H9  1  0.75000000  0.96217050  0.59466676  1
  H  H10  1  0.25000000  0.53782950  0.09466676  1
  H  H11  1  0.25000000  0.03782950  0.40533324  1
  H  H12  1  0.87284662  0.47841142  0.76831562  1
  H  H13  1  0.62715338  0.97841142  0.73168438  1
  H  H14  1  0.37284662  0.52158858  0.23168438  1
  H  H15  1  0.12715338  0.02158858  0.26831562  1
  H  H16  1  0.12715338  0.52158858  0.23168438  1
  H  H17  1  0.37284662  0.02158858  0.26831562  1
  H  H18  1  0.62715338  0.47841142  0.76831562  1
  H  H19  1  0.87284662  0.97841142  0.73168438  1
  H  H20  1  0.75000000  0.63775202  0.75382675  1
  H  H21  1  0.75000000  0.13775202  0.74617325  1
  H  H22  1  0.25000000  0.36224798  0.24617325  1
  H  H23  1  0.25000000  0.86224798  0.25382675  1
  H  H24  1  0.86517987  0.89164307  0.06996755  1
  H  H25  1  0.63482013  0.39164307  0.43003245  1
  H  H26  1  0.36517987  0.10835693  0.93003245  1
  H  H27  1  0.13482013  0.60835693  0.56996755  1
  H  H28  1  0.13482013  0.10835693  0.93003245  1
  H  H29  1  0.36517987  0.60835693  0.56996755  1
  H  H30  1  0.63482013  0.89164307  0.06996755  1
  H  H31  1  0.86517987  0.39164307  0.43003245  1
  H  H32  1  0.75000000  0.74185502  0.06272489  1
  H  H33  1  0.75000000  0.24185502  0.43727511  1
  H  H34  1  0.25000000  0.25814498  0.93727511  1
  H  H35  1  0.25000000  0.75814498  0.56272489  1
  H  H36  1  0.62614927  0.76988652  0.20131698  1
  H  H37  1  0.87385073  0.26988652  0.29868302  1
  H  H38  1  0.12614927  0.23011348  0.79868302  1
  H  H39  1  0.37385073  0.73011348  0.70131698  1
  H  H40  1  0.37385073  0.23011348  0.79868302  1
  H  H41  1  0.12614927  0.73011348  0.70131698  1
  H  H42  1  0.87385073  0.76988652  0.20131698  1
  H  H43  1  0.62614927  0.26988652  0.29868302  1
  H  H44  1  0.75000000  0.93042174  0.20809009  1
  H  H45  1  0.75000000  0.43042174  0.29190991  1
  H  H46  1  0.25000000  0.06957826  0.79190991  1
  H  H47  1  0.25000000  0.56957826  0.70809009  1
  W  W48  1  0.75000000  0.25849862  0.05035242  1
  W  W49  1  0.75000000  0.75849862  0.44964758  1
  W  W50  1  0.25000000  0.74150138  0.94964758  1
  W  W51  1  0.25000000  0.24150138  0.55035242  1
  C  C52  1  0.75000000  0.53757323  0.78553499  1
  C  C53  1  0.75000000  0.03757323  0.71446501  1
  C  C54  1  0.25000000  0.46242677  0.21446501  1
  C  C55  1  0.25000000  0.96242677  0.28553499  1
  C  C56  1  0.75000000  0.82590240  0.18192912  1
  C  C57  1  0.75000000  0.32590240  0.31807088  1
  C  C58  1  0.25000000  0.17409760  0.81807088  1
  C  C59  1  0.25000000  0.67409760  0.68192912  1
  S  S60  1  0.75000000  0.47925297  0.08601300  1
  S  S61  1  0.75000000  0.97925297  0.41398700  1
  S  S62  1  0.25000000  0.52074703  0.91398700  1
  S  S63  1  0.25000000  0.02074703  0.58601300  1
  S  S64  1  0.75000000  0.23758045  0.91443906  1
  S  S65  1  0.75000000  0.73758045  0.58556094  1
  S  S66  1  0.25000000  0.76241955  0.08556094  1
  S  S67  1  0.25000000  0.26241955  0.41443906  1
  S  S68  1  0.99682408  0.15429313  0.10026541  1
  S  S69  1  0.50317592  0.65429313  0.39973459  1
  S  S70  1  0.49682408  0.84570687  0.89973459  1
  S  S71  1  0.00317592  0.34570687  0.60026541  1
  S  S72  1  0.00317592  0.84570687  0.89973459  1
  S  S73  1  0.49682408  0.34570687  0.60026541  1
  S  S74  1  0.50317592  0.15429313  0.10026541  1
  S  S75  1  0.99682408  0.65429313  0.39973459  1
  N  N76  1  0.75000000  0.55921648  0.87591357  1
  N  N77  1  0.75000000  0.05921648  0.62408643  1
  N  N78  1  0.25000000  0.44078352  0.12408643  1
  N  N79  1  0.25000000  0.94078352  0.37591357  1
  N  N80  1  0.75000000  0.83839007  0.09040402  1
  N  N81  1  0.75000000  0.33839007  0.40959598  1
  N  N82  1  0.25000000  0.16160993  0.90959598  1
  N  N83  1  0.25000000  0.66160993  0.59040402  1
