# generated using pymatgen
data_CaB2(HO)8
_symmetry_space_group_name_H-M   'P 1'
_cell_length_a   5.73407042
_cell_length_b   7.80351641
_cell_length_c   8.26741147
_cell_angle_alpha   64.01293669
_cell_angle_beta   71.46857151
_cell_angle_gamma   72.46179230
_symmetry_Int_Tables_number   1
_chemical_formula_structural   CaB2(HO)8
_chemical_formula_sum   'Ca2 B4 H16 O16'
_cell_volume   309.53442499
_cell_formula_units_Z   2
loop_
 _symmetry_equiv_pos_site_id
 _symmetry_equiv_pos_as_xyz
  1  'x, y, z'
loop_
 _atom_site_type_symbol
 _atom_site_label
 _atom_site_symmetry_multiplicity
 _atom_site_fract_x
 _atom_site_fract_y
 _atom_site_fract_z
 _atom_site_occupancy
  Ca  Ca0  1  0.17266827  0.23422207  0.81427467  1
  Ca  Ca1  1  0.82733173  0.76577793  0.18572533  1
  B  B2  1  0.83259592  0.02197799  0.77719069  1
  B  B3  1  0.16740408  0.97802201  0.22280931  1
  B  B4  1  0.39320431  0.43675324  0.28779903  1
  B  B5  1  0.60679569  0.56324676  0.71220097  1
  H  H6  1  0.42297489  0.05200893  0.29731376  1
  H  H7  1  0.57702511  0.94799107  0.70268624  1
  H  H8  1  0.63275472  0.19625957  0.92621434  1
  H  H9  1  0.36724528  0.80374043  0.07378566  1
  H  H10  1  0.97211614  0.24671814  0.54623042  1
  H  H11  1  0.02788386  0.75328186  0.45376958  1
  H  H12  1  0.12402071  0.79065512  0.80233020  1
  H  H13  1  0.87597929  0.20934488  0.19766980  1
  H  H14  1  0.57027816  0.17253162  0.43763986  1
  H  H15  1  0.42972184  0.82746838  0.56236014  1
  H  H16  1  0.65650083  0.54750538  0.05598823  1
  H  H17  1  0.34349917  0.45249462  0.94401177  1
  H  H18  1  0.36287938  0.56882718  0.46010380  1
  H  H19  1  0.63712062  0.43117282  0.53989620  1
  H  H20  1  0.86143609  0.63401765  0.79442213  1
  H  H21  1  0.13856391  0.36598235  0.20557787  1
  O  O22  1  0.60837225  0.06580030  0.70411452  1
  O  O23  1  0.39162775  0.93419970  0.29588548  1
  O  O24  1  0.76713827  0.07945439  0.93961773  1
  O  O25  1  0.23286173  0.92054561  0.06038227  1
  O  O26  1  0.03496656  0.12429966  0.63836449  1
  O  O27  1  0.96503344  0.87570034  0.36163551  1
  O  O28  1  0.05961188  0.18948287  0.15049400  1
  O  O29  1  0.94038812  0.81051713  0.84950600  1
  O  O30  1  0.53044910  0.23631576  0.31484760  1
  O  O31  1  0.46955090  0.76368424  0.68515240  1
  O  O32  1  0.43305483  0.42096124  0.83464324  1
  O  O33  1  0.56694517  0.57903876  0.16535676  1
  O  O34  1  0.29869568  0.46291647  0.46697807  1
  O  O35  1  0.70130432  0.53708353  0.53302193  1
  O  O36  1  0.18550768  0.48326416  0.19494927  1
  O  O37  1  0.81449232  0.51673584  0.80505073  1
