# generated using pymatgen
data_KH4O4F
_symmetry_space_group_name_H-M   'P 1'
_cell_length_a   6.26046351
_cell_length_b   11.46114729
_cell_length_c   12.24224155
_cell_angle_alpha   90.00000000
_cell_angle_beta   90.00000000
_cell_angle_gamma   90.00000000
_symmetry_Int_Tables_number   1
_chemical_formula_structural   KH4O4F
_chemical_formula_sum   'K8 H32 O32 F8'
_cell_volume   878.40647126
_cell_formula_units_Z   8
loop_
 _symmetry_equiv_pos_site_id
 _symmetry_equiv_pos_as_xyz
  1  'x, y, z'
loop_
 _atom_site_type_symbol
 _atom_site_label
 _atom_site_symmetry_multiplicity
 _atom_site_fract_x
 _atom_site_fract_y
 _atom_site_fract_z
 _atom_site_occupancy
  K  K0  1  0.79750817  0.44986346  0.63058493  1
  K  K1  1  0.70249183  0.94986346  0.36941507  1
  K  K2  1  0.29750817  0.55013654  0.86941507  1
  K  K3  1  0.20249183  0.05013654  0.13058493  1
  K  K4  1  0.20249183  0.55013654  0.36941507  1
  K  K5  1  0.29750817  0.05013654  0.63058493  1
  K  K6  1  0.70249183  0.44986346  0.13058493  1
  K  K7  1  0.79750817  0.94986346  0.86941507  1
  H  H8  1  0.75752900  0.15249452  0.68361764  1
  H  H9  1  0.74247100  0.65249452  0.31638236  1
  H  H10  1  0.25752900  0.84750548  0.81638236  1
  H  H11  1  0.24247100  0.34750548  0.18361764  1
  H  H12  1  0.24247100  0.84750548  0.31638236  1
  H  H13  1  0.25752900  0.34750548  0.68361764  1
  H  H14  1  0.74247100  0.15249452  0.18361764  1
  H  H15  1  0.75752900  0.65249452  0.81638236  1
  H  H16  1  0.91653299  0.36240756  0.87187973  1
  H  H17  1  0.58346701  0.86240756  0.12812027  1
  H  H18  1  0.41653299  0.63759244  0.62812027  1
  H  H19  1  0.08346701  0.13759244  0.37187973  1
  H  H20  1  0.08346701  0.63759244  0.12812027  1
  H  H21  1  0.41653299  0.13759244  0.87187973  1
  H  H22  1  0.58346701  0.36240756  0.37187973  1
  H  H23  1  0.91653299  0.86240756  0.62812027  1
  H  H24  1  0.69841787  0.20468366  0.49296481  1
  H  H25  1  0.80158213  0.70468366  0.50703519  1
  H  H26  1  0.19841787  0.79531634  0.00703519  1
  H  H27  1  0.30158213  0.29531634  0.99296481  1
  H  H28  1  0.30158213  0.79531634  0.50703519  1
  H  H29  1  0.19841787  0.29531634  0.49296481  1
  H  H30  1  0.80158213  0.20468366  0.99296481  1
  H  H31  1  0.69841787  0.70468366  0.00703519  1
  H  H32  1  0.60379395  0.27404854  0.81835772  1
  H  H33  1  0.89620605  0.77404854  0.18164228  1
  H  H34  1  0.10379395  0.72595146  0.68164228  1
  H  H35  1  0.39620605  0.22595146  0.31835772  1
  H  H36  1  0.39620605  0.72595146  0.18164228  1
  H  H37  1  0.10379395  0.22595146  0.81835772  1
  H  H38  1  0.89620605  0.27404854  0.31835772  1
  H  H39  1  0.60379395  0.77404854  0.68164228  1
  O  O40  1  0.85904675  0.15991810  0.62017759  1
  O  O41  1  0.64095325  0.65991810  0.37982241  1
  O  O42  1  0.35904675  0.84008190  0.87982241  1
  O  O43  1  0.14095325  0.34008190  0.12017759  1
  O  O44  1  0.14095325  0.84008190  0.37982241  1
  O  O45  1  0.35904675  0.34008190  0.62017759  1
  O  O46  1  0.64095325  0.15991810  0.12017759  1
  O  O47  1  0.85904675  0.65991810  0.87982241  1
  O  O48  1  0.78974757  0.34992466  0.92224392  1
  O  O49  1  0.71025243  0.84992466  0.07775608  1
  O  O50  1  0.28974757  0.65007534  0.57775608  1
  O  O51  1  0.21025243  0.15007534  0.42224392  1
  O  O52  1  0.21025243  0.65007534  0.07775608  1
  O  O53  1  0.28974757  0.15007534  0.92224392  1
  O  O54  1  0.71025243  0.34992466  0.42224392  1
  O  O55  1  0.78974757  0.84992466  0.57775608  1
  O  O56  1  0.71531181  0.12789479  0.53021005  1
  O  O57  1  0.78468819  0.62789479  0.46978995  1
  O  O58  1  0.21531181  0.87210521  0.96978995  1
  O  O59  1  0.28468819  0.37210521  0.03021005  1
  O  O60  1  0.28468819  0.87210521  0.46978995  1
  O  O61  1  0.21531181  0.37210521  0.53021005  1
  O  O62  1  0.78468819  0.12789479  0.03021005  1
  O  O63  1  0.71531181  0.62789479  0.96978995  1
  O  O64  1  0.61520913  0.35817206  0.84256926  1
  O  O65  1  0.88479087  0.85817206  0.15743074  1
  O  O66  1  0.11520913  0.64182794  0.65743074  1
  O  O67  1  0.38479087  0.14182794  0.34256926  1
  O  O68  1  0.38479087  0.64182794  0.15743074  1
  O  O69  1  0.11520913  0.14182794  0.84256926  1
  O  O70  1  0.88479087  0.35817206  0.34256926  1
  O  O71  1  0.61520913  0.85817206  0.65743074  1
  F  F72  1  0.59325279  0.14140211  0.78160103  1
  F  F73  1  0.90674721  0.64140211  0.21839897  1
  F  F74  1  0.09325279  0.85859789  0.71839897  1
  F  F75  1  0.40674721  0.35859789  0.28160103  1
  F  F76  1  0.40674721  0.85859789  0.21839897  1
  F  F77  1  0.09325279  0.35859789  0.78160103  1
  F  F78  1  0.90674721  0.14140211  0.28160103  1
  F  F79  1  0.59325279  0.64140211  0.71839897  1
