# generated using pymatgen
data_Mn(BO2)2
_symmetry_space_group_name_H-M   'P 1'
_cell_length_a   7.17947811
_cell_length_b   7.54832987
_cell_length_c   8.88755360
_cell_angle_alpha   90.00000000
_cell_angle_beta   94.07134590
_cell_angle_gamma   90.00000000
_symmetry_Int_Tables_number   1
_chemical_formula_structural   Mn(BO2)2
_chemical_formula_sum   'Mn8 B16 O32'
_cell_volume   480.42833690
_cell_formula_units_Z   8
loop_
 _symmetry_equiv_pos_site_id
 _symmetry_equiv_pos_as_xyz
  1  'x, y, z'
loop_
 _atom_site_type_symbol
 _atom_site_label
 _atom_site_symmetry_multiplicity
 _atom_site_fract_x
 _atom_site_fract_y
 _atom_site_fract_z
 _atom_site_occupancy
  Mn  Mn0  1  0.99655160  0.28705288  0.62581653  1
  Mn  Mn1  1  0.00344840  0.78705288  0.87418347  1
  Mn  Mn2  1  0.00344840  0.71294712  0.37418347  1
  Mn  Mn3  1  0.99655160  0.21294712  0.12581653  1
  Mn  Mn4  1  0.46835875  0.24443374  0.64430233  1
  Mn  Mn5  1  0.53164125  0.74443374  0.85569767  1
  Mn  Mn6  1  0.53164125  0.75556626  0.35569767  1
  Mn  Mn7  1  0.46835875  0.25556626  0.14430233  1
  B  B8  1  0.69830145  0.39917208  0.37987182  1
  B  B9  1  0.30169855  0.89917208  0.12012818  1
  B  B10  1  0.30169855  0.60082792  0.62012818  1
  B  B11  1  0.69830145  0.10082792  0.87987182  1
  B  B12  1  0.68817439  0.59761557  0.61572878  1
  B  B13  1  0.31182561  0.09761557  0.88427122  1
  B  B14  1  0.31182561  0.40238443  0.38427122  1
  B  B15  1  0.68817439  0.90238443  0.11572878  1
  B  B16  1  0.20607561  0.06368523  0.36864340  1
  B  B17  1  0.79392439  0.56368523  0.13135660  1
  B  B18  1  0.79392439  0.93631477  0.63135660  1
  B  B19  1  0.20607561  0.43631477  0.86864340  1
  B  B20  1  0.81777848  0.06745873  0.36211317  1
  B  B21  1  0.18222152  0.56745873  0.13788683  1
  B  B22  1  0.18222152  0.93254127  0.63788683  1
  B  B23  1  0.81777848  0.43254127  0.86211317  1
  O  O24  1  0.22203253  0.25173204  0.80719801  1
  O  O25  1  0.77796747  0.75173204  0.69280199  1
  O  O26  1  0.77796747  0.74826796  0.19280199  1
  O  O27  1  0.22203253  0.24826796  0.30719801  1
  O  O28  1  0.23010913  0.44203467  0.53134653  1
  O  O29  1  0.76989087  0.94203467  0.96865347  1
  O  O30  1  0.76989087  0.55796533  0.46865347  1
  O  O31  1  0.23010913  0.05796533  0.03134653  1
  O  O32  1  0.51109765  0.34297347  0.42156831  1
  O  O33  1  0.48890235  0.84297347  0.07843169  1
  O  O34  1  0.48890235  0.65702653  0.57843169  1
  O  O35  1  0.51109765  0.15702653  0.92156831  1
  O  O36  1  0.01031495  0.49609922  0.82793667  1
  O  O37  1  0.98968505  0.99609922  0.67206333  1
  O  O38  1  0.98968505  0.50390078  0.17206333  1
  O  O39  1  0.01031495  0.00390078  0.32793667  1
  O  O40  1  0.83225518  0.25168255  0.41724084  1
  O  O41  1  0.16774482  0.75168255  0.08275916  1
  O  O42  1  0.16774482  0.74831745  0.58275916  1
  O  O43  1  0.83225518  0.24831745  0.91724084  1
  O  O44  1  0.67591051  0.05667020  0.71671346  1
  O  O45  1  0.32408949  0.55667020  0.78328654  1
  O  O46  1  0.32408949  0.94332980  0.28328654  1
  O  O47  1  0.67591051  0.44332980  0.21671346  1
  O  O48  1  0.70319330  0.43831048  0.71406882  1
  O  O49  1  0.29680670  0.93831048  0.78593118  1
  O  O50  1  0.29680670  0.56168952  0.28593118  1
  O  O51  1  0.70319330  0.06168952  0.21406882  1
  O  O52  1  0.26003493  0.05839078  0.53079386  1
  O  O53  1  0.73996507  0.55839078  0.96920614  1
  O  O54  1  0.73996507  0.94160922  0.46920614  1
  O  O55  1  0.26003493  0.44160922  0.03079386  1
