# generated using pymatgen
data_Ba3Ge2B7H3O20
_symmetry_space_group_name_H-M   'P 1'
_cell_length_a   8.65216401
_cell_length_b   8.67081036
_cell_length_c   13.36228569
_cell_angle_alpha   74.44867168
_cell_angle_beta   71.10994831
_cell_angle_gamma   60.07111166
_symmetry_Int_Tables_number   1
_chemical_formula_structural   Ba3Ge2B7H3O20
_chemical_formula_sum   'Ba6 Ge4 B14 H6 O40'
_cell_volume   815.01040995
_cell_formula_units_Z   2
loop_
 _symmetry_equiv_pos_site_id
 _symmetry_equiv_pos_as_xyz
  1  'x, y, z'
loop_
 _atom_site_type_symbol
 _atom_site_label
 _atom_site_symmetry_multiplicity
 _atom_site_fract_x
 _atom_site_fract_y
 _atom_site_fract_z
 _atom_site_occupancy
  Ba  Ba0  1  0.91140845  0.98537647  0.99604907  1
  Ba  Ba1  1  0.10716601  0.48537647  0.49604907  1
  Ba  Ba2  1  0.78196392  0.51241074  0.05352612  1
  Ba  Ba3  1  0.65209922  0.01241074  0.55352612  1
  Ba  Ba4  1  0.38309208  0.44534829  0.93959227  1
  Ba  Ba5  1  0.23196736  0.94534829  0.43959227  1
  Ge  Ge6  1  0.04204729  0.47093552  0.24065886  1
  Ge  Ge7  1  0.24635834  0.97093552  0.74065886  1
  Ge  Ge8  1  0.97728180  0.99574032  0.25242391  1
  Ge  Ge9  1  0.77455397  0.49574032  0.75242391  1
  B  B10  1  0.19609141  0.16790011  0.12282729  1
  B  B11  1  0.51318119  0.66790011  0.62282729  1
  B  B12  1  0.50676921  0.79936353  0.87028001  1
  B  B13  1  0.82358725  0.29936353  0.37028001  1
  B  B14  1  0.49720805  0.98234026  0.99725029  1
  B  B15  1  0.52320140  0.48234026  0.49725029  1
  B  B16  1  0.14663126  0.32440123  0.77531816  1
  B  B17  1  0.75364934  0.82440123  0.27531816  1
  B  B18  1  0.26484454  0.64286411  0.21904613  1
  B  B19  1  0.87324523  0.14286411  0.71904613  1
  B  B20  1  0.53669140  0.50630604  0.30484927  1
  B  B21  1  0.65215330  0.00630604  0.80484927  1
  B  B22  1  0.36839249  0.46007850  0.68972132  1
  B  B23  1  0.48180770  0.96007850  0.18972132  1
  H  H24  1  0.32025816  0.76073137  0.06656973  1
  H  H25  1  0.85244074  0.26073137  0.56656973  1
  H  H26  1  0.16749783  0.20681321  0.92772763  1
  H  H27  1  0.69796134  0.70681321  0.42772763  1
  H  H28  1  0.59591772  0.26469323  0.13441649  1
  H  H29  1  0.00497255  0.76469323  0.63441649  1
  O  O30  1  0.11770934  0.36657473  0.12385896  1
  O  O31  1  0.39185697  0.86657473  0.62385896  1
  O  O32  1  0.21592405  0.49236520  0.26848132  1
  O  O33  1  0.02322942  0.99236520  0.76848132  1
  O  O34  1  0.46060979  0.57293030  0.21763496  1
  O  O35  1  0.74882495  0.07293030  0.71763496  1
  O  O36  1  0.15402227  0.78758854  0.29002186  1
  O  O37  1  0.76836733  0.28758854  0.79002186  1
  O  O38  1  0.23796104  0.70565085  0.10876749  1
  O  O39  1  0.94762062  0.20565085  0.60876749  1
  O  O40  1  0.27201019  0.39320048  0.77709159  1
  O  O41  1  0.55769774  0.89320048  0.27709159  1
  O  O42  1  0.86514634  0.67982648  0.20410981  1
  O  O43  1  0.25091736  0.17982648  0.70410981  1
  O  O44  1  0.58864371  0.90263936  0.78482378  1
  O  O45  1  0.72389315  0.40263936  0.28482378  1
  O  O46  1  0.32349864  0.84095089  0.85813778  1
  O  O47  1  0.97741269  0.34095089  0.35813778  1
  O  O48  1  0.61734122  0.04263995  0.90641260  1
  O  O49  1  0.43360623  0.54263995  0.40641260  1
  O  O50  1  0.07220569  0.26159517  0.88565740  1
  O  O51  1  0.78054173  0.76159517  0.38565740  1
  O  O52  1  0.80231716  0.97488596  0.22562892  1
  O  O53  1  0.99716797  0.47488596  0.72562892  1
  O  O54  1  0.42994772  0.56634935  0.70886031  1
  O  O55  1  0.29484263  0.06634935  0.20886031  1
  O  O56  1  0.40441387  0.42168090  0.58852468  1
  O  O57  1  0.58538055  0.92168090  0.08852468  1
  O  O58  1  0.62876271  0.60167725  0.86840013  1
  O  O59  1  0.90115990  0.10167725  0.36840013  1
  O  O60  1  0.04199816  0.12625271  0.13513905  1
  O  O61  1  0.69661007  0.62625271  0.63513905  1
  O  O62  1  0.31550615  0.13648703  0.01654885  1
  O  O63  1  0.53145797  0.63648703  0.51654885  1
  O  O64  1  0.48853036  0.82917342  0.97711262  1
  O  O65  1  0.70518360  0.32917342  0.47711262  1
  O  O66  1  0.64103793  0.29235223  0.05834629  1
  O  O67  1  0.00826355  0.79235223  0.55834629  1
  O  O68  1  0.01510404  0.66552623  0.94073506  1
  O  O69  1  0.37863466  0.16552623  0.44073506  1
