# generated using pymatgen
data_NdMoI4O15
_symmetry_space_group_name_H-M   'P 1'
_cell_length_a   7.07575295
_cell_length_b   7.24442458
_cell_length_c   14.22912853
_cell_angle_alpha   90.00000000
_cell_angle_beta   90.00000000
_cell_angle_gamma   114.09457614
_symmetry_Int_Tables_number   1
_chemical_formula_structural   NdMoI4O15
_chemical_formula_sum   'Nd2 Mo2 I8 O30'
_cell_volume   665.83272826
_cell_formula_units_Z   2
loop_
 _symmetry_equiv_pos_site_id
 _symmetry_equiv_pos_as_xyz
  1  'x, y, z'
loop_
 _atom_site_type_symbol
 _atom_site_label
 _atom_site_symmetry_multiplicity
 _atom_site_fract_x
 _atom_site_fract_y
 _atom_site_fract_z
 _atom_site_occupancy
  Nd  Nd0  1  0.91791377  0.56900304  0.55945844  1
  Nd  Nd1  1  0.08208623  0.43099696  0.05945844  1
  Mo  Mo2  1  0.41513171  0.21648281  0.72803824  1
  Mo  Mo3  1  0.58486829  0.78351719  0.22803824  1
  I  I4  1  0.47787533  0.24296254  0.97026137  1
  I  I5  1  0.52212467  0.75703746  0.47026137  1
  I  I6  1  0.23774125  0.69826581  0.80946457  1
  I  I7  1  0.76225875  0.30173419  0.30946457  1
  I  I8  1  0.85155884  0.04495656  0.68941077  1
  I  I9  1  0.14844116  0.95504344  0.18941077  1
  I  I10  1  0.24211416  0.13120303  0.46487572  1
  I  I11  1  0.75788584  0.86879697  0.96487572  1
  O  O12  1  0.59611768  0.29037762  0.85059285  1
  O  O13  1  0.40388232  0.70962238  0.35059285  1
  O  O14  1  0.71449376  0.35628467  0.03741149  1
  O  O15  1  0.28550624  0.64371533  0.53741149  1
  O  O16  1  0.40187137  0.45822743  0.97274913  1
  O  O17  1  0.59812863  0.54177257  0.47274913  1
  O  O18  1  0.23417757  0.95623309  0.81596431  1
  O  O19  1  0.76582243  0.04376691  0.31596431  1
  O  O20  1  0.07386579  0.59109221  0.91035325  1
  O  O21  1  0.92613421  0.40890779  0.41035325  1
  O  O22  1  0.04683037  0.60275800  0.71697628  1
  O  O23  1  0.95316963  0.39724200  0.21697628  1
  O  O24  1  0.58197564  0.01106920  0.71525389  1
  O  O25  1  0.41802436  0.98893080  0.21525389  1
  O  O26  1  0.77119353  0.81147176  0.62200392  1
  O  O27  1  0.22880647  0.18852824  0.12200392  1
  O  O28  1  0.90860668  0.22493655  0.59215977  1
  O  O29  1  0.09139332  0.77506345  0.09215977  1
  O  O30  1  0.48220444  0.09162321  0.46443058  1
  O  O31  1  0.51779556  0.90837679  0.96443058  1
  O  O32  1  0.24569060  0.20106592  0.34034495  1
  O  O33  1  0.75430940  0.79893408  0.84034495  1
  O  O34  1  0.03951813  0.87611282  0.45867008  1
  O  O35  1  0.96048187  0.12388718  0.95867008  1
  O  O36  1  0.23132654  0.06518994  0.63255071  1
  O  O37  1  0.76867346  0.93481006  0.13255071  1
  O  O38  1  0.61051036  0.39131007  0.65764834  1
  O  O39  1  0.38948964  0.60868993  0.15764834  1
  O  O40  1  0.26822258  0.34680799  0.76882134  1
  O  O41  1  0.73177742  0.65319201  0.26882134  1
