# generated using pymatgen
data_Pd(N3O7)2
_symmetry_space_group_name_H-M   'P 1'
_cell_length_a   7.79440808
_cell_length_b   8.31779626
_cell_length_c   9.21713710
_cell_angle_alpha   99.52710171
_cell_angle_beta   90.00000000
_cell_angle_gamma   90.00000000
_symmetry_Int_Tables_number   1
_chemical_formula_structural   Pd(N3O7)2
_chemical_formula_sum   'Pd2 N12 O28'
_cell_volume   589.32617689
_cell_formula_units_Z   2
loop_
 _symmetry_equiv_pos_site_id
 _symmetry_equiv_pos_as_xyz
  1  'x, y, z'
loop_
 _atom_site_type_symbol
 _atom_site_label
 _atom_site_symmetry_multiplicity
 _atom_site_fract_x
 _atom_site_fract_y
 _atom_site_fract_z
 _atom_site_occupancy
  Pd  Pd0  1  0.50000000  -0.00000000  -0.00000000  1
  Pd  Pd1  1  0.00000000  -0.00000000  0.50000000  1
  N  N2  1  0.42677223  0.72524303  0.36669788  1
  N  N3  1  0.92677223  0.27475697  0.13330212  1
  N  N4  1  0.57322777  0.27475697  0.63330212  1
  N  N5  1  0.07322777  0.72524303  0.86669788  1
  N  N6  1  0.64968981  0.69013232  0.03210594  1
  N  N7  1  0.14968981  0.30986768  0.46789406  1
  N  N8  1  0.35031019  0.30986768  0.96789406  1
  N  N9  1  0.85031019  0.69013232  0.53210594  1
  N  N10  1  0.56434827  0.17595368  0.29075860  1
  N  N11  1  0.06434827  0.82404632  0.20924140  1
  N  N12  1  0.43565173  0.82404632  0.70924140  1
  N  N13  1  0.93565173  0.17595368  0.79075860  1
  O  O14  1  0.71916663  0.70930178  0.91521266  1
  O  O15  1  0.21916663  0.29069822  0.58478734  1
  O  O16  1  0.28083337  0.29069822  0.08478734  1
  O  O17  1  0.78083337  0.70930178  0.41521266  1
  O  O18  1  0.63266270  0.15771217  0.15635861  1
  O  O19  1  0.13266270  0.84228783  0.34364139  1
  O  O20  1  0.36733730  0.84228783  0.84364139  1
  O  O21  1  0.86733730  0.15771217  0.65635861  1
  O  O22  1  0.66435736  0.56707482  0.09126208  1
  O  O23  1  0.16435736  0.43292518  0.40873792  1
  O  O24  1  0.33564264  0.43292518  0.90873792  1
  O  O25  1  0.83564264  0.56707482  0.59126208  1
  O  O26  1  0.43135452  0.59658449  0.30876514  1
  O  O27  1  0.93135452  0.40341551  0.19123486  1
  O  O28  1  0.56864548  0.40341551  0.69123486  1
  O  O29  1  0.06864548  0.59658449  0.80876514  1
  O  O30  1  0.44347109  0.08959501  0.31540873  1
  O  O31  1  0.94347109  0.91040499  0.18459127  1
  O  O32  1  0.55652891  0.91040499  0.68459127  1
  O  O33  1  0.05652891  0.08959501  0.81540873  1
  O  O34  1  0.55037446  0.80776668  0.10334849  1
  O  O35  1  0.05037446  0.19223332  0.39665151  1
  O  O36  1  0.44962554  0.19223332  0.89665151  1
  O  O37  1  0.94962554  0.80776668  0.60334849  1
  O  O38  1  0.63232786  0.28592606  0.38281914  1
  O  O39  1  0.13232786  0.71407394  0.11718086  1
  O  O40  1  0.36767214  0.71407394  0.61718086  1
  O  O41  1  0.86767214  0.28592606  0.88281914  1
