# generated using pymatgen
data_U3Te5
_symmetry_space_group_name_H-M   'P 1'
_cell_length_a   8.33348786
_cell_length_b   8.79990808
_cell_length_c   13.20709328
_cell_angle_alpha   90.00000000
_cell_angle_beta   90.00000000
_cell_angle_gamma   90.00000000
_symmetry_Int_Tables_number   1
_chemical_formula_structural   U3Te5
_chemical_formula_sum   'U12 Te20'
_cell_volume   968.52801651
_cell_formula_units_Z   4
loop_
 _symmetry_equiv_pos_site_id
 _symmetry_equiv_pos_as_xyz
  1  'x, y, z'
loop_
 _atom_site_type_symbol
 _atom_site_label
 _atom_site_symmetry_multiplicity
 _atom_site_fract_x
 _atom_site_fract_y
 _atom_site_fract_z
 _atom_site_occupancy
  U  U0  1  0.02536631  0.99679811  0.81886940  1
  U  U1  1  0.47463369  0.50320189  0.31886940  1
  U  U2  1  0.97463369  0.49679811  0.18113060  1
  U  U3  1  0.52536631  0.00320189  0.68113060  1
  U  U4  1  0.97463369  0.00320189  0.18113060  1
  U  U5  1  0.52536631  0.49679811  0.68113060  1
  U  U6  1  0.02536631  0.50320189  0.81886940  1
  U  U7  1  0.47463369  0.99679811  0.31886940  1
  U  U8  1  0.58200206  0.25000000  0.99444294  1
  U  U9  1  0.91799794  0.25000000  0.49444294  1
  U  U10  1  0.41799794  0.75000000  0.00555706  1
  U  U11  1  0.08200206  0.75000000  0.50555706  1
  Te  Te12  1  0.32924848  0.45116167  0.09910964  1
  Te  Te13  1  0.17075152  0.04883833  0.59910964  1
  Te  Te14  1  0.67075152  0.95116167  0.90089036  1
  Te  Te15  1  0.82924848  0.54883833  0.40089036  1
  Te  Te16  1  0.67075152  0.54883833  0.90089036  1
  Te  Te17  1  0.82924848  0.95116167  0.40089036  1
  Te  Te18  1  0.32924848  0.04883833  0.09910964  1
  Te  Te19  1  0.17075152  0.45116167  0.59910964  1
  Te  Te20  1  0.32891028  0.25000000  0.81878084  1
  Te  Te21  1  0.17108972  0.25000000  0.31878084  1
  Te  Te22  1  0.67108972  0.75000000  0.18121916  1
  Te  Te23  1  0.82891028  0.75000000  0.68121916  1
  Te  Te24  1  0.96363588  0.25000000  0.99962074  1
  Te  Te25  1  0.53636412  0.25000000  0.49962074  1
  Te  Te26  1  0.03636412  0.75000000  0.00037926  1
  Te  Te27  1  0.46363588  0.75000000  0.50037926  1
  Te  Te28  1  0.69828734  0.25000000  0.21862354  1
  Te  Te29  1  0.80171266  0.25000000  0.71862354  1
  Te  Te30  1  0.30171266  0.75000000  0.78137646  1
  Te  Te31  1  0.19828734  0.75000000  0.28137646  1
