# generated using pymatgen
data_Yb5Sn4
_symmetry_space_group_name_H-M   'P 1'
_cell_length_a   7.97394497
_cell_length_b   8.42037576
_cell_length_c   16.42755416
_cell_angle_alpha   90.00000000
_cell_angle_beta   90.00000000
_cell_angle_gamma   90.00000000
_symmetry_Int_Tables_number   1
_chemical_formula_structural   Yb5Sn4
_chemical_formula_sum   'Yb20 Sn16'
_cell_volume   1103.00533802
_cell_formula_units_Z   4
loop_
 _symmetry_equiv_pos_site_id
 _symmetry_equiv_pos_as_xyz
  1  'x, y, z'
loop_
 _atom_site_type_symbol
 _atom_site_label
 _atom_site_symmetry_multiplicity
 _atom_site_fract_x
 _atom_site_fract_y
 _atom_site_fract_z
 _atom_site_occupancy
  Yb  Yb0  1  0.35376986  0.82112229  0.87596694  1
  Yb  Yb1  1  0.85376986  0.67887771  0.62403306  1
  Yb  Yb2  1  0.64623014  0.17887771  0.37596694  1
  Yb  Yb3  1  0.14623014  0.32112229  0.12403306  1
  Yb  Yb4  1  0.64623014  0.17887771  0.12403306  1
  Yb  Yb5  1  0.14623014  0.32112229  0.37596694  1
  Yb  Yb6  1  0.35376986  0.82112229  0.62403306  1
  Yb  Yb7  1  0.85376986  0.67887771  0.87596694  1
  Yb  Yb8  1  0.51721819  0.31775475  0.90131824  1
  Yb  Yb9  1  0.01721819  0.18224525  0.59868176  1
  Yb  Yb10  1  0.48278181  0.68224525  0.40131824  1
  Yb  Yb11  1  0.98278181  0.81775475  0.09868176  1
  Yb  Yb12  1  0.48278181  0.68224525  0.09868176  1
  Yb  Yb13  1  0.98278181  0.81775475  0.40131824  1
  Yb  Yb14  1  0.51721819  0.31775475  0.59868176  1
  Yb  Yb15  1  0.01721819  0.18224525  0.90131824  1
  Yb  Yb16  1  0.18334606  0.50102094  0.75000000  1
  Yb  Yb17  1  0.68334606  0.99897906  0.75000000  1
  Yb  Yb18  1  0.81665394  0.49897906  0.25000000  1
  Yb  Yb19  1  0.31665394  0.00102094  0.25000000  1
  Sn  Sn20  1  0.32169210  0.02637337  0.03579789  1
  Sn  Sn21  1  0.82169210  0.47362663  0.46420211  1
  Sn  Sn22  1  0.67830790  0.97362663  0.53579789  1
  Sn  Sn23  1  0.17830790  0.52637337  0.96420211  1
  Sn  Sn24  1  0.67830790  0.97362663  0.96420211  1
  Sn  Sn25  1  0.17830790  0.52637337  0.53579789  1
  Sn  Sn26  1  0.32169210  0.02637337  0.46420211  1
  Sn  Sn27  1  0.82169210  0.47362663  0.03579789  1
  Sn  Sn28  1  0.55894634  0.60899674  0.75000000  1
  Sn  Sn29  1  0.05894634  0.89100326  0.75000000  1
  Sn  Sn30  1  0.44105366  0.39100326  0.25000000  1
  Sn  Sn31  1  0.94105366  0.10899674  0.25000000  1
  Sn  Sn32  1  0.30922643  0.13851140  0.75000000  1
  Sn  Sn33  1  0.80922643  0.36148860  0.75000000  1
  Sn  Sn34  1  0.69077357  0.86148860  0.25000000  1
  Sn  Sn35  1  0.19077357  0.63851140  0.25000000  1
