# generated using pymatgen
data_SiH12C4(N5F3)2
_symmetry_space_group_name_H-M   'P 1'
_cell_length_a   6.19178695
_cell_length_b   7.89862316
_cell_length_c   7.82681233
_cell_angle_alpha   104.62388842
_cell_angle_beta   105.96850811
_cell_angle_gamma   108.51492110
_symmetry_Int_Tables_number   1
_chemical_formula_structural   SiH12C4(N5F3)2
_chemical_formula_sum   'Si1 H12 C4 N10 F6'
_cell_volume   323.81264169
_cell_formula_units_Z   1
loop_
 _symmetry_equiv_pos_site_id
 _symmetry_equiv_pos_as_xyz
  1  'x, y, z'
loop_
 _atom_site_type_symbol
 _atom_site_label
 _atom_site_symmetry_multiplicity
 _atom_site_fract_x
 _atom_site_fract_y
 _atom_site_fract_z
 _atom_site_occupancy
  Si  Si0  1  0.00000000  0.50000000  0.00000000  1
  H  H1  1  0.51536592  0.44138420  0.67130397  1
  H  H2  1  0.48463408  0.55861580  0.32869603  1
  H  H3  1  0.31473535  0.50943858  0.75355528  1
  H  H4  1  0.68526465  0.49056142  0.24644472  1
  H  H5  1  0.42434576  0.87635994  0.13339060  1
  H  H6  1  0.57565424  0.12364006  0.86660940  1
  H  H7  1  0.41741552  0.07395975  0.29324352  1
  H  H8  1  0.58258448  0.92604025  0.70675648  1
  H  H9  1  0.85763959  0.32774166  0.56240369  1
  H  H10  1  0.14236041  0.67225834  0.43759631  1
  H  H11  1  0.87858295  0.89887089  0.14798198  1
  H  H12  1  0.12141705  0.10112911  0.85201802  1
  C  C13  1  0.15400913  0.28610550  0.49562739  1
  C  C14  1  0.84599087  0.71389450  0.50437261  1
  C  C15  1  0.76308895  0.09140504  0.30802882  1
  C  C16  1  0.23691105  0.90859496  0.69197118  1
  N  N17  1  0.16415241  0.14675159  0.36654613  1
  N  N18  1  0.83584759  0.85324841  0.63345387  1
  N  N19  1  0.34535686  0.44392614  0.63741916  1
  N  N20  1  0.65464314  0.55607386  0.36258084  1
  N  N21  1  0.51757299  0.01472937  0.23205158  1
  N  N22  1  0.48242701  0.98527063  0.76794842  1
  N  N23  1  0.91161504  0.25766208  0.46290376  1
  N  N24  1  0.08838496  0.74233792  0.53709624  1
  N  N25  1  0.91689710  0.02805888  0.24861932  1
  N  N26  1  0.08310290  0.97194112  0.75138068  1
  F  F27  1  0.82852047  0.43876288  0.76058139  1
  F  F28  1  0.17147953  0.56123712  0.23941861  1
  F  F29  1  0.94138624  0.69989783  0.05502195  1
  F  F30  1  0.05861376  0.30010217  0.94497805  1
  F  F31  1  0.26100747  0.62826162  0.97074571  1
  F  F32  1  0.73899253  0.37173838  0.02925429  1
