# generated using pymatgen
data_K3HS3O5
_symmetry_space_group_name_H-M   'P 1'
_cell_length_a   6.18728174
_cell_length_b   9.67336078
_cell_length_c   31.04441689
_cell_angle_alpha   98.85919728
_cell_angle_beta   90.00000000
_cell_angle_gamma   90.00000000
_symmetry_Int_Tables_number   1
_chemical_formula_structural   K3HS3O5
_chemical_formula_sum   'K24 H8 S24 O40'
_cell_volume   1835.89739837
_cell_formula_units_Z   8
loop_
 _symmetry_equiv_pos_site_id
 _symmetry_equiv_pos_as_xyz
  1  'x, y, z'
loop_
 _atom_site_type_symbol
 _atom_site_label
 _atom_site_symmetry_multiplicity
 _atom_site_fract_x
 _atom_site_fract_y
 _atom_site_fract_z
 _atom_site_occupancy
  K  K0  1  0.63908742  0.08721092  0.40629928  1
  K  K1  1  0.13908742  0.91278908  0.09370072  1
  K  K2  1  0.36091258  0.91278908  0.59370072  1
  K  K3  1  0.86091258  0.08721092  0.90629928  1
  K  K4  1  0.07727586  0.24985482  0.22691423  1
  K  K5  1  0.57727586  0.75014518  0.27308577  1
  K  K6  1  0.92272414  0.75014518  0.77308577  1
  K  K7  1  0.42272414  0.24985482  0.72691423  1
  K  K8  1  0.10588225  0.01492358  0.32753974  1
  K  K9  1  0.60588225  0.98507642  0.17246026  1
  K  K10  1  0.89411775  0.98507642  0.67246026  1
  K  K11  1  0.39411775  0.01492358  0.82753974  1
  K  K12  1  0.82423071  0.18906645  0.53608719  1
  K  K13  1  0.32423071  0.81093355  0.96391281  1
  K  K14  1  0.17576929  0.81093355  0.46391281  1
  K  K15  1  0.67576929  0.18906645  0.03608719  1
  K  K16  1  0.25270071  0.44127961  0.34759455  1
  K  K17  1  0.75270071  0.55872039  0.15240545  1
  K  K18  1  0.74729929  0.55872039  0.65240545  1
  K  K19  1  0.24729929  0.44127961  0.84759455  1
  K  K20  1  0.69782730  0.50963956  0.44760168  1
  K  K21  1  0.19782730  0.49036044  0.05239832  1
  K  K22  1  0.30217270  0.49036044  0.55239832  1
  K  K23  1  0.80217270  0.50963956  0.94760168  1
  H  H24  1  0.20758043  0.56755370  0.23563883  1
  H  H25  1  0.70758043  0.43244630  0.26436117  1
  H  H26  1  0.79241957  0.43244630  0.76436117  1
  H  H27  1  0.29241957  0.56755370  0.73563883  1
  H  H28  1  0.09919700  0.60797387  0.28135404  1
  H  H29  1  0.59919700  0.39202613  0.21864596  1
  H  H30  1  0.90080300  0.39202613  0.71864596  1
  H  H31  1  0.40080300  0.60797387  0.78135404  1
  S  S32  1  0.53887166  0.73564155  0.37954473  1
  S  S33  1  0.03887166  0.26435845  0.12045527  1
  S  S34  1  0.46112834  0.26435845  0.62045527  1
  S  S35  1  0.96112834  0.73564155  0.87954473  1
  S  S36  1  0.31769365  0.16402804  0.49030476  1
  S  S37  1  0.81769365  0.83597196  0.00969524  1
  S  S38  1  0.68230635  0.83597196  0.50969524  1
  S  S39  1  0.18230635  0.16402804  0.99030476  1
  S  S40  1  0.74780624  0.32111738  0.33058651  1
  S  S41  1  0.24780624  0.67888262  0.16941349  1
  S  S42  1  0.25219376  0.67888262  0.66941349  1
  S  S43  1  0.75219376  0.32111738  0.83058651  1
  S  S44  1  0.86577626  0.74160989  0.37341170  1
  S  S45  1  0.36577626  0.25839011  0.12658830  1
  S  S46  1  0.13422374  0.25839011  0.62658830  1
  S  S47  1  0.63422374  0.74160989  0.87341170  1
  S  S48  1  0.17580868  0.28097669  0.44851170  1
  S  S49  1  0.67580868  0.71902331  0.05148830  1
  S  S50  1  0.82419132  0.71902331  0.55148830  1
  S  S51  1  0.32419132  0.28097669  0.94851170  1
  S  S52  1  0.58923512  0.15882176  0.29434273  1
  S  S53  1  0.08923512  0.84117824  0.20565727  1
  S  S54  1  0.41076488  0.84117824  0.70565727  1
  S  S55  1  0.91076488  0.15882176  0.79434273  1
  O  O56  1  0.92348697  0.71777628  0.32637277  1
  O  O57  1  0.42348697  0.28222372  0.17362723  1
  O  O58  1  0.07651303  0.28222372  0.67362723  1
  O  O59  1  0.57651303  0.71777628  0.82637277  1
  O  O60  1  0.94269661  0.88282827  0.39414041  1
  O  O61  1  0.44269661  0.11717173  0.10585959  1
  O  O62  1  0.05730339  0.11717173  0.60585959  1
  O  O63  1  0.55730339  0.88282827  0.89414041  1
  O  O64  1  0.96534796  0.63282361  0.39637670  1
  O  O65  1  0.46534796  0.36717639  0.10362330  1
  O  O66  1  0.03465204  0.36717639  0.60362330  1
  O  O67  1  0.53465204  0.63282361  0.89637670  1
  O  O68  1  0.23792722  0.22538793  0.40293405  1
  O  O69  1  0.73792722  0.77461207  0.09706595  1
  O  O70  1  0.76207278  0.77461207  0.59706595  1
  O  O71  1  0.26207278  0.22538793  0.90293405  1
  O  O72  1  0.93670600  0.27244138  0.45466234  1
  O  O73  1  0.43670600  0.72755862  0.04533766  1
  O  O74  1  0.06329400  0.72755862  0.54533766  1
  O  O75  1  0.56329400  0.27244138  0.95466234  1
  O  O76  1  0.25154991  0.42830607  0.46047404  1
  O  O77  1  0.75154991  0.57169393  0.03952596  1
  O  O78  1  0.74845009  0.57169393  0.53952596  1
  O  O79  1  0.24845009  0.42830607  0.96047404  1
  O  O80  1  0.69678893  0.12762627  0.25144979  1
  O  O81  1  0.19678893  0.87237373  0.24855021  1
  O  O82  1  0.30321107  0.87237373  0.74855021  1
  O  O83  1  0.80321107  0.12762627  0.75144979  1
  O  O84  1  0.59866197  0.03538863  0.31788540  1
  O  O85  1  0.09866197  0.96461137  0.18211460  1
  O  O86  1  0.40133803  0.96461137  0.68211460  1
  O  O87  1  0.90133803  0.03538863  0.81788540  1
  O  O88  1  0.36021932  0.20210447  0.29004386  1
  O  O89  1  0.86021932  0.79789553  0.20995614  1
  O  O90  1  0.63978068  0.79789553  0.70995614  1
  O  O91  1  0.13978068  0.20210447  0.79004386  1
  O  O92  1  0.20291758  0.54231115  0.26525371  1
  O  O93  1  0.70291758  0.45768885  0.23474629  1
  O  O94  1  0.79708242  0.45768885  0.73474629  1
  O  O95  1  0.29708242  0.54231115  0.76525371  1
