# generated using pymatgen
data_Ti2Si(H2O3)3
_symmetry_space_group_name_H-M   'P 1'
_cell_length_a   11.14219476
_cell_length_b   11.14219649
_cell_length_c   12.10425981
_cell_angle_alpha   90.00008030
_cell_angle_beta   89.99999724
_cell_angle_gamma   90.00010799
_symmetry_Int_Tables_number   1
_chemical_formula_structural   Ti2Si(H2O3)3
_chemical_formula_sum   'Ti16 Si8 H48 O72'
_cell_volume   1502.72598160
_cell_formula_units_Z   8
loop_
 _symmetry_equiv_pos_site_id
 _symmetry_equiv_pos_as_xyz
  1  'x, y, z'
loop_
 _atom_site_type_symbol
 _atom_site_label
 _atom_site_symmetry_multiplicity
 _atom_site_fract_x
 _atom_site_fract_y
 _atom_site_fract_z
 _atom_site_occupancy
  Ti  Ti0  1  0.34856358  0.51816231  0.85041364  1
  Ti  Ti1  1  0.84856309  0.98183616  0.85041099  1
  Ti  Ti2  1  0.15143887  0.01816366  0.85040962  1
  Ti  Ti3  1  0.65143672  0.48184610  0.85041478  1
  Ti  Ti4  1  0.01816924  0.84856190  0.64959098  1
  Ti  Ti5  1  0.51816158  0.65143845  0.64958895  1
  Ti  Ti6  1  0.48184310  0.34856105  0.64958936  1
  Ti  Ti7  1  0.98183517  0.15144663  0.64959043  1
  Ti  Ti8  1  0.01816662  0.84856643  0.35041002  1
  Ti  Ti9  1  0.51815899  0.65143837  0.35040869  1
  Ti  Ti10  1  0.48184246  0.34856463  0.35040836  1
  Ti  Ti11  1  0.98183916  0.15144292  0.35040995  1
  Ti  Ti12  1  0.34856218  0.51816065  0.14959384  1
  Ti  Ti13  1  0.84856340  0.98183872  0.14959199  1
  Ti  Ti14  1  0.15144040  0.01816517  0.14959254  1
  Ti  Ti15  1  0.65144062  0.48184467  0.14959311  1
  Si  Si16  1  0.27797391  0.77797110  0.75000723  1
  Si  Si17  1  0.22203329  0.27797121  0.75000563  1
  Si  Si18  1  0.77797099  0.72203243  0.75000352  1
  Si  Si19  1  0.72203212  0.22203595  0.75000830  1
  Si  Si20  1  0.27796880  0.77797063  0.25000280  1
  Si  Si21  1  0.22203337  0.27797105  0.25000328  1
  Si  Si22  1  0.77796951  0.72203427  0.25000531  1
  Si  Si23  1  0.72203478  0.22203754  0.25000180  1
  H  H24  1  0.02434680  0.82081859  0.88413339  1
  H  H25  1  0.52434089  0.67918984  0.88413225  1
  H  H26  1  0.47566001  0.32081238  0.88413084  1
  H  H27  1  0.43117882  0.97961354  0.84211083  1
  H  H28  1  0.06882085  0.47961415  0.84211175  1
  H  H29  1  0.97566410  0.17919122  0.88413213  1
  H  H30  1  0.93117910  0.52038537  0.84211002  1
  H  H31  1  0.56882117  0.02038539  0.84211160  1
  H  H32  1  0.02038574  0.43117894  0.65788953  1
  H  H33  1  0.47961550  0.93118048  0.65788814  1
  H  H34  1  0.52038554  0.06882178  0.65789202  1
  H  H35  1  0.97961413  0.56882045  0.65789000  1
  H  H36  1  0.32081435  0.52433997  0.61587644  1
  H  H37  1  0.82082315  0.97565637  0.61587522  1
  H  H38  1  0.17919120  0.02433985  0.61587744  1
  H  H39  1  0.67918736  0.47566016  0.61587721  1
  H  H40  1  0.21795993  0.64312610  0.49999936  1
  H  H41  1  0.14409712  0.52610955  0.50000110  1
  H  H42  1  0.64411832  0.97390065  0.50000087  1
  H  H43  1  0.71796744  0.85687470  0.49999984  1
  H  H44  1  0.28204156  0.14312764  0.50000006  1
  H  H45  1  0.35590499  0.02611097  0.50000141  1
  H  H46  1  0.85590464  0.47389088  0.50000130  1
  H  H47  1  0.78204200  0.35687336  0.49999985  1
  H  H48  1  0.32081217  0.52434014  0.38412966  1
  H  H49  1  0.82082105  0.97565725  0.38413112  1
  H  H50  1  0.17919507  0.02433914  0.38413051  1
  H  H51  1  0.67919063  0.47566077  0.38413049  1
  H  H52  1  0.02038585  0.43117769  0.34211031  1
  H  H53  1  0.47961532  0.93117914  0.34211130  1
  H  H54  1  0.52038522  0.06882065  0.34210956  1
  H  H55  1  0.97961467  0.56881914  0.34211110  1
  H  H56  1  0.43117988  0.97961485  0.15788901  1
  H  H57  1  0.06882046  0.47961534  0.15788823  1
  H  H58  1  0.02434485  0.82082123  0.11587546  1
  H  H59  1  0.93117829  0.52038531  0.15789117  1
  H  H60  1  0.56882230  0.02038627  0.15789014  1
  H  H61  1  0.52434002  0.67918785  0.11587684  1
  H  H62  1  0.47566157  0.32081323  0.11587588  1
  H  H63  1  0.97566511  0.17919177  0.11587592  1
  H  H64  1  0.02609898  0.64411660  -0.00000058  1
  H  H65  1  0.14312435  0.71796788  0.00000068  1
  H  H66  1  0.52610995  0.85590671  -0.00000010  1
  H  H67  1  0.64312492  0.78204276  0.00000080  1
  H  H68  1  0.35687450  0.21795849  0.00000075  1
  H  H69  1  0.47389019  0.14409463  0.00000012  1
  H  H70  1  0.85687523  0.28204270  0.00000041  1
  H  H71  1  0.97388952  0.35590899  -0.00000021  1
  O  O72  1  0.00000138  0.50000763  0.88863959  1
  O  O73  1  0.50000168  0.00000051  0.88863982  1
  O  O74  1  0.01526825  0.88819697  0.82969926  1
  O  O75  1  0.27073618  0.66347203  0.83510821  1
  O  O76  1  0.27102974  0.90531720  0.81816875  1
  O  O77  1  0.77073097  0.83653048  0.83510614  1
  O  O78  1  0.22926710  0.16347336  0.83510932  1
  O  O79  1  0.51526773  0.61180703  0.82970206  1
  O  O80  1  0.22897221  0.40531913  0.81816665  1
  O  O81  1  0.48473376  0.38819448  0.82970010  1
  O  O82  1  0.72926778  0.33653709  0.83510806  1
  O  O83  1  0.77102551  0.59469325  0.81817709  1
  O  O84  1  0.98473672  0.11180830  0.82970207  1
  O  O85  1  0.72897695  0.09468718  0.81816627  1
  O  O86  1  0.40531991  0.77102834  0.68184528  1
  O  O87  1  0.09468740  0.27102943  0.68184197  1
  O  O88  1  0.16347548  0.77073397  0.66490492  1
  O  O89  1  0.38819451  0.51526984  0.67030901  1
  O  O90  1  0.90532016  0.72897575  0.68184658  1
  O  O91  1  0.88819925  0.98473538  0.67031096  1
  O  O92  1  0.11181137  0.01526904  0.67031007  1
  O  O93  1  0.59469225  0.22897528  0.68183474  1
  O  O94  1  0.61180743  0.48473362  0.67030945  1
  O  O95  1  0.66347231  0.72926693  0.66490222  1
  O  O96  1  0.33653545  0.27073407  0.66490577  1
  O  O97  1  0.83652947  0.22927481  0.66490490  1
  O  O98  1  0.00000033  0.49999933  0.61136063  1
  O  O99  1  0.50000796  0.00000033  0.61136035  1
  O  O100  1  0.00766877  0.85603604  0.50000189  1
  O  O101  1  0.22835001  0.55602824  0.50000028  1
  O  O102  1  0.50766722  0.64396433  0.50000171  1
  O  O103  1  0.49233221  0.35604130  0.49999919  1
  O  O104  1  0.27165254  0.05602922  0.50000018  1
  O  O105  1  0.77165196  0.44397114  0.50000174  1
  O  O106  1  0.72836718  0.94396824  0.50000151  1
  O  O107  1  0.99233801  0.14396223  0.50000182  1
  O  O108  1  0.00000139  0.49999651  0.38863973  1
  O  O109  1  0.50000605  -0.00000007  0.38863960  1
  O  O110  1  0.16347284  0.77073586  0.33510735  1
  O  O111  1  0.66346999  0.72926316  0.33510650  1
  O  O112  1  0.33653347  0.27073622  0.33510233  1
  O  O113  1  0.38819549  0.51526723  0.32969991  1
  O  O114  1  0.40531311  0.77102615  0.31816831  1
  O  O115  1  0.88820165  0.98473654  0.32969976  1
  O  O116  1  0.11181101  0.01526800  0.32970132  1
  O  O117  1  0.09469188  0.27102484  0.31817139  1
  O  O118  1  0.61180793  0.48473581  0.32970050  1
  O  O119  1  0.83653340  0.22927154  0.33510295  1
  O  O120  1  0.90531678  0.72897703  0.31816410  1
  O  O121  1  0.59469733  0.22898244  0.31817619  1
  O  O122  1  0.27102681  0.90531664  0.18184196  1
  O  O123  1  0.01526861  0.88819705  0.17031184  1
  O  O124  1  0.22897295  0.40531738  0.18184143  1
  O  O125  1  0.27073680  0.66347086  0.16490140  1
  O  O126  1  0.51526735  0.61180824  0.17030980  1
  O  O127  1  0.77102317  0.59469480  0.18183325  1
  O  O128  1  0.48473527  0.38819226  0.17030949  1
  O  O129  1  0.77073341  0.83653226  0.16490274  1
  O  O130  1  0.22926512  0.16347520  0.16489940  1
  O  O131  1  0.72898022  0.09469157  0.18184038  1
  O  O132  1  0.72926904  0.33653741  0.16490203  1
  O  O133  1  0.98473686  0.11181109  0.17030789  1
  O  O134  1  0.00000009  0.50000623  0.11136095  1
  O  O135  1  0.50000267  0.00000101  0.11136097  1
  O  O136  1  0.05603093  0.72836600  0.00000052  1
  O  O137  1  0.94397158  0.27165493  0.00000203  1
  O  O138  1  0.55602858  0.77165291  0.00000183  1
  O  O139  1  0.35603726  0.50766443  0.00000466  1
  O  O140  1  0.85603904  0.99233632  0.00000322  1
  O  O141  1  0.14396505  0.00766501  0.00000379  1
  O  O142  1  0.64396047  0.49233485  0.00000500  1
  O  O143  1  0.44397248  0.22834792  0.00000062  1
