# generated using pymatgen
data_Na2LaSiO5
_symmetry_space_group_name_H-M   'P 1'
_cell_length_a   6.75009759
_cell_length_b   7.54954619
_cell_length_c   9.59265073
_cell_angle_alpha   90.00000000
_cell_angle_beta   90.00000000
_cell_angle_gamma   90.00000000
_symmetry_Int_Tables_number   1
_chemical_formula_structural   Na2LaSiO5
_chemical_formula_sum   'Na8 La4 Si4 O20'
_cell_volume   488.84314594
_cell_formula_units_Z   4
loop_
 _symmetry_equiv_pos_site_id
 _symmetry_equiv_pos_as_xyz
  1  'x, y, z'
loop_
 _atom_site_type_symbol
 _atom_site_label
 _atom_site_symmetry_multiplicity
 _atom_site_fract_x
 _atom_site_fract_y
 _atom_site_fract_z
 _atom_site_occupancy
  Na  Na0  1  0.62667548  0.96702247  0.16598970  1
  Na  Na1  1  0.87332452  0.53297753  0.66598970  1
  Na  Na2  1  0.37332452  0.46702247  0.83401030  1
  Na  Na3  1  0.12667548  0.03297753  0.33401030  1
  Na  Na4  1  0.37332452  0.03297753  0.83401030  1
  Na  Na5  1  0.12667548  0.46702247  0.33401030  1
  Na  Na6  1  0.62667548  0.53297753  0.16598970  1
  Na  Na7  1  0.87332452  0.96702247  0.66598970  1
  La  La8  1  0.11612235  0.75000000  0.04473292  1
  La  La9  1  0.38387765  0.75000000  0.54473292  1
  La  La10  1  0.88387765  0.25000000  0.95526708  1
  La  La11  1  0.61612235  0.25000000  0.45526708  1
  Si  Si12  1  0.81675754  0.75000000  0.39971621  1
  Si  Si13  1  0.68324246  0.75000000  0.89971621  1
  Si  Si14  1  0.18324246  0.25000000  0.60028379  1
  Si  Si15  1  0.31675754  0.25000000  0.10028379  1
  O  O16  1  0.68002312  0.92543346  0.43862644  1
  O  O17  1  0.81997688  0.57456654  0.93862644  1
  O  O18  1  0.31997688  0.42543346  0.56137356  1
  O  O19  1  0.18002312  0.07456654  0.06137356  1
  O  O20  1  0.31997688  0.07456654  0.56137356  1
  O  O21  1  0.18002312  0.42543346  0.06137356  1
  O  O22  1  0.68002312  0.57456654  0.43862644  1
  O  O23  1  0.81997688  0.92543346  0.93862644  1
  O  O24  1  0.02196354  0.75000000  0.49406577  1
  O  O25  1  0.47803646  0.75000000  0.99406577  1
  O  O26  1  0.97803646  0.25000000  0.50593423  1
  O  O27  1  0.52196354  0.25000000  0.00593423  1
  O  O28  1  0.87089993  0.75000000  0.23324856  1
  O  O29  1  0.62910007  0.75000000  0.73324856  1
  O  O30  1  0.12910007  0.25000000  0.76675144  1
  O  O31  1  0.37089993  0.25000000  0.26675144  1
  O  O32  1  0.29032359  0.75000000  0.28689492  1
  O  O33  1  0.20967641  0.75000000  0.78689492  1
  O  O34  1  0.70967641  0.25000000  0.71310508  1
  O  O35  1  0.79032359  0.25000000  0.21310508  1
