# generated using pymatgen
data_NiH24C6S6(BrN6)2
_symmetry_space_group_name_H-M   'P 1'
_cell_length_a   9.06439376
_cell_length_b   12.67928316
_cell_length_c   13.20248999
_cell_angle_alpha   80.92997779
_cell_angle_beta   69.92295103
_cell_angle_gamma   69.05638821
_symmetry_Int_Tables_number   1
_chemical_formula_structural   NiH24C6S6(BrN6)2
_chemical_formula_sum   'Ni2 H48 C12 S12 Br4 N24'
_cell_volume   1329.94284799
_cell_formula_units_Z   2
loop_
 _symmetry_equiv_pos_site_id
 _symmetry_equiv_pos_as_xyz
  1  'x, y, z'
loop_
 _atom_site_type_symbol
 _atom_site_label
 _atom_site_symmetry_multiplicity
 _atom_site_fract_x
 _atom_site_fract_y
 _atom_site_fract_z
 _atom_site_occupancy
  Ni  Ni0  1  0.50000000  0.50000000  0.50000000  1
  Ni  Ni1  1  0.00000000  -0.00000000  -0.00000000  1
  H  H2  1  0.15069485  0.41829346  0.26296307  1
  H  H3  1  0.66804862  0.91829346  0.76296307  1
  H  H4  1  0.84930515  0.58170654  0.73703693  1
  H  H5  1  0.33195138  0.08170654  0.23703693  1
  H  H6  1  0.03327599  0.45329743  0.39747374  1
  H  H7  1  0.61595284  0.95329743  0.89747374  1
  H  H8  1  0.96672401  0.54670257  0.60252626  1
  H  H9  1  0.38404716  0.04670257  0.10252626  1
  H  H10  1  0.42417935  0.38754791  0.20154253  1
  H  H11  1  0.48673021  0.88754791  0.70154253  1
  H  H12  1  0.57582065  0.61245209  0.79845747  1
  H  H13  1  0.51326979  0.11245209  0.29845747  1
  H  H14  1  0.53337881  0.39047155  0.28896321  1
  H  H15  1  0.28718642  0.89047155  0.78896321  1
  H  H16  1  0.46662119  0.60952845  0.71103679  1
  H  H17  1  0.71281358  0.10952845  0.21103679  1
  H  H18  1  0.01676855  0.86718938  0.61023624  1
  H  H19  1  0.00580583  0.36718938  0.11023624  1
  H  H20  1  0.98323145  0.13281062  0.38976376  1
  H  H21  1  0.99419417  0.63281062  0.88976376  1
  H  H22  1  0.13350642  0.95943741  0.56471123  1
  H  H23  1  0.84234494  0.45943741  0.06471123  1
  H  H24  1  0.86649358  0.04056259  0.43528877  1
  H  H25  1  0.15765506  0.54056259  0.93528877  1
  H  H26  1  0.52080316  0.74853149  0.52468718  1
  H  H27  1  0.70597817  0.24853149  0.02468718  1
  H  H28  1  0.47919684  0.25146851  0.47531282  1
  H  H29  1  0.29402183  0.75146851  0.97531282  1
  H  H30  1  0.41268311  0.89474055  0.51543751  1
  H  H31  1  0.67713883  0.39474055  0.01543751  1
  H  H32  1  0.58731689  0.10525945  0.48456249  1
  H  H33  1  0.32286117  0.60525945  0.98456249  1
  H  H34  1  0.11543792  0.75959524  0.34406985  1
  H  H35  1  0.28089699  0.25959524  0.84406985  1
  H  H36  1  0.88456208  0.24040476  0.65593015  1
  H  H37  1  0.71910301  0.74040476  0.15593015  1
  H  H38  1  0.20086255  0.68489971  0.44577880  1
  H  H39  1  0.16845894  0.18489971  0.94577880  1
  H  H40  1  0.79913745  0.31510029  0.55422120  1
  H  H41  1  0.83154106  0.81510029  0.05422120  1
  H  H42  1  0.48729524  0.69857865  0.13218496  1
  H  H43  1  0.18194115  0.19857865  0.63218496  1
  H  H44  1  0.51270476  0.30142135  0.86781504  1
  H  H45  1  0.81805885  0.80142135  0.36781504  1
  H  H46  1  0.27538837  0.77440503  0.17370233  1
  H  H47  1  0.27650426  0.27440503  0.67370233  1
  H  H48  1  0.72461163  0.22559497  0.82629767  1
  H  H49  1  0.72349574  0.72559497  0.32629767  1
  C  C50  1  0.28387311  0.42355014  0.35785208  1
  C  C51  1  0.43472467  0.92355014  0.85785208  1
  C  C52  1  0.71612689  0.57644986  0.64214792  1
  C  C53  1  0.56527533  0.07644986  0.14214792  1
  C  C54  1  0.26852610  0.79258153  0.57568982  1
  C  C55  1  0.86320255  0.29258153  0.07568982  1
  C  C56  1  0.73147390  0.20741847  0.42431018  1
  C  C57  1  0.13679745  0.70741847  0.92431018  1
  C  C58  1  0.36728528  0.68586715  0.29472606  1
  C  C59  1  0.15212152  0.18586715  0.79472606  1
  C  C60  1  0.63271472  0.31413285  0.70527394  1
  C  C61  1  0.84787848  0.81413285  0.20527394  1
  S  S62  1  0.27651738  0.44118167  0.48642283  1
  S  S63  1  0.29587812  0.94118167  0.98642283  1
  S  S64  1  0.72348262  0.55881833  0.51357717  1
  S  S65  1  0.70412188  0.05881833  0.01357717  1
  S  S66  1  0.26008072  0.65744488  0.60768296  1
  S  S67  1  0.97479143  0.15744488  0.10768296  1
  S  S68  1  0.73991928  0.34255512  0.39231704  1
  S  S69  1  0.02520857  0.84255512  0.89231704  1
  S  S70  1  0.54410587  0.60643771  0.32694718  1
  S  S71  1  0.02250924  0.10643771  0.82694718  1
  S  S72  1  0.45589413  0.39356229  0.67305282  1
  S  S73  1  0.97749076  0.89356229  0.17305282  1
  Br  Br74  1  0.75373660  0.89389501  0.54853086  1
  Br  Br75  1  0.30383753  0.39389501  0.04853086  1
  Br  Br76  1  0.24626340  0.10610499  0.45146914  1
  Br  Br77  1  0.69616247  0.60610499  0.95146914  1
  N  N78  1  0.14430836  0.43386907  0.33799987  1
  N  N79  1  0.58382270  0.93386907  0.83799987  1
  N  N80  1  0.85569164  0.56613093  0.66200013  1
  N  N81  1  0.41617730  0.06613093  0.16200013  1
  N  N82  1  0.42531578  0.39707257  0.27673852  1
  N  N83  1  0.40087314  0.89707257  0.77673852  1
  N  N84  1  0.57468422  0.60292743  0.72326148  1
  N  N85  1  0.59912686  0.10292743  0.22326148  1
  N  N86  1  0.12736322  0.88018450  0.59140110  1
  N  N87  1  0.90105117  0.38018450  0.09140110  1
  N  N88  1  0.87263678  0.11981550  0.40859890  1
  N  N89  1  0.09894883  0.61981550  0.90859890  1
  N  N90  1  0.41170182  0.81411161  0.53817985  1
  N  N91  1  0.73600671  0.31411161  0.03817985  1
  N  N92  1  0.58829818  0.18588839  0.46182015  1
  N  N93  1  0.26399329  0.68588839  0.96182015  1
  N  N94  1  0.21552302  0.70863756  0.36620368  1
  N  N95  1  0.20963574  0.20863756  0.86620368  1
  N  N96  1  0.78447698  0.29136244  0.63379632  1
  N  N97  1  0.79036426  0.79136244  0.13379632  1
  N  N98  1  0.38030646  0.72859456  0.19377003  1
  N  N99  1  0.19732895  0.22859456  0.69377003  1
  N  N100  1  0.61969354  0.27140544  0.80622997  1
  N  N101  1  0.80267105  0.77140544  0.30622997  1
