# generated using pymatgen
data_Th2BPO8
_symmetry_space_group_name_H-M   'P 1'
_cell_length_a   8.01604521
_cell_length_b   8.55548048
_cell_length_c   8.29988622
_cell_angle_alpha   103.51801848
_cell_angle_beta   90.00000000
_cell_angle_gamma   90.00000000
_symmetry_Int_Tables_number   1
_chemical_formula_structural   Th2BPO8
_chemical_formula_sum   'Th8 B4 P4 O32'
_cell_volume   553.44619424
_cell_formula_units_Z   4
loop_
 _symmetry_equiv_pos_site_id
 _symmetry_equiv_pos_as_xyz
  1  'x, y, z'
loop_
 _atom_site_type_symbol
 _atom_site_label
 _atom_site_symmetry_multiplicity
 _atom_site_fract_x
 _atom_site_fract_y
 _atom_site_fract_z
 _atom_site_occupancy
  Th  Th0  1  0.19522885  0.81735039  0.45778130  1
  Th  Th1  1  0.69522885  0.18264961  0.04221870  1
  Th  Th2  1  0.80477115  0.18264961  0.54221870  1
  Th  Th3  1  0.30477115  0.81735039  0.95778130  1
  Th  Th4  1  0.81689849  0.75923298  0.07737041  1
  Th  Th5  1  0.31689849  0.24076702  0.42262959  1
  Th  Th6  1  0.18310151  0.24076702  0.92262959  1
  Th  Th7  1  0.68310151  0.75923298  0.57737041  1
  B  B8  1  0.55839836  0.96840802  0.28260077  1
  B  B9  1  0.05839836  0.03159198  0.21739923  1
  B  B10  1  0.44160164  0.03159198  0.71739923  1
  B  B11  1  0.94160164  0.96840802  0.78260077  1
  P  P12  1  0.95420623  0.45610924  0.28314324  1
  P  P13  1  0.45420623  0.54389076  0.21685676  1
  P  P14  1  0.04579377  0.54389076  0.71685676  1
  P  P15  1  0.54579377  0.45610924  0.78314324  1
  O  O16  1  0.39242103  0.94383736  0.34492581  1
  O  O17  1  0.89242103  0.05616264  0.15507419  1
  O  O18  1  0.60757897  0.05616264  0.65507419  1
  O  O19  1  0.10757897  0.94383736  0.84492581  1
  O  O20  1  0.56577952  0.91136278  0.09813558  1
  O  O21  1  0.06577952  0.08863722  0.40186442  1
  O  O22  1  0.43422048  0.08863722  0.90186442  1
  O  O23  1  0.93422048  0.91136278  0.59813558  1
  O  O24  1  0.69868481  0.89071204  0.35062573  1
  O  O25  1  0.19868481  0.10928796  0.14937427  1
  O  O26  1  0.30131519  0.10928796  0.64937427  1
  O  O27  1  0.80131519  0.89071204  0.85062573  1
  O  O28  1  0.08660459  0.85496364  0.17759775  1
  O  O29  1  0.58660459  0.14503636  0.32240225  1
  O  O30  1  0.91339541  0.14503636  0.82240225  1
  O  O31  1  0.41339541  0.85496364  0.67759775  1
  O  O32  1  0.81080091  0.36640083  0.34663553  1
  O  O33  1  0.31080091  0.63359917  0.15336447  1
  O  O34  1  0.18919909  0.63359917  0.65336447  1
  O  O35  1  0.68919909  0.36640083  0.84663553  1
  O  O36  1  0.62638915  0.57094848  0.14693990  1
  O  O37  1  0.12638915  0.42905152  0.35306010  1
  O  O38  1  0.37361085  0.42905152  0.85306010  1
  O  O39  1  0.87361085  0.57094848  0.64693990  1
  O  O40  1  0.45189902  0.61115690  0.40832523  1
  O  O41  1  0.95189902  0.38884310  0.09167477  1
  O  O42  1  0.54810098  0.38884310  0.59167477  1
  O  O43  1  0.04810098  0.61115690  0.90832523  1
  O  O44  1  0.92433044  0.64238473  0.32705477  1
  O  O45  1  0.42433044  0.35761527  0.17294523  1
  O  O46  1  0.07566956  0.35761527  0.67294523  1
  O  O47  1  0.57566956  0.64238473  0.82705477  1
