# generated using pymatgen
data_Er12(ReC3)5
_symmetry_space_group_name_H-M   'P 1'
_cell_length_a   5.03396670
_cell_length_b   10.67171600
_cell_length_c   10.67143030
_cell_angle_alpha   120.00088486
_cell_angle_beta   90.00000000
_cell_angle_gamma   90.00000000
_symmetry_Int_Tables_number   1
_chemical_formula_structural   Er12(ReC3)5
_chemical_formula_sum   'Er12 Re5 C15'
_cell_volume   496.47111797
_cell_formula_units_Z   1
loop_
 _symmetry_equiv_pos_site_id
 _symmetry_equiv_pos_as_xyz
  1  'x, y, z'
loop_
 _atom_site_type_symbol
 _atom_site_label
 _atom_site_symmetry_multiplicity
 _atom_site_fract_x
 _atom_site_fract_y
 _atom_site_fract_z
 _atom_site_occupancy
  Er  Er0  1  -0.00000000  0.27012743  0.45531112  1
  Er  Er1  1  -0.00000000  0.18515175  0.72986186  1
  Er  Er2  1  -0.00000000  0.54467794  0.81482096  1
  Er  Er3  1  0.00000000  0.81481631  0.54468888  1
  Er  Er4  1  -0.00000000  0.45528989  0.27013814  1
  Er  Er5  1  -0.00000000  0.72985697  0.18517904  1
  Er  Er6  1  0.50000000  0.42611866  1.00000000  1
  Er  Er7  1  0.50000000  0.57388023  0.57389325  1
  Er  Er8  1  0.50000000  0.99998698  0.42610675  1
  Er  Er9  1  0.50000000  0.79480283  0.00000000  1
  Er  Er10  1  0.50000000  0.20521866  0.20521968  1
  Er  Er11  1  0.50000000  -0.00000102  0.79478032  1
  Re  Re12  1  -0.00000000  0.15200793  0.00000000  1
  Re  Re13  1  -0.00000000  0.84797256  0.84798848  1
  Re  Re14  1  0.00000000  -0.00001592  0.15201152  1
  Re  Re15  1  0.50000000  0.33343865  0.66671436  1
  Re  Re16  1  0.50000000  0.66672430  0.33328564  1
  C  C17  1  0.50000000  0.27638169  0.46628737  1
  C  C18  1  0.50000000  0.18985150  0.72359844  1
  C  C19  1  0.50000000  0.53366949  0.81010575  1
  C  C20  1  0.50000000  0.81009432  0.53371263  1
  C  C21  1  0.50000000  0.46625306  0.27640156  1
  C  C22  1  0.50000000  0.72356375  0.18989425  1
  C  C23  1  -0.00000000  0.33388130  1.00000000  1
  C  C24  1  -0.00000000  0.66611547  0.66611627  1
  C  C25  1  -0.00000000  -0.00000080  0.33388373  1
  C  C26  1  0.00000000  0.46132156  0.00000000  1
  C  C27  1  0.00000000  0.53869988  0.53869048  1
  C  C28  1  0.00000000  0.00000940  0.46130952  1
  C  C29  1  0.00000000  0.78335850  1.00000000  1
  C  C30  1  0.00000000  0.21663907  0.21663141  1
  C  C31  1  0.00000000  0.00000766  0.78336859  1
