# generated using pymatgen
data_LiVPH4O7
_symmetry_space_group_name_H-M   'P 1'
_cell_length_a   6.42799124
_cell_length_b   6.42799124
_cell_length_c   13.14934286
_cell_angle_alpha   90.00000000
_cell_angle_beta   90.00000000
_cell_angle_gamma   90.38920680
_symmetry_Int_Tables_number   1
_chemical_formula_structural   LiVPH4O7
_chemical_formula_sum   'Li4 V4 P4 H16 O28'
_cell_volume   543.30610011
_cell_formula_units_Z   4
loop_
 _symmetry_equiv_pos_site_id
 _symmetry_equiv_pos_as_xyz
  1  'x, y, z'
loop_
 _atom_site_type_symbol
 _atom_site_label
 _atom_site_symmetry_multiplicity
 _atom_site_fract_x
 _atom_site_fract_y
 _atom_site_fract_z
 _atom_site_occupancy
  Li  Li0  1  0.87928790  0.12071210  0.57139697  1
  Li  Li1  1  0.12071210  0.87928790  0.42860303  1
  Li  Li2  1  0.62071210  0.37928790  0.07139697  1
  Li  Li3  1  0.37928790  0.62071210  0.92860303  1
  V  V4  1  0.62298313  0.37701687  0.71166461  1
  V  V5  1  0.37701687  0.62298313  0.28833539  1
  V  V6  1  0.87701687  0.12298313  0.21166461  1
  V  V7  1  0.12298313  0.87701687  0.78833539  1
  P  P8  1  0.62745921  0.87254079  0.75000000  1
  P  P9  1  0.87254079  0.62745921  0.25000000  1
  P  P10  1  0.37254079  0.12745921  0.25000000  1
  P  P11  1  0.12745921  0.37254079  0.75000000  1
  H  H12  1  0.75680341  0.79204786  0.44041123  1
  H  H13  1  0.79204786  0.75680341  0.55958877  1
  H  H14  1  0.29204786  0.25680341  0.94041123  1
  H  H15  1  0.25680341  0.29204786  0.05958877  1
  H  H16  1  0.24319659  0.20795214  0.55958877  1
  H  H17  1  0.20795214  0.24319659  0.44041123  1
  H  H18  1  0.70795214  0.74319659  0.05958877  1
  H  H19  1  0.74319659  0.70795214  0.94041123  1
  H  H20  1  0.56948611  0.26238019  0.46776299  1
  H  H21  1  0.26238019  0.56948611  0.53223701  1
  H  H22  1  0.76238019  0.06948611  0.96776299  1
  H  H23  1  0.06948611  0.76238019  0.03223701  1
  H  H24  1  0.43051389  0.73761981  0.53223701  1
  H  H25  1  0.73761981  0.43051389  0.46776299  1
  H  H26  1  0.23761981  0.93051389  0.03223701  1
  H  H27  1  0.93051389  0.23761981  0.96776299  1
  O  O28  1  0.63282433  0.68471971  0.67440345  1
  O  O29  1  0.68471971  0.63282433  0.32559655  1
  O  O30  1  0.18471971  0.13282433  0.17440345  1
  O  O31  1  0.13282433  0.18471971  0.82559655  1
  O  O32  1  0.36717567  0.31528029  0.32559655  1
  O  O33  1  0.31528029  0.36717567  0.67440345  1
  O  O34  1  0.81528029  0.86717567  0.82559655  1
  O  O35  1  0.86717567  0.81528029  0.17440345  1
  O  O36  1  0.60833396  0.39166604  0.83488700  1
  O  O37  1  0.39166604  0.60833396  0.16511300  1
  O  O38  1  0.89166604  0.10833396  0.33488700  1
  O  O39  1  0.10833396  0.89166604  0.66511300  1
  O  O40  1  0.63520484  0.06848195  0.68189096  1
  O  O41  1  0.06848195  0.63520484  0.31810904  1
  O  O42  1  0.56848195  0.13520484  0.18189096  1
  O  O43  1  0.13520484  0.56848195  0.81810904  1
  O  O44  1  0.36479516  0.93151805  0.31810904  1
  O  O45  1  0.93151805  0.36479516  0.68189096  1
  O  O46  1  0.43151805  0.86479516  0.81810904  1
  O  O47  1  0.86479516  0.43151805  0.18189096  1
  O  O48  1  0.83830949  0.83830949  0.50000000  1
  O  O49  1  0.33830949  0.33830949  -0.00000000  1
  O  O50  1  0.16169051  0.16169051  0.50000000  1
  O  O51  1  0.66169051  0.66169051  0.00000000  1
  O  O52  1  0.67157214  0.32842786  0.51271394  1
  O  O53  1  0.32842786  0.67157214  0.48728606  1
  O  O54  1  0.82842786  0.17157214  0.01271394  1
  O  O55  1  0.17157214  0.82842786  0.98728606  1
