# generated using pymatgen
data_Tb2Ge6Pd
_symmetry_space_group_name_H-M   'P 1'
_cell_length_a   4.06436206
_cell_length_b   4.10305808
_cell_length_c   11.19142444
_cell_angle_alpha   90.00000000
_cell_angle_beta   100.46202347
_cell_angle_gamma   90.00000000
_symmetry_Int_Tables_number   1
_chemical_formula_structural   Tb2Ge6Pd
_chemical_formula_sum   'Tb2 Ge6 Pd1'
_cell_volume   183.52904099
_cell_formula_units_Z   1
loop_
 _symmetry_equiv_pos_site_id
 _symmetry_equiv_pos_as_xyz
  1  'x, y, z'
loop_
 _atom_site_type_symbol
 _atom_site_label
 _atom_site_symmetry_multiplicity
 _atom_site_fract_x
 _atom_site_fract_y
 _atom_site_fract_z
 _atom_site_occupancy
  Tb  Tb0  1  0.77735112  0.50000000  0.55470224  1
  Tb  Tb1  1  0.11778594  0.50000000  0.23557188  1
  Ge  Ge2  1  0.49294859  0.50000000  0.98589717  1
  Ge  Ge3  1  0.37928938  0.50000000  0.75857876  1
  Ge  Ge4  1  0.99224963  0.00000000  0.98449926  1
  Ge  Ge5  1  0.87790295  -0.00000000  0.75580591  1
  Ge  Ge6  1  0.66967170  -0.00000000  0.33934340  1
  Ge  Ge7  1  0.24099142  -0.00000000  0.48198283  1
  Pd  Pd8  1  0.55880927  0.00000000  0.11761854  1
