# generated using pymatgen
data_Rb3TmF6
_symmetry_space_group_name_H-M   'P 1'
_cell_length_a   6.94766226
_cell_length_b   6.94766226
_cell_length_c   6.94766226
_cell_angle_alpha   118.12000592
_cell_angle_beta   118.12000592
_cell_angle_gamma   93.28830638
_symmetry_Int_Tables_number   1
_chemical_formula_structural   Rb3TmF6
_chemical_formula_sum   'Rb3 Tm1 F6'
_cell_volume   243.44281146
_cell_formula_units_Z   1
loop_
 _symmetry_equiv_pos_site_id
 _symmetry_equiv_pos_as_xyz
  1  'x, y, z'
loop_
 _atom_site_type_symbol
 _atom_site_label
 _atom_site_symmetry_multiplicity
 _atom_site_fract_x
 _atom_site_fract_y
 _atom_site_fract_z
 _atom_site_occupancy
  Rb  Rb0  1  0.25000000  0.75000000  0.50000000  1
  Rb  Rb1  1  0.75000000  0.25000000  0.50000000  1
  Rb  Rb2  1  0.50000000  0.50000000  0.00000000  1
  Tm  Tm3  1  0.00000000  0.00000000  0.00000000  1
  F  F4  1  0.29884672  -0.00000000  0.29884672  1
  F  F5  1  0.70115328  0.00000000  0.70115328  1
  F  F6  1  0.00000000  0.70115328  0.70115328  1
  F  F7  1  -0.00000000  0.29884672  0.29884672  1
  F  F8  1  0.22770070  0.22770070  0.00000000  1
  F  F9  1  0.77229930  0.77229930  0.00000000  1
