# generated using pymatgen
data_TmNiSn4
_symmetry_space_group_name_H-M   'P 1'
_cell_length_a   4.38599530
_cell_length_b   4.52724774
_cell_length_c   14.16888555
_cell_angle_alpha   90.00000000
_cell_angle_beta   98.90377956
_cell_angle_gamma   90.00000000
_symmetry_Int_Tables_number   1
_chemical_formula_structural   TmNiSn4
_chemical_formula_sum   'Tm2 Ni2 Sn8'
_cell_volume   277.95400106
_cell_formula_units_Z   2
loop_
 _symmetry_equiv_pos_site_id
 _symmetry_equiv_pos_as_xyz
  1  'x, y, z'
loop_
 _atom_site_type_symbol
 _atom_site_label
 _atom_site_symmetry_multiplicity
 _atom_site_fract_x
 _atom_site_fract_y
 _atom_site_fract_z
 _atom_site_occupancy
  Tm  Tm0  1  0.80539333  0.50000000  0.61078666  1
  Tm  Tm1  1  0.19460667  0.50000000  0.38921334  1
  Ni  Ni2  1  0.55106612  -0.00000000  0.10213224  1
  Ni  Ni3  1  0.44893388  0.00000000  0.89786776  1
  Sn  Sn4  1  0.60924630  0.50000000  0.21849260  1
  Sn  Sn5  1  0.39075370  0.50000000  0.78150740  1
  Sn  Sn6  1  0.71402960  -0.00000000  0.42805920  1
  Sn  Sn7  1  0.28597040  -0.00000000  0.57194080  1
  Sn  Sn8  1  0.88956984  -0.00000000  0.77913968  1
  Sn  Sn9  1  0.11043016  -0.00000000  0.22086032  1
  Sn  Sn10  1  -0.00000000  -0.00000000  -0.00000000  1
  Sn  Sn11  1  0.50000000  0.50000000  -0.00000000  1
