# generated using pymatgen
data_TbNiSn4
_symmetry_space_group_name_H-M   'P 1'
_cell_length_a   4.42956904
_cell_length_b   4.52590093
_cell_length_c   14.36594504
_cell_angle_alpha   90.00000000
_cell_angle_beta   98.86861079
_cell_angle_gamma   90.00000000
_symmetry_Int_Tables_number   1
_chemical_formula_structural   TbNiSn4
_chemical_formula_sum   'Tb2 Ni2 Sn8'
_cell_volume   284.56220192
_cell_formula_units_Z   2
loop_
 _symmetry_equiv_pos_site_id
 _symmetry_equiv_pos_as_xyz
  1  'x, y, z'
loop_
 _atom_site_type_symbol
 _atom_site_label
 _atom_site_symmetry_multiplicity
 _atom_site_fract_x
 _atom_site_fract_y
 _atom_site_fract_z
 _atom_site_occupancy
  Tb  Tb0  1  0.80662687  0.50000000  0.61325374  1
  Tb  Tb1  1  0.19337313  0.50000000  0.38674626  1
  Ni  Ni2  1  0.55137271  0.00000000  0.10274542  1
  Ni  Ni3  1  0.44862729  -0.00000000  0.89725458  1
  Sn  Sn4  1  0.60874495  0.50000000  0.21748991  1
  Sn  Sn5  1  0.39125505  0.50000000  0.78251009  1
  Sn  Sn6  1  0.71400441  -0.00000000  0.42800882  1
  Sn  Sn7  1  0.28599559  0.00000000  0.57199118  1
  Sn  Sn8  1  0.89053656  0.00000000  0.78107311  1
  Sn  Sn9  1  0.10946344  0.00000000  0.21892689  1
  Sn  Sn10  1  0.00000000  -0.00000000  0.00000000  1
  Sn  Sn11  1  0.50000000  0.50000000  0.00000000  1
