# generated using pymatgen
data_Zr6FeS2
_symmetry_space_group_name_H-M   'P 1'
_cell_length_a   3.44353751
_cell_length_b   12.72013491
_cell_length_c   15.70029062
_cell_angle_alpha   90.00000000
_cell_angle_beta   90.00000000
_cell_angle_gamma   90.00000000
_symmetry_Int_Tables_number   1
_chemical_formula_structural   Zr6FeS2
_chemical_formula_sum   'Zr24 Fe4 S8'
_cell_volume   687.70823842
_cell_formula_units_Z   4
loop_
 _symmetry_equiv_pos_site_id
 _symmetry_equiv_pos_as_xyz
  1  'x, y, z'
loop_
 _atom_site_type_symbol
 _atom_site_label
 _atom_site_symmetry_multiplicity
 _atom_site_fract_x
 _atom_site_fract_y
 _atom_site_fract_z
 _atom_site_occupancy
  Zr  Zr0  1  -0.00000000  0.02619816  0.10534767  1
  Zr  Zr1  1  -0.00000000  0.97380184  0.89465233  1
  Zr  Zr2  1  0.50000000  0.47380184  0.60534767  1
  Zr  Zr3  1  0.50000000  0.52619816  0.39465233  1
  Zr  Zr4  1  0.00000000  0.41617796  0.24996829  1
  Zr  Zr5  1  0.00000000  0.58382204  0.75003171  1
  Zr  Zr6  1  0.50000000  0.08382204  0.74996829  1
  Zr  Zr7  1  0.50000000  0.91617796  0.25003171  1
  Zr  Zr8  1  0.00000000  0.08848520  0.58010475  1
  Zr  Zr9  1  0.00000000  0.91151480  0.41989525  1
  Zr  Zr10  1  0.50000000  0.41151480  0.08010475  1
  Zr  Zr11  1  0.50000000  0.58848520  0.91989525  1
  Zr  Zr12  1  0.00000000  0.33068717  0.48380806  1
  Zr  Zr13  1  -0.00000000  0.66931283  0.51619194  1
  Zr  Zr14  1  0.50000000  0.16931283  0.98380806  1
  Zr  Zr15  1  0.50000000  0.83068717  0.01619194  1
  Zr  Zr16  1  -0.00000000  0.69764032  0.29537271  1
  Zr  Zr17  1  0.00000000  0.30235968  0.70462729  1
  Zr  Zr18  1  0.50000000  0.80235968  0.79537271  1
  Zr  Zr19  1  0.50000000  0.19764032  0.20462729  1
  Zr  Zr20  1  0.00000000  0.62121790  0.08561793  1
  Zr  Zr21  1  -0.00000000  0.37878210  0.91438207  1
  Zr  Zr22  1  0.50000000  0.87878210  0.58561793  1
  Zr  Zr23  1  0.50000000  0.12121790  0.41438207  1
  Fe  Fe24  1  0.00000000  0.25869014  0.08850831  1
  Fe  Fe25  1  0.00000000  0.74130986  0.91149169  1
  Fe  Fe26  1  0.50000000  0.24130986  0.58850831  1
  Fe  Fe27  1  0.50000000  0.75869014  0.41149169  1
  S  S28  1  -0.00000000  0.06660257  0.28961932  1
  S  S29  1  0.00000000  0.93339743  0.71038068  1
  S  S30  1  0.50000000  0.43339743  0.78961932  1
  S  S31  1  0.50000000  0.56660257  0.21038068  1
  S  S32  1  -0.00000000  0.81364286  0.15260284  1
  S  S33  1  -0.00000000  0.18635714  0.84739716  1
  S  S34  1  0.50000000  0.68635714  0.65260284  1
  S  S35  1  0.50000000  0.31364286  0.34739716  1
