# generated using pymatgen
data_SmFeGe2
_symmetry_space_group_name_H-M   'P 1'
_cell_length_a   4.31585179
_cell_length_b   4.25322044
_cell_length_c   8.49432539
_cell_angle_alpha   104.49861658
_cell_angle_beta   90.00000000
_cell_angle_gamma   90.00000000
_symmetry_Int_Tables_number   1
_chemical_formula_structural   SmFeGe2
_chemical_formula_sum   'Sm2 Fe2 Ge4'
_cell_volume   150.95851367
_cell_formula_units_Z   2
loop_
 _symmetry_equiv_pos_site_id
 _symmetry_equiv_pos_as_xyz
  1  'x, y, z'
loop_
 _atom_site_type_symbol
 _atom_site_label
 _atom_site_symmetry_multiplicity
 _atom_site_fract_x
 _atom_site_fract_y
 _atom_site_fract_z
 _atom_site_occupancy
  Sm  Sm0  1  0.25000000  0.39315110  0.78630219  1
  Sm  Sm1  1  0.75000000  0.60684890  0.21369781  1
  Fe  Fe2  1  0.25000000  0.18456981  0.36913962  1
  Fe  Fe3  1  0.75000000  0.81543019  0.63086038  1
  Ge  Ge4  1  0.25000000  0.04464513  0.08929027  1
  Ge  Ge5  1  0.75000000  0.95535487  0.91070973  1
  Ge  Ge6  1  0.25000000  0.75109428  0.50218856  1
  Ge  Ge7  1  0.75000000  0.24890572  0.49781144  1
