# generated using pymatgen
data_P3Pb5O13
_symmetry_space_group_name_H-M   'P 1'
_cell_length_a   7.47620069
_cell_length_b   9.93302835
_cell_length_c   9.93302836
_cell_angle_alpha   120.00000423
_cell_angle_beta   90.00000000
_cell_angle_gamma   90.00000000
_symmetry_Int_Tables_number   1
_chemical_formula_structural   P3Pb5O13
_chemical_formula_sum   'P6 Pb10 O26'
_cell_volume   638.81471959
_cell_formula_units_Z   2
loop_
 _symmetry_equiv_pos_site_id
 _symmetry_equiv_pos_as_xyz
  1  'x, y, z'
loop_
 _atom_site_type_symbol
 _atom_site_label
 _atom_site_symmetry_multiplicity
 _atom_site_fract_x
 _atom_site_fract_y
 _atom_site_fract_z
 _atom_site_occupancy
  P  P0  1  0.75000000  0.60094688  0.63111598  1
  P  P1  1  0.25000000  0.39905312  0.36888402  1
  P  P2  1  0.75000000  0.03016910  0.39905312  1
  P  P3  1  0.25000000  0.96983090  0.60094688  1
  P  P4  1  0.75000000  0.36888402  0.96983090  1
  P  P5  1  0.25000000  0.63111598  0.03016910  1
  Pb  Pb6  1  0.99959584  0.66666700  0.33333300  1
  Pb  Pb7  1  0.00040416  0.33333300  0.66666700  1
  Pb  Pb8  1  0.49959584  0.33333300  0.66666700  1
  Pb  Pb9  1  0.50040416  0.66666700  0.33333300  1
  Pb  Pb10  1  0.75000000  0.76711164  0.00312634  1
  Pb  Pb11  1  0.25000000  0.23288836  0.99687366  1
  Pb  Pb12  1  0.75000000  0.23601470  0.23288836  1
  Pb  Pb13  1  0.25000000  0.76398530  0.76711164  1
  Pb  Pb14  1  0.75000000  0.99687366  0.76398530  1
  Pb  Pb15  1  0.25000000  0.00312634  0.23601470  1
  O  O16  1  0.75000000  0.85084393  0.32992729  1
  O  O17  1  0.25000000  0.14915607  0.67007271  1
  O  O18  1  0.75000000  0.47908336  0.14915607  1
  O  O19  1  0.25000000  0.52091664  0.85084393  1
  O  O20  1  0.75000000  0.67007271  0.52091664  1
  O  O21  1  0.25000000  0.32992729  0.47908336  1
  O  O22  1  0.75000000  -0.00000000  0.00000000  1
  O  O23  1  0.25000000  -0.00000000  0.00000000  1
  O  O24  1  0.75000000  0.41862241  0.53434011  1
  O  O25  1  0.25000000  0.58137759  0.46565989  1
  O  O26  1  0.75000000  0.11571770  0.58137759  1
  O  O27  1  0.25000000  0.88428230  0.41862241  1
  O  O28  1  0.75000000  0.46565989  0.88428230  1
  O  O29  1  0.25000000  0.53434011  0.11571770  1
  O  O30  1  0.91749715  0.65521788  0.74008109  1
  O  O31  1  0.08250285  0.34478212  0.25991891  1
  O  O32  1  0.91749715  0.08486321  0.34478212  1
  O  O33  1  0.41749715  0.34478212  0.25991891  1
  O  O34  1  0.08250285  0.91513679  0.65521788  1
  O  O35  1  0.58250285  0.65521788  0.74008109  1
  O  O36  1  0.91749715  0.25991891  0.91513679  1
  O  O37  1  0.41749715  0.91513679  0.65521788  1
  O  O38  1  0.08250285  0.74008109  0.08486321  1
  O  O39  1  0.58250285  0.08486321  0.34478212  1
  O  O40  1  0.41749715  0.74008109  0.08486321  1
  O  O41  1  0.58250285  0.25991891  0.91513679  1
