# generated using pymatgen
data_V3Pb5O12
_symmetry_space_group_name_H-M   'P 1'
_cell_length_a   7.47625141
_cell_length_b   10.34226972
_cell_length_c   10.34226973
_cell_angle_alpha   120.00000144
_cell_angle_beta   90.00000000
_cell_angle_gamma   90.00000000
_symmetry_Int_Tables_number   1
_chemical_formula_structural   V3Pb5O12
_chemical_formula_sum   'V6 Pb10 O24'
_cell_volume   692.54220056
_cell_formula_units_Z   2
loop_
 _symmetry_equiv_pos_site_id
 _symmetry_equiv_pos_as_xyz
  1  'x, y, z'
loop_
 _atom_site_type_symbol
 _atom_site_label
 _atom_site_symmetry_multiplicity
 _atom_site_fract_x
 _atom_site_fract_y
 _atom_site_fract_z
 _atom_site_occupancy
  V  V0  1  0.75000000  0.60419449  0.62116823  1
  V  V1  1  0.25000000  0.39580551  0.37883177  1
  V  V2  1  0.75000000  0.01697374  0.39580551  1
  V  V3  1  0.25000000  0.98302626  0.60419449  1
  V  V4  1  0.75000000  0.37883177  0.98302626  1
  V  V5  1  0.25000000  0.62116823  0.01697374  1
  Pb  Pb6  1  0.75000000  0.74317326  0.99513111  1
  Pb  Pb7  1  0.25000000  0.25682674  0.00486889  1
  Pb  Pb8  1  0.75000000  0.25195785  0.25682674  1
  Pb  Pb9  1  0.25000000  0.74804215  0.74317326  1
  Pb  Pb10  1  0.75000000  0.00486889  0.74804215  1
  Pb  Pb11  1  0.25000000  0.99513111  0.25195785  1
  Pb  Pb12  1  0.98994642  0.66666700  0.33333300  1
  Pb  Pb13  1  0.01005358  0.33333300  0.66666700  1
  Pb  Pb14  1  0.48994642  0.33333300  0.66666700  1
  Pb  Pb15  1  0.51005358  0.66666700  0.33333300  1
  O  O16  1  0.93595956  0.65713229  0.73952502  1
  O  O17  1  0.06404044  0.34286771  0.26047498  1
  O  O18  1  0.93595956  0.08239274  0.34286771  1
  O  O19  1  0.43595956  0.34286771  0.26047498  1
  O  O20  1  0.06404044  0.91760726  0.65713229  1
  O  O21  1  0.56404044  0.65713229  0.73952502  1
  O  O22  1  0.93595956  0.26047498  0.91760726  1
  O  O23  1  0.43595956  0.91760726  0.65713229  1
  O  O24  1  0.06404044  0.73952502  0.08239274  1
  O  O25  1  0.56404044  0.08239274  0.34286771  1
  O  O26  1  0.43595956  0.73952502  0.08239274  1
  O  O27  1  0.56404044  0.26047498  0.91760726  1
  O  O28  1  0.75000000  0.81822033  0.30616289  1
  O  O29  1  0.25000000  0.18177967  0.69383711  1
  O  O30  1  0.75000000  0.48794255  0.18177967  1
  O  O31  1  0.25000000  0.51205745  0.81822033  1
  O  O32  1  0.75000000  0.69383711  0.51205745  1
  O  O33  1  0.25000000  0.30616289  0.48794255  1
  O  O34  1  0.75000000  0.40440790  0.50910390  1
  O  O35  1  0.25000000  0.59559210  0.49089610  1
  O  O36  1  0.75000000  0.10469599  0.59559210  1
  O  O37  1  0.25000000  0.89530401  0.40440790  1
  O  O38  1  0.75000000  0.49089610  0.89530401  1
  O  O39  1  0.25000000  0.50910390  0.10469599  1
