# generated using pymatgen
data_Rb2Mn(TeS3)2
_symmetry_space_group_name_H-M   'P 1'
_cell_length_a   6.99843952
_cell_length_b   6.99843952
_cell_length_c   15.55914635
_cell_angle_alpha   90.00000000
_cell_angle_beta   90.00000000
_cell_angle_gamma   119.99999977
_symmetry_Int_Tables_number   1
_chemical_formula_structural   Rb2Mn(TeS3)2
_chemical_formula_sum   'Rb4 Mn2 Te4 S12'
_cell_volume   659.96184133
_cell_formula_units_Z   2
loop_
 _symmetry_equiv_pos_site_id
 _symmetry_equiv_pos_as_xyz
  1  'x, y, z'
loop_
 _atom_site_type_symbol
 _atom_site_label
 _atom_site_symmetry_multiplicity
 _atom_site_fract_x
 _atom_site_fract_y
 _atom_site_fract_z
 _atom_site_occupancy
  Rb  Rb0  1  0.66666700  0.33333300  0.70311620  1
  Rb  Rb1  1  0.33333300  0.66666700  0.29688380  1
  Rb  Rb2  1  0.33333300  0.66666700  0.79688380  1
  Rb  Rb3  1  0.66666700  0.33333300  0.20311620  1
  Mn  Mn4  1  0.00000000  0.00000000  -0.00000000  1
  Mn  Mn5  1  0.00000000  0.00000000  0.50000000  1
  Te  Te6  1  0.66666700  0.33333300  0.96115279  1
  Te  Te7  1  0.33333300  0.66666700  0.03884721  1
  Te  Te8  1  0.33333300  0.66666700  0.53884721  1
  Te  Te9  1  0.66666700  0.33333300  0.46115279  1
  S  S10  1  0.89059589  0.21242856  0.89118599  1
  S  S11  1  0.10940411  0.78757144  0.10881401  1
  S  S12  1  0.32183267  0.10940411  0.89118599  1
  S  S13  1  0.67816733  0.78757144  0.60881401  1
  S  S14  1  0.67816733  0.89059589  0.10881401  1
  S  S15  1  0.32183267  0.21242856  0.39118599  1
  S  S16  1  0.78757144  0.67816733  0.89118599  1
  S  S17  1  0.21242856  0.89059589  0.60881401  1
  S  S18  1  0.21242856  0.32183267  0.10881401  1
  S  S19  1  0.78757144  0.10940411  0.39118599  1
  S  S20  1  0.10940411  0.32183267  0.60881401  1
  S  S21  1  0.89059589  0.67816733  0.39118599  1
