# generated using pymatgen
data_Nb3Zn2Bi3O14
_symmetry_space_group_name_H-M   'P 1'
_cell_length_a   10.66818571
_cell_length_b   10.66818571
_cell_length_c   10.66818571
_cell_angle_alpha   90.00000000
_cell_angle_beta   90.00000000
_cell_angle_gamma   90.00000000
_symmetry_Int_Tables_number   1
_chemical_formula_structural   Nb3Zn2Bi3O14
_chemical_formula_sum   'Nb12 Zn8 Bi12 O56'
_cell_volume   1214.14820360
_cell_formula_units_Z   4
loop_
 _symmetry_equiv_pos_site_id
 _symmetry_equiv_pos_as_xyz
  1  'x, y, z'
loop_
 _atom_site_type_symbol
 _atom_site_label
 _atom_site_symmetry_multiplicity
 _atom_site_fract_x
 _atom_site_fract_y
 _atom_site_fract_z
 _atom_site_occupancy
  Nb  Nb0  1  0.12500000  0.87437260  0.12437260  1
  Nb  Nb1  1  0.37500000  0.12562740  0.62437260  1
  Nb  Nb2  1  0.87500000  0.37437260  0.37562740  1
  Nb  Nb3  1  0.12437260  0.12500000  0.87437260  1
  Nb  Nb4  1  0.62437260  0.37500000  0.12562740  1
  Nb  Nb5  1  0.62500000  0.62562740  0.87562740  1
  Nb  Nb6  1  0.87562740  0.62500000  0.62562740  1
  Nb  Nb7  1  0.37562740  0.87500000  0.37437260  1
  Nb  Nb8  1  0.87437260  0.12437260  0.12500000  1
  Nb  Nb9  1  0.37437260  0.37562740  0.87500000  1
  Nb  Nb10  1  0.62562740  0.87562740  0.62500000  1
  Nb  Nb11  1  0.12562740  0.62437260  0.37500000  1
  Zn  Zn12  1  0.87500000  0.87500000  0.87500000  1
  Zn  Zn13  1  0.62500000  0.12500000  0.37500000  1
  Zn  Zn14  1  0.12500000  0.37500000  0.62500000  1
  Zn  Zn15  1  0.37500000  0.62500000  0.12500000  1
  Zn  Zn16  1  0.37500000  0.37500000  0.37500000  1
  Zn  Zn17  1  0.12500000  0.62500000  0.87500000  1
  Zn  Zn18  1  0.62500000  0.87500000  0.12500000  1
  Zn  Zn19  1  0.87500000  0.12500000  0.62500000  1
  Bi  Bi20  1  0.12500000  0.15433326  0.40433326  1
  Bi  Bi21  1  0.37500000  0.84566674  0.90433326  1
  Bi  Bi22  1  0.87500000  0.65433326  0.09566674  1
  Bi  Bi23  1  0.40433326  0.12500000  0.15433326  1
  Bi  Bi24  1  0.90433326  0.37500000  0.84566674  1
  Bi  Bi25  1  0.62500000  0.34566674  0.59566674  1
  Bi  Bi26  1  0.59566674  0.62500000  0.34566674  1
  Bi  Bi27  1  0.09566674  0.87500000  0.65433326  1
  Bi  Bi28  1  0.15433326  0.40433326  0.12500000  1
  Bi  Bi29  1  0.65433326  0.09566674  0.87500000  1
  Bi  Bi30  1  0.34566674  0.59566674  0.62500000  1
  Bi  Bi31  1  0.84566674  0.90433326  0.37500000  1
  O  O32  1  0.00422375  0.29805828  0.48953586  1
  O  O33  1  0.49577625  0.70194172  0.98953586  1
  O  O34  1  0.99577625  0.79805828  0.01046414  1
  O  O35  1  0.48953586  0.00422375  0.29805828  1
  O  O36  1  0.04805828  0.25422375  0.76046414  1
  O  O37  1  0.50422375  0.20194172  0.51046414  1
  O  O38  1  0.98953586  0.49577625  0.70194172  1
  O  O39  1  0.45194172  0.74577625  0.26046414  1
  O  O40  1  0.01046414  0.99577625  0.79805828  1
  O  O41  1  0.54805828  0.24577625  0.23953586  1
  O  O42  1  0.51046414  0.50422375  0.20194172  1
  O  O43  1  0.95194172  0.75422375  0.73953586  1
  O  O44  1  0.29805828  0.48953586  0.00422375  1
  O  O45  1  0.75422375  0.73953586  0.95194172  1
  O  O46  1  0.79805828  0.01046414  0.99577625  1
  O  O47  1  0.74577625  0.26046414  0.45194172  1
  O  O48  1  0.20194172  0.51046414  0.50422375  1
  O  O49  1  0.25422375  0.76046414  0.04805828  1
  O  O50  1  0.70194172  0.98953586  0.49577625  1
  O  O51  1  0.24577625  0.23953586  0.54805828  1
  O  O52  1  0.76046414  0.04805828  0.25422375  1
  O  O53  1  0.26046414  0.45194172  0.74577625  1
  O  O54  1  0.73953586  0.95194172  0.75422375  1
  O  O55  1  0.23953586  0.54805828  0.24577625  1
  O  O56  1  0.27091856  0.27091856  0.27091856  1
  O  O57  1  0.22908144  0.72908144  0.77091856  1
  O  O58  1  0.72908144  0.77091856  0.22908144  1
  O  O59  1  0.02091856  0.52091856  0.97908144  1
  O  O60  1  0.77091856  0.22908144  0.72908144  1
  O  O61  1  0.47908144  0.47908144  0.47908144  1
  O  O62  1  0.52091856  0.97908144  0.02091856  1
  O  O63  1  0.97908144  0.02091856  0.52091856  1
  O  O64  1  0.99926235  0.99961915  0.19002784  1
  O  O65  1  0.50073765  0.00038085  0.69002784  1
  O  O66  1  0.00073765  0.49961915  0.30997216  1
  O  O67  1  0.19002784  0.99926235  0.99961915  1
  O  O68  1  0.74961915  0.24926235  0.05997216  1
  O  O69  1  0.49926235  0.50038085  0.80997216  1
  O  O70  1  0.69002784  0.50073765  0.00038085  1
  O  O71  1  0.75038085  0.75073765  0.55997216  1
  O  O72  1  0.30997216  0.00073765  0.49961915  1
  O  O73  1  0.24961915  0.25073765  0.94002784  1
  O  O74  1  0.80997216  0.49926235  0.50038085  1
  O  O75  1  0.25038085  0.74926235  0.44002784  1
  O  O76  1  0.99961915  0.19002784  0.99926235  1
  O  O77  1  0.74926235  0.44002784  0.25038085  1
  O  O78  1  0.49961915  0.30997216  0.00073765  1
  O  O79  1  0.75073765  0.55997216  0.75038085  1
  O  O80  1  0.50038085  0.80997216  0.49926235  1
  O  O81  1  0.24926235  0.05997216  0.74961915  1
  O  O82  1  0.00038085  0.69002784  0.50073765  1
  O  O83  1  0.25073765  0.94002784  0.24961915  1
  O  O84  1  0.05997216  0.74961915  0.24926235  1
  O  O85  1  0.55997216  0.75038085  0.75073765  1
  O  O86  1  0.44002784  0.25038085  0.74926235  1
  O  O87  1  0.94002784  0.24961915  0.25073765  1
