# generated using pymatgen
data_RbPr(WO4)2
_symmetry_space_group_name_H-M   'P 1'
_cell_length_a   5.32167559
_cell_length_b   8.40452399
_cell_length_c   19.16004378
_cell_angle_alpha   90.00000000
_cell_angle_beta   90.00000000
_cell_angle_gamma   90.00000000
_symmetry_Int_Tables_number   1
_chemical_formula_structural   RbPr(WO4)2
_chemical_formula_sum   'Rb4 Pr4 W8 O32'
_cell_volume   856.95499524
_cell_formula_units_Z   4
loop_
 _symmetry_equiv_pos_site_id
 _symmetry_equiv_pos_as_xyz
  1  'x, y, z'
loop_
 _atom_site_type_symbol
 _atom_site_label
 _atom_site_symmetry_multiplicity
 _atom_site_fract_x
 _atom_site_fract_y
 _atom_site_fract_z
 _atom_site_occupancy
  Rb  Rb0  1  -0.00000000  0.75000000  0.23061514  1
  Rb  Rb1  1  -0.00000000  0.25000000  0.76938486  1
  Rb  Rb2  1  0.50000000  0.25000000  0.26938486  1
  Rb  Rb3  1  0.50000000  0.75000000  0.73061514  1
  Pr  Pr4  1  -0.00000000  0.75000000  0.99268959  1
  Pr  Pr5  1  -0.00000000  0.25000000  0.00731041  1
  Pr  Pr6  1  0.50000000  0.25000000  0.50731041  1
  Pr  Pr7  1  0.50000000  0.75000000  0.49268959  1
  W  W8  1  0.97862416  0.98223992  0.60056560  1
  W  W9  1  0.02137584  0.01776008  0.39943440  1
  W  W10  1  0.52137584  0.48223992  0.89943440  1
  W  W11  1  0.02137584  0.51776008  0.60056560  1
  W  W12  1  0.47862416  0.51776008  0.10056560  1
  W  W13  1  0.97862416  0.48223992  0.39943440  1
  W  W14  1  0.47862416  0.01776008  0.89943440  1
  W  W15  1  0.52137584  0.98223992  0.10056560  1
  O  O16  1  0.89872418  0.52460371  0.68685414  1
  O  O17  1  0.10127582  0.47539629  0.31314586  1
  O  O18  1  0.60127582  0.02460371  0.81314586  1
  O  O19  1  0.10127582  0.97539629  0.68685414  1
  O  O20  1  0.39872418  0.97539629  0.18685414  1
  O  O21  1  0.89872418  0.02460371  0.31314586  1
  O  O22  1  0.39872418  0.47539629  0.81314586  1
  O  O23  1  0.60127582  0.52460371  0.18685414  1
  O  O24  1  0.72298939  0.65696982  0.90087190  1
  O  O25  1  0.27701061  0.34303018  0.09912810  1
  O  O26  1  0.77701061  0.15696982  0.59912810  1
  O  O27  1  0.27701061  0.84303018  0.90087190  1
  O  O28  1  0.22298939  0.84303018  0.40087190  1
  O  O29  1  0.72298939  0.15696982  0.09912810  1
  O  O30  1  0.22298939  0.34303018  0.59912810  1
  O  O31  1  0.77701061  0.65696982  0.40087190  1
  O  O32  1  0.74260357  0.99764793  0.96412511  1
  O  O33  1  0.25739643  0.00235207  0.03587489  1
  O  O34  1  0.75739643  0.49764793  0.53587489  1
  O  O35  1  0.25739643  0.50235207  0.96412511  1
  O  O36  1  0.24260357  0.50235207  0.46412511  1
  O  O37  1  0.74260357  0.49764793  0.03587489  1
  O  O38  1  0.24260357  0.00235207  0.53587489  1
  O  O39  1  0.75739643  0.99764793  0.46412511  1
  O  O40  1  0.76409000  0.81177162  0.59134445  1
  O  O41  1  0.23591000  0.18822838  0.40865555  1
  O  O42  1  0.73591000  0.31177162  0.90865555  1
  O  O43  1  0.23591000  0.68822838  0.59134445  1
  O  O44  1  0.26409000  0.68822838  0.09134445  1
  O  O45  1  0.76409000  0.31177162  0.40865555  1
  O  O46  1  0.26409000  0.18822838  0.90865555  1
  O  O47  1  0.73591000  0.81177162  0.09134445  1
