# generated using pymatgen
data_Sm2CoRuO6
_symmetry_space_group_name_H-M   'P 1'
_cell_length_a   5.39517213
_cell_length_b   5.80951460
_cell_length_c   7.74433631
_cell_angle_alpha   90.00000000
_cell_angle_beta   89.79169777
_cell_angle_gamma   90.00000000
_symmetry_Int_Tables_number   1
_chemical_formula_structural   Sm2CoRuO6
_chemical_formula_sum   'Sm4 Co2 Ru2 O12'
_cell_volume   242.73169415
_cell_formula_units_Z   2
loop_
 _symmetry_equiv_pos_site_id
 _symmetry_equiv_pos_as_xyz
  1  'x, y, z'
loop_
 _atom_site_type_symbol
 _atom_site_label
 _atom_site_symmetry_multiplicity
 _atom_site_fract_x
 _atom_site_fract_y
 _atom_site_fract_z
 _atom_site_occupancy
  Sm  Sm0  1  0.02092430  0.42891478  0.25070473  1
  Sm  Sm1  1  0.97907570  0.57108522  0.74929527  1
  Sm  Sm2  1  0.47907570  0.92891478  0.24929527  1
  Sm  Sm3  1  0.52092430  0.07108522  0.75070473  1
  Co  Co4  1  0.00000000  -0.00000000  0.50000000  1
  Co  Co5  1  0.50000000  0.50000000  0.00000000  1
  Ru  Ru6  1  0.00000000  0.00000000  0.00000000  1
  Ru  Ru7  1  0.50000000  0.50000000  0.50000000  1
  O  O8  1  0.89238529  0.03784140  0.24853532  1
  O  O9  1  0.10761471  0.96215860  0.75146468  1
  O  O10  1  0.60761471  0.53784140  0.25146468  1
  O  O11  1  0.39238529  0.46215860  0.74853532  1
  O  O12  1  0.30703475  0.19199251  0.05053367  1
  O  O13  1  0.69296525  0.80800749  0.94946633  1
  O  O14  1  0.19296525  0.69199251  0.44946633  1
  O  O15  1  0.80703475  0.30800749  0.55053367  1
  O  O16  1  0.18598725  0.70369657  0.05710938  1
  O  O17  1  0.81401275  0.29630343  0.94289062  1
  O  O18  1  0.31401275  0.20369657  0.44289062  1
  O  O19  1  0.68598725  0.79630343  0.55710938  1
