# generated using pymatgen
data_NbSe4
_symmetry_space_group_name_H-M   'P 1'
_cell_length_a   8.49940711
_cell_length_b   8.49940711
_cell_length_c   19.66063664
_cell_angle_alpha   90.00000000
_cell_angle_beta   90.00000000
_cell_angle_gamma   90.00000000
_symmetry_Int_Tables_number   1
_chemical_formula_structural   NbSe4
_chemical_formula_sum   'Nb12 Se48'
_cell_volume   1420.28284204
_cell_formula_units_Z   12
loop_
 _symmetry_equiv_pos_site_id
 _symmetry_equiv_pos_as_xyz
  1  'x, y, z'
loop_
 _atom_site_type_symbol
 _atom_site_label
 _atom_site_symmetry_multiplicity
 _atom_site_fract_x
 _atom_site_fract_y
 _atom_site_fract_z
 _atom_site_occupancy
  Nb  Nb0  1  -0.00000000  0.00000000  0.84587089  1
  Nb  Nb1  1  -0.00000000  0.00000000  0.50170399  1
  Nb  Nb2  1  0.50000000  0.50000000  0.01392415  1
  Nb  Nb3  1  -0.00000000  0.00000000  0.15677659  1
  Nb  Nb4  1  -0.00000000  0.00000000  0.34718259  1
  Nb  Nb5  1  0.50000000  0.50000000  0.32619229  1
  Nb  Nb6  1  0.50000000  0.50000000  0.67121725  1
  Nb  Nb7  1  -0.00000000  0.00000000  0.65733207  1
  Nb  Nb8  1  0.50000000  0.50000000  0.51323839  1
  Nb  Nb9  1  0.50000000  0.50000000  0.17093686  1
  Nb  Nb10  1  0.50000000  0.50000000  0.82610954  1
  Nb  Nb11  1  -0.00000000  0.00000000  0.00082574  1
  Se  Se12  1  0.26311954  0.39817140  0.08837371  1
  Se  Se13  1  0.73688046  0.60182860  0.08837371  1
  Se  Se14  1  0.60182860  0.26311954  0.08837371  1
  Se  Se15  1  0.39817140  0.73688046  0.08837371  1
  Se  Se16  1  0.28067948  0.39687342  0.41979877  1
  Se  Se17  1  0.71932052  0.60312658  0.41979877  1
  Se  Se18  1  0.60312658  0.28067948  0.41979877  1
  Se  Se19  1  0.39687342  0.71932052  0.41979877  1
  Se  Se20  1  0.21737643  0.10437141  0.75156092  1
  Se  Se21  1  0.78262357  0.89562859  0.75156092  1
  Se  Se22  1  0.89562859  0.21737643  0.75156092  1
  Se  Se23  1  0.10437141  0.78262357  0.75156092  1
  Se  Se24  1  0.25831165  0.40604609  0.75169923  1
  Se  Se25  1  0.74168835  0.59395391  0.75169923  1
  Se  Se26  1  0.59395391  0.25831165  0.75169923  1
  Se  Se27  1  0.40604609  0.74168835  0.75169923  1
  Se  Se28  1  0.09506400  0.24127202  0.92009035  1
  Se  Se29  1  0.90493600  0.75872798  0.92009035  1
  Se  Se30  1  0.75872798  0.09506400  0.92009035  1
  Se  Se31  1  0.24127202  0.90493600  0.92009035  1
  Se  Se32  1  0.09833970  0.23981063  0.58354804  1
  Se  Se33  1  0.90166030  0.76018937  0.58354804  1
  Se  Se34  1  0.76018937  0.09833970  0.58354804  1
  Se  Se35  1  0.23981063  0.90166030  0.58354804  1
  Se  Se36  1  0.40472152  0.25969883  0.25175988  1
  Se  Se37  1  0.59527848  0.74030117  0.25175988  1
  Se  Se38  1  0.74030117  0.40472152  0.25175988  1
  Se  Se39  1  0.25969883  0.59527848  0.25175988  1
  Se  Se40  1  0.23933462  0.09850203  0.08291365  1
  Se  Se41  1  0.76066538  0.90149797  0.08291365  1
  Se  Se42  1  0.90149797  0.23933462  0.08291365  1
  Se  Se43  1  0.09850203  0.76066538  0.08291365  1
  Se  Se44  1  0.39642235  0.28114089  0.91995741  1
  Se  Se45  1  0.60357765  0.71885911  0.91995741  1
  Se  Se46  1  0.71885911  0.39642235  0.91995741  1
  Se  Se47  1  0.28114089  0.60357765  0.91995741  1
  Se  Se48  1  0.24133138  0.09528339  0.42102496  1
  Se  Se49  1  0.75866862  0.90471661  0.42102496  1
  Se  Se50  1  0.90471661  0.24133138  0.42102496  1
  Se  Se51  1  0.09528339  0.75866862  0.42102496  1
  Se  Se52  1  0.39738027  0.26383717  0.58821655  1
  Se  Se53  1  0.60261973  0.73616283  0.58821655  1
  Se  Se54  1  0.73616283  0.39738027  0.58821655  1
  Se  Se55  1  0.26383717  0.60261973  0.58821655  1
  Se  Se56  1  0.10256644  0.21673870  0.25207895  1
  Se  Se57  1  0.89743356  0.78326130  0.25207895  1
  Se  Se58  1  0.78326130  0.10256644  0.25207895  1
  Se  Se59  1  0.21673870  0.89743356  0.25207895  1
