# generated using pymatgen
data_Na5Ni9As7
_symmetry_space_group_name_H-M   'P 1'
_cell_length_a   3.98143552
_cell_length_b   9.68114686
_cell_length_c   9.68114687
_cell_angle_alpha   120.00000017
_cell_angle_beta   90.00000000
_cell_angle_gamma   90.00000000
_symmetry_Int_Tables_number   1
_chemical_formula_structural   Na5Ni9As7
_chemical_formula_sum   'Na5 Ni9 As7'
_cell_volume   323.16471405
_cell_formula_units_Z   1
loop_
 _symmetry_equiv_pos_site_id
 _symmetry_equiv_pos_as_xyz
  1  'x, y, z'
loop_
 _atom_site_type_symbol
 _atom_site_label
 _atom_site_symmetry_multiplicity
 _atom_site_fract_x
 _atom_site_fract_y
 _atom_site_fract_z
 _atom_site_occupancy
  Na  Na0  1  0.50000000  0.77761143  0.89370009  1
  Na  Na1  1  0.50000000  0.11608866  0.22238857  1
  Na  Na2  1  0.50000000  0.10629991  0.88391134  1
  Na  Na3  1  -0.00000000  0.66666700  0.33333300  1
  Na  Na4  1  0.50000000  0.33333300  0.66666700  1
  Ni  Ni5  1  0.00000000  0.87173250  0.17104861  1
  Ni  Ni6  1  0.00000000  0.29931611  0.12826750  1
  Ni  Ni7  1  -0.00000000  0.82895139  0.70068389  1
  Ni  Ni8  1  -0.00000000  0.57564489  0.95796740  1
  Ni  Ni9  1  -0.00000000  0.38232251  0.42435511  1
  Ni  Ni10  1  0.00000000  0.04203260  0.61767749  1
  Ni  Ni11  1  0.50000000  0.94832552  0.38690369  1
  Ni  Ni12  1  0.50000000  0.43857817  0.05167448  1
  Ni  Ni13  1  0.50000000  0.61309631  0.56142183  1
  As  As14  1  0.50000000  0.70986724  0.13027386  1
  As  As15  1  0.50000000  0.42040662  0.29013276  1
  As  As16  1  0.50000000  0.86972614  0.57959338  1
  As  As17  1  0.00000000  0.57895033  0.69162837  1
  As  As18  1  -0.00000000  0.11267805  0.42104967  1
  As  As19  1  0.00000000  0.30837163  0.88732195  1
  As  As20  1  -0.00000000  0.00000000  0.00000000  1
