# generated using pymatgen
data_Sm(Ge3Pt)4
_symmetry_space_group_name_H-M   'P 1'
_cell_length_a   7.55865729
_cell_length_b   7.55865729
_cell_length_c   7.55865729
_cell_angle_alpha   109.47122063
_cell_angle_beta   109.47122063
_cell_angle_gamma   109.47122063
_symmetry_Int_Tables_number   1
_chemical_formula_structural   Sm(Ge3Pt)4
_chemical_formula_sum   'Sm1 Ge12 Pt4'
_cell_volume   332.43908130
_cell_formula_units_Z   1
loop_
 _symmetry_equiv_pos_site_id
 _symmetry_equiv_pos_as_xyz
  1  'x, y, z'
loop_
 _atom_site_type_symbol
 _atom_site_label
 _atom_site_symmetry_multiplicity
 _atom_site_fract_x
 _atom_site_fract_y
 _atom_site_fract_z
 _atom_site_occupancy
  Sm  Sm0  1  -0.00000000  -0.00000000  -0.00000000  1
  Ge  Ge1  1  0.84872336  0.64665783  0.49538119  1
  Ge  Ge2  1  0.15127664  0.35334217  0.50461881  1
  Ge  Ge3  1  0.15127664  0.64665783  0.79793447  1
  Ge  Ge4  1  0.84872336  0.35334217  0.20206553  1
  Ge  Ge5  1  0.64665783  0.49538119  0.84872336  1
  Ge  Ge6  1  0.35334217  0.50461881  0.15127664  1
  Ge  Ge7  1  0.64665783  0.79793447  0.15127664  1
  Ge  Ge8  1  0.35334217  0.20206553  0.84872336  1
  Ge  Ge9  1  0.49538119  0.84872336  0.64665783  1
  Ge  Ge10  1  0.50461881  0.15127664  0.35334217  1
  Ge  Ge11  1  0.20206553  0.84872336  0.35334217  1
  Ge  Ge12  1  0.79793447  0.15127664  0.64665783  1
  Pt  Pt13  1  0.50000000  0.50000000  0.50000000  1
  Pt  Pt14  1  0.50000000  -0.00000000  -0.00000000  1
  Pt  Pt15  1  -0.00000000  0.50000000  -0.00000000  1
  Pt  Pt16  1  -0.00000000  -0.00000000  0.50000000  1
