# generated using pymatgen
data_K2Cu2(MoO4)3
_symmetry_space_group_name_H-M   'P 1'
_cell_length_a   7.07622363
_cell_length_b   9.10378318
_cell_length_c   19.46607373
_cell_angle_alpha   90.00000000
_cell_angle_beta   91.17776929
_cell_angle_gamma   90.00000000
_symmetry_Int_Tables_number   1
_chemical_formula_structural   K2Cu2(MoO4)3
_chemical_formula_sum   'K8 Cu8 Mo12 O48'
_cell_volume   1253.74743627
_cell_formula_units_Z   4
loop_
 _symmetry_equiv_pos_site_id
 _symmetry_equiv_pos_as_xyz
  1  'x, y, z'
loop_
 _atom_site_type_symbol
 _atom_site_label
 _atom_site_symmetry_multiplicity
 _atom_site_fract_x
 _atom_site_fract_y
 _atom_site_fract_z
 _atom_site_occupancy
  K  K0  1  0.20646575  0.53148830  0.40481345  1
  K  K1  1  0.79353425  0.46851170  0.59518655  1
  K  K2  1  0.29353425  0.03148830  0.09518655  1
  K  K3  1  0.70646575  0.96851170  0.90481345  1
  K  K4  1  0.68901431  0.61757444  0.28726822  1
  K  K5  1  0.31098569  0.38242556  0.71273178  1
  K  K6  1  0.81098569  0.11757444  0.21273178  1
  K  K7  1  0.18901431  0.88242556  0.78726822  1
  Cu  Cu8  1  0.37727237  0.91082452  0.44000983  1
  Cu  Cu9  1  0.62272763  0.08917548  0.55999017  1
  Cu  Cu10  1  0.12272763  0.41082452  0.05999017  1
  Cu  Cu11  1  0.87727237  0.58917548  0.94000983  1
  Cu  Cu12  1  0.40234959  0.64272184  0.13464528  1
  Cu  Cu13  1  0.59765041  0.35727816  0.86535472  1
  Cu  Cu14  1  0.09765041  0.14272184  0.36535472  1
  Cu  Cu15  1  0.90234959  0.85727816  0.63464528  1
  Mo  Mo16  1  0.90081299  0.72219866  0.09775850  1
  Mo  Mo17  1  0.09918701  0.27780134  0.90224150  1
  Mo  Mo18  1  0.59918701  0.22219866  0.40224150  1
  Mo  Mo19  1  0.40081299  0.77780134  0.59775850  1
  Mo  Mo20  1  0.22157714  0.82934264  0.27419319  1
  Mo  Mo21  1  0.77842286  0.17065736  0.72580681  1
  Mo  Mo22  1  0.27842286  0.32934264  0.22580681  1
  Mo  Mo23  1  0.72157714  0.67065736  0.77419319  1
  Mo  Mo24  1  0.88095442  0.83879296  0.46562207  1
  Mo  Mo25  1  0.11904558  0.16120704  0.53437793  1
  Mo  Mo26  1  0.61904558  0.33879296  0.03437793  1
  Mo  Mo27  1  0.38095442  0.66120704  0.96562207  1
  O  O28  1  0.13141593  0.28181124  0.15191234  1
  O  O29  1  0.86858407  0.71818876  0.84808766  1
  O  O30  1  0.36858407  0.78181124  0.34808766  1
  O  O31  1  0.63141593  0.21818876  0.65191234  1
  O  O32  1  0.10598074  0.00719109  0.28694143  1
  O  O33  1  0.89401926  0.99280891  0.71305857  1
  O  O34  1  0.39401926  0.50719109  0.21305857  1
  O  O35  1  0.60598074  0.49280891  0.78694143  1
  O  O36  1  0.13440174  0.32640483  0.30199905  1
  O  O37  1  0.86559826  0.67359517  0.69800095  1
  O  O38  1  0.36559826  0.82640483  0.19800095  1
  O  O39  1  0.63440174  0.17359517  0.80199905  1
  O  O40  1  0.04745598  0.69224122  0.26643384  1
  O  O41  1  0.95254402  0.30775878  0.73356616  1
  O  O42  1  0.45254402  0.19224122  0.23356616  1
  O  O43  1  0.54745598  0.80775878  0.76643384  1
  O  O44  1  0.69906482  0.65793527  0.14313145  1
  O  O45  1  0.30093518  0.34206473  0.85686855  1
  O  O46  1  0.80093518  0.15793527  0.35686855  1
  O  O47  1  0.19906482  0.84206473  0.64313145  1
  O  O48  1  0.41038726  0.75713282  0.04718970  1
  O  O49  1  0.58961274  0.24286718  0.95281030  1
  O  O50  1  0.08961274  0.25713282  0.45281030  1
  O  O51  1  0.91038726  0.74286718  0.54718970  1
  O  O52  1  0.87017076  0.69570044  0.40586145  1
  O  O53  1  0.12982924  0.30429956  0.59413855  1
  O  O54  1  0.62982924  0.19570044  0.09413855  1
  O  O55  1  0.37017076  0.80429956  0.90586145  1
  O  O56  1  0.95999674  0.89668261  0.13060129  1
  O  O57  1  0.04000326  0.10331739  0.86939871  1
  O  O58  1  0.54000326  0.39668261  0.36939871  1
  O  O59  1  0.45999674  0.60331739  0.63060129  1
  O  O60  1  0.84298933  0.43650701  0.04256720  1
  O  O61  1  0.15701067  0.56349299  0.95743280  1
  O  O62  1  0.65701067  0.93650701  0.45743280  1
  O  O63  1  0.34298933  0.06349299  0.54256720  1
  O  O64  1  0.10979199  0.60075967  0.11124787  1
  O  O65  1  0.89020801  0.39924033  0.88875213  1
  O  O66  1  0.39020801  0.10075967  0.38875213  1
  O  O67  1  0.60979199  0.89924033  0.61124787  1
  O  O68  1  0.85061005  0.75125338  0.00611778  1
  O  O69  1  0.14938995  0.24874662  0.99388222  1
  O  O70  1  0.64938995  0.25125338  0.49388222  1
  O  O71  1  0.35061005  0.74874662  0.50611778  1
  O  O72  1  0.08746788  0.95273292  0.44064798  1
  O  O73  1  0.91253212  0.04726708  0.55935202  1
  O  O74  1  0.41253212  0.45273292  0.05935202  1
  O  O75  1  0.58746788  0.54726708  0.94064798  1
