# generated using pymatgen
data_Na3Cu2(MoO4)3
_symmetry_space_group_name_H-M   'P 1'
_cell_length_a   7.02488126
_cell_length_b   9.46267228
_cell_length_c   9.46267228
_cell_angle_alpha   98.70006055
_cell_angle_beta   104.13781094
_cell_angle_gamma   104.13781094
_symmetry_Int_Tables_number   1
_chemical_formula_structural   Na3Cu2(MoO4)3
_chemical_formula_sum   'Na6 Cu4 Mo6 O24'
_cell_volume   576.42342696
_cell_formula_units_Z   2
loop_
 _symmetry_equiv_pos_site_id
 _symmetry_equiv_pos_as_xyz
  1  'x, y, z'
loop_
 _atom_site_type_symbol
 _atom_site_label
 _atom_site_symmetry_multiplicity
 _atom_site_fract_x
 _atom_site_fract_y
 _atom_site_fract_z
 _atom_site_occupancy
  Na  Na0  1  0.75000000  0.23309187  0.76690813  1
  Na  Na1  1  0.25000000  0.76690813  0.23309187  1
  Na  Na2  1  -0.00000000  0.00000000  -0.00000000  1
  Na  Na3  1  0.50000000  0.00000000  -0.00000000  1
  Na  Na4  1  0.75000000  0.51939504  0.48060496  1
  Na  Na5  1  0.25000000  0.48060496  0.51939504  1
  Cu  Cu6  1  0.61962194  0.55142710  0.87286460  1
  Cu  Cu7  1  0.38037806  0.44857290  0.12713540  1
  Cu  Cu8  1  0.88037806  0.12713540  0.44857290  1
  Cu  Cu9  1  0.11962194  0.87286460  0.55142710  1
  Mo  Mo10  1  0.75000000  0.78083715  0.21916285  1
  Mo  Mo11  1  0.25000000  0.21916285  0.78083715  1
  Mo  Mo12  1  0.88128278  0.37637458  0.16814424  1
  Mo  Mo13  1  0.11871722  0.62362542  0.83185576  1
  Mo  Mo14  1  0.61871722  0.83185576  0.62362542  1
  Mo  Mo15  1  0.38128278  0.16814424  0.37637458  1
  O  O16  1  0.67238904  0.45805967  0.12022498  1
  O  O17  1  0.32761096  0.54194033  0.87977502  1
  O  O18  1  0.82761096  0.87977502  0.54194033  1
  O  O19  1  0.17238904  0.12022498  0.45805967  1
  O  O20  1  0.87866400  0.50730449  0.84209835  1
  O  O21  1  0.12133600  0.49269551  0.15790165  1
  O  O22  1  0.62133600  0.15790165  0.49269551  1
  O  O23  1  0.37866400  0.84209835  0.50730449  1
  O  O24  1  0.81076932  0.19892839  0.04179215  1
  O  O25  1  0.18923068  0.80107161  0.95820785  1
  O  O26  1  0.68923068  0.95820785  0.80107161  1
  O  O27  1  0.31076932  0.04179215  0.19892839  1
  O  O28  1  0.75497691  0.74543054  0.02673745  1
  O  O29  1  0.24502309  0.25456946  0.97326255  1
  O  O30  1  0.74502309  0.97326255  0.25456946  1
  O  O31  1  0.25497691  0.02673745  0.74543054  1
  O  O32  1  0.52223586  0.66341545  0.24734860  1
  O  O33  1  0.47776414  0.33658455  0.75265140  1
  O  O34  1  0.97776414  0.75265140  0.33658455  1
  O  O35  1  0.02223586  0.24734860  0.66341545  1
  O  O36  1  0.58565665  0.64197750  0.64640762  1
  O  O37  1  0.41434335  0.35802250  0.35359238  1
  O  O38  1  0.91434335  0.35359238  0.35802250  1
  O  O39  1  0.08565665  0.64640762  0.64197750  1
