# generated using pymatgen
data_LiFeWClO4
_symmetry_space_group_name_H-M   'P 1'
_cell_length_a   5.17072109
_cell_length_b   7.01315578
_cell_length_c   7.19656121
_cell_angle_alpha   90.00000000
_cell_angle_beta   90.85396344
_cell_angle_gamma   90.00000000
_symmetry_Int_Tables_number   1
_chemical_formula_structural   LiFeWClO4
_chemical_formula_sum   'Li2 Fe2 W2 Cl2 O8'
_cell_volume   260.94043527
_cell_formula_units_Z   2
loop_
 _symmetry_equiv_pos_site_id
 _symmetry_equiv_pos_as_xyz
  1  'x, y, z'
loop_
 _atom_site_type_symbol
 _atom_site_label
 _atom_site_symmetry_multiplicity
 _atom_site_fract_x
 _atom_site_fract_y
 _atom_site_fract_z
 _atom_site_occupancy
  Li  Li0  1  -0.00000000  -0.00000000  -0.00000000  1
  Li  Li1  1  -0.00000000  0.50000000  -0.00000000  1
  Fe  Fe2  1  0.68297630  0.25000000  0.74826426  1
  Fe  Fe3  1  0.31702370  0.75000000  0.25173574  1
  W  W4  1  0.50201982  0.25000000  0.23848312  1
  W  W5  1  0.49798018  0.75000000  0.76151688  1
  Cl  Cl6  1  0.18770514  0.25000000  0.77158981  1
  Cl  Cl7  1  0.81229486  0.75000000  0.22841019  1
  O  O8  1  0.29715939  0.03929156  0.21159789  1
  O  O9  1  0.70284061  0.96070844  0.78840211  1
  O  O10  1  0.70284061  0.53929156  0.78840211  1
  O  O11  1  0.29715939  0.46070844  0.21159789  1
  O  O12  1  0.75267066  0.25000000  0.06099063  1
  O  O13  1  0.24732934  0.75000000  0.93900937  1
  O  O14  1  0.65726750  0.25000000  0.46156874  1
  O  O15  1  0.34273250  0.75000000  0.53843126  1
