# generated using pymatgen
data_LaH23C4N6(Cl2O5)2
_symmetry_space_group_name_H-M   'P 1'
_cell_length_a   6.90130839
_cell_length_b   9.51588771
_cell_length_c   16.96430876
_cell_angle_alpha   89.99685344
_cell_angle_beta   90.00187293
_cell_angle_gamma   111.26423612
_symmetry_Int_Tables_number   1
_chemical_formula_structural   LaH23C4N6(Cl2O5)2
_chemical_formula_sum   'La2 H46 C8 N12 Cl8 O20'
_cell_volume   1038.23224219
_cell_formula_units_Z   2
loop_
 _symmetry_equiv_pos_site_id
 _symmetry_equiv_pos_as_xyz
  1  'x, y, z'
loop_
 _atom_site_type_symbol
 _atom_site_label
 _atom_site_symmetry_multiplicity
 _atom_site_fract_x
 _atom_site_fract_y
 _atom_site_fract_z
 _atom_site_occupancy
  La  La0  1  0.73374528  0.00000984  0.85214580  1
  La  La1  1  0.26627769  0.99999089  0.35215562  1
  H  H2  1  0.80515779  0.64790545  0.54870981  1
  H  H3  1  0.19483124  0.35205948  0.04870209  1
  H  H4  1  0.84276077  0.64792046  0.04870658  1
  H  H5  1  0.15723896  0.35207965  0.54870240  1
  H  H6  1  0.53180212  0.40742717  0.75333883  1
  H  H7  1  0.46820343  0.59258117  0.25333282  1
  H  H8  1  0.87559670  0.40740644  0.25336304  1
  H  H9  1  0.12439626  0.59260290  0.75333865  1
  H  H10  1  0.24679965  0.20199099  0.62919989  1
  H  H11  1  0.75320221  0.79801441  0.12918789  1
  H  H12  1  0.95511932  0.20197841  0.12918211  1
  H  H13  1  0.04486726  0.79803351  0.62918852  1
  H  H14  1  0.61488806  0.45824208  0.87745319  1
  H  H15  1  0.38512109  0.54174978  0.37744420  1
  H  H16  1  0.84334831  0.45826198  0.37745458  1
  H  H17  1  0.15665838  0.54175092  0.87745031  1
  H  H18  1  0.86662860  0.90825330  0.48670346  1
  H  H19  1  0.13329409  0.09176138  0.98670100  1
  H  H20  1  0.04150656  0.90821331  0.98666863  1
  H  H21  1  0.95855131  0.09179907  0.48667704  1
  H  H22  1  0.84815196  0.80323438  0.67607051  1
  H  H23  1  0.15184271  0.19675795  0.17606474  1
  H  H24  1  0.95511857  0.80322283  0.17608427  1
  H  H25  1  0.04489426  0.19679256  0.67608954  1
  H  H26  1  0.72540801  0.47038940  0.00361698  1
  H  H27  1  0.27459169  0.52959973  0.50360622  1
  H  H28  1  0.74497559  0.47038408  0.50360952  1
  H  H29  1  0.25501367  0.52958831  0.00360380  1
  H  H30  1  0.52776424  0.55070177  0.68907031  1
  H  H31  1  0.47223166  0.44931320  0.18906591  1
  H  H32  1  0.02294618  0.55068573  0.18906676  1
  H  H33  1  0.97704891  0.44933362  0.68906409  1
  H  H34  1  0.21645255  0.08747815  0.81909740  1
  H  H35  1  0.78357949  0.91250968  0.31909948  1
  H  H36  1  0.87106513  0.08742779  0.31908135  1
  H  H37  1  0.12896847  0.91257103  0.81908594  1
  H  H38  1  0.44907398  0.08948203  0.52706037  1
  H  H39  1  0.55091424  0.91051411  0.02706868  1
  H  H40  1  0.64039771  0.08945190  0.02706195  1
  H  H41  1  0.35957393  0.91053548  0.52706044  1
  H  H42  1  0.50515435  0.90983068  0.68692109  1
  H  H43  1  0.49482107  0.09017757  0.18692492  1
  H  H44  1  0.40467159  0.90985757  0.18693255  1
  H  H45  1  0.59529614  0.09013724  0.68692351  1
  H  H46  1  0.90978578  0.00005995  0.56915256  1
  H  H47  1  0.09019360  0.99990361  0.06914771  1
  C  C48  1  0.64812340  0.62654909  0.79635696  1
  C  C49  1  0.35187609  0.37343969  0.29635139  1
  C  C50  1  0.97844217  0.62655208  0.29634879  1
  C  C51  1  0.02157249  0.37347495  0.79635090  1
  C  C52  1  0.77056161  0.66090050  0.93458910  1
  C  C53  1  0.22944104  0.33908677  0.43458129  1
  C  C54  1  0.89035657  0.66091347  0.43458686  1
  C  C55  1  0.10963871  0.33905861  0.93457528  1
  N  N56  1  0.66828500  0.57492701  0.87108418  1
  N  N57  1  0.33171798  0.42507016  0.37108718  1
  N  N58  1  0.90663686  0.57493430  0.37108731  1
  N  N59  1  0.09337065  0.42507647  0.87107645  1
  N  N60  1  0.79060657  0.58513474  0.99826816  1
  N  N61  1  0.20939419  0.41487362  0.49826461  1
  N  N62  1  0.79450640  0.58512378  0.49826756  1
  N  N63  1  0.20549890  0.41486517  0.99826467  1
  N  N64  1  0.55305784  0.51792669  0.74382491  1
  N  N65  1  0.44691857  0.48207267  0.24382649  1
  N  N66  1  0.96485521  0.51790218  0.24382570  1
  N  N67  1  0.03510551  0.48211990  0.74381626  1
  Cl  Cl68  1  0.52356979  0.22406578  0.86676273  1
  Cl  Cl69  1  0.47645869  0.77591805  0.36678389  1
  Cl  Cl70  1  0.70051638  0.22404920  0.36675993  1
  Cl  Cl71  1  0.29952521  0.77596340  0.86676675  1
  Cl  Cl72  1  0.58987994  0.26692016  0.61163983  1
  Cl  Cl73  1  0.41012733  0.73307154  0.11164781  1
  Cl  Cl74  1  0.67704138  0.26692956  0.11161551  1
  Cl  Cl75  1  0.32297193  0.73307324  0.61162750  1
  O  O76  1  0.85444690  0.00005015  0.51446200  1
  O  O77  1  0.14554999  0.99996665  0.01446090  1
  O  O78  1  0.59470228  0.99998488  0.71682728  1
  O  O79  1  0.40524417  0.00001376  0.21682275  1
  O  O80  1  0.10079495  0.19448528  0.62296033  1
  O  O81  1  0.89921185  0.80552262  0.12295045  1
  O  O82  1  0.09361308  0.19445683  0.12293846  1
  O  O83  1  0.90637866  0.80555760  0.62294404  1
  O  O84  1  0.63768228  0.99998043  0.99620401  1
  O  O85  1  0.36229394  0.00001202  0.49620487  1
  O  O86  1  0.91082163  0.99996234  0.30674965  1
  O  O87  1  0.08920178  0.00003093  0.80674923  1
  O  O88  1  0.71172975  0.76400723  0.77790549  1
  O  O89  1  0.28827276  0.23599781  0.27791268  1
  O  O90  1  0.05229053  0.76397160  0.27790402  1
  O  O91  1  0.94770623  0.23603031  0.77789242  1
  O  O92  1  0.84209274  0.80432919  0.93286642  1
  O  O93  1  0.15793121  0.19566182  0.43286992  1
  O  O94  1  0.96224522  0.80434024  0.43287443  1
  O  O95  1  0.03780306  0.19567260  0.93286559  1
