# generated using pymatgen
data_Li3Y2(BO3)3
_symmetry_space_group_name_H-M   'P 1'
_cell_length_a   5.67264897
_cell_length_b   8.76130027
_cell_length_c   14.01745900
_cell_angle_alpha   90.00000000
_cell_angle_beta   90.00000000
_cell_angle_gamma   103.95524659
_symmetry_Int_Tables_number   1
_chemical_formula_structural   Li3Y2(BO3)3
_chemical_formula_sum   'Li12 Y8 B12 O36'
_cell_volume   676.10216268
_cell_formula_units_Z   4
loop_
 _symmetry_equiv_pos_site_id
 _symmetry_equiv_pos_as_xyz
  1  'x, y, z'
loop_
 _atom_site_type_symbol
 _atom_site_label
 _atom_site_symmetry_multiplicity
 _atom_site_fract_x
 _atom_site_fract_y
 _atom_site_fract_z
 _atom_site_occupancy
  Li  Li0  1  0.07126676  0.98258566  0.66479515  1
  Li  Li1  1  0.92873324  0.01741434  0.33520485  1
  Li  Li2  1  0.42873324  0.51741434  0.16479515  1
  Li  Li3  1  0.57126676  0.48258566  0.83520485  1
  Li  Li4  1  0.80140521  0.70715321  0.21791675  1
  Li  Li5  1  0.19859479  0.29284679  0.78208325  1
  Li  Li6  1  0.69859479  0.79284679  0.71791675  1
  Li  Li7  1  0.30140521  0.20715321  0.28208325  1
  Li  Li8  1  0.14811823  0.70831679  0.10535153  1
  Li  Li9  1  0.85188177  0.29168321  0.89464847  1
  Li  Li10  1  0.35188177  0.79168321  0.60535153  1
  Li  Li11  1  0.64811823  0.20831679  0.39464847  1
  Y  Y12  1  0.36527667  0.80697877  0.33564105  1
  Y  Y13  1  0.63472333  0.19302123  0.66435895  1
  Y  Y14  1  0.13472333  0.69302123  0.83564105  1
  Y  Y15  1  0.86527667  0.30697877  0.16435895  1
  Y  Y16  1  0.81042221  0.65866926  0.49488138  1
  Y  Y17  1  0.18957779  0.34133074  0.50511862  1
  Y  Y18  1  0.68957779  0.84133074  0.99488138  1
  Y  Y19  1  0.31042221  0.15866926  0.00511862  1
  B  B20  1  0.75094637  0.51482277  0.01638770  1
  B  B21  1  0.24905363  0.48517723  0.98361230  1
  B  B22  1  0.74905363  0.98517723  0.51638770  1
  B  B23  1  0.25094637  0.01482277  0.48361230  1
  B  B24  1  0.08365195  0.97307467  0.16299109  1
  B  B25  1  0.91634805  0.02692533  0.83700891  1
  B  B26  1  0.41634805  0.52692533  0.66299109  1
  B  B27  1  0.58365195  0.47307467  0.33700891  1
  B  B28  1  0.58737253  0.97891997  0.17520301  1
  B  B29  1  0.41262747  0.02108003  0.82479699  1
  B  B30  1  0.91262747  0.52108003  0.67520301  1
  B  B31  1  0.08737253  0.47891997  0.32479699  1
  O  O32  1  0.77500049  0.58646620  0.10335325  1
  O  O33  1  0.22499951  0.41353380  0.89664675  1
  O  O34  1  0.72499951  0.91353380  0.60335325  1
  O  O35  1  0.27500049  0.08646620  0.39664675  1
  O  O36  1  0.10922751  0.56882293  0.40790314  1
  O  O37  1  0.89077249  0.43117707  0.59209686  1
  O  O38  1  0.39077249  0.93117707  0.90790314  1
  O  O39  1  0.60922751  0.06882293  0.09209686  1
  O  O40  1  0.06977425  0.88299642  0.24432135  1
  O  O41  1  0.93022575  0.11700358  0.75567865  1
  O  O42  1  0.43022575  0.61700358  0.74432135  1
  O  O43  1  0.56977425  0.38299642  0.25567865  1
  O  O44  1  0.70762643  0.89359299  0.43442271  1
  O  O45  1  0.29237357  0.10640701  0.56557729  1
  O  O46  1  0.79237357  0.60640701  0.93442271  1
  O  O47  1  0.20762643  0.39359299  0.06557729  1
  O  O48  1  0.06049550  0.90680716  0.07267670  1
  O  O49  1  0.93950450  0.09319284  0.92732330  1
  O  O50  1  0.43950450  0.59319284  0.57267670  1
  O  O51  1  0.56049550  0.40680716  0.42732330  1
  O  O52  1  0.52791365  0.81634231  0.16731992  1
  O  O53  1  0.47208635  0.18365769  0.83268008  1
  O  O54  1  0.97208635  0.68365769  0.66731992  1
  O  O55  1  0.02791365  0.31634231  0.33268008  1
  O  O56  1  0.18801857  0.85132091  0.48814173  1
  O  O57  1  0.81198143  0.14867909  0.51185827  1
  O  O58  1  0.31198143  0.64867909  0.98814173  1
  O  O59  1  0.68801857  0.35132091  0.01185827  1
  O  O60  1  0.13404387  0.55274307  0.23787794  1
  O  O61  1  0.86595613  0.44725693  0.76212206  1
  O  O62  1  0.36595613  0.94725693  0.73787794  1
  O  O63  1  0.63404387  0.05274307  0.26212206  1
  O  O64  1  0.62991629  0.63611753  0.33437936  1
  O  O65  1  0.37008371  0.36388247  0.66562064  1
  O  O66  1  0.87008371  0.86388247  0.83437936  1
  O  O67  1  0.12991629  0.13611753  0.16562064  1
