# generated using pymatgen
data_K2GdNb5O15
_symmetry_space_group_name_H-M   'P 1'
_cell_length_a   3.96058429
_cell_length_b   12.76103613
_cell_length_c   12.76103613
_cell_angle_alpha   90.00000000
_cell_angle_beta   90.00000000
_cell_angle_gamma   90.00000000
_symmetry_Int_Tables_number   1
_chemical_formula_structural   K2GdNb5O15
_chemical_formula_sum   'K4 Gd2 Nb10 O30'
_cell_volume   644.95755887
_cell_formula_units_Z   2
loop_
 _symmetry_equiv_pos_site_id
 _symmetry_equiv_pos_as_xyz
  1  'x, y, z'
loop_
 _atom_site_type_symbol
 _atom_site_label
 _atom_site_symmetry_multiplicity
 _atom_site_fract_x
 _atom_site_fract_y
 _atom_site_fract_z
 _atom_site_occupancy
  K  K0  1  0.50000000  0.16980951  0.66980951  1
  K  K1  1  0.50000000  0.83019049  0.33019049  1
  K  K2  1  0.50000000  0.33019049  0.16980951  1
  K  K3  1  0.50000000  0.66980951  0.83019049  1
  Gd  Gd4  1  0.50000000  0.00000000  0.00000000  1
  Gd  Gd5  1  0.50000000  0.50000000  0.50000000  1
  Nb  Nb6  1  0.00000000  0.00000000  0.50000000  1
  Nb  Nb7  1  0.00000000  0.50000000  0.00000000  1
  Nb  Nb8  1  0.00000000  0.07663880  0.21228877  1
  Nb  Nb9  1  0.00000000  0.92336120  0.78771123  1
  Nb  Nb10  1  -0.00000000  0.78771123  0.07663880  1
  Nb  Nb11  1  -0.00000000  0.42336120  0.71228877  1
  Nb  Nb12  1  -0.00000000  0.21228877  0.92336120  1
  Nb  Nb13  1  -0.00000000  0.57663880  0.28771123  1
  Nb  Nb14  1  0.00000000  0.71228877  0.57663880  1
  Nb  Nb15  1  0.00000000  0.28771123  0.42336120  1
  O  O16  1  0.50000000  0.07869382  0.18705365  1
  O  O17  1  0.50000000  0.92130618  0.81294635  1
  O  O18  1  0.50000000  0.81294635  0.07869382  1
  O  O19  1  0.50000000  0.42130618  0.68705365  1
  O  O20  1  0.50000000  0.18705365  0.92130618  1
  O  O21  1  0.50000000  0.57869382  0.31294635  1
  O  O22  1  0.50000000  0.68705365  0.57869382  1
  O  O23  1  0.50000000  0.31294635  0.42130618  1
  O  O24  1  -0.00000000  0.71747172  0.21747172  1
  O  O25  1  -0.00000000  0.28252828  0.78252828  1
  O  O26  1  -0.00000000  0.78252828  0.71747172  1
  O  O27  1  -0.00000000  0.21747172  0.28252828  1
  O  O28  1  0.50000000  0.00000000  0.50000000  1
  O  O29  1  0.50000000  0.50000000  0.00000000  1
  O  O30  1  0.00000000  0.13103522  0.05804276  1
  O  O31  1  -0.00000000  0.86896478  0.94195724  1
  O  O32  1  0.00000000  0.94195724  0.13103522  1
  O  O33  1  0.00000000  0.36896478  0.55804276  1
  O  O34  1  -0.00000000  0.05804276  0.86896478  1
  O  O35  1  0.00000000  0.63103522  0.44195724  1
  O  O36  1  -0.00000000  0.55804276  0.63103522  1
  O  O37  1  0.00000000  0.44195724  0.36896478  1
  O  O38  1  -0.00000000  0.99924130  0.34233209  1
  O  O39  1  -0.00000000  0.00075870  0.65766791  1
  O  O40  1  -0.00000000  0.65766791  0.99924130  1
  O  O41  1  0.00000000  0.50075870  0.84233209  1
  O  O42  1  0.00000000  0.34233209  0.00075870  1
  O  O43  1  -0.00000000  0.49924130  0.15766791  1
  O  O44  1  0.00000000  0.84233209  0.49924130  1
  O  O45  1  0.00000000  0.15766791  0.50075870  1
