# generated using pymatgen
data_Ba6Si6CN14
_symmetry_space_group_name_H-M   'P 1'
_cell_length_a   5.54166958
_cell_length_b   16.54270866
_cell_length_c   16.54270866
_cell_angle_alpha   120.00000017
_cell_angle_beta   90.00000000
_cell_angle_gamma   90.00000000
_symmetry_Int_Tables_number   1
_chemical_formula_structural   Ba6Si6CN14
_chemical_formula_sum   'Ba18 Si18 C3 N42'
_cell_volume   1313.36216528
_cell_formula_units_Z   3
loop_
 _symmetry_equiv_pos_site_id
 _symmetry_equiv_pos_as_xyz
  1  'x, y, z'
loop_
 _atom_site_type_symbol
 _atom_site_label
 _atom_site_symmetry_multiplicity
 _atom_site_fract_x
 _atom_site_fract_y
 _atom_site_fract_z
 _atom_site_occupancy
  Ba  Ba0  1  0.50000000  0.82178443  0.83846510  1
  Ba  Ba1  1  0.50000000  0.01668067  0.17821557  1
  Ba  Ba2  1  0.50000000  0.16153490  0.98331933  1
  Ba  Ba3  1  0.50000000  0.84345199  0.31455039  1
  Ba  Ba4  1  0.50000000  0.47109840  0.15654801  1
  Ba  Ba5  1  0.50000000  0.68544961  0.52890160  1
  Ba  Ba6  1  0.00000000  0.80927045  0.98312654  1
  Ba  Ba7  1  0.00000000  0.17385609  0.19072955  1
  Ba  Ba8  1  0.00000000  0.01687346  0.82614391  1
  Ba  Ba9  1  0.00000000  0.68052635  0.17568517  1
  Ba  Ba10  1  0.00000000  0.49515882  0.31947365  1
  Ba  Ba11  1  0.00000000  0.82431483  0.50484118  1
  Ba  Ba12  1  0.50000000  0.49302258  0.65419019  1
  Ba  Ba13  1  0.50000000  0.16116762  0.50697742  1
  Ba  Ba14  1  0.50000000  0.34580981  0.83883238  1
  Ba  Ba15  1  0.00000000  0.50896948  0.86157701  1
  Ba  Ba16  1  0.00000000  0.35260753  0.49103052  1
  Ba  Ba17  1  0.00000000  0.13842299  0.64739247  1
  Si  Si18  1  0.50000000  0.78285172  0.09461055  1
  Si  Si19  1  0.50000000  0.31175883  0.21714828  1
  Si  Si20  1  0.50000000  0.90538945  0.68824117  1
  Si  Si21  1  0.00000000  0.97865506  0.42821097  1
  Si  Si22  1  0.00000000  0.44955591  0.02134494  1
  Si  Si23  1  0.00000000  0.57178903  0.55044409  1
  Si  Si24  1  0.50000000  0.97813496  0.55059336  1
  Si  Si25  1  0.50000000  0.57245840  0.02186504  1
  Si  Si26  1  0.50000000  0.44940664  0.42754160  1
  Si  Si27  1  0.00000000  0.90517079  0.21725294  1
  Si  Si28  1  0.00000000  0.31208215  0.09482921  1
  Si  Si29  1  0.00000000  0.78274706  0.68791785  1
  Si  Si30  1  0.50000000  0.64609329  0.88390187  1
  Si  Si31  1  0.50000000  0.23780858  0.35390671  1
  Si  Si32  1  0.50000000  0.11609813  0.76219142  1
  Si  Si33  1  0.00000000  0.64471498  0.76055982  1
  Si  Si34  1  0.00000000  0.11584484  0.35528502  1
  Si  Si35  1  0.00000000  0.23944018  0.88415516  1
  C  C36  1  0.00000000  0.33333300  0.66666700  1
  C  C37  1  0.00000000  -0.00000000  -0.00000000  1
  C  C38  1  0.50000000  0.66666700  0.33333300  1
  N  N39  1  0.00000000  0.88905759  0.31331033  1
  N  N40  1  0.00000000  0.42425274  0.11094241  1
  N  N41  1  0.00000000  0.68668967  0.57574726  1
  N  N42  1  0.72483954  0.66666700  0.33333300  1
  N  N43  1  0.27516046  0.66666700  0.33333300  1
  N  N44  1  0.50000000  0.68757094  0.11233396  1
  N  N45  1  0.50000000  0.42476302  0.31242906  1
  N  N46  1  0.50000000  0.88766604  0.57523698  1
  N  N47  1  0.50000000  0.75800365  0.97983445  1
  N  N48  1  0.50000000  0.22183080  0.24199635  1
  N  N49  1  0.50000000  0.02016555  0.77816920  1
  N  N50  1  0.75049074  0.63269401  0.81624298  1
  N  N51  1  0.75049074  0.18354897  0.36730599  1
  N  N52  1  0.24950926  0.63269401  0.81624298  1
  N  N53  1  0.75049074  0.18375702  0.81645103  1
  N  N54  1  0.24950926  0.18354897  0.36730599  1
  N  N55  1  0.24950926  0.18375702  0.81645103  1
  N  N56  1  0.75152351  0.96600895  0.48411079  1
  N  N57  1  0.75152351  0.51810185  0.03399105  1
  N  N58  1  0.24847649  0.96600895  0.48411079  1
  N  N59  1  0.75152351  0.51588921  0.48189815  1
  N  N60  1  0.24847649  0.51810185  0.03399105  1
  N  N61  1  0.24847649  0.51588921  0.48189815  1
  N  N62  1  0.77506536  -0.00000000  -0.00000000  1
  N  N63  1  0.22493464  -0.00000000  -0.00000000  1
  N  N64  1  0.77514374  0.33333300  0.66666700  1
  N  N65  1  0.22485626  0.33333300  0.66666700  1
  N  N66  1  0.50000000  0.55697245  0.90995325  1
  N  N67  1  0.50000000  0.35298080  0.44302755  1
  N  N68  1  0.50000000  0.09004675  0.64701920  1
  N  N69  1  0.00000000  0.75741983  0.77764653  1
  N  N70  1  0.00000000  0.02022670  0.24258017  1
  N  N71  1  0.00000000  0.22235347  0.97977330  1
  N  N72  1  0.74941375  0.85061323  0.15004604  1
  N  N73  1  0.74941375  0.29943281  0.14938677  1
  N  N74  1  0.25058625  0.85061323  0.15004604  1
  N  N75  1  0.74941375  0.84995396  0.70056719  1
  N  N76  1  0.25058625  0.29943281  0.14938677  1
  N  N77  1  0.25058625  0.84995396  0.70056719  1
  N  N78  1  0.00000000  0.55459769  0.64569804  1
  N  N79  1  0.00000000  0.09110035  0.44540231  1
  N  N80  1  0.00000000  0.35430196  0.90889965  1
