# generated using pymatgen
data_Al(Bi3O5)4
_symmetry_space_group_name_H-M   'P 1'
_cell_length_a   8.82810796
_cell_length_b   8.82810796
_cell_length_c   8.82810796
_cell_angle_alpha   109.47122063
_cell_angle_beta   109.47122063
_cell_angle_gamma   109.47122063
_symmetry_Int_Tables_number   1
_chemical_formula_structural   Al(Bi3O5)4
_chemical_formula_sum   'Al1 Bi12 O20'
_cell_volume   529.64029241
_cell_formula_units_Z   1
loop_
 _symmetry_equiv_pos_site_id
 _symmetry_equiv_pos_as_xyz
  1  'x, y, z'
loop_
 _atom_site_type_symbol
 _atom_site_label
 _atom_site_symmetry_multiplicity
 _atom_site_fract_x
 _atom_site_fract_y
 _atom_site_fract_z
 _atom_site_occupancy
  Al  Al0  1  0.00000000  0.00000000  0.00000000  1
  Bi  Bi1  1  0.81334839  0.67287740  0.50831541  1
  Bi  Bi2  1  0.18665161  0.69496702  0.85952901  1
  Bi  Bi3  1  0.83543800  0.32712260  0.14047099  1
  Bi  Bi4  1  0.67287740  0.50831541  0.81334839  1
  Bi  Bi5  1  0.16456200  0.30503298  0.49168459  1
  Bi  Bi6  1  0.69496702  0.85952901  0.18665161  1
  Bi  Bi7  1  0.32712260  0.14047099  0.83543800  1
  Bi  Bi8  1  0.30503298  0.49168459  0.16456200  1
  Bi  Bi9  1  0.50831541  0.81334839  0.67287740  1
  Bi  Bi10  1  0.14047099  0.83543800  0.32712260  1
  Bi  Bi11  1  0.49168459  0.16456200  0.30503298  1
  Bi  Bi12  1  0.85952901  0.18665161  0.69496702  1
  O  O13  1  0.20427811  0.20427811  0.20427811  1
  O  O14  1  0.79572189  0.00000000  0.00000000  1
  O  O15  1  0.00000000  0.79572189  -0.00000000  1
  O  O16  1  -0.00000000  -0.00000000  0.79572189  1
  O  O17  1  0.64474225  0.76856193  0.38676994  1
  O  O18  1  0.35525775  0.74202769  0.12381968  1
  O  O19  1  0.61820801  0.23143807  0.87618032  1
  O  O20  1  0.76856193  0.38676994  0.64474225  1
  O  O21  1  0.38179199  0.25797231  0.61323006  1
  O  O22  1  0.74202769  0.12381968  0.35525775  1
  O  O23  1  0.23143807  0.87618032  0.61820801  1
  O  O24  1  0.25797231  0.61323006  0.38179199  1
  O  O25  1  0.38676994  0.64474225  0.76856193  1
  O  O26  1  0.87618032  0.61820801  0.23143807  1
  O  O27  1  0.61323006  0.38179199  0.25797231  1
  O  O28  1  0.12381968  0.35525775  0.74202769  1
  O  O29  1  0.61161884  0.61161884  0.61161884  1
  O  O30  1  0.38838116  0.00000000  -0.00000000  1
  O  O31  1  0.00000000  0.38838116  -0.00000000  1
  O  O32  1  0.00000000  0.00000000  0.38838116  1
