# generated using pymatgen
data_ZnSnAs2
_symmetry_space_group_name_H-M   'P 1'
_cell_length_a   4.20922508
_cell_length_b   4.20922508
_cell_length_c   7.27257146
_cell_angle_alpha   73.17853485
_cell_angle_beta   90.00000000
_cell_angle_gamma   120.00000000
_symmetry_Int_Tables_number   1
_chemical_formula_structural   ZnSnAs2
_chemical_formula_sum   'Zn1 Sn1 As2'
_cell_volume   105.17486060
_cell_formula_units_Z   1
loop_
 _symmetry_equiv_pos_site_id
 _symmetry_equiv_pos_as_xyz
  1  'x, y, z'
loop_
 _atom_site_type_symbol
 _atom_site_label
 _atom_site_symmetry_multiplicity
 _atom_site_fract_x
 _atom_site_fract_y
 _atom_site_fract_z
 _atom_site_occupancy
  Zn  Zn0  1  0.36511294  0.73022587  0.90466119  1
  Sn  Sn1  1  0.88304635  0.76609269  0.35086096  1
  As  As2  1  0.00962048  0.01924097  0.97113855  1
  As  As3  1  0.49222023  0.98444047  0.52333930  1
