# generated using pymatgen
data_BaNa4Ti2(Si2O5)6
_symmetry_space_group_name_H-M   'P 1'
_cell_length_a   7.38506107
_cell_length_b   10.10518020
_cell_length_c   10.10518020
_cell_angle_alpha   119.35232914
_cell_angle_beta   91.90262933
_cell_angle_gamma   91.90262933
_symmetry_Int_Tables_number   1
_chemical_formula_structural   BaNa4Ti2(Si2O5)6
_chemical_formula_sum   'Ba1 Na4 Ti2 Si12 O30'
_cell_volume   655.88746014
_cell_formula_units_Z   1
loop_
 _symmetry_equiv_pos_site_id
 _symmetry_equiv_pos_as_xyz
  1  'x, y, z'
loop_
 _atom_site_type_symbol
 _atom_site_label
 _atom_site_symmetry_multiplicity
 _atom_site_fract_x
 _atom_site_fract_y
 _atom_site_fract_z
 _atom_site_occupancy
  Ba  Ba0  1  0.50000000  0.50000000  0.50000000  1
  Na  Na1  1  0.00000000  0.76724673  0.23275327  1
  Na  Na2  1  0.00000000  0.23275327  0.76724673  1
  Na  Na3  1  0.98419044  0.77563624  0.77563624  1
  Na  Na4  1  0.01580956  0.22436376  0.22436376  1
  Ti  Ti5  1  0.00000000  0.58362886  0.41637114  1
  Ti  Ti6  1  0.00000000  0.41637114  0.58362886  1
  Si  Si7  1  0.73618296  0.42607023  0.08566424  1
  Si  Si8  1  0.26381704  0.57392977  0.91433576  1
  Si  Si9  1  0.26381704  0.91433576  0.57392977  1
  Si  Si10  1  0.73618296  0.08566424  0.42607023  1
  Si  Si11  1  0.68665901  0.56357703  0.87223180  1
  Si  Si12  1  0.31334099  0.43642297  0.12776820  1
  Si  Si13  1  0.31334099  0.12776820  0.43642297  1
  Si  Si14  1  0.68665901  0.87223180  0.56357703  1
  Si  Si15  1  0.71614054  0.90603893  0.08018334  1
  Si  Si16  1  0.28385946  0.09396107  0.91981666  1
  Si  Si17  1  0.28385946  0.91981666  0.09396107  1
  Si  Si18  1  0.71614054  0.08018334  0.90603893  1
  O  O19  1  0.50000000  0.91741485  0.08258515  1
  O  O20  1  0.50000000  0.08258515  0.91741485  1
  O  O21  1  0.87572532  0.55038706  0.21016129  1
  O  O22  1  0.12427468  0.44961294  0.78983871  1
  O  O23  1  0.12427468  0.78983871  0.44961294  1
  O  O24  1  0.87572532  0.21016129  0.55038706  1
  O  O25  1  0.76963651  0.73172993  0.02003627  1
  O  O26  1  0.23036349  0.26827007  0.97996373  1
  O  O27  1  0.23036349  0.97996373  0.26827007  1
  O  O28  1  0.76963651  0.02003627  0.73172993  1
  O  O29  1  0.77648724  0.53443708  0.71982025  1
  O  O30  1  0.22351276  0.46556292  0.28017975  1
  O  O31  1  0.22351276  0.28017975  0.46556292  1
  O  O32  1  0.77648724  0.71982025  0.53443708  1
  O  O33  1  0.71323743  0.43779397  0.92837840  1
  O  O34  1  0.28676257  0.56220603  0.07162160  1
  O  O35  1  0.28676257  0.07162160  0.56220603  1
  O  O36  1  0.71323743  0.92837840  0.43779397  1
  O  O37  1  0.46610185  0.57844428  0.85087024  1
  O  O38  1  0.53389815  0.42155572  0.14912976  1
  O  O39  1  0.53389815  0.14912976  0.42155572  1
  O  O40  1  0.46610185  0.85087024  0.57844428  1
  O  O41  1  0.81113678  0.24871124  0.01889819  1
  O  O42  1  0.18886322  0.75128876  0.98110181  1
  O  O43  1  0.18886322  0.98110181  0.75128876  1
  O  O44  1  0.81113678  0.01889819  0.24871124  1
  O  O45  1  0.87210394  0.40952982  0.40952982  1
  O  O46  1  0.12789606  0.59047018  0.59047018  1
  O  O47  1  0.79279483  0.96292657  0.96292657  1
  O  O48  1  0.20720517  0.03707343  0.03707343  1
