# generated using pymatgen
data_CeTl(MoO4)2
_symmetry_space_group_name_H-M   'P 1'
_cell_length_a   5.26058899
_cell_length_b   8.39494629
_cell_length_c   18.82460535
_cell_angle_alpha   90.00000000
_cell_angle_beta   90.00000000
_cell_angle_gamma   90.00000000
_symmetry_Int_Tables_number   1
_chemical_formula_structural   CeTl(MoO4)2
_chemical_formula_sum   'Ce4 Tl4 Mo8 O32'
_cell_volume   831.33903644
_cell_formula_units_Z   4
loop_
 _symmetry_equiv_pos_site_id
 _symmetry_equiv_pos_as_xyz
  1  'x, y, z'
loop_
 _atom_site_type_symbol
 _atom_site_label
 _atom_site_symmetry_multiplicity
 _atom_site_fract_x
 _atom_site_fract_y
 _atom_site_fract_z
 _atom_site_occupancy
  Ce  Ce0  1  0.00000000  0.75000000  0.99317878  1
  Ce  Ce1  1  0.00000000  0.25000000  0.00682122  1
  Ce  Ce2  1  0.50000000  0.25000000  0.50682122  1
  Ce  Ce3  1  0.50000000  0.75000000  0.49317878  1
  Tl  Tl4  1  0.00000000  0.75000000  0.23049014  1
  Tl  Tl5  1  0.00000000  0.25000000  0.76950986  1
  Tl  Tl6  1  0.50000000  0.25000000  0.26950986  1
  Tl  Tl7  1  0.50000000  0.75000000  0.73049014  1
  Mo  Mo8  1  0.97733119  0.98351224  0.60148176  1
  Mo  Mo9  1  0.02266881  0.01648776  0.39851824  1
  Mo  Mo10  1  0.52266881  0.48351224  0.89851824  1
  Mo  Mo11  1  0.02266881  0.51648776  0.60148176  1
  Mo  Mo12  1  0.47733119  0.51648776  0.10148176  1
  Mo  Mo13  1  0.97733119  0.48351224  0.39851824  1
  Mo  Mo14  1  0.47733119  0.01648776  0.89851824  1
  Mo  Mo15  1  0.52266881  0.98351224  0.10148176  1
  O  O16  1  0.89770615  0.52457049  0.68808212  1
  O  O17  1  0.10229385  0.47542951  0.31191788  1
  O  O18  1  0.60229385  0.02457049  0.81191788  1
  O  O19  1  0.10229385  0.97542951  0.68808212  1
  O  O20  1  0.39770615  0.97542951  0.18808212  1
  O  O21  1  0.89770615  0.02457049  0.31191788  1
  O  O22  1  0.39770615  0.47542951  0.81191788  1
  O  O23  1  0.60229385  0.52457049  0.18808212  1
  O  O24  1  0.72469341  0.65693118  0.90021594  1
  O  O25  1  0.27530659  0.34306882  0.09978406  1
  O  O26  1  0.77530659  0.15693118  0.59978406  1
  O  O27  1  0.27530659  0.84306882  0.90021594  1
  O  O28  1  0.22469341  0.84306882  0.40021594  1
  O  O29  1  0.72469341  0.15693118  0.09978406  1
  O  O30  1  0.22469341  0.34306882  0.59978406  1
  O  O31  1  0.77530659  0.65693118  0.40021594  1
  O  O32  1  0.74375375  0.99726060  0.96353062  1
  O  O33  1  0.25624625  0.00273940  0.03646938  1
  O  O34  1  0.75624625  0.49726060  0.53646938  1
  O  O35  1  0.25624625  0.50273940  0.96353062  1
  O  O36  1  0.24375375  0.50273940  0.46353062  1
  O  O37  1  0.74375375  0.49726060  0.03646938  1
  O  O38  1  0.24375375  0.00273940  0.53646938  1
  O  O39  1  0.75624625  0.99726060  0.46353062  1
  O  O40  1  0.75950918  0.81466692  0.59212017  1
  O  O41  1  0.24049082  0.18533308  0.40787983  1
  O  O42  1  0.74049082  0.31466692  0.90787983  1
  O  O43  1  0.24049082  0.68533308  0.59212017  1
  O  O44  1  0.25950918  0.68533308  0.09212017  1
  O  O45  1  0.75950918  0.31466692  0.40787983  1
  O  O46  1  0.25950918  0.18533308  0.90787983  1
  O  O47  1  0.74049082  0.81466692  0.09212017  1
