# generated using pymatgen
data_Ba2La3Ti2Nb2O15
_symmetry_space_group_name_H-M   'P 1'
_cell_length_a   5.72241522
_cell_length_b   5.72241522
_cell_length_c   23.38059422
_cell_angle_alpha   90.00000000
_cell_angle_beta   90.00000000
_cell_angle_gamma   120.00000950
_symmetry_Int_Tables_number   1
_chemical_formula_structural   Ba2La3Ti2Nb2O15
_chemical_formula_sum   'Ba4 La6 Ti4 Nb4 O30'
_cell_volume   663.04784708
_cell_formula_units_Z   2
loop_
 _symmetry_equiv_pos_site_id
 _symmetry_equiv_pos_as_xyz
  1  'x, y, z'
loop_
 _atom_site_type_symbol
 _atom_site_label
 _atom_site_symmetry_multiplicity
 _atom_site_fract_x
 _atom_site_fract_y
 _atom_site_fract_z
 _atom_site_occupancy
  Ba  Ba0  1  0.66666700  0.33333300  0.96316377  1
  Ba  Ba1  1  0.33333300  0.66666700  0.03683623  1
  Ba  Ba2  1  0.33333300  0.66666700  0.53683623  1
  Ba  Ba3  1  0.66666700  0.33333300  0.46316377  1
  La  La4  1  0.66666700  0.33333300  0.64398288  1
  La  La5  1  0.33333300  0.66666700  0.35601712  1
  La  La6  1  0.33333300  0.66666700  0.85601712  1
  La  La7  1  0.66666700  0.33333300  0.14398288  1
  La  La8  1  -0.00000000  -0.00000000  0.75000000  1
  La  La9  1  -0.00000000  -0.00000000  0.25000000  1
  Ti  Ti10  1  0.66666700  0.33333300  0.79637109  1
  Ti  Ti11  1  0.33333300  0.66666700  0.20362891  1
  Ti  Ti12  1  0.33333300  0.66666700  0.70362891  1
  Ti  Ti13  1  0.66666700  0.33333300  0.29637109  1
  Nb  Nb14  1  -0.00000000  -0.00000000  0.90121312  1
  Nb  Nb15  1  -0.00000000  -0.00000000  0.09878688  1
  Nb  Nb16  1  -0.00000000  -0.00000000  0.59878688  1
  Nb  Nb17  1  -0.00000000  -0.00000000  0.40121312  1
  O  O18  1  0.55900156  0.55900156  0.75000000  1
  O  O19  1  0.44099844  0.44099844  0.25000000  1
  O  O20  1  1.00000000  0.44099844  0.75000000  1
  O  O21  1  0.00000000  0.55900156  0.25000000  1
  O  O22  1  0.44099844  1.00000000  0.75000000  1
  O  O23  1  0.55900156  0.00000000  0.25000000  1
  O  O24  1  0.65947434  0.79537930  0.93896480  1
  O  O25  1  0.34052566  0.20462070  0.06103520  1
  O  O26  1  0.13590495  0.34052566  0.93896480  1
  O  O27  1  0.86409505  0.20462070  0.56103520  1
  O  O28  1  0.86409505  0.65947434  0.06103520  1
  O  O29  1  0.13590495  0.79537930  0.43896480  1
  O  O30  1  0.20462070  0.86409505  0.93896480  1
  O  O31  1  0.79537930  0.65947434  0.56103520  1
  O  O32  1  0.79537930  0.13590495  0.06103520  1
  O  O33  1  0.20462070  0.34052566  0.43896480  1
  O  O34  1  0.34052566  0.13590495  0.56103520  1
  O  O35  1  0.65947434  0.86409505  0.43896480  1
  O  O36  1  0.77546222  0.10186231  0.84191178  1
  O  O37  1  0.22453778  0.89813769  0.15808822  1
  O  O38  1  0.32640010  0.22453778  0.84191178  1
  O  O39  1  0.67359990  0.89813769  0.65808822  1
  O  O40  1  0.67359990  0.77546222  0.15808822  1
  O  O41  1  0.32640010  0.10186231  0.34191178  1
  O  O42  1  0.89813769  0.67359990  0.84191178  1
  O  O43  1  0.10186231  0.77546222  0.65808822  1
  O  O44  1  0.10186231  0.32640010  0.15808822  1
  O  O45  1  0.89813769  0.22453778  0.34191178  1
  O  O46  1  0.22453778  0.32640010  0.65808822  1
  O  O47  1  0.77546222  0.67359990  0.34191178  1
