# generated using pymatgen
data_ZrMnFe
_symmetry_space_group_name_H-M   'P 1'
_cell_length_a   4.94628510
_cell_length_b   4.98510856
_cell_length_c   8.05810822
_cell_angle_alpha   90.00000000
_cell_angle_beta   90.00000000
_cell_angle_gamma   60.21916975
_symmetry_Int_Tables_number   1
_chemical_formula_structural   ZrMnFe
_chemical_formula_sum   'Zr4 Mn4 Fe4'
_cell_volume   172.45365452
_cell_formula_units_Z   4
loop_
 _symmetry_equiv_pos_site_id
 _symmetry_equiv_pos_as_xyz
  1  'x, y, z'
loop_
 _atom_site_type_symbol
 _atom_site_label
 _atom_site_symmetry_multiplicity
 _atom_site_fract_x
 _atom_site_fract_y
 _atom_site_fract_z
 _atom_site_occupancy
  Zr  Zr0  1  0.33341376  0.33347172  0.56529259  1
  Zr  Zr1  1  0.66628126  0.66736369  0.43833849  1
  Zr  Zr2  1  0.66628126  0.66736369  0.06166151  1
  Zr  Zr3  1  0.33341376  0.33347172  0.93470741  1
  Mn  Mn4  1  0.66331638  0.16643544  0.25000000  1
  Mn  Mn5  1  0.17018929  0.16641858  0.25000000  1
  Mn  Mn6  1  0.99920854  0.00188746  0.50436229  1
  Mn  Mn7  1  0.99920854  0.00188746  -0.00436229  1
  Fe  Fe8  1  0.83075517  0.33837552  0.75000000  1
  Fe  Fe9  1  0.34022651  0.82992054  0.75000000  1
  Fe  Fe10  1  0.82951171  0.82984035  0.75000000  1
  Fe  Fe11  1  0.16819383  0.66356383  0.25000000  1
