# generated using pymatgen
data_Ca2PrBeO5
_symmetry_space_group_name_H-M   'P 1'
_cell_length_a   6.48749464
_cell_length_b   7.27496199
_cell_length_c   9.40953962
_cell_angle_alpha   90.00000000
_cell_angle_beta   90.00000000
_cell_angle_gamma   90.00000000
_symmetry_Int_Tables_number   1
_chemical_formula_structural   Ca2PrBeO5
_chemical_formula_sum   'Ca8 Pr4 Be4 O20'
_cell_volume   444.09523756
_cell_formula_units_Z   4
loop_
 _symmetry_equiv_pos_site_id
 _symmetry_equiv_pos_as_xyz
  1  'x, y, z'
loop_
 _atom_site_type_symbol
 _atom_site_label
 _atom_site_symmetry_multiplicity
 _atom_site_fract_x
 _atom_site_fract_y
 _atom_site_fract_z
 _atom_site_occupancy
  Ca  Ca0  1  0.92018548  0.97209319  0.67360887  1
  Ca  Ca1  1  0.07981452  0.02790681  0.32639113  1
  Ca  Ca2  1  0.42018548  0.02790681  0.82639113  1
  Ca  Ca3  1  0.07981452  0.47209319  0.32639113  1
  Ca  Ca4  1  0.57981452  0.97209319  0.17360887  1
  Ca  Ca5  1  0.92018548  0.52790681  0.67360887  1
  Ca  Ca6  1  0.57981452  0.52790681  0.17360887  1
  Ca  Ca7  1  0.42018548  0.47209319  0.82639113  1
  Pr  Pr8  1  0.40105234  0.75000000  0.52809688  1
  Pr  Pr9  1  0.59894766  0.25000000  0.47190312  1
  Pr  Pr10  1  0.90105234  0.25000000  0.97190312  1
  Pr  Pr11  1  0.09894766  0.75000000  0.02809688  1
  Be  Be12  1  0.68939432  0.75000000  0.89370187  1
  Be  Be13  1  0.31060568  0.25000000  0.10629813  1
  Be  Be14  1  0.18939432  0.25000000  0.60629813  1
  Be  Be15  1  0.81060568  0.75000000  0.39370187  1
  O  O16  1  0.63834313  0.75000000  0.72335707  1
  O  O17  1  0.36165687  0.25000000  0.27664293  1
  O  O18  1  0.13834313  0.25000000  0.77664293  1
  O  O19  1  0.86165687  0.75000000  0.22335707  1
  O  O20  1  0.17053613  0.75000000  0.76982397  1
  O  O21  1  0.82946387  0.25000000  0.23017603  1
  O  O22  1  0.67053613  0.25000000  0.73017603  1
  O  O23  1  0.32946387  0.75000000  0.26982397  1
  O  O24  1  0.47519161  0.75000000  0.98735310  1
  O  O25  1  0.52480839  0.25000000  0.01264690  1
  O  O26  1  0.97519161  0.25000000  0.51264690  1
  O  O27  1  0.02480839  0.75000000  0.48735310  1
  O  O28  1  0.81143651  0.93846359  0.92772411  1
  O  O29  1  0.18856349  0.06153641  0.07227589  1
  O  O30  1  0.31143651  0.06153641  0.57227589  1
  O  O31  1  0.18856349  0.43846359  0.07227589  1
  O  O32  1  0.68856349  0.93846359  0.42772411  1
  O  O33  1  0.81143651  0.56153641  0.92772411  1
  O  O34  1  0.68856349  0.56153641  0.42772411  1
  O  O35  1  0.31143651  0.43846359  0.57227589  1
