# generated using pymatgen
data_Ti13Sb3
_symmetry_space_group_name_H-M   'P 1'
_cell_length_a   4.74834934
_cell_length_b   5.82888276
_cell_length_c   10.16479373
_cell_angle_alpha   90.00250469
_cell_angle_beta   90.00000000
_cell_angle_gamma   90.00000000
_symmetry_Int_Tables_number   1
_chemical_formula_structural   Ti13Sb3
_chemical_formula_sum   'Ti13 Sb3'
_cell_volume   281.33680590
_cell_formula_units_Z   1
loop_
 _symmetry_equiv_pos_site_id
 _symmetry_equiv_pos_as_xyz
  1  'x, y, z'
loop_
 _atom_site_type_symbol
 _atom_site_label
 _atom_site_symmetry_multiplicity
 _atom_site_fract_x
 _atom_site_fract_y
 _atom_site_fract_z
 _atom_site_occupancy
  Ti  Ti0  1  0.75000000  -0.00003298  0.16523050  1
  Ti  Ti1  1  0.75000000  0.49997617  0.66477327  1
  Ti  Ti2  1  0.75000000  0.74053920  0.41166755  1
  Ti  Ti3  1  0.75000000  0.24997315  0.92714589  1
  Ti  Ti4  1  0.75000000  0.25951451  0.41166836  1
  Ti  Ti5  1  0.75000000  0.75001589  0.92715739  1
  Ti  Ti6  1  0.25000000  0.49997297  0.33232466  1
  Ti  Ti7  1  0.25000000  -0.00001609  0.83414430  1
  Ti  Ti8  1  0.25000000  0.74975092  0.08153223  1
  Ti  Ti9  1  0.25000000  0.25622787  0.58112595  1
  Ti  Ti10  1  0.25000000  0.25022713  0.08155562  1
  Ti  Ti11  1  0.25000000  0.74373708  0.58113669  1
  Ti  Ti12  1  0.75000000  0.50003270  0.16776615  1
  Sb  Sb13  1  0.75000000  0.00004723  0.66646843  1
  Sb  Sb14  1  0.25000000  0.00005907  0.33453018  1
  Sb  Sb15  1  0.25000000  0.49997517  0.83177282  1
