# generated using pymatgen
data_V3P4WO20
_symmetry_space_group_name_H-M   'P 1'
_cell_length_a   4.49019125
_cell_length_b   6.18761765
_cell_length_c   12.35969031
_cell_angle_alpha   89.97217419
_cell_angle_beta   90.00000000
_cell_angle_gamma   90.00000000
_symmetry_Int_Tables_number   1
_chemical_formula_structural   V3P4WO20
_chemical_formula_sum   'V3 P4 W1 O20'
_cell_volume   343.39648621
_cell_formula_units_Z   1
loop_
 _symmetry_equiv_pos_site_id
 _symmetry_equiv_pos_as_xyz
  1  'x, y, z'
loop_
 _atom_site_type_symbol
 _atom_site_label
 _atom_site_symmetry_multiplicity
 _atom_site_fract_x
 _atom_site_fract_y
 _atom_site_fract_z
 _atom_site_occupancy
  V  V0  1  0.78112342  0.74917496  0.37403871  1
  V  V1  1  0.78112342  0.75082504  0.87596129  1
  V  V2  1  0.22042398  0.25000000  0.12500000  1
  P  P3  1  0.50453751  0.25024959  0.37156776  1
  P  P4  1  0.50453751  0.24975041  0.87843224  1
  P  P5  1  0.49891245  0.75000000  0.12500000  1
  P  P6  1  0.50935399  0.75000000  0.62500000  1
  W  W7  1  0.20283121  0.25000000  0.62500000  1
  O  O8  1  0.13991901  0.75039426  0.37450198  1
  O  O9  1  0.13991901  0.74960574  0.87549802  1
  O  O10  1  0.86085193  0.25000000  0.12500000  1
  O  O11  1  0.81135217  0.25000000  0.62500000  1
  O  O12  1  0.70029205  0.05007431  0.39406367  1
  O  O13  1  0.70484423  0.05082277  0.89825042  1
  O  O14  1  0.70484423  0.44917723  0.35174958  1
  O  O15  1  0.70029205  0.44992569  0.85593633  1
  O  O16  1  0.69773737  0.79140623  0.22486207  1
  O  O17  1  0.70714381  0.79346127  0.72483614  1
  O  O18  1  0.69773737  0.70859377  0.02513793  1
  O  O19  1  0.70714381  0.70653873  0.52516386  1
  O  O20  1  0.30185970  0.94976678  0.10415293  1
  O  O21  1  0.30463392  0.94165751  0.59961990  1
  O  O22  1  0.30185970  0.55023322  0.14584707  1
  O  O23  1  0.30463392  0.55834249  0.65038010  1
  O  O24  1  0.30583954  0.20740027  0.27236129  1
  O  O25  1  0.30020656  0.20123833  0.78171606  1
  O  O26  1  0.30020656  0.29876167  0.46828394  1
  O  O27  1  0.30583954  0.29259973  0.97763871  1
