# generated using pymatgen
data_ZnCu15H24(ClO3)8
_symmetry_space_group_name_H-M   'P 1'
_cell_length_a   6.13772105
_cell_length_b   9.30010117
_cell_length_c   13.87859103
_cell_angle_alpha   90.05604964
_cell_angle_beta   89.98996729
_cell_angle_gamma   100.70031161
_symmetry_Int_Tables_number   1
_chemical_formula_structural   ZnCu15H24(ClO3)8
_chemical_formula_sum   'Zn1 Cu15 H24 Cl8 O24'
_cell_volume   778.43429175
_cell_formula_units_Z   1
loop_
 _symmetry_equiv_pos_site_id
 _symmetry_equiv_pos_as_xyz
  1  'x, y, z'
loop_
 _atom_site_type_symbol
 _atom_site_label
 _atom_site_symmetry_multiplicity
 _atom_site_fract_x
 _atom_site_fract_y
 _atom_site_fract_z
 _atom_site_occupancy
  Zn  Zn0  1  -0.00010649  -0.00003524  0.99981040  1
  Cu  Cu1  1  0.50153706  0.00221338  0.50030961  1
  Cu  Cu2  1  0.99897488  0.49824210  0.74947531  1
  Cu  Cu3  1  0.49998372  0.99983761  0.00000157  1
  Cu  Cu4  1  0.99961720  0.49991958  0.25018581  1
  Cu  Cu5  1  0.75017479  0.75097314  0.37415484  1
  Cu  Cu6  1  0.24924189  0.24909099  0.62538453  1
  Cu  Cu7  1  0.74999154  0.74997387  0.87543002  1
  Cu  Cu8  1  0.25031483  0.25001942  0.12514486  1
  Cu  Cu9  1  0.24694346  0.24945816  0.37398528  1
  Cu  Cu10  1  0.75173340  0.74988010  0.62507011  1
  Cu  Cu11  1  0.25293359  0.25124941  0.87668217  1
  Cu  Cu12  1  0.75058734  0.75025817  0.12465618  1
  Cu  Cu13  1  0.49964425  0.49953040  0.24942059  1
  Cu  Cu14  1  -0.00042122  -0.00002091  0.49976898  1
  Cu  Cu15  1  0.49963872  0.49963371  0.75112484  1
  H  H16  1  0.24667650  0.52321952  0.40044282  1
  H  H17  1  0.74993031  0.02396445  0.64927043  1
  H  H18  1  0.24465217  0.52362828  0.89996841  1
  H  H19  1  0.74403052  0.02305386  0.15086235  1
  H  H20  1  0.24744196  0.52369395  0.60051897  1
  H  H21  1  0.74414551  0.02327772  0.84916729  1
  H  H22  1  0.24907272  0.52420537  0.10062127  1
  H  H23  1  0.74528002  0.02293555  0.34928108  1
  H  H24  1  0.04867262  0.72652191  0.49948752  1
  H  H25  1  0.54671009  0.22478157  0.75013619  1
  H  H26  1  0.04806821  0.72149239  0.00011804  1
  H  H27  1  0.54756949  0.22335431  0.25026638  1
  H  H28  1  0.75362500  0.47684852  0.59991845  1
  H  H29  1  0.25584918  0.97725590  0.84911658  1
  H  H30  1  0.75371698  0.47647357  0.09983293  1
  H  H31  1  0.25069663  0.97628189  0.35062131  1
  H  H32  1  0.75092984  0.47637176  0.39940547  1
  H  H33  1  0.25478699  0.97730103  0.65079064  1
  H  H34  1  0.75367778  0.47625705  0.89928808  1
  H  H35  1  0.25602414  0.97706773  0.15094978  1
  H  H36  1  0.95162119  0.27368365  0.50001808  1
  H  H37  1  0.45357547  0.77495532  0.74957938  1
  H  H38  1  0.95199641  0.27883912  0.00005705  1
  H  H39  1  0.45351808  0.77641929  0.25021047  1
  Cl  Cl40  1  0.63714166  0.31828696  0.49967792  1
  Cl  Cl41  1  0.13668096  0.81776267  0.74960826  1
  Cl  Cl42  1  0.63375312  0.31901272  0.99965060  1
  Cl  Cl43  1  0.13622047  0.81747346  0.25074345  1
  Cl  Cl44  1  0.36219504  0.68113507  0.50011480  1
  Cl  Cl45  1  0.86321635  0.18232923  0.74885860  1
  Cl  Cl46  1  0.36597534  0.68106551  0.00003450  1
  Cl  Cl47  1  0.86501994  0.18281826  0.25048732  1
  O  O48  1  0.22078565  0.45453219  0.34406866  1
  O  O49  1  0.72688539  0.95540348  0.59324088  1
  O  O50  1  0.22020917  0.45514821  0.84423134  1
  O  O51  1  0.72054930  0.95529432  0.09476670  1
  O  O52  1  0.22735627  0.45645559  0.65696527  1
  O  O53  1  0.72072306  0.95538983  0.90510975  1
  O  O54  1  0.22498705  0.45672196  0.15737707  1
  O  O55  1  0.71765389  0.95398905  0.40465421  1
  O  O56  1  0.91455582  0.77296731  0.49974557  1
  O  O57  1  0.41135984  0.26989211  0.75031339  1
  O  O58  1  0.91385381  0.76717379  0.00017524  1
  O  O59  1  0.41237998  0.26858939  0.25038562  1
  O  O60  1  0.77829350  0.54504136  0.65573965  1
  O  O61  1  0.27955854  0.04487875  0.90531456  1
  O  O62  1  0.77867935  0.54492640  0.15625540  1
  O  O63  1  0.27258993  0.04443242  0.40688697  1
  O  O64  1  0.77463003  0.54418540  0.34290727  1
  O  O65  1  0.27879437  0.04546069  0.59482741  1
  O  O66  1  0.77568356  0.54317222  0.84263600  1
  O  O67  1  0.27944702  0.04495416  0.09494258  1
  O  O68  1  0.08644800  0.22778892  0.50016570  1
  O  O69  1  0.58809234  0.72878834  0.74922334  1
  O  O70  1  0.08531870  0.23230786  0.00060801  1
  O  O71  1  0.58817376  0.73065081  0.24974588  1
