# generated using pymatgen
data_TiMoS3
_symmetry_space_group_name_H-M   'P 1'
_cell_length_a   3.27685474
_cell_length_b   6.15715526
_cell_length_c   8.74822665
_cell_angle_alpha   105.24168655
_cell_angle_beta   90.00000000
_cell_angle_gamma   90.00000000
_symmetry_Int_Tables_number   1
_chemical_formula_structural   TiMoS3
_chemical_formula_sum   'Ti2 Mo2 S6'
_cell_volume   170.29664215
_cell_formula_units_Z   2
loop_
 _symmetry_equiv_pos_site_id
 _symmetry_equiv_pos_as_xyz
  1  'x, y, z'
loop_
 _atom_site_type_symbol
 _atom_site_label
 _atom_site_symmetry_multiplicity
 _atom_site_fract_x
 _atom_site_fract_y
 _atom_site_fract_z
 _atom_site_occupancy
  Ti  Ti0  1  0.75000000  0.73653011  0.99430150  1
  Ti  Ti1  1  0.25000000  0.26346989  0.00569850  1
  Mo  Mo2  1  0.75000000  0.88192805  0.37497604  1
  Mo  Mo3  1  0.25000000  0.11807195  0.62502396  1
  S  S4  1  0.75000000  0.02086953  0.82976880  1
  S  S5  1  0.25000000  0.97913047  0.17023120  1
  S  S6  1  0.75000000  0.49611510  0.17752692  1
  S  S7  1  0.25000000  0.50388490  0.82247308  1
  S  S8  1  0.75000000  0.27538480  0.48727742  1
  S  S9  1  0.25000000  0.72461520  0.51272258  1
