# generated using pymatgen
data_Ti4MnS8
_symmetry_space_group_name_H-M   'P 1'
_cell_length_a   3.44301563
_cell_length_b   3.44301565
_cell_length_c   23.68238291
_cell_angle_alpha   89.99004369
_cell_angle_beta   89.99004369
_cell_angle_gamma   59.99279507
_symmetry_Int_Tables_number   1
_chemical_formula_structural   Ti4MnS8
_chemical_formula_sum   'Ti4 Mn1 S8'
_cell_volume   243.10980659
_cell_formula_units_Z   1
loop_
 _symmetry_equiv_pos_site_id
 _symmetry_equiv_pos_as_xyz
  1  'x, y, z'
loop_
 _atom_site_type_symbol
 _atom_site_label
 _atom_site_symmetry_multiplicity
 _atom_site_fract_x
 _atom_site_fract_y
 _atom_site_fract_z
 _atom_site_occupancy
  Ti  Ti0  1  0.99991046  0.99991046  0.99827048  1
  Ti  Ti1  1  0.00008954  0.00008954  0.25172952  1
  Ti  Ti2  1  0.00000114  0.00000114  0.50004718  1
  Ti  Ti3  1  0.99999886  0.99999886  0.74995282  1
  Mn  Mn4  1  -0.00000000  -0.00000000  0.12500000  1
  S  S5  1  0.66669352  0.66669352  0.06352543  1
  S  S6  1  0.66670587  0.66670587  0.30966891  1
  S  S7  1  0.66663376  0.66663376  0.55975741  1
  S  S8  1  0.66661597  0.66661597  0.80986627  1
  S  S9  1  0.33330648  0.33330648  0.18647457  1
  S  S10  1  0.33338403  0.33338403  0.44013373  1
  S  S11  1  0.33336624  0.33336624  0.69024259  1
  S  S12  1  0.33329413  0.33329413  0.94033109  1
