# generated using pymatgen
data_YBeCu4
_symmetry_space_group_name_H-M   'P 1'
_cell_length_a   3.86976644
_cell_length_b   5.05918050
_cell_length_c   5.05853299
_cell_angle_alpha   60.01883016
_cell_angle_beta   90.00000000
_cell_angle_gamma   90.00000000
_symmetry_Int_Tables_number   1
_chemical_formula_structural   YBeCu4
_chemical_formula_sum   'Y1 Be1 Cu4'
_cell_volume   85.78325483
_cell_formula_units_Z   1
loop_
 _symmetry_equiv_pos_site_id
 _symmetry_equiv_pos_as_xyz
  1  'x, y, z'
loop_
 _atom_site_type_symbol
 _atom_site_label
 _atom_site_symmetry_multiplicity
 _atom_site_fract_x
 _atom_site_fract_y
 _atom_site_fract_z
 _atom_site_occupancy
  Y  Y0  1  -0.00000000  0.99996936  0.00002581  1
  Be  Be1  1  -0.00000000  0.33334712  0.33336726  1
  Cu  Cu2  1  -0.00000000  0.66665786  0.66667839  1
  Cu  Cu3  1  0.50000000  0.49535444  0.49539421  1
  Cu  Cu4  1  0.50000000  0.49532329  0.00927116  1
  Cu  Cu5  1  0.50000000  0.00924793  0.49536317  1
