# generated using pymatgen
data_TiNbFeO6
_symmetry_space_group_name_H-M   'P 1'
_cell_length_a   4.72168407
_cell_length_b   4.72168407
_cell_length_c   9.10311873
_cell_angle_alpha   90.00000000
_cell_angle_beta   90.00000000
_cell_angle_gamma   90.00000000
_symmetry_Int_Tables_number   1
_chemical_formula_structural   TiNbFeO6
_chemical_formula_sum   'Ti2 Nb2 Fe2 O12'
_cell_volume   202.94766406
_cell_formula_units_Z   2
loop_
 _symmetry_equiv_pos_site_id
 _symmetry_equiv_pos_as_xyz
  1  'x, y, z'
loop_
 _atom_site_type_symbol
 _atom_site_label
 _atom_site_symmetry_multiplicity
 _atom_site_fract_x
 _atom_site_fract_y
 _atom_site_fract_z
 _atom_site_occupancy
  Ti  Ti0  1  0.50000000  0.50000000  0.49941249  1
  Ti  Ti1  1  -0.00000000  -0.00000000  0.99941249  1
  Nb  Nb2  1  0.50000000  0.50000000  0.83440269  1
  Nb  Nb3  1  -0.00000000  -0.00000000  0.33440269  1
  Fe  Fe4  1  0.50000000  0.50000000  0.16783078  1
  Fe  Fe5  1  -0.00000000  -0.00000000  0.66783078  1
  O  O6  1  0.19301095  0.80698905  0.16403991  1
  O  O7  1  0.20080363  0.79919637  0.49753286  1
  O  O8  1  0.19517506  0.80482494  0.83760425  1
  O  O9  1  0.80698905  0.19301095  0.16403991  1
  O  O10  1  0.79919637  0.20080363  0.49753286  1
  O  O11  1  0.80482494  0.19517506  0.83760425  1
  O  O12  1  0.29919637  0.29919637  -0.00246714  1
  O  O13  1  0.30482494  0.30482494  0.33760425  1
  O  O14  1  0.30698905  0.30698905  0.66403991  1
  O  O15  1  0.70080363  0.70080363  -0.00246714  1
  O  O16  1  0.69517506  0.69517506  0.33760425  1
  O  O17  1  0.69301095  0.69301095  0.66403991  1
