# generated using pymatgen
data_Ti3Fe(BiO3)5
_symmetry_space_group_name_H-M   'P 1'
_cell_length_a   3.96800365
_cell_length_b   3.96800365
_cell_length_c   20.71079717
_cell_angle_alpha   84.43342824
_cell_angle_beta   84.84948119
_cell_angle_gamma   91.44048924
_symmetry_Int_Tables_number   1
_chemical_formula_structural   Ti3Fe(BiO3)5
_chemical_formula_sum   'Ti3 Fe1 Bi5 O15'
_cell_volume   323.05585603
_cell_formula_units_Z   1
loop_
 _symmetry_equiv_pos_site_id
 _symmetry_equiv_pos_as_xyz
  1  'x, y, z'
loop_
 _atom_site_type_symbol
 _atom_site_label
 _atom_site_symmetry_multiplicity
 _atom_site_fract_x
 _atom_site_fract_y
 _atom_site_fract_z
 _atom_site_occupancy
  Ti  Ti0  1  0.57769172  0.52097981  0.90132846  1
  Ti  Ti1  1  0.37785689  0.31889246  0.30325065  1
  Ti  Ti2  1  0.68165039  0.62063860  0.69771101  1
  Fe  Fe3  1  0.49115948  0.41002616  0.09881436  1
  Bi  Bi4  1  0.96921833  0.02113693  0.00964475  1
  Bi  Bi5  1  0.06920691  0.13456750  0.79622559  1
  Bi  Bi6  1  0.85838242  0.93520261  0.20641497  1
  Bi  Bi7  1  0.16809289  0.26971802  0.56218909  1
  Bi  Bi8  1  0.73021431  0.83065294  0.43913274  1
  O  O9  1  0.01192866  0.36443232  0.09080777  1
  O  O10  1  0.63871479  0.98043972  0.90142247  1
  O  O11  1  0.54475991  0.89726357  0.09080777  1
  O  O12  1  0.11813781  0.45986274  0.90142247  1
  O  O13  1  0.91248026  0.28269314  0.28638356  1
  O  O14  1  0.71695234  0.08474212  0.71474408  1
  O  O15  1  0.43092329  0.80113617  0.28638356  1
  O  O16  1  0.20051379  0.56830358  0.71474408  1
  O  O17  1  0.58775836  0.41566416  0.99657748  1
  O  O18  1  0.74328103  0.25684500  0.50016267  1
  O  O19  1  0.24299233  0.75655630  0.50016267  1
  O  O20  1  0.75565288  0.63361499  0.61073212  1
  O  O21  1  0.36648087  0.24390947  0.38960966  1
  O  O22  1  0.67838456  0.51504231  0.80657313  1
  O  O23  1  0.48016577  0.32507937  0.19475487  1
