# generated using pymatgen
data_SrPrScO4
_symmetry_space_group_name_H-M   'P 1'
_cell_length_a   5.71666577
_cell_length_b   5.88751167
_cell_length_c   6.85106837
_cell_angle_alpha   90.00000000
_cell_angle_beta   65.34144905
_cell_angle_gamma   90.00000000
_symmetry_Int_Tables_number   1
_chemical_formula_structural   SrPrScO4
_chemical_formula_sum   'Sr2 Pr2 Sc2 O8'
_cell_volume   209.55889180
_cell_formula_units_Z   2
loop_
 _symmetry_equiv_pos_site_id
 _symmetry_equiv_pos_as_xyz
  1  'x, y, z'
loop_
 _atom_site_type_symbol
 _atom_site_label
 _atom_site_symmetry_multiplicity
 _atom_site_fract_x
 _atom_site_fract_y
 _atom_site_fract_z
 _atom_site_occupancy
  Sr  Sr0  1  0.14574351  0.51341565  0.70851298  1
  Sr  Sr1  1  0.35425649  0.01341565  0.29148702  1
  Pr  Pr2  1  0.85890113  0.48377935  0.28219775  1
  Pr  Pr3  1  0.64109887  0.98377935  0.71780225  1
  Sc  Sc4  1  0.49589189  0.49557172  0.00821623  1
  Sc  Sc5  1  0.00410811  0.99557172  0.99178377  1
  O  O6  1  0.22262092  0.74132542  0.04430667  1
  O  O7  1  0.27737908  0.24132542  0.95569333  1
  O  O8  1  0.76692759  0.24132542  0.95569333  1
  O  O9  1  0.73307241  0.74132542  0.04430667  1
  O  O10  1  0.16662472  0.93656729  0.66675056  1
  O  O11  1  0.81996767  0.08801516  0.36006467  1
  O  O12  1  0.33337528  0.43656729  0.33324944  1
  O  O13  1  0.68003233  0.58801516  0.63993533  1
