# generated using pymatgen
data_Ta4SeS
_symmetry_space_group_name_H-M   'P 1'
_cell_length_a   3.36288200
_cell_length_b   3.36288200
_cell_length_c   9.80884301
_cell_angle_alpha   90.00000000
_cell_angle_beta   90.00000000
_cell_angle_gamma   90.00000000
_symmetry_Int_Tables_number   1
_chemical_formula_structural   Ta4SeS
_chemical_formula_sum   'Ta4 Se1 S1'
_cell_volume   110.92796377
_cell_formula_units_Z   1
loop_
 _symmetry_equiv_pos_site_id
 _symmetry_equiv_pos_as_xyz
  1  'x, y, z'
loop_
 _atom_site_type_symbol
 _atom_site_label
 _atom_site_symmetry_multiplicity
 _atom_site_fract_x
 _atom_site_fract_y
 _atom_site_fract_z
 _atom_site_occupancy
  Ta  Ta0  1  0.75000000  0.75000000  0.24332707  1
  Ta  Ta1  1  0.25000000  0.25000000  0.74408349  1
  Ta  Ta2  1  0.75000000  0.75000000  0.91825527  1
  Ta  Ta3  1  0.25000000  0.25000000  0.07552011  1
  Se  Se4  1  0.25000000  0.25000000  0.37209838  1
  S  S5  1  0.75000000  0.75000000  0.64671568  1
