# generated using pymatgen
data_SrLaMnSnO6
_symmetry_space_group_name_H-M   'P 1'
_cell_length_a   5.71533999
_cell_length_b   5.73367297
_cell_length_c   8.09267445
_cell_angle_alpha   89.97419632
_cell_angle_beta   90.00000000
_cell_angle_gamma   90.00000000
_symmetry_Int_Tables_number   1
_chemical_formula_structural   SrLaMnSnO6
_chemical_formula_sum   'Sr2 La2 Mn2 Sn2 O12'
_cell_volume   265.19602796
_cell_formula_units_Z   2
loop_
 _symmetry_equiv_pos_site_id
 _symmetry_equiv_pos_as_xyz
  1  'x, y, z'
loop_
 _atom_site_type_symbol
 _atom_site_label
 _atom_site_symmetry_multiplicity
 _atom_site_fract_x
 _atom_site_fract_y
 _atom_site_fract_z
 _atom_site_occupancy
  Sr  Sr0  1  0.47749975  0.49648641  0.74946845  1
  Sr  Sr1  1  0.02250025  0.99648641  0.24946845  1
  La  La2  1  0.96243365  0.00948403  0.75052855  1
  La  La3  1  0.53756635  0.50948403  0.25052855  1
  Mn  Mn4  1  0.49738544  0.99965254  0.99922656  1
  Mn  Mn5  1  0.00261456  0.49965254  0.49922656  1
  Sn  Sn6  1  0.49598575  0.00054946  0.49932836  1
  Sn  Sn7  1  0.00401425  0.50054946  0.99932836  1
  O  O8  1  0.21034851  0.20104006  0.54764816  1
  O  O9  1  0.72773757  0.28365226  0.95735684  1
  O  O10  1  0.76886265  0.79019107  0.03876630  1
  O  O11  1  0.28083244  0.69669858  0.45734541  1
  O  O12  1  0.77226243  0.78365226  0.45735684  1
  O  O13  1  0.28965149  0.70104006  0.04764816  1
  O  O14  1  0.21916756  0.19669858  0.95734541  1
  O  O15  1  0.73113735  0.29019107  0.53876630  1
  O  O16  1  0.02043139  0.59072314  0.74860995  1
  O  O17  1  0.53144733  0.93152244  0.75172142  1
  O  O18  1  0.96855267  0.43152244  0.25172142  1
  O  O19  1  0.47956861  0.09072314  0.24860995  1
