# generated using pymatgen
data_Tb2Ce
_symmetry_space_group_name_H-M   'P 1'
_cell_length_a   3.54602179
_cell_length_b   3.54602179
_cell_length_c   8.73281739
_cell_angle_alpha   89.99999178
_cell_angle_beta   101.71411171
_cell_angle_gamma   60.00001670
_symmetry_Int_Tables_number   1
_chemical_formula_structural   Tb2Ce
_chemical_formula_sum   'Tb2 Ce1'
_cell_volume   92.44699570
_cell_formula_units_Z   1
loop_
 _symmetry_equiv_pos_site_id
 _symmetry_equiv_pos_as_xyz
  1  'x, y, z'
loop_
 _atom_site_type_symbol
 _atom_site_label
 _atom_site_symmetry_multiplicity
 _atom_site_fract_x
 _atom_site_fract_y
 _atom_site_fract_z
 _atom_site_occupancy
  Tb  Tb0  1  0.55403909  0.22298046  0.33105863  1
  Tb  Tb1  1  0.44596091  0.77701954  0.66894137  1
  Ce  Ce2  1  0.00000000  -0.00000000  0.00000000  1
