# generated using pymatgen
data_TaCrB4
_symmetry_space_group_name_H-M   'P 1'
_cell_length_a   3.06990085
_cell_length_b   3.06880110
_cell_length_c   6.20776749
_cell_angle_alpha   90.00000000
_cell_angle_beta   90.00000000
_cell_angle_gamma   59.98813916
_symmetry_Int_Tables_number   1
_chemical_formula_structural   TaCrB4
_chemical_formula_sum   'Ta1 Cr1 B4'
_cell_volume   50.64157977
_cell_formula_units_Z   1
loop_
 _symmetry_equiv_pos_site_id
 _symmetry_equiv_pos_as_xyz
  1  'x, y, z'
loop_
 _atom_site_type_symbol
 _atom_site_label
 _atom_site_symmetry_multiplicity
 _atom_site_fract_x
 _atom_site_fract_y
 _atom_site_fract_z
 _atom_site_occupancy
  Ta  Ta0  1  0.99995147  1.00000000  0.50000000  1
  Cr  Cr1  1  0.99996258  1.00000000  -0.00000000  1
  B  B2  1  0.66662445  0.66669408  0.23344601  1
  B  B3  1  0.66662445  0.66669408  0.76655399  1
  B  B4  1  0.33331852  0.33330592  0.23344601  1
  B  B5  1  0.33331852  0.33330592  0.76655399  1
