# generated using pymatgen
data_TbTiFe11C
_symmetry_space_group_name_H-M   'P 1'
_cell_length_a   4.87244829
_cell_length_b   6.50260084
_cell_length_c   6.50260084
_cell_angle_alpha   97.80824558
_cell_angle_beta   112.00291752
_cell_angle_gamma   67.99708248
_symmetry_Int_Tables_number   1
_chemical_formula_structural   TbTiFe11C
_chemical_formula_sum   'Tb1 Ti1 Fe11 C1'
_cell_volume   177.10438348
_cell_formula_units_Z   1
loop_
 _symmetry_equiv_pos_site_id
 _symmetry_equiv_pos_as_xyz
  1  'x, y, z'
loop_
 _atom_site_type_symbol
 _atom_site_label
 _atom_site_symmetry_multiplicity
 _atom_site_fract_x
 _atom_site_fract_y
 _atom_site_fract_z
 _atom_site_occupancy
  Tb  Tb0  1  0.00686344  0.99313656  0.00686344  1
  Ti  Ti1  1  0.63415337  0.36584663  0.63415337  1
  Fe  Fe2  1  0.72430815  0.77569185  0.22430815  1
  Fe  Fe3  1  0.27759352  0.22240648  0.77759352  1
  Fe  Fe4  1  0.49781663  0.78162472  0.77725797  1
  Fe  Fe5  1  0.49781663  0.22274203  0.21837528  1
  Fe  Fe6  1  0.50017693  0.99754541  0.49907478  1
  Fe  Fe7  1  0.00135244  0.99754541  0.49907478  1
  Fe  Fe8  1  0.50017693  0.50092522  0.00245459  1
  Fe  Fe9  1  0.00135244  0.50092522  0.00245459  1
  Fe  Fe10  1  0.35699758  0.64300242  0.35699758  1
  Fe  Fe11  1  0.99988642  0.35886811  0.35864094  1
  Fe  Fe12  1  0.99988642  0.64135906  0.64113189  1
  C  C13  1  0.50161911  0.99838089  0.00161911  1
