# generated using pymatgen
data_SrEuSeS
_symmetry_space_group_name_H-M   'P 1'
_cell_length_a   4.32570926
_cell_length_b   4.32570926
_cell_length_c   7.51430046
_cell_angle_alpha   73.27180655
_cell_angle_beta   90.00000000
_cell_angle_gamma   120.00000000
_symmetry_Int_Tables_number   1
_chemical_formula_structural   SrEuSeS
_chemical_formula_sum   'Sr1 Eu1 Se1 S1'
_cell_volume   114.84600244
_cell_formula_units_Z   1
loop_
 _symmetry_equiv_pos_site_id
 _symmetry_equiv_pos_as_xyz
  1  'x, y, z'
loop_
 _atom_site_type_symbol
 _atom_site_label
 _atom_site_symmetry_multiplicity
 _atom_site_fract_x
 _atom_site_fract_y
 _atom_site_fract_z
 _atom_site_occupancy
  Sr  Sr0  1  0.50317428  0.00634856  0.49047715  1
  Eu  Eu1  1  0.99665134  0.99330267  0.01004599  1
  Se  Se2  1  0.74800935  0.49601870  0.75597196  1
  S  S3  1  0.25216503  0.50433007  0.24350490  1
