# generated using pymatgen
data_SrSmNiO4
_symmetry_space_group_name_H-M   'P 1'
_cell_length_a   5.37246244
_cell_length_b   5.39752503
_cell_length_c   6.74325818
_cell_angle_alpha   90.00000000
_cell_angle_beta   66.52442116
_cell_angle_gamma   90.00000000
_symmetry_Int_Tables_number   1
_chemical_formula_structural   SrSmNiO4
_chemical_formula_sum   'Sr2 Sm2 Ni2 O8'
_cell_volume   179.35606524
_cell_formula_units_Z   2
loop_
 _symmetry_equiv_pos_site_id
 _symmetry_equiv_pos_as_xyz
  1  'x, y, z'
loop_
 _atom_site_type_symbol
 _atom_site_label
 _atom_site_symmetry_multiplicity
 _atom_site_fract_x
 _atom_site_fract_y
 _atom_site_fract_z
 _atom_site_occupancy
  Sr  Sr0  1  0.85503673  0.50000000  0.28992653  1
  Sr  Sr1  1  0.64496327  -0.00000000  0.71007347  1
  Sm  Sm2  1  0.36521025  -0.00000000  0.26957950  1
  Sm  Sm3  1  0.13478975  0.50000000  0.73042050  1
  Ni  Ni4  1  0.49970875  0.50000000  0.00058249  1
  Ni  Ni5  1  0.00029125  -0.00000000  0.99941751  1
  O  O6  1  0.17800688  0.00000000  0.64398625  1
  O  O7  1  0.66071330  0.50000000  0.67857340  1
  O  O8  1  0.32199312  0.50000000  0.35601375  1
  O  O9  1  0.83928670  0.00000000  0.32142660  1
  O  O10  1  0.75000000  0.75000000  -0.00000000  1
  O  O11  1  0.25000000  0.25000000  -0.00000000  1
  O  O12  1  0.75000000  0.25000000  -0.00000000  1
  O  O13  1  0.25000000  0.75000000  -0.00000000  1
