# generated using pymatgen
data_SrIBr
_symmetry_space_group_name_H-M   'P 1'
_cell_length_a   5.13191414
_cell_length_b   8.16910568
_cell_length_c   11.03085230
_cell_angle_alpha   90.00000000
_cell_angle_beta   90.00000000
_cell_angle_gamma   90.00000000
_symmetry_Int_Tables_number   1
_chemical_formula_structural   SrIBr
_chemical_formula_sum   'Sr4 I4 Br4'
_cell_volume   462.44806402
_cell_formula_units_Z   4
loop_
 _symmetry_equiv_pos_site_id
 _symmetry_equiv_pos_as_xyz
  1  'x, y, z'
loop_
 _atom_site_type_symbol
 _atom_site_label
 _atom_site_symmetry_multiplicity
 _atom_site_fract_x
 _atom_site_fract_y
 _atom_site_fract_z
 _atom_site_occupancy
  Sr  Sr0  1  0.75000000  0.28013083  0.57889958  1
  Sr  Sr1  1  0.75000000  0.78013083  0.92110042  1
  Sr  Sr2  1  0.25000000  0.71986917  0.42110042  1
  Sr  Sr3  1  0.25000000  0.21986917  0.07889958  1
  I  I4  1  0.75000000  0.36716045  0.89047886  1
  I  I5  1  0.75000000  0.86716045  0.60952114  1
  I  I6  1  0.25000000  0.63283955  0.10952114  1
  I  I7  1  0.25000000  0.13283955  0.39047886  1
  Br  Br8  1  0.75000000  0.51779576  0.36284045  1
  Br  Br9  1  0.75000000  0.01779576  0.13715955  1
  Br  Br10  1  0.25000000  0.48220424  0.63715955  1
  Br  Br11  1  0.25000000  0.98220424  0.86284045  1
