# generated using pymatgen
data_Ta2O5
_symmetry_space_group_name_H-M   'P 1'
_cell_length_a   3.84373178
_cell_length_b   6.33799939
_cell_length_c   40.95155657
_cell_angle_alpha   90.84604074
_cell_angle_beta   90.00000000
_cell_angle_gamma   90.00000000
_symmetry_Int_Tables_number   1
_chemical_formula_structural   Ta2O5
_chemical_formula_sum   'Ta22 O55'
_cell_volume   997.53543764
_cell_formula_units_Z   11
loop_
 _symmetry_equiv_pos_site_id
 _symmetry_equiv_pos_as_xyz
  1  'x, y, z'
loop_
 _atom_site_type_symbol
 _atom_site_label
 _atom_site_symmetry_multiplicity
 _atom_site_fract_x
 _atom_site_fract_y
 _atom_site_fract_z
 _atom_site_occupancy
  Ta  Ta0  1  -0.00000000  0.17288102  0.35864594  1
  Ta  Ta1  1  0.00000000  0.16693426  0.63356504  1
  Ta  Ta2  1  0.00000000  0.13816835  0.08239658  1
  Ta  Ta3  1  0.00000000  0.07079163  0.91170328  1
  Ta  Ta4  1  0.00000000  0.61679386  0.31875041  1
  Ta  Ta5  1  -0.00000000  0.51505922  0.69125735  1
  Ta  Ta6  1  0.00000000  0.48785904  0.14286862  1
  Ta  Ta7  1  0.00000000  0.53880149  0.86241929  1
  Ta  Ta8  1  0.00000000  0.53365134  0.41693576  1
  Ta  Ta9  1  -0.00000000  0.61997746  0.59215881  1
  Ta  Ta10  1  0.00000000  0.57802463  0.04596672  1
  Ta  Ta11  1  -0.00000000  0.54559575  0.95330257  1
  Ta  Ta12  1  -0.00000000  0.00675807  0.99877355  1
  Ta  Ta13  1  0.00000000  0.04936684  0.18037050  1
  Ta  Ta14  1  0.00000000  0.08101880  0.81994627  1
  Ta  Ta15  1  0.00000000  0.61158166  0.22648523  1
  Ta  Ta16  1  -0.00000000  0.62509250  0.77664008  1
  Ta  Ta17  1  0.00000000  0.08436001  0.27248858  1
  Ta  Ta18  1  -0.00000000  0.06861203  0.72888075  1
  Ta  Ta19  1  0.00000000  0.65119709  0.50106290  1
  Ta  Ta20  1  -0.00000000  0.09050099  0.45465665  1
  Ta  Ta21  1  0.00000000  0.11802124  0.54616804  1
  O  O22  1  0.00000000  0.28301642  0.31415716  1
  O  O23  1  0.00000000  0.19944733  0.68298372  1
  O  O24  1  0.00000000  0.45483255  0.09258443  1
  O  O25  1  -0.00000000  0.41397355  0.90942863  1
  O  O26  1  0.00000000  0.25683112  0.03697831  1
  O  O27  1  -0.00000000  0.25991078  0.97059284  1
  O  O28  1  -0.00000000  0.78551805  0.44639007  1
  O  O29  1  -0.00000000  0.77717390  0.54823209  1
  O  O30  1  0.50000000  0.67776260  0.49579973  1
  O  O31  1  0.00000000  0.66223636  0.00081411  1
  O  O32  1  -0.00000000  0.35010497  0.25060387  1
  O  O33  1  -0.00000000  0.39242155  0.73892278  1
  O  O34  1  0.50000000  0.56796002  0.04973632  1
  O  O35  1  0.50000000  0.57423273  0.95067526  1
  O  O36  1  0.50000000  0.06114323  0.27989915  1
  O  O37  1  0.50000000  0.08107842  0.72527053  1
  O  O38  1  0.00000000  0.00352761  0.50009119  1
  O  O39  1  0.50000000  0.09406180  0.08845887  1
  O  O40  1  0.50000000  0.09808497  0.91744766  1
  O  O41  1  -0.00000000  0.50042380  0.36615143  1
  O  O42  1  -0.00000000  0.49401339  0.64065240  1
  O  O43  1  0.50000000  0.57950485  0.41175079  1
  O  O44  1  0.50000000  0.58935719  0.58642788  1
  O  O45  1  0.00000000  0.41252578  0.46294491  1
  O  O46  1  -0.00000000  0.39207854  0.52619184  1
  O  O47  1  -0.00000000  0.21798624  0.40858716  1
  O  O48  1  -0.00000000  0.28433185  0.58922344  1
  O  O49  1  -0.00000000  0.96348866  0.22643663  1
  O  O50  1  -0.00000000  0.96390798  0.77320781  1
  O  O51  1  -0.00000000  0.73952352  0.27326984  1
  O  O52  1  0.00000000  0.76985177  0.71840684  1
  O  O53  1  0.00000000  0.16752590  0.13377216  1
  O  O54  1  -0.00000000  0.18203855  0.86461742  1
  O  O55  1  0.50000000  0.58939181  0.31446261  1
  O  O56  1  0.50000000  0.55385576  0.68677407  1
  O  O57  1  0.00000000  0.88264380  0.05442650  1
  O  O58  1  0.00000000  0.88136739  0.95297891  1
  O  O59  1  0.50000000  0.99450981  0.00521371  1
  O  O60  1  0.50000000  0.13661348  0.36437541  1
  O  O61  1  0.50000000  0.13357544  0.63813332  1
  O  O62  1  0.50000000  0.53393304  0.13759075  1
  O  O63  1  0.50000000  0.50757734  0.85780373  1
  O  O64  1  0.50000000  0.63752572  0.22088853  1
  O  O65  1  0.50000000  0.64479291  0.77092324  1
  O  O66  1  -0.00000000  0.37614871  0.18802807  1
  O  O67  1  0.00000000  0.38617095  0.80715633  1
  O  O68  1  0.50000000  0.09800414  0.45102267  1
  O  O69  1  0.50000000  0.09155069  0.55235554  1
  O  O70  1  0.50000000  0.07125639  0.17997040  1
  O  O71  1  0.50000000  0.07598158  0.81732312  1
  O  O72  1  -0.00000000  0.89400025  0.33702013  1
  O  O73  1  0.00000000  0.88082382  0.61458149  1
  O  O74  1  -0.00000000  0.75031764  0.17046785  1
  O  O75  1  0.00000000  0.75681140  0.82422478  1
  O  O76  1  -0.00000000  0.79982468  0.88862862  1
