# generated using pymatgen
data_Sr3Co2WO9
_symmetry_space_group_name_H-M   'P 1'
_cell_length_a   5.58465139
_cell_length_b   7.94985664
_cell_length_c   9.69834581
_cell_angle_alpha   65.80419066
_cell_angle_beta   73.26666550
_cell_angle_gamma   90.00000000
_symmetry_Int_Tables_number   1
_chemical_formula_structural   Sr3Co2WO9
_chemical_formula_sum   'Sr6 Co4 W2 O18'
_cell_volume   372.67397775
_cell_formula_units_Z   2
loop_
 _symmetry_equiv_pos_site_id
 _symmetry_equiv_pos_as_xyz
  1  'x, y, z'
loop_
 _atom_site_type_symbol
 _atom_site_label
 _atom_site_symmetry_multiplicity
 _atom_site_fract_x
 _atom_site_fract_y
 _atom_site_fract_z
 _atom_site_occupancy
  Sr  Sr0  1  0.50000000  0.23500830  -0.00000000  1
  Sr  Sr1  1  0.83969227  0.59890120  0.32061446  1
  Sr  Sr2  1  0.16030773  0.91951666  0.67938554  1
  Sr  Sr3  1  0.50000000  0.76499170  -0.00000000  1
  Sr  Sr4  1  0.83969227  0.08048334  0.32061446  1
  Sr  Sr5  1  0.16030773  0.40109880  0.67938554  1
  Co  Co6  1  -0.00000000  0.50000000  -0.00000000  1
  Co  Co7  1  0.33839484  0.83839484  0.32320932  1
  Co  Co8  1  0.66160516  0.16160516  0.67679068  1
  Co  Co9  1  -0.00000000  -0.00000000  -0.00000000  1
  W  W10  1  0.33204735  0.33204735  0.33590429  1
  W  W11  1  0.66795265  0.66795265  0.66409571  1
  O  O12  1  -0.00000000  0.26433363  -0.00000000  1
  O  O13  1  0.33477514  0.57799102  0.33044872  1
  O  O14  1  0.66522486  0.90844074  0.66955128  1
  O  O15  1  0.16680081  0.41372638  0.17254724  1
  O  O16  1  0.50473218  0.74998525  0.50002849  1
  O  O17  1  0.83694348  0.08006424  0.83987252  1
  O  O18  1  0.33934805  0.58627362  0.82745276  1
  O  O19  1  0.67681500  0.91993576  0.16012748  1
  O  O20  1  0.00476167  0.25001475  0.49997151  1
  O  O21  1  -0.00000000  0.73566637  -0.00000000  1
  O  O22  1  0.33477514  0.09155926  0.33044872  1
  O  O23  1  0.66522486  0.42200898  0.66955128  1
  O  O24  1  0.83319919  0.58627362  0.82745276  1
  O  O25  1  0.16305652  0.91993576  0.16012748  1
  O  O26  1  0.49526782  0.25001475  0.49997151  1
  O  O27  1  0.66065195  0.41372638  0.17254724  1
  O  O28  1  0.99523833  0.74998525  0.50002849  1
  O  O29  1  0.32318500  0.08006424  0.83987252  1
