# generated using pymatgen
data_Sr4CeY3Fe2(Cu2O9)2
_symmetry_space_group_name_H-M   'P 1'
_cell_length_a   3.93131635
_cell_length_b   3.79458336
_cell_length_c   28.36305830
_cell_angle_alpha   90.00000000
_cell_angle_beta   90.00000000
_cell_angle_gamma   90.00000000
_symmetry_Int_Tables_number   1
_chemical_formula_structural   Sr4CeY3Fe2(Cu2O9)2
_chemical_formula_sum   'Sr4 Ce1 Y3 Fe2 Cu4 O18'
_cell_volume   423.11181049
_cell_formula_units_Z   1
loop_
 _symmetry_equiv_pos_site_id
 _symmetry_equiv_pos_as_xyz
  1  'x, y, z'
loop_
 _atom_site_type_symbol
 _atom_site_label
 _atom_site_symmetry_multiplicity
 _atom_site_fract_x
 _atom_site_fract_y
 _atom_site_fract_z
 _atom_site_occupancy
  Sr  Sr0  1  -0.00000000  0.00000000  0.42101128  1
  Sr  Sr1  1  0.50000000  0.50000000  0.92863839  1
  Sr  Sr2  1  0.50000000  0.50000000  0.07238736  1
  Sr  Sr3  1  0.00000000  -0.00000000  0.56747758  1
  Ce  Ce4  1  0.50000000  0.50000000  0.79573974  1
  Y  Y5  1  0.50000000  0.50000000  0.21019754  1
  Y  Y6  1  -0.00000000  0.00000000  0.70628732  1
  Y  Y7  1  -0.00000000  -0.00000000  0.29225480  1
  Fe  Fe8  1  -0.00000000  -0.00000000  0.13604248  1
  Fe  Fe9  1  0.50000000  0.50000000  0.63551372  1
  Cu  Cu10  1  -0.00000000  -0.00000000  0.00042307  1
  Cu  Cu11  1  0.50000000  0.50000000  0.49948938  1
  Cu  Cu12  1  0.50000000  0.50000000  0.35979331  1
  Cu  Cu13  1  -0.00000000  -0.00000000  0.85940468  1
  O  O14  1  0.50000000  0.50000000  0.43477834  1
  O  O15  1  -0.00000000  0.00000000  0.93467487  1
  O  O16  1  -0.00000000  -0.00000000  0.06813426  1
  O  O17  1  0.50000000  0.50000000  0.56894200  1
  O  O18  1  0.50000000  0.00000000  0.35235040  1
  O  O19  1  -0.00000000  0.50000000  0.84901358  1
  O  O20  1  -0.00000000  0.50000000  0.35266210  1
  O  O21  1  0.50000000  0.00000000  0.84942278  1
  O  O22  1  -0.00000000  0.50000000  0.14782223  1
  O  O23  1  0.50000000  -0.00000000  0.65189947  1
  O  O24  1  0.50000000  -0.00000000  0.14750523  1
  O  O25  1  -0.00000000  0.50000000  0.65047429  1
  O  O26  1  0.50000000  -0.00000000  0.25169272  1
  O  O27  1  -0.00000000  0.50000000  0.75149094  1
  O  O28  1  -0.00000000  0.50000000  0.24878282  1
  O  O29  1  0.50000000  -0.00000000  0.75003659  1
  O  O30  1  0.50000000  -0.00000000  0.00152869  1
  O  O31  1  -0.00000000  0.50000000  0.50412802  1
