# generated using pymatgen
data_Sr3LaV3O12
_symmetry_space_group_name_H-M   'P 1'
_cell_length_a   5.67633220
_cell_length_b   9.36424914
_cell_length_c   11.03303373
_cell_angle_alpha   95.46739954
_cell_angle_beta   75.09348899
_cell_angle_gamma   89.99999865
_symmetry_Int_Tables_number   1
_chemical_formula_structural   Sr3LaV3O12
_chemical_formula_sum   'Sr6 La2 V6 O24'
_cell_volume   563.95886684
_cell_formula_units_Z   2
loop_
 _symmetry_equiv_pos_site_id
 _symmetry_equiv_pos_as_xyz
  1  'x, y, z'
loop_
 _atom_site_type_symbol
 _atom_site_label
 _atom_site_symmetry_multiplicity
 _atom_site_fract_x
 _atom_site_fract_y
 _atom_site_fract_z
 _atom_site_occupancy
  Sr  Sr0  1  0.00393001  0.00743565  0.99213997  1
  Sr  Sr1  1  0.33184840  0.66209513  0.33630219  1
  Sr  Sr2  1  0.66529370  0.32554031  0.66941360  1
  Sr  Sr3  1  0.79955926  0.00477449  0.40088248  1
  Sr  Sr4  1  0.13415488  0.66837953  0.73169025  1
  Sr  Sr5  1  0.19897505  0.00167684  0.60204890  1
  La  La6  1  0.52170300  0.63561850  0.95659500  1
  La  La7  1  0.87912914  0.33650019  0.24174173  1
  V  V8  1  0.93538698  0.66663699  0.12922503  1
  V  V9  1  0.27020757  0.32553038  0.45958586  1
  V  V10  1  0.60265936  0.98815516  0.79468128  1
  V  V11  1  0.06222106  0.34887094  0.87555887  1
  V  V12  1  0.39701456  0.00861525  0.20597089  1
  V  V13  1  0.73134983  0.66922058  0.53729934  1
  O  O14  1  0.54710006  0.13032277  0.90579987  1
  O  O15  1  0.87767046  0.80510128  0.24465808  1
  O  O16  1  0.21360540  0.46898883  0.57279020  1
  O  O17  1  0.45452071  0.85966007  0.09095858  1
  O  O18  1  0.79197466  0.52649533  0.41604969  1
  O  O19  1  0.11875773  0.20571721  0.76248554  1
  O  O20  1  0.83125421  0.45873413  0.85143946  1
  O  O21  1  0.14133942  0.10838126  0.19844544  1
  O  O22  1  0.48989426  0.77522109  0.52282874  1
  O  O23  1  0.31730533  0.45873413  0.85143946  1
  O  O24  1  0.66021614  0.10838126  0.19844544  1
  O  O25  1  0.98727701  0.77522109  0.52282874  1
  O  O26  1  0.98852897  0.28436094  0.02294105  1
  O  O27  1  0.32318569  0.94463675  0.35362962  1
  O  O28  1  0.65625355  0.61115062  0.68749290  1
  O  O29  1  0.17902007  0.55969150  0.14171303  1
  O  O30  1  0.51168318  0.22048813  0.47759601  1
  O  O31  1  0.84848564  0.88489835  0.81117493  1
  O  O32  1  0.67926790  0.55969150  0.14171303  1
  O  O33  1  0.01072080  0.22048813  0.47759601  1
  O  O34  1  0.34033843  0.88489835  0.81117493  1
  O  O35  1  0.01045823  0.72339426  0.97908454  1
  O  O36  1  0.34413235  0.38847341  0.31173530  1
  O  O37  1  0.67810400  0.05150267  0.64379099  1
