# generated using pymatgen
data_Sr4LaCrFe4O15
_symmetry_space_group_name_H-M   'P 1'
_cell_length_a   5.52974543
_cell_length_b   6.77902516
_cell_length_c   8.72318704
_cell_angle_alpha   104.76480539
_cell_angle_beta   108.47898377
_cell_angle_gamma   90.00000000
_symmetry_Int_Tables_number   1
_chemical_formula_structural   Sr4LaCrFe4O15
_chemical_formula_sum   'Sr4 La1 Cr1 Fe4 O15'
_cell_volume   298.73346860
_cell_formula_units_Z   1
loop_
 _symmetry_equiv_pos_site_id
 _symmetry_equiv_pos_as_xyz
  1  'x, y, z'
loop_
 _atom_site_type_symbol
 _atom_site_label
 _atom_site_symmetry_multiplicity
 _atom_site_fract_x
 _atom_site_fract_y
 _atom_site_fract_z
 _atom_site_occupancy
  Sr  Sr0  1  0.40036083  0.10116158  0.80072166  1
  Sr  Sr1  1  0.00004009  0.50066185  0.00008018  1
  Sr  Sr2  1  0.59984825  0.89909964  0.19969650  1
  Sr  Sr3  1  0.80012921  0.69907774  0.60025841  1
  La  La4  1  0.20095879  0.29941229  0.40191757  1
  Cr  Cr5  1  0.80107336  0.19920389  0.60214673  1
  Fe  Fe6  1  0.40054283  0.60048132  0.80108567  1
  Fe  Fe7  1  0.99957196  -0.00097358  0.99914393  1
  Fe  Fe8  1  0.59961944  0.39959398  0.19923888  1
  Fe  Fe9  1  0.20054582  0.80082163  0.40109164  1
  O  O10  1  0.70195519  0.29849449  0.40391039  1
  O  O11  1  0.49973490  0.49868722  -0.00053020  1
  O  O12  1  0.10194668  0.90548861  0.20389336  1
  O  O13  1  0.29740743  0.69300372  0.59481486  1
  O  O14  1  0.89829719  0.10487903  0.79659437  1
  O  O15  1  0.90416392  0.59233837  0.30131815  1
  O  O16  1  0.70032070  0.80146428  0.90019918  1
  O  O17  1  0.29864024  0.20194725  0.10649465  1
  O  O18  1  0.49740658  0.00684649  0.49776593  1
  O  O19  1  0.09921113  0.39785691  0.69219011  1
  O  O20  1  0.39715422  0.59233837  0.30131815  1
  O  O21  1  0.19987847  0.80146428  0.90019918  1
  O  O22  1  0.80785441  0.20194725  0.10649465  1
  O  O23  1  0.00035935  0.00684649  0.49776593  1
  O  O24  1  0.59297898  0.39785691  0.69219011  1
