# generated using pymatgen
data_Sr3La3Mn3RuO14
_symmetry_space_group_name_H-M   'P 1'
_cell_length_a   5.60450286
_cell_length_b   5.59699315
_cell_length_c   10.65828503
_cell_angle_alpha   90.00000000
_cell_angle_beta   74.75674314
_cell_angle_gamma   90.00000000
_symmetry_Int_Tables_number   1
_chemical_formula_structural   Sr3La3Mn3RuO14
_chemical_formula_sum   'Sr3 La3 Mn3 Ru1 O14'
_cell_volume   322.57055484
_cell_formula_units_Z   1
loop_
 _symmetry_equiv_pos_site_id
 _symmetry_equiv_pos_as_xyz
  1  'x, y, z'
loop_
 _atom_site_type_symbol
 _atom_site_label
 _atom_site_symmetry_multiplicity
 _atom_site_fract_x
 _atom_site_fract_y
 _atom_site_fract_z
 _atom_site_occupancy
  Sr  Sr0  1  0.99904794  0.50000000  0.00190411  1
  Sr  Sr1  1  0.81751304  0.50000000  0.36497392  1
  Sr  Sr2  1  0.31613828  0.00000000  0.36772344  1
  La  La3  1  0.49768667  0.00000000  0.00462666  1
  La  La4  1  0.68300510  0.00000000  0.63398979  1
  La  La5  1  0.18063650  0.50000000  0.63872701  1
  Mn  Mn6  1  0.59764671  0.50000000  0.80470657  1
  Mn  Mn7  1  0.09678091  -0.00000000  0.80643817  1
  Mn  Mn8  1  0.89867219  -0.00000000  0.20265561  1
  Ru  Ru9  1  0.39893504  0.50000000  0.20212991  1
  O  O10  1  0.19810892  0.00000000  0.60378217  1
  O  O11  1  0.70143071  0.50000000  0.59713858  1
  O  O12  1  0.29724402  0.50000000  0.40551197  1
  O  O13  1  0.79460415  -0.00000000  0.41079169  1
  O  O14  1  0.34957477  0.24482963  0.80025185  1
  O  O15  1  0.85017338  0.75517037  0.80025185  1
  O  O16  1  0.85017338  0.24482963  0.80025185  1
  O  O17  1  0.34957477  0.75517037  0.80025185  1
  O  O18  1  0.16526100  0.24848318  0.18834440  1
  O  O19  1  0.64639461  0.75151682  0.18834440  1
  O  O20  1  0.64639461  0.24848318  0.18834440  1
  O  O21  1  0.16526100  0.75151682  0.18834440  1
  O  O22  1  0.49693399  0.50000000  0.00613202  1
  O  O23  1  0.00280831  -0.00000000  0.99438338  1
