# generated using pymatgen
data_SnTe(PbS)4
_symmetry_space_group_name_H-M   'P 1'
_cell_length_a   4.31584778
_cell_length_b   4.31584778
_cell_length_c   17.58300460
_cell_angle_alpha   90.00000000
_cell_angle_beta   97.04955933
_cell_angle_gamma   120.00000000
_symmetry_Int_Tables_number   1
_chemical_formula_structural   SnTe(PbS)4
_chemical_formula_sum   'Sn1 Te1 Pb4 S4'
_cell_volume   280.76996189
_cell_formula_units_Z   1
loop_
 _symmetry_equiv_pos_site_id
 _symmetry_equiv_pos_as_xyz
  1  'x, y, z'
loop_
 _atom_site_type_symbol
 _atom_site_label
 _atom_site_symmetry_multiplicity
 _atom_site_fract_x
 _atom_site_fract_y
 _atom_site_fract_z
 _atom_site_occupancy
  Sn  Sn0  1  0.18980258  0.59490129  0.78470387  1
  Te  Te1  1  0.59622264  0.29811132  0.89433397  1
  Pb  Pb2  1  0.00790791  0.00395396  0.01186187  1
  Pb  Pb3  1  0.80334058  0.40167029  0.20501087  1
  Pb  Pb4  1  0.60020291  0.80010146  0.40030437  1
  Pb  Pb5  1  0.39753675  0.19876837  0.59630512  1
  S  S6  1  0.40432239  0.70216119  0.10648358  1
  S  S7  1  0.20132316  0.10066158  0.30198475  1
  S  S8  1  0.00042459  0.50021230  0.50063689  1
  S  S9  1  0.79891648  0.89945824  0.69837471  1
