# generated using pymatgen
data_Rb4Ga8P10O41
_symmetry_space_group_name_H-M   'P 1'
_cell_length_a   5.15959310
_cell_length_b   8.30189622
_cell_length_c   21.92458269
_cell_angle_alpha   89.99390063
_cell_angle_beta   89.99944143
_cell_angle_gamma   91.75049934
_symmetry_Int_Tables_number   1
_chemical_formula_structural   Rb4Ga8P10O41
_chemical_formula_sum   'Rb4 Ga8 P10 O41'
_cell_volume   938.68821346
_cell_formula_units_Z   1
loop_
 _symmetry_equiv_pos_site_id
 _symmetry_equiv_pos_as_xyz
  1  'x, y, z'
loop_
 _atom_site_type_symbol
 _atom_site_label
 _atom_site_symmetry_multiplicity
 _atom_site_fract_x
 _atom_site_fract_y
 _atom_site_fract_z
 _atom_site_occupancy
  Rb  Rb0  1  0.97911504  0.83724167  0.49969430  1
  Rb  Rb1  1  0.02093855  0.16308274  0.99969636  1
  Rb  Rb2  1  0.00117735  0.42786673  0.77627462  1
  Rb  Rb3  1  0.99282768  0.57464568  0.27534262  1
  Ga  Ga4  1  0.45903102  0.54381184  0.91392042  1
  Ga  Ga5  1  0.54075595  0.45587216  0.41380209  1
  Ga  Ga6  1  0.96770563  0.33842265  0.57676584  1
  Ga  Ga7  1  0.03220403  0.66171288  0.07665090  1
  Ga  Ga8  1  0.04299930  0.97954841  0.82110532  1
  Ga  Ga9  1  0.95729164  0.02053217  0.32115472  1
  Ga  Ga10  1  0.47752381  0.83556170  0.65660192  1
  Ga  Ga11  1  0.52196596  0.16440611  0.15672633  1
  P  P12  1  0.53539183  0.16883170  0.87586587  1
  P  P13  1  0.46485742  0.83089221  0.37575190  1
  P  P14  1  0.00305248  0.04717055  0.67061211  1
  P  P15  1  0.99685816  0.95258908  0.17074909  1
  P  P16  1  0.50442279  0.54484226  0.56314731  1
  P  P17  1  0.49495154  0.45527201  0.06321484  1
  P  P18  1  0.54286012  0.74032137  0.79022172  1
  P  P19  1  0.45730774  0.25989965  0.29028895  1
  P  P20  1  0.97227035  0.74890510  0.93943106  1
  P  P21  1  0.02766851  0.25120767  0.43946306  1
  O  O22  1  0.15466688  0.91290178  0.63645153  1
  O  O23  1  0.84485177  0.08649191  0.13655243  1
  O  O24  1  0.20715138  0.51026046  0.56867921  1
  O  O25  1  0.79235926  0.48998286  0.06882710  1
  O  O26  1  0.06906575  0.21241894  0.64016131  1
  O  O27  1  0.93144791  0.78614524  0.14078384  1
  O  O28  1  0.60780682  0.54443425  0.49795868  1
  O  O29  1  0.39224298  0.45555923  0.99799722  1
  O  O30  1  0.65444733  0.42146600  0.60243339  1
  O  O31  1  0.34467342  0.57829863  0.10255977  1
  O  O32  1  0.62221112  0.34258917  0.89912229  1
  O  O33  1  0.37762481  0.65713264  0.39899566  1
  O  O34  1  0.10881703  0.60173452  0.91132906  1
  O  O35  1  0.89130006  0.39837901  0.41123754  1
  O  O36  1  0.08505222  0.06244890  0.73669177  1
  O  O37  1  0.91577643  0.93631141  0.23681966  1
  O  O38  1  0.36944816  0.86858719  0.81509078  1
  O  O39  1  0.63048358  0.13122281  0.31497206  1
  O  O40  1  0.53691062  0.07671207  0.93728894  1
  O  O41  1  0.46308856  0.92339048  0.43704563  1
  O  O42  1  0.83232772  0.79133138  0.79217373  1
  O  O43  1  0.16761293  0.20896803  0.29211817  1
  O  O44  1  0.26257252  0.17541433  0.84802800  1
  O  O45  1  0.73772704  0.82417879  0.34795379  1
  O  O46  1  0.74452491  0.12311853  0.82984993  1
  O  O47  1  0.25577947  0.87576508  0.32949511  1
  O  O48  1  0.49886520  0.57636616  0.82446845  1
  O  O49  1  0.50105529  0.42387162  0.32439657  1
  O  O50  1  0.55938241  0.71904529  0.58751862  1
  O  O51  1  0.44057852  0.28092807  0.08756870  1
  O  O52  1  0.70908533  0.00890342  0.66028538  1
  O  O53  1  0.29070002  0.99080114  0.16021709  1
  O  O54  1  0.06470262  0.78172814  0.00683554  1
  O  O55  1  0.93500467  0.21862035  0.50681404  1
  O  O56  1  0.46863818  0.69679183  0.72194186  1
  O  O57  1  0.53154785  0.30366648  0.22192872  1
  O  O58  1  0.67821955  0.70838351  0.94123899  1
  O  O59  1  0.32173817  0.29154439  0.44129838  1
  O  O60  1  0.02979231  0.90808885  0.90679829  1
  O  O61  1  0.97012657  0.09197893  0.40678591  1
  O  O62  1  0.49041571  0.32940183  0.72800547  1
