# generated using pymatgen
data_Sn2Pd2Au
_symmetry_space_group_name_H-M   'P 1'
_cell_length_a   4.53730475
_cell_length_b   4.53527392
_cell_length_c   5.69743024
_cell_angle_alpha   90.00000000
_cell_angle_beta   90.00556477
_cell_angle_gamma   60.01481109
_symmetry_Int_Tables_number   1
_chemical_formula_structural   Sn2Pd2Au
_chemical_formula_sum   'Sn2 Pd2 Au1'
_cell_volume   101.54906181
_cell_formula_units_Z   1
loop_
 _symmetry_equiv_pos_site_id
 _symmetry_equiv_pos_as_xyz
  1  'x, y, z'
loop_
 _atom_site_type_symbol
 _atom_site_label
 _atom_site_symmetry_multiplicity
 _atom_site_fract_x
 _atom_site_fract_y
 _atom_site_fract_z
 _atom_site_occupancy
  Sn  Sn0  1  0.33295713  0.33352144  0.73615544  1
  Sn  Sn1  1  0.66668827  0.66665587  0.31254350  1
  Pd  Pd2  1  0.33354667  0.33322666  0.22768365  1
  Pd  Pd3  1  0.00007799  0.99996101  0.49220569  1
  Au  Au4  1  0.00012995  0.99993503  0.98141172  1
