# generated using pymatgen
data_Sm2NiGe3
_symmetry_space_group_name_H-M   'P 1'
_cell_length_a   4.16399320
_cell_length_b   4.22180887
_cell_length_c   7.14678429
_cell_angle_alpha   89.99702640
_cell_angle_beta   90.00000000
_cell_angle_gamma   90.00000000
_symmetry_Int_Tables_number   1
_chemical_formula_structural   Sm2NiGe3
_chemical_formula_sum   'Sm2 Ni1 Ge3'
_cell_volume   125.63749057
_cell_formula_units_Z   1
loop_
 _symmetry_equiv_pos_site_id
 _symmetry_equiv_pos_as_xyz
  1  'x, y, z'
loop_
 _atom_site_type_symbol
 _atom_site_label
 _atom_site_symmetry_multiplicity
 _atom_site_fract_x
 _atom_site_fract_y
 _atom_site_fract_z
 _atom_site_occupancy
  Sm  Sm0  1  0.00000000  0.99991428  0.00341554  1
  Sm  Sm1  1  0.00000000  0.49990490  0.49879506  1
  Ni  Ni2  1  0.50000000  0.00002962  0.32352781  1
  Ge  Ge3  1  0.50000000  0.49999247  0.83872059  1
  Ge  Ge4  1  0.50000000  0.50000986  0.18983283  1
  Ge  Ge5  1  0.50000000  0.99994887  0.64570817  1
