# generated using pymatgen
data_Sm2Fe5Co12C
_symmetry_space_group_name_H-M   'P 1'
_cell_length_a   6.41385263
_cell_length_b   6.35959218
_cell_length_c   6.41385263
_cell_angle_alpha   83.83536136
_cell_angle_beta   83.64432542
_cell_angle_gamma   83.83536136
_symmetry_Int_Tables_number   1
_chemical_formula_structural   Sm2Fe5Co12C
_chemical_formula_sum   'Sm2 Fe5 Co12 C1'
_cell_volume   257.29613792
_cell_formula_units_Z   1
loop_
 _symmetry_equiv_pos_site_id
 _symmetry_equiv_pos_as_xyz
  1  'x, y, z'
loop_
 _atom_site_type_symbol
 _atom_site_label
 _atom_site_symmetry_multiplicity
 _atom_site_fract_x
 _atom_site_fract_y
 _atom_site_fract_z
 _atom_site_occupancy
  Sm  Sm0  1  0.65745727  0.64199093  0.65745727  1
  Sm  Sm1  1  0.34254273  0.35800907  0.34254273  1
  Fe  Fe2  1  0.90418013  0.90273608  0.90418013  1
  Fe  Fe3  1  0.09581987  0.09726392  0.09581987  1
  Fe  Fe4  1  -0.00000000  0.50000000  0.00000000  1
  Fe  Fe5  1  0.50000000  -0.00000000  0.00000000  1
  Fe  Fe6  1  -0.00000000  -0.00000000  0.50000000  1
  Co  Co7  1  0.34647077  0.85563555  0.34647077  1
  Co  Co8  1  0.85437634  0.34790296  0.34137947  1
  Co  Co9  1  0.34137947  0.34790296  0.85437634  1
  Co  Co10  1  0.65352923  0.14436445  0.65352923  1
  Co  Co11  1  0.14562366  0.65209704  0.65862053  1
  Co  Co12  1  0.65862053  0.65209704  0.14562366  1
  Co  Co13  1  0.71764037  -0.00000000  0.28235963  1
  Co  Co14  1  0.99983196  0.28269554  0.71796081  1
  Co  Co15  1  0.28203919  0.71730446  0.00016804  1
  Co  Co16  1  0.00016804  0.71730446  0.28203919  1
  Co  Co17  1  0.71796081  0.28269554  0.99983196  1
  Co  Co18  1  0.28235963  -0.00000000  0.71764037  1
  C  C19  1  0.50000000  -0.00000000  0.50000000  1
