# generated using pymatgen
data_ScMn(BiO3)2
_symmetry_space_group_name_H-M   'P 1'
_cell_length_a   5.70645667
_cell_length_b   5.70645667
_cell_length_c   9.93652296
_cell_angle_alpha   74.36976848
_cell_angle_beta   74.36976848
_cell_angle_gamma   62.04160824
_symmetry_Int_Tables_number   1
_chemical_formula_structural   ScMn(BiO3)2
_chemical_formula_sum   'Sc2 Mn2 Bi4 O12'
_cell_volume   271.31281557
_cell_formula_units_Z   2
loop_
 _symmetry_equiv_pos_site_id
 _symmetry_equiv_pos_as_xyz
  1  'x, y, z'
loop_
 _atom_site_type_symbol
 _atom_site_label
 _atom_site_symmetry_multiplicity
 _atom_site_fract_x
 _atom_site_fract_y
 _atom_site_fract_z
 _atom_site_occupancy
  Sc  Sc0  1  0.76432250  0.23567750  0.75000000  1
  Sc  Sc1  1  0.23567750  0.76432250  0.25000000  1
  Mn  Mn2  1  -0.00000000  0.50000000  0.00000000  1
  Mn  Mn3  1  0.50000000  0.00000000  0.50000000  1
  Bi  Bi4  1  0.93388289  0.33579639  0.37239662  1
  Bi  Bi5  1  0.66420361  0.06611711  0.12760338  1
  Bi  Bi6  1  0.06611711  0.66420361  0.62760338  1
  Bi  Bi7  1  0.33579639  0.93388289  0.87239662  1
  O  O8  1  0.59979833  0.71222949  0.12843778  1
  O  O9  1  0.28777051  0.40020167  0.37156222  1
  O  O10  1  0.40020167  0.28777051  0.87156222  1
  O  O11  1  0.71222949  0.59979833  0.62843778  1
  O  O12  1  0.79483893  0.90372860  0.34073616  1
  O  O13  1  0.09627140  0.20516107  0.15926384  1
  O  O14  1  0.20516107  0.09627140  0.65926384  1
  O  O15  1  0.90372860  0.79483893  0.84073616  1
  O  O16  1  0.91527484  0.26233615  0.91586612  1
  O  O17  1  0.73766385  0.08472516  0.58413388  1
  O  O18  1  0.08472516  0.73766385  0.08413388  1
  O  O19  1  0.26233615  0.91527484  0.41586612  1
