# generated using pymatgen
data_SmY(CoNi)2
_symmetry_space_group_name_H-M   'P 1'
_cell_length_a   5.13703470
_cell_length_b   5.13703470
_cell_length_c   5.13703470
_cell_angle_alpha   91.31702787
_cell_angle_beta   58.53418393
_cell_angle_gamma   120.06582939
_symmetry_Int_Tables_number   1
_chemical_formula_structural   SmY(CoNi)2
_chemical_formula_sum   'Sm1 Y1 Co2 Ni2'
_cell_volume   94.70179149
_cell_formula_units_Z   1
loop_
 _symmetry_equiv_pos_site_id
 _symmetry_equiv_pos_as_xyz
  1  'x, y, z'
loop_
 _atom_site_type_symbol
 _atom_site_label
 _atom_site_symmetry_multiplicity
 _atom_site_fract_x
 _atom_site_fract_y
 _atom_site_fract_z
 _atom_site_occupancy
  Sm  Sm0  1  0.50000000  0.74775688  0.75224312  1
  Y  Y1  1  -0.00000000  0.00228498  0.99771502  1
  Co  Co2  1  0.75061842  0.37487307  0.87450851  1
  Co  Co3  1  0.24938158  0.37487307  0.37574534  1
  Ni  Ni4  1  0.25058471  0.87569071  0.37489401  1
  Ni  Ni5  1  0.74941529  0.37452128  0.37489401  1
