# generated using pymatgen
data_PrGa2Co3
_symmetry_space_group_name_H-M   'P 1'
_cell_length_a   3.73701591
_cell_length_b   5.35963330
_cell_length_c   5.35878985
_cell_angle_alpha   120.00521512
_cell_angle_beta   90.00000000
_cell_angle_gamma   90.00000000
_symmetry_Int_Tables_number   1
_chemical_formula_structural   PrGa2Co3
_chemical_formula_sum   'Pr1 Ga2 Co3'
_cell_volume   92.94682444
_cell_formula_units_Z   1
loop_
 _symmetry_equiv_pos_site_id
 _symmetry_equiv_pos_as_xyz
  1  'x, y, z'
loop_
 _atom_site_type_symbol
 _atom_site_label
 _atom_site_symmetry_multiplicity
 _atom_site_fract_x
 _atom_site_fract_y
 _atom_site_fract_z
 _atom_site_occupancy
  Pr  Pr0  1  -0.00000000  0.99998381  1.00000000  1
  Ga  Ga1  1  0.00000000  0.33335657  0.66675456  1
  Ga  Ga2  1  -0.00000000  0.66660201  0.33324544  1
  Co  Co3  1  0.50000000  0.49999279  -0.00000000  1
  Co  Co4  1  0.50000000  0.49998593  0.50000704  1
  Co  Co5  1  0.50000000  0.99997889  0.49999296  1
