# generated using pymatgen
data_Pr4ZrCo25
_symmetry_space_group_name_H-M   'P 1'
_cell_length_a   3.96917488
_cell_length_b   4.98009360
_cell_length_c   21.74522292
_cell_angle_alpha   96.57536950
_cell_angle_beta   90.00000000
_cell_angle_gamma   90.00000000
_symmetry_Int_Tables_number   1
_chemical_formula_structural   Pr4ZrCo25
_chemical_formula_sum   'Pr4 Zr1 Co25'
_cell_volume   427.00741164
_cell_formula_units_Z   1
loop_
 _symmetry_equiv_pos_site_id
 _symmetry_equiv_pos_as_xyz
  1  'x, y, z'
loop_
 _atom_site_type_symbol
 _atom_site_label
 _atom_site_symmetry_multiplicity
 _atom_site_fract_x
 _atom_site_fract_y
 _atom_site_fract_z
 _atom_site_occupancy
  Pr  Pr0  1  -0.00000000  0.59847422  0.19681841  1
  Pr  Pr1  1  -0.00000000  0.19967093  0.39944542  1
  Pr  Pr2  1  -0.00000000  0.80022551  0.60055458  1
  Pr  Pr3  1  -0.00000000  0.40165581  0.80318159  1
  Zr  Zr4  1  -0.00000000  0.99993581  1.00000000  1
  Co  Co5  1  -0.00000000  0.06374515  0.12706469  1
  Co  Co6  1  -0.00000000  0.66652962  0.33252026  1
  Co  Co7  1  -0.00000000  0.26650543  0.53350493  1
  Co  Co8  1  -0.00000000  0.86630779  0.73354184  1
  Co  Co9  1  0.00000000  0.46954810  0.93932667  1
  Co  Co10  1  0.00000000  0.53022143  0.06067333  1
  Co  Co11  1  -0.00000000  0.13276596  0.26645816  1
  Co  Co12  1  -0.00000000  0.73300050  0.46649507  1
  Co  Co13  1  -0.00000000  0.33400935  0.66747974  1
  Co  Co14  1  -0.00000000  0.93668047  0.87293531  1
  Co  Co15  1  0.50000000  0.09884144  0.19741007  1
  Co  Co16  1  0.50000000  0.69969554  0.39944995  1
  Co  Co17  1  0.50000000  0.30024559  0.60055005  1
  Co  Co18  1  0.50000000  0.90143137  0.80258993  1
  Co  Co19  1  0.50000000  0.50005021  0.00000000  1
  Co  Co20  1  0.50000000  0.28609945  0.09340646  1
  Co  Co21  1  0.50000000  0.89895346  0.29857966  1
  Co  Co22  1  0.50000000  0.49988356  0.50000640  1
  Co  Co23  1  0.50000000  0.10101915  0.70144565  1
  Co  Co24  1  0.50000000  0.71404290  0.90659912  1
  Co  Co25  1  0.50000000  0.80744378  0.09340088  1
  Co  Co26  1  0.50000000  0.39957350  0.29855435  1
  Co  Co27  1  0.50000000  0.99987716  0.49999360  1
  Co  Co28  1  0.50000000  0.60037380  0.70142034  1
  Co  Co29  1  0.50000000  0.19269299  0.90659354  1
