# generated using pymatgen
data_Nb3AlSnMo3
_symmetry_space_group_name_H-M   'P 1'
_cell_length_a   5.15808475
_cell_length_b   5.15808475
_cell_length_c   5.15808475
_cell_angle_alpha   90.01725513
_cell_angle_beta   89.98274487
_cell_angle_gamma   89.98274487
_symmetry_Int_Tables_number   1
_chemical_formula_structural   Nb3AlSnMo3
_chemical_formula_sum   'Nb3 Al1 Sn1 Mo3'
_cell_volume   137.23514982
_cell_formula_units_Z   1
loop_
 _symmetry_equiv_pos_site_id
 _symmetry_equiv_pos_as_xyz
  1  'x, y, z'
loop_
 _atom_site_type_symbol
 _atom_site_label
 _atom_site_symmetry_multiplicity
 _atom_site_fract_x
 _atom_site_fract_y
 _atom_site_fract_z
 _atom_site_occupancy
  Nb  Nb0  1  0.49770423  0.25426985  0.99854125  1
  Nb  Nb1  1  0.74573015  0.99854125  0.50229577  1
  Nb  Nb2  1  0.00145875  0.50229577  0.25426985  1
  Al  Al3  1  0.49881326  0.50118674  0.50118674  1
  Sn  Sn4  1  0.00138965  0.99861035  0.99861035  1
  Mo  Mo5  1  0.50055544  0.74598230  0.99966917  1
  Mo  Mo6  1  0.25401770  0.99966917  0.49944456  1
  Mo  Mo7  1  0.00033083  0.49944456  0.74598230  1
