# generated using pymatgen
data_Nb6PbS8
_symmetry_space_group_name_H-M   'P 1'
_cell_length_a   3.42087696
_cell_length_b   9.68074948
_cell_length_c   9.68228861
_cell_angle_alpha   120.01995432
_cell_angle_beta   90.00392082
_cell_angle_gamma   89.99824898
_symmetry_Int_Tables_number   1
_chemical_formula_structural   Nb6PbS8
_chemical_formula_sum   'Nb6 Pb1 S8'
_cell_volume   277.63085492
_cell_formula_units_Z   1
loop_
 _symmetry_equiv_pos_site_id
 _symmetry_equiv_pos_as_xyz
  1  'x, y, z'
loop_
 _atom_site_type_symbol
 _atom_site_label
 _atom_site_symmetry_multiplicity
 _atom_site_fract_x
 _atom_site_fract_y
 _atom_site_fract_z
 _atom_site_occupancy
  Nb  Nb0  1  0.74871296  0.37493833  0.88772895  1
  Nb  Nb1  1  0.74870772  0.11228364  0.48718458  1
  Nb  Nb2  1  0.74867162  0.51279797  0.62510205  1
  Nb  Nb3  1  0.25128704  0.62506167  0.11227105  1
  Nb  Nb4  1  0.25129228  0.88771636  0.51281542  1
  Nb  Nb5  1  0.25132838  0.48720203  0.37489795  1
  Pb  Pb6  1  0.50000000  -0.00000000  0.00000000  1
  S  S7  1  0.75054271  0.66665148  0.33333992  1
  S  S8  1  0.24945729  0.33334852  0.66666008  1
  S  S9  1  0.75240774  0.05469455  0.71340101  1
  S  S10  1  0.75246464  0.28660762  0.34124494  1
  S  S11  1  0.75231571  0.65878026  0.94536241  1
  S  S12  1  0.24759226  0.94530545  0.28659899  1
  S  S13  1  0.24753536  0.71339238  0.65875506  1
  S  S14  1  0.24768429  0.34121974  0.05463759  1
