# generated using pymatgen
data_Nb5Si6Mo5
_symmetry_space_group_name_H-M   'P 1'
_cell_length_a   5.04634937
_cell_length_b   7.40477658
_cell_length_c   7.39822093
_cell_angle_alpha   96.45567726
_cell_angle_beta   109.94095011
_cell_angle_gamma   70.07745222
_symmetry_Int_Tables_number   1
_chemical_formula_structural   Nb5Si6Mo5
_chemical_formula_sum   'Nb5 Si6 Mo5'
_cell_volume   244.32061416
_cell_formula_units_Z   1
loop_
 _symmetry_equiv_pos_site_id
 _symmetry_equiv_pos_as_xyz
  1  'x, y, z'
loop_
 _atom_site_type_symbol
 _atom_site_label
 _atom_site_symmetry_multiplicity
 _atom_site_fract_x
 _atom_site_fract_y
 _atom_site_fract_z
 _atom_site_occupancy
  Nb  Nb0  1  0.27790899  0.29826166  0.85407964  1
  Nb  Nb1  1  0.77708251  0.14638008  0.70054511  1
  Nb  Nb2  1  0.22429215  0.85203663  0.30062093  1
  Nb  Nb3  1  0.25060567  0.49988854  0.50056875  1
  Nb  Nb4  1  0.75007454  0.49988854  0.50056875  1
  Si  Si5  1  0.25418113  0.99668307  0.00116543  1
  Si  Si6  1  0.75030122  0.99668307  0.00116543  1
  Si  Si7  1  0.33007394  0.50176990  0.16191777  1
  Si  Si8  1  0.66870052  0.50385903  0.84126007  1
  Si  Si9  1  0.83057027  0.83564867  0.49678921  1
  Si  Si10  1  0.16776929  0.16358958  0.49912816  1
  Mo  Mo11  1  0.42406359  0.85453987  0.70266705  1
  Mo  Mo12  1  0.57180937  0.14831002  0.29192876  1
  Mo  Mo13  1  0.92497351  0.29634171  0.14628873  1
  Mo  Mo14  1  0.07394989  0.70601705  0.85391683  1
  Mo  Mo15  1  0.72364341  0.70010257  0.14738939  1
