# generated using pymatgen
data_NaYZrS4
_symmetry_space_group_name_H-M   'P 1'
_cell_length_a   3.86892434
_cell_length_b   7.04159065
_cell_length_c   6.59721699
_cell_angle_alpha   72.26329540
_cell_angle_beta   90.00000249
_cell_angle_gamma   90.00000455
_symmetry_Int_Tables_number   1
_chemical_formula_structural   NaYZrS4
_chemical_formula_sum   'Na1 Y1 Zr1 S4'
_cell_volume   171.18728254
_cell_formula_units_Z   1
loop_
 _symmetry_equiv_pos_site_id
 _symmetry_equiv_pos_as_xyz
  1  'x, y, z'
loop_
 _atom_site_type_symbol
 _atom_site_label
 _atom_site_symmetry_multiplicity
 _atom_site_fract_x
 _atom_site_fract_y
 _atom_site_fract_z
 _atom_site_occupancy
  Na  Na0  1  -0.00000000  0.50000000  0.50000000  1
  Y  Y1  1  0.50000000  -0.00000000  0.50000000  1
  Zr  Zr2  1  -0.00000000  -0.00000000  -0.00000000  1
  S  S3  1  0.50000000  0.22067993  0.77650226  1
  S  S4  1  1.00000000  0.22013516  0.24336940  1
  S  S5  1  0.50000000  0.77932007  0.22349774  1
  S  S6  1  0.00000000  0.77986484  0.75663060  1
