# generated using pymatgen
data_NaVWO6
_symmetry_space_group_name_H-M   'P 1'
_cell_length_a   3.76512076
_cell_length_b   5.17091428
_cell_length_c   7.35602687
_cell_angle_alpha   111.75444996
_cell_angle_beta   90.00000022
_cell_angle_gamma   68.64980622
_symmetry_Int_Tables_number   1
_chemical_formula_structural   NaVWO6
_chemical_formula_sum   'Na1 V1 W1 O6'
_cell_volume   122.37068070
_cell_formula_units_Z   1
loop_
 _symmetry_equiv_pos_site_id
 _symmetry_equiv_pos_as_xyz
  1  'x, y, z'
loop_
 _atom_site_type_symbol
 _atom_site_label
 _atom_site_symmetry_multiplicity
 _atom_site_fract_x
 _atom_site_fract_y
 _atom_site_fract_z
 _atom_site_occupancy
  Na  Na0  1  0.99791162  0.00417676  0.00524653  1
  V  V1  1  0.18218545  0.63562911  0.36568490  1
  W  W2  1  0.82101389  0.35797222  0.62160332  1
  O  O3  1  0.32162850  0.35674301  0.14425367  1
  O  O4  1  0.66937395  0.66125211  0.85859078  1
  O  O5  1  0.69818951  0.60362098  0.43666918  1
  O  O6  1  0.30916029  0.38167943  0.55630819  1
  O  O7  1  0.01968490  0.96063021  0.32161405  1
  O  O8  1  0.98085190  0.03829619  0.69002938  1
