# generated using pymatgen
data_NaLaZr2O6
_symmetry_space_group_name_H-M   'P 1'
_cell_length_a   5.79472056
_cell_length_b   5.81018876
_cell_length_c   5.81018876
_cell_angle_alpha   90.55305785
_cell_angle_beta   119.91197853
_cell_angle_gamma   60.08802147
_symmetry_Int_Tables_number   1
_chemical_formula_structural   NaLaZr2O6
_chemical_formula_sum   'Na1 La1 Zr2 O6'
_cell_volume   139.33930613
_cell_formula_units_Z   1
loop_
 _symmetry_equiv_pos_site_id
 _symmetry_equiv_pos_as_xyz
  1  'x, y, z'
loop_
 _atom_site_type_symbol
 _atom_site_label
 _atom_site_symmetry_multiplicity
 _atom_site_fract_x
 _atom_site_fract_y
 _atom_site_fract_z
 _atom_site_occupancy
  Na  Na0  1  0.49132898  0.75000000  0.75000000  1
  La  La1  1  0.52322209  0.25000000  0.25000000  1
  Zr  Zr2  1  0.00312466  0.50274664  0.50274664  1
  Zr  Zr3  1  0.00312466  0.99725336  0.99725336  1
  O  O4  1  0.97937566  0.20333372  0.68254386  1
  O  O5  1  0.50016552  0.29666628  0.81745614  1
  O  O6  1  0.50016552  0.68254386  0.20333372  1
  O  O7  1  0.97937566  0.81745614  0.29666628  1
  O  O8  1  0.90574600  0.75000000  0.75000000  1
  O  O9  1  0.11437127  0.25000000  0.25000000  1
