# generated using pymatgen
data_Nb4Ni(CS2)2
_symmetry_space_group_name_H-M   'P 1'
_cell_length_a   3.31963798
_cell_length_b   8.65640330
_cell_length_c   5.73554241
_cell_angle_alpha   77.75617995
_cell_angle_beta   90.00000943
_cell_angle_gamma   90.00000113
_symmetry_Int_Tables_number   1
_chemical_formula_structural   Nb4Ni(CS2)2
_chemical_formula_sum   'Nb4 Ni1 C2 S4'
_cell_volume   161.06832860
_cell_formula_units_Z   1
loop_
 _symmetry_equiv_pos_site_id
 _symmetry_equiv_pos_as_xyz
  1  'x, y, z'
loop_
 _atom_site_type_symbol
 _atom_site_label
 _atom_site_symmetry_multiplicity
 _atom_site_fract_x
 _atom_site_fract_y
 _atom_site_fract_z
 _atom_site_occupancy
  Nb  Nb0  1  0.50000000  0.63700295  0.63081378  1
  Nb  Nb1  1  0.00000000  0.63713937  0.11521116  1
  Nb  Nb2  1  0.50000000  0.36299705  0.36918622  1
  Nb  Nb3  1  1.00000000  0.36286063  0.88478884  1
  Ni  Ni4  1  0.00000000  0.00000000  0.00000000  1
  C  C5  1  0.00000000  0.50000000  0.50000000  1
  C  C6  1  0.50000000  0.50000000  0.00000000  1
  S  S7  1  0.50000000  0.16334812  0.77617676  1
  S  S8  1  1.00000000  0.16527875  0.27744258  1
  S  S9  1  0.50000000  0.83665188  0.22382324  1
  S  S10  1  0.00000000  0.83472125  0.72255742  1
