# generated using pymatgen
data_NaZrScO4
_symmetry_space_group_name_H-M   'P 1'
_cell_length_a   3.22065845
_cell_length_b   9.65670315
_cell_length_c   11.37387618
_cell_angle_alpha   90.00000000
_cell_angle_beta   90.00000000
_cell_angle_gamma   90.00000000
_symmetry_Int_Tables_number   1
_chemical_formula_structural   NaZrScO4
_chemical_formula_sum   'Na4 Zr4 Sc4 O16'
_cell_volume   353.73827020
_cell_formula_units_Z   4
loop_
 _symmetry_equiv_pos_site_id
 _symmetry_equiv_pos_as_xyz
  1  'x, y, z'
loop_
 _atom_site_type_symbol
 _atom_site_label
 _atom_site_symmetry_multiplicity
 _atom_site_fract_x
 _atom_site_fract_y
 _atom_site_fract_z
 _atom_site_occupancy
  Na  Na0  1  0.75000000  0.25554174  0.85070668  1
  Na  Na1  1  0.75000000  0.75554174  0.64929332  1
  Na  Na2  1  0.25000000  0.74370428  0.15028826  1
  Na  Na3  1  0.25000000  0.24370428  0.34971174  1
  Zr  Zr4  1  0.25000000  0.56775697  0.38864674  1
  Zr  Zr5  1  0.25000000  0.06775697  0.11135326  1
  Zr  Zr6  1  0.25000000  0.57993305  0.89421090  1
  Zr  Zr7  1  0.25000000  0.07993305  0.60578910  1
  Sc  Sc8  1  0.75000000  0.43129646  0.61175376  1
  Sc  Sc9  1  0.75000000  0.93129646  0.88824624  1
  Sc  Sc10  1  0.75000000  0.42131454  0.10723959  1
  Sc  Sc11  1  0.75000000  0.92131454  0.39276041  1
  O  O12  1  0.75000000  0.20541949  0.15436602  1
  O  O13  1  0.75000000  0.70541949  0.34563398  1
  O  O14  1  0.25000000  0.79242718  0.84699881  1
  O  O15  1  0.25000000  0.29242718  0.65300119  1
  O  O16  1  0.75000000  0.11717430  0.48367210  1
  O  O17  1  0.75000000  0.61717430  0.01632790  1
  O  O18  1  0.25000000  0.88670260  0.51596766  1
  O  O19  1  0.25000000  0.38670260  0.98403234  1
  O  O20  1  0.75000000  0.42638715  0.42494644  1
  O  O21  1  0.75000000  0.92638715  0.07505356  1
  O  O22  1  0.25000000  0.57216366  0.57267243  1
  O  O23  1  0.25000000  0.07216366  0.92732757  1
  O  O24  1  0.75000000  0.02051033  0.71574523  1
  O  O25  1  0.75000000  0.52051033  0.78425477  1
  O  O26  1  0.25000000  0.97966825  0.28231838  1
  O  O27  1  0.25000000  0.47966825  0.21768162  1
