# generated using pymatgen
data_NaNd3PtO7
_symmetry_space_group_name_H-M   'P 1'
_cell_length_a   5.89443821
_cell_length_b   5.74757251
_cell_length_c   12.10876594
_cell_angle_alpha   90.24273932
_cell_angle_beta   75.91296677
_cell_angle_gamma   120.84894095
_symmetry_Int_Tables_number   1
_chemical_formula_structural   NaNd3PtO7
_chemical_formula_sum   'Na2 Nd6 Pt2 O14'
_cell_volume   337.99977860
_cell_formula_units_Z   2
loop_
 _symmetry_equiv_pos_site_id
 _symmetry_equiv_pos_as_xyz
  1  'x, y, z'
loop_
 _atom_site_type_symbol
 _atom_site_label
 _atom_site_symmetry_multiplicity
 _atom_site_fract_x
 _atom_site_fract_y
 _atom_site_fract_z
 _atom_site_occupancy
  Na  Na0  1  0.18137002  0.56104650  0.23981508  1
  Na  Na1  1  0.13986141  0.06104650  0.73981508  1
  Nd  Nd2  1  0.38479047  0.69633573  0.93874601  1
  Nd  Nd3  1  0.37279925  0.19633573  0.43874601  1
  Nd  Nd4  1  0.62083730  0.32452462  0.06959537  1
  Nd  Nd5  1  0.63409194  0.82452462  0.56959537  1
  Nd  Nd6  1  0.80537576  0.36855062  0.75768087  1
  Nd  Nd7  1  0.80549399  0.86855062  0.25768087  1
  Pt  Pt8  1  0.00813275  0.50798426  0.49565951  1
  Pt  Pt9  1  0.00419199  0.00798426  0.99565951  1
  O  O10  1  0.40318341  0.79777477  0.39817744  1
  O  O11  1  0.96532890  0.18323489  0.40604848  1
  O  O12  1  0.83426034  0.63063018  0.40358507  1
  O  O13  1  0.81185751  0.68323489  0.90604848  1
  O  O14  1  0.99641392  0.29777477  0.89817744  1
  O  O15  1  0.39278477  0.13063018  0.90358507  1
  O  O16  1  0.60979670  0.24300265  0.59325438  1
  O  O17  1  0.01930902  0.79183433  0.59824997  1
  O  O18  1  0.18962604  0.40162851  0.59626521  1
  O  O19  1  0.17427533  0.29183433  0.09824997  1
  O  O20  1  0.03995157  0.74300265  0.09325438  1
  O  O21  1  0.61573726  0.90162851  0.09626521  1
  O  O22  1  0.62150390  0.89245295  0.75292260  1
  O  O23  1  0.51802645  0.39245295  0.25292260  1
