# generated using pymatgen
data_Na2Zn3SiAs4
_symmetry_space_group_name_H-M   'P 1'
_cell_length_a   4.08340271
_cell_length_b   8.53734022
_cell_length_c   7.12865989
_cell_angle_alpha   65.24211605
_cell_angle_beta   90.03657420
_cell_angle_gamma   76.19033459
_symmetry_Int_Tables_number   1
_chemical_formula_structural   Na2Zn3SiAs4
_chemical_formula_sum   'Na2 Zn3 Si1 As4'
_cell_volume   217.71889490
_cell_formula_units_Z   1
loop_
 _symmetry_equiv_pos_site_id
 _symmetry_equiv_pos_as_xyz
  1  'x, y, z'
loop_
 _atom_site_type_symbol
 _atom_site_label
 _atom_site_symmetry_multiplicity
 _atom_site_fract_x
 _atom_site_fract_y
 _atom_site_fract_z
 _atom_site_occupancy
  Na  Na0  1  0.49389286  0.01203002  0.49302975  1
  Na  Na1  1  0.99532315  0.00937112  0.99627446  1
  Zn  Zn2  1  0.19601187  0.60832355  0.87349427  1
  Zn  Zn3  1  0.32289632  0.35516941  0.67254741  1
  Zn  Zn4  1  0.81648391  0.36790117  0.13491161  1
  Si  Si5  1  0.68897557  0.62107693  0.34322647  1
  As  As6  1  0.37186319  0.25640735  0.04387654  1
  As  As7  1  0.85063377  0.29917630  0.51311987  1
  As  As8  1  0.63011077  0.74045234  0.96910134  1
  As  As9  1  0.13380859  0.73009181  0.46041827  1
