# generated using pymatgen
data_NaHoIrO4
_symmetry_space_group_name_H-M   'P 1'
_cell_length_a   3.24639044
_cell_length_b   9.59895319
_cell_length_c   9.36304927
_cell_angle_alpha   120.83700501
_cell_angle_beta   90.00000000
_cell_angle_gamma   90.00000000
_symmetry_Int_Tables_number   1
_chemical_formula_structural   NaHoIrO4
_chemical_formula_sum   'Na3 Ho3 Ir3 O12'
_cell_volume   250.52293509
_cell_formula_units_Z   3
loop_
 _symmetry_equiv_pos_site_id
 _symmetry_equiv_pos_as_xyz
  1  'x, y, z'
loop_
 _atom_site_type_symbol
 _atom_site_label
 _atom_site_symmetry_multiplicity
 _atom_site_fract_x
 _atom_site_fract_y
 _atom_site_fract_z
 _atom_site_occupancy
  Na  Na0  1  0.00000000  0.01640621  1.00000000  1
  Na  Na1  1  0.50000000  0.30046250  0.30024301  1
  Na  Na2  1  0.50000000  0.00021948  0.69975699  1
  Ho  Ho3  1  0.50000000  0.31647084  0.65847296  1
  Ho  Ho4  1  0.50000000  0.65799788  0.34152704  1
  Ho  Ho5  1  0.50000000  0.70193605  0.00000000  1
  Ir  Ir6  1  0.00000000  0.33170106  0.00000000  1
  Ir  Ir7  1  0.00000000  0.67267590  0.67476574  1
  Ir  Ir8  1  0.00000000  0.99791016  0.32523426  1
  O  O9  1  0.50000000  0.46303101  1.00000000  1
  O  O10  1  0.50000000  0.54509697  0.54422435  1
  O  O11  1  0.50000000  0.00087262  0.45577565  1
  O  O12  1  0.50000000  0.20075408  1.00000000  1
  O  O13  1  0.50000000  0.80583017  0.82002569  1
  O  O14  1  0.50000000  0.98580448  0.17997431  1
  O  O15  1  -0.00000000  0.46633684  0.25018318  1
  O  O16  1  0.00000000  0.78264741  0.53970968  1
  O  O17  1  -0.00000000  0.74380475  0.19295457  1
  O  O18  1  -0.00000000  0.21615367  0.74981682  1
  O  O19  1  0.00000000  0.24293773  0.46029032  1
  O  O20  1  0.00000000  0.55085018  0.80704543  1
