# generated using pymatgen
data_Na8Zr3Ti3Mn2Si8(O17F)2
_symmetry_space_group_name_H-M   'P 1'
_cell_length_a   5.59540935
_cell_length_b   7.14603302
_cell_length_c   18.24198770
_cell_angle_alpha   89.78122112
_cell_angle_beta   94.53955301
_cell_angle_gamma   89.83512221
_symmetry_Int_Tables_number   1
_chemical_formula_structural   Na8Zr3Ti3Mn2Si8(O17F)2
_chemical_formula_sum   'Na8 Zr3 Ti3 Mn2 Si8 O34 F2'
_cell_volume   727.10831878
_cell_formula_units_Z   1
loop_
 _symmetry_equiv_pos_site_id
 _symmetry_equiv_pos_as_xyz
  1  'x, y, z'
loop_
 _atom_site_type_symbol
 _atom_site_label
 _atom_site_symmetry_multiplicity
 _atom_site_fract_x
 _atom_site_fract_y
 _atom_site_fract_z
 _atom_site_occupancy
  Na  Na0  1  0.36741162  0.61061345  0.57317352  1
  Na  Na1  1  0.12534976  0.61633110  0.93220808  1
  Na  Na2  1  0.63112508  0.38520417  0.43125205  1
  Na  Na3  1  0.86838617  0.38933173  0.07295048  1
  Na  Na4  1  0.25471533  0.84125458  0.75008551  1
  Na  Na5  1  0.75477381  0.15953537  0.24691656  1
  Na  Na6  1  0.74558290  0.60904168  0.74949759  1
  Na  Na7  1  0.24726977  0.38999531  0.24803926  1
  Zr  Zr8  1  0.37845785  0.12419067  0.57790408  1
  Zr  Zr9  1  0.11752688  0.11877009  0.92777950  1
  Zr  Zr10  1  0.62116081  0.87808010  0.42567387  1
  Ti  Ti11  1  0.75870189  0.11103918  0.75188626  1
  Ti  Ti12  1  0.26318189  0.89069424  0.24934339  1
  Ti  Ti13  1  0.87791298  0.87442433  0.07968246  1
  Mn  Mn14  1  0.25498286  0.36024107  0.74896755  1
  Mn  Mn15  1  0.75444614  0.63726889  0.24738840  1
  Si  Si16  1  0.88619120  0.38758311  0.60431283  1
  Si  Si17  1  0.61191776  0.38636026  0.89623835  1
  Si  Si18  1  0.11246780  0.61286519  0.39344356  1
  Si  Si19  1  0.38765401  0.61755433  0.10359085  1
  Si  Si20  1  0.88416337  0.84251169  0.60415309  1
  Si  Si21  1  0.61914315  0.84209907  0.89744816  1
  Si  Si22  1  0.11718360  0.15722327  0.39424303  1
  Si  Si23  1  0.38889240  0.15443990  0.10224764  1
  O  O24  1  0.64842458  0.90843666  0.54970688  1
  O  O25  1  0.85281579  0.90545744  0.95120397  1
  O  O26  1  0.35271528  0.09301564  0.44777212  1
  O  O27  1  0.14615334  0.08744097  0.05223755  1
  O  O28  1  0.86337819  0.91740677  0.68801527  1
  O  O29  1  0.64477905  0.91836894  0.81323096  1
  O  O30  1  0.13901642  0.07957729  0.31045568  1
  O  O31  1  0.36674251  0.08786247  0.18815796  1
  O  O32  1  0.64027669  0.32210255  0.55850703  1
  O  O33  1  0.85835860  0.32449806  0.94267943  1
  O  O34  1  0.35813644  0.67624807  0.43935982  1
  O  O35  1  0.13497198  0.68851875  0.06160949  1
  O  O36  1  0.12071422  0.32714784  0.56220336  1
  O  O37  1  0.37290405  0.32608769  0.93606221  1
  O  O38  1  0.87410842  0.67081442  0.43412364  1
  O  O39  1  0.63046822  0.69052116  0.06674549  1
  O  O40  1  0.44897343  0.13174571  0.68793656  1
  O  O41  1  0.05761007  0.14102818  0.81246803  1
  O  O42  1  0.55740875  0.86050155  0.31030510  1
  O  O43  1  0.95229996  0.87014385  0.17907212  1
  O  O44  1  0.91317823  0.31202058  0.68991155  1
  O  O45  1  0.59076474  0.30959791  0.81071733  1
  O  O46  1  0.08548570  0.69238116  0.30774556  1
  O  O47  1  0.41268314  0.68225175  0.19073653  1
  O  O48  1  0.86626682  0.61565723  0.60925220  1
  O  O49  1  0.62307241  0.61453044  0.88927587  1
  O  O50  1  0.12444704  0.38461018  0.38629306  1
  O  O51  1  0.38218238  0.38615704  0.10295374  1
  O  O52  1  0.13985141  0.90162263  0.57619865  1
  O  O53  1  0.35914002  0.90232303  0.92245337  1
  O  O54  1  0.85987429  0.09628324  0.42093529  1
  O  O55  1  0.64808004  0.08288363  0.07847628  1
  O  O56  1  0.36921380  0.54753372  0.69658845  1
  O  O57  1  0.87015120  0.44939260  0.19661068  1
  F  F58  1  0.10410600  0.56730720  0.81087980  1
  F  F59  1  0.60264778  0.43187087  0.31069288  1
