# generated using pymatgen
data_NaHf8(NCl)8
_symmetry_space_group_name_H-M   'P 1'
_cell_length_a   3.63272847
_cell_length_b   19.81168788
_cell_length_c   6.23039662
_cell_angle_alpha   84.17737590
_cell_angle_beta   90.00000500
_cell_angle_gamma   90.00000188
_symmetry_Int_Tables_number   1
_chemical_formula_structural   NaHf8(NCl)8
_chemical_formula_sum   'Na1 Hf8 N8 Cl8'
_cell_volume   446.09120943
_cell_formula_units_Z   1
loop_
 _symmetry_equiv_pos_site_id
 _symmetry_equiv_pos_as_xyz
  1  'x, y, z'
loop_
 _atom_site_type_symbol
 _atom_site_label
 _atom_site_symmetry_multiplicity
 _atom_site_fract_x
 _atom_site_fract_y
 _atom_site_fract_z
 _atom_site_occupancy
  Na  Na0  1  0.00000000  -0.00000000  0.00000000  1
  Hf  Hf1  1  0.50000000  0.67876481  0.60662510  1
  Hf  Hf2  1  0.00000000  0.67928819  0.10553790  1
  Hf  Hf3  1  0.50000000  0.32123519  0.39337490  1
  Hf  Hf4  1  1.00000000  0.32071181  0.89446210  1
  Hf  Hf5  1  0.00000000  0.80648651  0.40020293  1
  Hf  Hf6  1  0.50000000  0.80777500  0.89748537  1
  Hf  Hf7  1  1.00000000  0.19351349  0.59979707  1
  Hf  Hf8  1  0.50000000  0.19222500  0.10251463  1
  N  N9  1  0.50000000  0.78978080  0.56818168  1
  N  N10  1  1.00000000  0.79038233  0.06999941  1
  N  N11  1  0.50000000  0.21021920  0.43181832  1
  N  N12  1  0.00000000  0.20961767  0.93000059  1
  N  N13  1  1.00000000  0.69998017  0.43436131  1
  N  N14  1  0.50000000  0.70055483  0.93418638  1
  N  N15  1  0.00000000  0.30001983  0.56563869  1
  N  N16  1  0.50000000  0.29944517  0.06581362  1
  Cl  Cl17  1  0.50000000  0.09064905  0.80286524  1
  Cl  Cl18  1  0.00000000  0.09282272  0.30292286  1
  Cl  Cl19  1  0.50000000  0.90935095  0.19713476  1
  Cl  Cl20  1  1.00000000  0.90717728  0.69707714  1
  Cl  Cl21  1  0.50000000  0.41301998  0.69564729  1
  Cl  Cl22  1  0.00000000  0.41306939  0.19547889  1
  Cl  Cl23  1  0.50000000  0.58698002  0.30435271  1
  Cl  Cl24  1  1.00000000  0.58693061  0.80452111  1
