# generated using pymatgen
data_Na3CaAl3Si3SO16
_symmetry_space_group_name_H-M   'P 1'
_cell_length_a   7.81100614
_cell_length_b   7.82432785
_cell_length_c   7.83860498
_cell_angle_alpha   69.16506725
_cell_angle_beta   71.67002161
_cell_angle_gamma   109.12096947
_symmetry_Int_Tables_number   1
_chemical_formula_structural   Na3CaAl3Si3SO16
_chemical_formula_sum   'Na3 Ca1 Al3 Si3 S1 O16'
_cell_volume   369.22449788
_cell_formula_units_Z   1
loop_
 _symmetry_equiv_pos_site_id
 _symmetry_equiv_pos_as_xyz
  1  'x, y, z'
loop_
 _atom_site_type_symbol
 _atom_site_label
 _atom_site_symmetry_multiplicity
 _atom_site_fract_x
 _atom_site_fract_y
 _atom_site_fract_z
 _atom_site_occupancy
  Na  Na0  1  0.62846844  0.63590846  0.36201414  1
  Na  Na1  1  0.37476594  0.00347713  0.99777675  1
  Na  Na2  1  0.99536683  0.37386558  0.99951480  1
  Ca  Ca3  1  0.00207717  0.96921003  0.65158500  1
  Al  Al4  1  0.25311691  0.75094695  0.49724854  1
  Al  Al5  1  0.74833608  0.49315833  0.75791240  1
  Al  Al6  1  0.24726716  0.50273134  0.24587987  1
  Si  Si7  1  0.50133898  0.25357095  0.25508166  1
  Si  Si8  1  0.74819507  0.24357221  0.50498051  1
  Si  Si9  1  0.49674776  0.74583553  0.74787329  1
  S  S10  1  0.00080967  0.00543224  0.99314314  1
  O  O11  1  0.19820173  0.18297647  0.79835842  1
  O  O12  1  0.82249826  0.02029764  0.96824993  1
  O  O13  1  0.98447157  0.80341060  0.00576606  1
  O  O14  1  0.99676948  0.00950093  0.18155619  1
  O  O15  1  0.70826950  0.39168764  0.59650249  1
  O  O16  1  0.41657379  0.40925674  0.28867019  1
  O  O17  1  0.42863903  0.71444883  0.58200330  1
  O  O18  1  0.28741544  0.70816194  0.29135025  1
  O  O19  1  0.58666466  0.28965365  0.02073450  1
  O  O20  1  0.58768514  0.99460911  0.69537537  1
  O  O21  1  0.00231963  0.61799372  0.70696181  1
  O  O22  1  0.30111138  0.59301430  0.98384384  1
  O  O23  1  0.69633287  0.28761161  0.30924768  1
  O  O24  1  0.98576643  0.28070591  0.41959293  1
  O  O25  1  0.69375894  0.70416739  0.71918906  1
  O  O26  1  0.30703215  0.01479475  0.41958787  1
