# generated using pymatgen
data_NaLi3Ga4(SiO3)8
_symmetry_space_group_name_H-M   'P 1'
_cell_length_a   7.30959997
_cell_length_b   7.30959997
_cell_length_c   9.41119314
_cell_angle_alpha   78.25686513
_cell_angle_beta   110.29778214
_cell_angle_gamma   73.06281475
_symmetry_Int_Tables_number   1
_chemical_formula_structural   NaLi3Ga4(SiO3)8
_chemical_formula_sum   'Na1 Li3 Ga4 Si8 O24'
_cell_volume   424.36838092
_cell_formula_units_Z   1
loop_
 _symmetry_equiv_pos_site_id
 _symmetry_equiv_pos_as_xyz
  1  'x, y, z'
loop_
 _atom_site_type_symbol
 _atom_site_label
 _atom_site_symmetry_multiplicity
 _atom_site_fract_x
 _atom_site_fract_y
 _atom_site_fract_z
 _atom_site_occupancy
  Na  Na0  1  0.70669676  0.41830324  0.87500000  1
  Li  Li1  1  0.72870345  0.89629655  0.37500000  1
  Li  Li2  1  0.27163254  0.10338974  0.62535689  1
  Li  Li3  1  0.27125337  0.60372436  0.12464311  1
  Ga  Ga4  1  0.10059421  0.02440579  0.87500000  1
  Ga  Ga5  1  0.10049695  0.52450305  0.37500000  1
  Ga  Ga6  1  0.90102176  0.47441231  0.62422570  1
  Ga  Ga7  1  0.90136199  0.97320394  0.12577430  1
  Si  Si8  1  0.61442617  0.71520444  0.08272205  1
  Si  Si9  1  0.61372029  0.21350080  0.58015339  1
  Si  Si10  1  0.20207351  0.71829588  0.66727795  1
  Si  Si11  1  0.20634581  0.21643310  0.16984661  1
  Si  Si12  1  0.38712921  0.78560851  0.41853246  1
  Si  Si13  1  0.38380804  0.28385061  0.91852497  1
  Si  Si14  1  0.79762442  0.78471694  0.83147503  1
  Si  Si15  1  0.79585903  0.28140325  0.33146754  1
  O  O16  1  0.80299272  0.76228727  0.21008482  1
  O  O17  1  0.80603900  0.25987444  0.70371341  1
  O  O18  1  0.02762791  0.65709210  0.53991518  1
  O  O19  1  0.03641215  0.14767441  0.04628659  1
  O  O20  1  0.19978097  0.73527090  0.29257385  1
  O  O21  1  0.19665957  0.23597544  0.79108811  1
  O  O22  1  0.97293645  0.84442854  0.95891189  1
  O  O23  1  0.97215526  0.34279287  0.45742615  1
  O  O24  1  0.37469244  0.84642914  0.04663376  1
  O  O25  1  0.37544705  0.34827499  0.54664233  1
  O  O26  1  0.10693710  0.92194132  0.70336624  1
  O  O27  1  0.10508268  0.42119528  0.20335767  1
  O  O28  1  0.62621296  0.65133892  0.45411002  1
  O  O29  1  0.62089152  0.14114594  0.95692896  1
  O  O30  1  0.90192509  0.58603745  0.79307104  1
  O  O31  1  0.89455105  0.07789706  0.29588998  1
  O  O32  1  0.64478395  0.73572924  0.91554295  1
  O  O33  1  0.64121593  0.23115320  0.41247538  1
  O  O34  1  0.34872782  0.52075900  0.83445705  1
  O  O35  1  0.35637142  0.02125945  0.33752462  1
  O  O36  1  0.35754202  0.76633258  0.58574786  1
  O  O37  1  0.35581323  0.27014841  0.08531696  1
  O  O38  1  0.64453462  0.97950373  0.66468304  1
  O  O39  1  0.64791957  0.47820584  0.16425214  1
