# generated using pymatgen
data_NaCe(MoO4)2
_symmetry_space_group_name_H-M   'P 1'
_cell_length_a   5.38857770
_cell_length_b   5.38857770
_cell_length_c   6.94910727
_cell_angle_alpha   67.18746027
_cell_angle_beta   67.18746027
_cell_angle_gamma   90.00000000
_symmetry_Int_Tables_number   1
_chemical_formula_structural   NaCe(MoO4)2
_chemical_formula_sum   'Na1 Ce1 Mo2 O8'
_cell_volume   168.74261312
_cell_formula_units_Z   1
loop_
 _symmetry_equiv_pos_site_id
 _symmetry_equiv_pos_as_xyz
  1  'x, y, z'
loop_
 _atom_site_type_symbol
 _atom_site_label
 _atom_site_symmetry_multiplicity
 _atom_site_fract_x
 _atom_site_fract_y
 _atom_site_fract_z
 _atom_site_occupancy
  Na  Na0  1  0.37500000  0.62500000  0.25000000  1
  Ce  Ce1  1  0.62500000  0.37500000  0.75000000  1
  Mo  Mo2  1  0.87500000  0.12500000  0.25000000  1
  Mo  Mo3  1  0.12500000  0.87500000  0.75000000  1
  O  O4  1  0.20347428  0.35229839  0.07275939  1
  O  O5  1  0.72376633  0.07494221  0.07275939  1
  O  O6  1  0.35888814  0.71766650  0.58454423  1
  O  O7  1  0.05656763  0.19778927  0.58454423  1
  O  O8  1  0.80221073  0.64111186  0.91545577  1
  O  O9  1  0.28233350  0.94343237  0.91545577  1
  O  O10  1  0.64770161  0.27623367  0.42724061  1
  O  O11  1  0.92505779  0.79652572  0.42724061  1
