# generated using pymatgen
data_NaIn(MoSe)6
_symmetry_space_group_name_H-M   'P 1'
_cell_length_a   4.52155486
_cell_length_b   9.62007987
_cell_length_c   9.61495210
_cell_angle_alpha   120.00283613
_cell_angle_beta   90.00000000
_cell_angle_gamma   90.00000000
_symmetry_Int_Tables_number   1
_chemical_formula_structural   NaIn(MoSe)6
_chemical_formula_sum   'Na1 In1 Mo6 Se6'
_cell_volume   362.18614005
_cell_formula_units_Z   1
loop_
 _symmetry_equiv_pos_site_id
 _symmetry_equiv_pos_as_xyz
  1  'x, y, z'
loop_
 _atom_site_type_symbol
 _atom_site_label
 _atom_site_symmetry_multiplicity
 _atom_site_fract_x
 _atom_site_fract_y
 _atom_site_fract_z
 _atom_site_occupancy
  Na  Na0  1  0.75000000  0.66665695  0.33330200  1
  In  In1  1  0.25000000  0.33332244  0.66668122  1
  Mo  Mo2  1  0.75000000  0.02357958  0.85288931  1
  Mo  Mo3  1  0.75000000  0.14712597  0.17071760  1
  Mo  Mo4  1  0.75000000  0.82939293  0.97643646  1
  Mo  Mo5  1  0.25000000  0.97783592  0.14808591  1
  Mo  Mo6  1  0.25000000  0.85205188  0.82984599  1
  Mo  Mo7  1  0.25000000  0.17017612  0.02219201  1
  Se  Se8  1  0.75000000  0.70987404  0.66081074  1
  Se  Se9  1  0.75000000  0.33911638  0.04900802  1
  Se  Se10  1  0.75000000  0.95095919  0.29009101  1
  Se  Se11  1  0.25000000  0.29281323  0.33513068  1
  Se  Se12  1  0.25000000  0.66485968  0.95768044  1
  Se  Se13  1  0.25000000  0.04223569  0.70712862  1
