# generated using pymatgen
data_NaPrTiNbO6F
_symmetry_space_group_name_H-M   'P 1'
_cell_length_a   7.37994846
_cell_length_b   7.25398754
_cell_length_c   7.61227794
_cell_angle_alpha   90.00000000
_cell_angle_beta   58.95303014
_cell_angle_gamma   119.43698323
_symmetry_Int_Tables_number   1
_chemical_formula_structural   NaPrTiNbO6F
_chemical_formula_sum   'Na2 Pr2 Ti2 Nb2 O12 F2'
_cell_volume   285.98015780
_cell_formula_units_Z   2
loop_
 _symmetry_equiv_pos_site_id
 _symmetry_equiv_pos_as_xyz
  1  'x, y, z'
loop_
 _atom_site_type_symbol
 _atom_site_label
 _atom_site_symmetry_multiplicity
 _atom_site_fract_x
 _atom_site_fract_y
 _atom_site_fract_z
 _atom_site_occupancy
  Na  Na0  1  0.50000000  0.50000000  -0.00000000  1
  Na  Na1  1  0.50000000  -0.00000000  -0.00000000  1
  Pr  Pr2  1  0.00000000  -0.00000000  0.50000000  1
  Pr  Pr3  1  0.00000000  -0.00000000  -0.00000000  1
  Ti  Ti4  1  0.50000000  -0.00000000  0.50000000  1
  Ti  Ti5  1  0.50000000  0.50000000  0.50000000  1
  Nb  Nb6  1  -0.00000000  0.50000000  -0.00000000  1
  Nb  Nb7  1  -0.00000000  0.50000000  0.50000000  1
  O  O8  1  0.65587777  0.82793889  0.42206111  1
  O  O9  1  0.86861931  0.43430965  0.81569035  1
  O  O10  1  0.24599223  0.82742949  0.81632847  1
  O  O11  1  0.24599223  0.41856274  0.43767930  1
  O  O12  1  0.24599223  0.41856274  0.81632847  1
  O  O13  1  0.24599223  0.82742949  0.43767930  1
  O  O14  1  0.34412223  0.17206111  0.57793889  1
  O  O15  1  0.13138069  0.56569035  0.18430965  1
  O  O16  1  0.75400777  0.17257051  0.18367153  1
  O  O17  1  0.75400777  0.58143726  0.56232070  1
  O  O18  1  0.75400777  0.58143726  0.18367153  1
  O  O19  1  0.75400777  0.17257051  0.56232070  1
  F  F20  1  0.26035671  0.13017835  0.11982165  1
  F  F21  1  0.73964329  0.86982165  0.88017835  1
