# generated using pymatgen
data_Mn4FeC2
_symmetry_space_group_name_H-M   'P 1'
_cell_length_a   4.48907034
_cell_length_b   5.00345210
_cell_length_c   6.21441995
_cell_angle_alpha   96.86863428
_cell_angle_beta   68.82720996
_cell_angle_gamma   90.00000000
_symmetry_Int_Tables_number   1
_chemical_formula_structural   Mn4FeC2
_chemical_formula_sum   'Mn8 Fe2 C4'
_cell_volume   129.08389719
_cell_formula_units_Z   2
loop_
 _symmetry_equiv_pos_site_id
 _symmetry_equiv_pos_as_xyz
  1  'x, y, z'
loop_
 _atom_site_type_symbol
 _atom_site_label
 _atom_site_symmetry_multiplicity
 _atom_site_fract_x
 _atom_site_fract_y
 _atom_site_fract_z
 _atom_site_occupancy
  Mn  Mn0  1  0.80507869  0.18944240  0.56433904  1
  Mn  Mn1  1  0.36941772  0.31055760  0.43566096  1
  Mn  Mn2  1  0.42555819  0.75000000  -0.00000000  1
  Mn  Mn3  1  0.57182167  0.25000000  -0.00000000  1
  Mn  Mn4  1  0.81020001  0.92021760  0.19774965  1
  Mn  Mn5  1  0.00794966  0.57978240  0.80225035  1
  Mn  Mn6  1  0.18239497  0.08501631  0.80555170  1
  Mn  Mn7  1  0.98794668  0.41498369  0.19444830  1
  Fe  Fe8  1  0.20351986  0.81139364  0.43362901  1
  Fe  Fe9  1  0.63714887  0.68860636  0.56637099  1
  C  C10  1  0.57052378  0.58030168  0.22663586  1
  C  C11  1  0.79715964  0.91969832  0.77336414  1
  C  C12  1  0.43015977  0.42158706  0.77096071  1
  C  C13  1  0.20112048  0.07841294  0.22903929  1
