# generated using pymatgen
data_LiCuSbO4
_symmetry_space_group_name_H-M   'P 1'
_cell_length_a   5.81705046
_cell_length_b   6.26308683
_cell_length_c   9.90859191
_cell_angle_alpha   90.00000000
_cell_angle_beta   90.00000000
_cell_angle_gamma   62.39870169
_symmetry_Int_Tables_number   1
_chemical_formula_structural   LiCuSbO4
_chemical_formula_sum   'Li4 Cu4 Sb4 O16'
_cell_volume   319.91275890
_cell_formula_units_Z   4
loop_
 _symmetry_equiv_pos_site_id
 _symmetry_equiv_pos_as_xyz
  1  'x, y, z'
loop_
 _atom_site_type_symbol
 _atom_site_label
 _atom_site_symmetry_multiplicity
 _atom_site_fract_x
 _atom_site_fract_y
 _atom_site_fract_z
 _atom_site_occupancy
  Li  Li0  1  0.36011998  0.27547530  0.19901138  1
  Li  Li1  1  0.63988002  0.72452470  0.69901138  1
  Li  Li2  1  0.01120610  0.99499282  0.76917858  1
  Li  Li3  1  0.98879390  0.00500718  0.26917858  1
  Cu  Cu4  1  0.16132079  0.17926935  0.49909832  1
  Cu  Cu5  1  0.65806292  0.17975531  0.50040360  1
  Cu  Cu6  1  0.83867921  0.82073065  0.99909832  1
  Cu  Cu7  1  0.34193708  0.82024469  0.00040360  1
  Sb  Sb8  1  0.31133974  0.38128626  0.76847287  1
  Sb  Sb9  1  0.68866026  0.61871374  0.26847287  1
  Sb  Sb10  1  0.16759486  0.66378723  0.49579073  1
  Sb  Sb11  1  0.83240514  0.33621277  0.99579073  1
  O  O12  1  0.15789981  0.68867912  0.87779289  1
  O  O13  1  0.84210019  0.31132088  0.37779289  1
  O  O14  1  0.00314855  0.99307142  0.57798054  1
  O  O15  1  0.99685145  0.00692858  0.07798054  1
  O  O16  1  0.13981931  0.21223146  0.86894852  1
  O  O17  1  0.65335015  0.21043084  0.86696834  1
  O  O18  1  0.86018069  0.78776854  0.36894852  1
  O  O19  1  0.34664985  0.78956916  0.36696834  1
  O  O20  1  0.45326032  0.09235530  0.64033105  1
  O  O21  1  0.54673968  0.90764470  0.14033105  1
  O  O22  1  0.32861090  0.34248432  0.40342174  1
  O  O23  1  0.67138910  0.65751568  0.90342174  1
  O  O24  1  0.45358445  0.54634098  0.63629269  1
  O  O25  1  0.00311922  0.54450980  0.63730875  1
  O  O26  1  0.54641555  0.45365902  0.13629269  1
  O  O27  1  0.99688078  0.45549020  0.13730875  1
