# generated using pymatgen
data_Li5(YSb2)2
_symmetry_space_group_name_H-M   'P 1'
_cell_length_a   4.48644562
_cell_length_b   8.47920256
_cell_length_c   7.84823667
_cell_angle_alpha   61.93240496
_cell_angle_beta   89.96257737
_cell_angle_gamma   105.39450591
_symmetry_Int_Tables_number   1
_chemical_formula_structural   Li5(YSb2)2
_chemical_formula_sum   'Li5 Y2 Sb4'
_cell_volume   251.21232593
_cell_formula_units_Z   1
loop_
 _symmetry_equiv_pos_site_id
 _symmetry_equiv_pos_as_xyz
  1  'x, y, z'
loop_
 _atom_site_type_symbol
 _atom_site_label
 _atom_site_symmetry_multiplicity
 _atom_site_fract_x
 _atom_site_fract_y
 _atom_site_fract_z
 _atom_site_occupancy
  Li  Li0  1  0.75909802  0.51833942  0.25821912  1
  Li  Li1  1  0.25697566  0.51438956  0.72298855  1
  Li  Li2  1  0.82593399  0.65343390  0.83855464  1
  Li  Li3  1  0.67298569  0.34498519  0.66225671  1
  Li  Li4  1  0.17599682  0.35072034  0.15767909  1
  Y  Y5  1  0.49691975  0.99376525  0.50388010  1
  Y  Y6  1  0.99868058  0.99773806  0.00143409  1
  Sb  Sb7  1  0.62366125  0.24571736  0.04391218  1
  Sb  Sb8  1  0.12189406  0.24217516  0.54424034  1
  Sb  Sb9  1  0.37247074  0.74668409  0.96905841  1
  Sb  Sb10  1  0.87183345  0.74505166  0.45462677  1
