# generated using pymatgen
data_Lu3MnFe3O10
_symmetry_space_group_name_H-M   'P 1'
_cell_length_a   3.47914563
_cell_length_b   3.47914563
_cell_length_c   20.65231963
_cell_angle_alpha   89.99999766
_cell_angle_beta   94.83182595
_cell_angle_gamma   60.00001504
_symmetry_Int_Tables_number   1
_chemical_formula_structural   Lu3MnFe3O10
_chemical_formula_sum   'Lu3 Mn1 Fe3 O10'
_cell_volume   215.46700884
_cell_formula_units_Z   1
loop_
 _symmetry_equiv_pos_site_id
 _symmetry_equiv_pos_as_xyz
  1  'x, y, z'
loop_
 _atom_site_type_symbol
 _atom_site_label
 _atom_site_symmetry_multiplicity
 _atom_site_fract_x
 _atom_site_fract_y
 _atom_site_fract_z
 _atom_site_occupancy
  Lu  Lu0  1  -0.00010367  0.00005184  -0.00015551  1
  Lu  Lu1  1  0.80595162  0.09702419  0.70892742  1
  Lu  Lu2  1  0.19087420  0.90456290  0.28631130  1
  Mn  Mn3  1  0.62446333  0.18776833  0.43669500  1
  Fe  Fe4  1  0.37456892  0.81271554  0.56185338  1
  Fe  Fe5  1  0.23668163  0.38165919  0.85502244  1
  Fe  Fe6  1  0.76179108  0.61910446  0.14268662  1
  O  O7  1  0.55718982  0.22140509  0.33578474  1
  O  O8  1  0.43903158  0.78048421  0.65854737  1
  O  O9  1  0.90326544  0.04836728  0.85489816  1
  O  O10  1  0.09431179  0.95284411  0.14146768  1
  O  O11  1  0.30063338  0.34968331  0.95095007  1
  O  O12  1  0.69797061  0.65101469  0.04695592  1
  O  O13  1  0.17171431  0.41414284  0.75757147  1
  O  O14  1  0.82532420  0.58733790  0.23798630  1
  O  O15  1  0.70691271  0.14654364  0.56036907  1
  O  O16  1  0.30941905  0.84529048  0.46412857  1
