# generated using pymatgen
data_Na4Al3Si7(HO3)8
_symmetry_space_group_name_H-M   'P 1'
_cell_length_a   6.66189262
_cell_length_b   9.95020727
_cell_length_c   10.02415865
_cell_angle_alpha   96.79987616
_cell_angle_beta   70.61109392
_cell_angle_gamma   109.50634662
_symmetry_Int_Tables_number   1
_chemical_formula_structural   Na4Al3Si7(HO3)8
_chemical_formula_sum   'Na4 Al3 Si7 H8 O24'
_cell_volume   590.79303912
_cell_formula_units_Z   1
loop_
 _symmetry_equiv_pos_site_id
 _symmetry_equiv_pos_as_xyz
  1  'x, y, z'
loop_
 _atom_site_type_symbol
 _atom_site_label
 _atom_site_symmetry_multiplicity
 _atom_site_fract_x
 _atom_site_fract_y
 _atom_site_fract_z
 _atom_site_occupancy
  Na  Na0  1  0.11498428  0.93394723  0.44220005  1
  Na  Na1  1  0.62537771  0.06059105  0.56505258  1
  Na  Na2  1  0.43697778  0.56321487  0.93649404  1
  Na  Na3  1  0.81333225  0.43999293  0.06158319  1
  Al  Al4  1  0.00274748  0.57976803  0.31763553  1
  Al  Al5  1  0.73672338  0.41738338  0.68324711  1
  Al  Al6  1  0.67138228  0.91876216  0.81551894  1
  Si  Si7  1  0.24283408  0.81419026  0.08119597  1
  Si  Si8  1  0.50849489  0.18687887  0.91839372  1
  Si  Si9  1  0.67870540  0.68666938  0.58192284  1
  Si  Si10  1  0.57631418  0.31363639  0.41490378  1
  Si  Si11  1  0.25193227  0.49830431  0.49997036  1
  Si  Si12  1  0.00069051  0.00099136  0.00037858  1
  Si  Si13  1  0.56772627  0.08113717  0.17978499  1
  H  H14  1  0.50629713  0.60482385  0.20448728  1
  H  H15  1  0.10542346  0.39503873  0.79569592  1
  H  H16  1  0.15195245  0.89439815  0.70342753  1
  H  H17  1  0.96254371  0.10704577  0.29723311  1
  H  H18  1  0.74376473  0.70081551  0.11105926  1
  H  H19  1  0.15392837  0.29931150  0.88947821  1
  H  H20  1  0.29501591  0.79861921  0.60837937  1
  H  H21  1  0.10421660  0.20268759  0.39245087  1
  O  O22  1  0.12113287  0.65635923  0.14824009  1
  O  O23  1  0.61185080  0.34862643  0.85874659  1
  O  O24  1  0.71685325  0.84977246  0.64322165  1
  O  O25  1  0.52002567  0.15069529  0.34007933  1
  O  O26  1  0.21545298  0.54734389  0.36293367  1
  O  O27  1  0.02799211  0.44866889  0.63623185  1
  O  O28  1  0.91573338  0.95109543  0.86379824  1
  O  O29  1  0.81125723  0.05056530  0.13512695  1
  O  O30  1  0.35644680  0.93186907  0.19166154  1
  O  O31  1  0.61201519  0.07725086  0.80651404  1
  O  O32  1  0.66825958  0.57634751  0.69469735  1
  O  O33  1  0.78850763  0.42102534  0.30176213  1
  O  O34  1  0.04700920  0.86856359  0.05709934  1
  O  O35  1  0.23100237  0.13958843  0.96065029  1
  O  O36  1  0.43609348  0.63576163  0.54846544  1
  O  O37  1  0.34697555  0.35904425  0.44902104  1
  O  O38  1  0.62362939  0.61060318  0.11146921  1
  O  O39  1  0.12295091  0.38909633  0.88904163  1
  O  O40  1  0.26490213  0.88945714  0.61088086  1
  O  O41  1  0.98812085  0.11084845  0.38917125  1
  O  O42  1  0.88559956  0.69811681  0.43561075  1
  O  O43  1  0.62160734  0.29667218  0.56123427  1
  O  O44  1  0.43711477  0.80283257  0.93556519  1
  O  O45  1  0.57050180  0.19158805  0.06828412  1
