# generated using pymatgen
data_Mg2NiH4
_symmetry_space_group_name_H-M   'P 1'
_cell_length_a   4.51510967
_cell_length_b   4.51510967
_cell_length_c   4.51510967
_cell_angle_alpha   88.99578784
_cell_angle_beta   61.00570246
_cell_angle_gamma   119.85135285
_symmetry_Int_Tables_number   1
_chemical_formula_structural   Mg2NiH4
_chemical_formula_sum   'Mg2 Ni1 H4'
_cell_volume   65.63875542
_cell_formula_units_Z   1
loop_
 _symmetry_equiv_pos_site_id
 _symmetry_equiv_pos_as_xyz
  1  'x, y, z'
loop_
 _atom_site_type_symbol
 _atom_site_label
 _atom_site_symmetry_multiplicity
 _atom_site_fract_x
 _atom_site_fract_y
 _atom_site_fract_z
 _atom_site_occupancy
  Mg  Mg0  1  0.49070727  0.25034404  0.25894869  1
  Mg  Mg1  1  0.49070727  0.74965596  0.75963677  1
  Ni  Ni2  1  0.96154798  0.00000000  0.03845202  1
  H  H3  1  0.05140066  0.23204714  0.71655220  1
  H  H4  1  0.48167293  0.73855485  0.25688192  1
  H  H5  1  0.00456323  0.26144515  0.25688192  1
  H  H6  1  0.05140066  0.76795286  0.18064648  1
