# generated using pymatgen
data_Mn3(Co2Ge3)2
_symmetry_space_group_name_H-M   'P 1'
_cell_length_a   5.05521287
_cell_length_b   5.09240253
_cell_length_c   7.85442085
_cell_angle_alpha   90.00262073
_cell_angle_beta   90.00153912
_cell_angle_gamma   120.22010765
_symmetry_Int_Tables_number   1
_chemical_formula_structural   Mn3(Co2Ge3)2
_chemical_formula_sum   'Mn3 Co4 Ge6'
_cell_volume   174.71872339
_cell_formula_units_Z   1
loop_
 _symmetry_equiv_pos_site_id
 _symmetry_equiv_pos_as_xyz
  1  'x, y, z'
loop_
 _atom_site_type_symbol
 _atom_site_label
 _atom_site_symmetry_multiplicity
 _atom_site_fract_x
 _atom_site_fract_y
 _atom_site_fract_z
 _atom_site_occupancy
  Mn  Mn0  1  0.99996541  0.99995475  0.00131218  1
  Mn  Mn1  1  0.50002821  -0.00000051  0.24884327  1
  Mn  Mn2  1  0.49993986  0.49996167  0.24891029  1
  Co  Co3  1  0.99998274  0.50000173  0.24883643  1
  Co  Co4  1  0.50001197  0.00002277  0.74991315  1
  Co  Co5  1  0.50001027  0.50004909  0.74993153  1
  Co  Co6  1  0.99998753  0.50004043  0.74954327  1
  Ge  Ge7  1  0.33084049  0.66543366  0.99261088  1
  Ge  Ge8  1  0.66912852  0.33457475  0.99260457  1
  Ge  Ge9  1  0.99997272  -0.00000137  0.33314527  1
  Ge  Ge10  1  0.00001149  -0.00000039  0.66969299  1
  Ge  Ge11  1  0.33087619  0.66539157  0.50733004  1
  Ge  Ge12  1  0.66904459  0.33457187  0.50732613  1
