# generated using pymatgen
data_Li2Ti4Co(PO5)4
_symmetry_space_group_name_H-M   'P 1'
_cell_length_a   6.44419296
_cell_length_b   7.33110904
_cell_length_c   7.48555672
_cell_angle_alpha   89.74916594
_cell_angle_beta   90.43464276
_cell_angle_gamma   90.51655530
_symmetry_Int_Tables_number   1
_chemical_formula_structural   Li2Ti4Co(PO5)4
_chemical_formula_sum   'Li2 Ti4 Co1 P4 O20'
_cell_volume   353.61293356
_cell_formula_units_Z   1
loop_
 _symmetry_equiv_pos_site_id
 _symmetry_equiv_pos_as_xyz
  1  'x, y, z'
loop_
 _atom_site_type_symbol
 _atom_site_label
 _atom_site_symmetry_multiplicity
 _atom_site_fract_x
 _atom_site_fract_y
 _atom_site_fract_z
 _atom_site_occupancy
  Li  Li0  1  -0.00000000  0.50000000  0.50000000  1
  Li  Li1  1  -0.00000000  -0.00000000  -0.00000000  1
  Ti  Ti2  1  0.73858864  0.27255711  0.83924125  1
  Ti  Ti3  1  0.24500880  0.78405855  0.67021586  1
  Ti  Ti4  1  0.26141136  0.72744289  0.16075875  1
  Ti  Ti5  1  0.75499120  0.21594145  0.32978414  1
  Co  Co6  1  0.50000000  0.50000000  0.50000000  1
  P  P7  1  0.24774359  0.37601118  0.87378188  1
  P  P8  1  0.75271107  0.87401935  0.62390064  1
  P  P9  1  0.75225641  0.62398882  0.12621812  1
  P  P10  1  0.24728893  0.12598065  0.37609936  1
  O  O11  1  0.44288754  0.25299665  0.36946101  1
  O  O12  1  0.55752585  0.74275009  0.13080835  1
  O  O13  1  0.55711246  0.74700335  0.63053899  1
  O  O14  1  0.44247415  0.25724991  0.86919165  1
  O  O15  1  0.25213409  0.01584351  0.55264817  1
  O  O16  1  0.75218355  0.50783446  0.95576893  1
  O  O17  1  0.74786591  0.98415649  0.44735183  1
  O  O18  1  0.24781645  0.49216554  0.04423107  1
  O  O19  1  0.73300286  0.35523578  0.61351229  1
  O  O20  1  0.23316748  0.83955032  0.89149574  1
  O  O21  1  0.26699714  0.64476422  0.38648771  1
  O  O22  1  0.76683252  0.16044968  0.10850426  1
  O  O23  1  0.94284261  0.74677167  0.62239733  1
  O  O24  1  0.05448492  0.25264978  0.86478023  1
  O  O25  1  0.05715739  0.25322833  0.37760267  1
  O  O26  1  0.94551508  0.74735022  0.13521977  1
  O  O27  1  0.74882969  0.49600406  0.29657524  1
  O  O28  1  0.23922153  0.99846542  0.21333003  1
  O  O29  1  0.25117031  0.50399594  0.70342476  1
  O  O30  1  0.76077847  0.00153458  0.78666997  1
