# generated using pymatgen
data_LaY
_symmetry_space_group_name_H-M   'P 1'
_cell_length_a   3.67527694
_cell_length_b   3.67527760
_cell_length_c   18.17400415
_cell_angle_alpha   90.00000000
_cell_angle_beta   95.80329777
_cell_angle_gamma   120.00000590
_symmetry_Int_Tables_number   1
_chemical_formula_structural   LaY
_chemical_formula_sum   'La3 Y3'
_cell_volume   211.14507097
_cell_formula_units_Z   3
loop_
 _symmetry_equiv_pos_site_id
 _symmetry_equiv_pos_as_xyz
  1  'x, y, z'
loop_
 _atom_site_type_symbol
 _atom_site_label
 _atom_site_symmetry_multiplicity
 _atom_site_fract_x
 _atom_site_fract_y
 _atom_site_fract_z
 _atom_site_occupancy
  La  La0  1  0.77573604  0.38786802  0.16360406  1
  La  La1  1  0.77776503  0.88888251  0.66664754  1
  La  La2  1  0.22424866  0.11212433  0.33637300  1
  Y  Y3  1  0.22458163  0.61229081  0.83687244  1
  Y  Y4  1  0.99696405  0.99848203  0.99544608  1
  Y  Y5  1  0.00070459  0.50035229  0.50105688  1
