# generated using pymatgen
data_LaYb(Mo3Se4)4
_symmetry_space_group_name_H-M   'P 1'
_cell_length_a   6.79888619
_cell_length_b   6.82766162
_cell_length_c   13.72323412
_cell_angle_alpha   88.95817486
_cell_angle_beta   89.15794265
_cell_angle_gamma   88.79122458
_symmetry_Int_Tables_number   1
_chemical_formula_structural   LaYb(Mo3Se4)4
_chemical_formula_sum   'La1 Yb1 Mo12 Se16'
_cell_volume   636.72698393
_cell_formula_units_Z   1
loop_
 _symmetry_equiv_pos_site_id
 _symmetry_equiv_pos_as_xyz
  1  'x, y, z'
loop_
 _atom_site_type_symbol
 _atom_site_label
 _atom_site_symmetry_multiplicity
 _atom_site_fract_x
 _atom_site_fract_y
 _atom_site_fract_z
 _atom_site_occupancy
  La  La0  1  -0.00000000  -0.00000000  0.00000000  1
  Yb  Yb1  1  -0.00000000  -0.00000000  0.50000000  1
  Mo  Mo2  1  0.57657643  0.76438860  0.22074880  1
  Mo  Mo3  1  0.57611594  0.76287554  0.71932528  1
  Mo  Mo4  1  0.76133165  0.44103942  0.28813758  1
  Mo  Mo5  1  0.75970987  0.43846719  0.78663849  1
  Mo  Mo6  1  0.44035867  0.57663712  0.38311234  1
  Mo  Mo7  1  0.43878764  0.57645042  0.88209297  1
  Mo  Mo8  1  0.42388406  0.23712446  0.28067472  1
  Mo  Mo9  1  0.42342357  0.23561140  0.77925120  1
  Mo  Mo10  1  0.24029013  0.56153281  0.21336151  1
  Mo  Mo11  1  0.23866835  0.55896058  0.71186242  1
  Mo  Mo12  1  0.56121236  0.42354958  0.11790703  1
  Mo  Mo13  1  0.55964133  0.42336288  0.61688766  1
  Se  Se14  1  0.75857710  0.76142846  0.37996203  1
  Se  Se15  1  0.75625697  0.75939198  0.87854054  1
  Se  Se16  1  0.24374303  0.24060802  0.12145946  1
  Se  Se17  1  0.24142290  0.23857154  0.62003797  1
  Se  Se18  1  0.62605086  0.24901702  0.43857841  1
  Se  Se19  1  0.62367831  0.24864501  0.93850958  1
  Se  Se20  1  0.24913866  0.87762435  0.31409826  1
  Se  Se21  1  0.24696933  0.87696932  0.81223132  1
  Se  Se22  1  0.87626561  0.62441872  0.12303696  1
  Se  Se23  1  0.87560278  0.62502073  0.62326946  1
  Se  Se24  1  0.37632169  0.75135499  0.06149042  1
  Se  Se25  1  0.37394914  0.75098298  0.56142159  1
  Se  Se26  1  0.75303067  0.12303068  0.18776868  1
  Se  Se27  1  0.75086134  0.12237565  0.68590174  1
  Se  Se28  1  0.12439722  0.37497927  0.37673054  1
  Se  Se29  1  0.12373439  0.37558128  0.87696304  1
