# generated using pymatgen
data_La4Mn3Sb8
_symmetry_space_group_name_H-M   'P 1'
_cell_length_a   6.26815741
_cell_length_b   6.26743779
_cell_length_c   11.57788724
_cell_angle_alpha   74.28620552
_cell_angle_beta   74.28450550
_cell_angle_gamma   90.01427518
_symmetry_Int_Tables_number   1
_chemical_formula_structural   La4Mn3Sb8
_chemical_formula_sum   'La4 Mn3 Sb8'
_cell_volume   420.14269161
_cell_formula_units_Z   1
loop_
 _symmetry_equiv_pos_site_id
 _symmetry_equiv_pos_as_xyz
  1  'x, y, z'
loop_
 _atom_site_type_symbol
 _atom_site_label
 _atom_site_symmetry_multiplicity
 _atom_site_fract_x
 _atom_site_fract_y
 _atom_site_fract_z
 _atom_site_occupancy
  La  La0  1  0.13061964  0.37938783  0.74002690  1
  La  La1  1  0.62938826  0.88062123  0.74002727  1
  La  La2  1  0.36942294  0.11942058  0.25999522  1
  La  La3  1  0.87060436  0.62060846  0.25999582  1
  Mn  Mn4  1  0.24998330  -0.00001912  -0.00003152  1
  Mn  Mn5  1  0.25000933  0.50004530  -0.00003006  1
  Mn  Mn6  1  0.75004459  0.00001078  -0.00003007  1
  Sb  Sb7  1  0.00001788  0.75001802  0.50009178  1
  Sb  Sb8  1  0.50011035  0.25011003  0.49981933  1
  Sb  Sb9  1  0.49991244  0.74992750  0.50001145  1
  Sb  Sb10  1  -0.00007257  0.24991166  0.50001188  1
  Sb  Sb11  1  0.42782986  0.67412111  0.14797486  1
  Sb  Sb12  1  0.92416369  0.17787012  0.14797218  1
  Sb  Sb13  1  0.07210840  0.82207082  0.85205767  1
  Sb  Sb14  1  0.57585751  0.32589567  0.85210729  1
