# generated using pymatgen
data_Li2MgTi3O8
_symmetry_space_group_name_H-M   'P 1'
_cell_length_a   5.98009875
_cell_length_b   5.98009875
_cell_length_c   5.97351134
_cell_angle_alpha   59.96351393
_cell_angle_beta   120.03648607
_cell_angle_gamma   120.00000000
_symmetry_Int_Tables_number   1
_chemical_formula_structural   Li2MgTi3O8
_chemical_formula_sum   'Li2 Mg1 Ti3 O8'
_cell_volume   150.97035564
_cell_formula_units_Z   1
loop_
 _symmetry_equiv_pos_site_id
 _symmetry_equiv_pos_as_xyz
  1  'x, y, z'
loop_
 _atom_site_type_symbol
 _atom_site_label
 _atom_site_symmetry_multiplicity
 _atom_site_fract_x
 _atom_site_fract_y
 _atom_site_fract_z
 _atom_site_occupancy
  Li  Li0  1  0.62593137  0.37406863  0.87779411  1
  Li  Li1  1  0.24545005  0.75454995  0.73635015  1
  Mg  Mg2  1  0.00657898  0.99342102  0.01973695  1
  Ti  Ti3  1  0.62358053  0.37641947  0.37767863  1
  Ti  Ti4  1  0.62358053  0.86948243  0.37767863  1
  Ti  Ti5  1  0.13051757  0.37641947  0.37767863  1
  O  O6  1  0.86735003  0.13264997  0.60205009  1
  O  O7  1  0.87244762  0.12755238  0.15788765  1
  O  O8  1  0.87244762  0.58700759  0.15788765  1
  O  O9  1  0.41299241  0.12755238  0.15788765  1
  O  O10  1  0.38423529  0.61576471  0.15270586  1
  O  O11  1  0.37588029  0.62411971  0.58488800  1
  O  O12  1  0.37588029  0.16687259  0.58488800  1
  O  O13  1  0.83312741  0.62411971  0.58488800  1
