# generated using pymatgen
data_LaAlCuNi3
_symmetry_space_group_name_H-M   'P 1'
_cell_length_a   3.84606801
_cell_length_b   5.23063312
_cell_length_c   5.23055713
_cell_angle_alpha   60.01063005
_cell_angle_beta   90.00000000
_cell_angle_gamma   90.00000000
_symmetry_Int_Tables_number   1
_chemical_formula_structural   LaAlCuNi3
_chemical_formula_sum   'La1 Al1 Cu1 Ni3'
_cell_volume   91.13733196
_cell_formula_units_Z   1
loop_
 _symmetry_equiv_pos_site_id
 _symmetry_equiv_pos_as_xyz
  1  'x, y, z'
loop_
 _atom_site_type_symbol
 _atom_site_label
 _atom_site_symmetry_multiplicity
 _atom_site_fract_x
 _atom_site_fract_y
 _atom_site_fract_z
 _atom_site_occupancy
  La  La0  1  -0.00000000  0.99997163  -0.00000993  1
  Al  Al1  1  0.00000000  0.33330446  0.33339264  1
  Cu  Cu2  1  -0.00000000  0.66662120  0.66664176  1
  Ni  Ni3  1  0.50000000  0.50082482  0.50075248  1
  Ni  Ni4  1  0.50000000  0.50079632  0.99850040  1
  Ni  Ni5  1  0.50000000  0.99838157  0.50082266  1
