# generated using pymatgen
data_LaSm3O6
_symmetry_space_group_name_H-M   'P 1'
_cell_length_a   3.67368416
_cell_length_b   7.48963790
_cell_length_c   18.05839498
_cell_angle_alpha   100.24828952
_cell_angle_beta   90.00000003
_cell_angle_gamma   75.80332184
_symmetry_Int_Tables_number   1
_chemical_formula_structural   LaSm3O6
_chemical_formula_sum   'La3 Sm9 O18'
_cell_volume   473.51326831
_cell_formula_units_Z   3
loop_
 _symmetry_equiv_pos_site_id
 _symmetry_equiv_pos_as_xyz
  1  'x, y, z'
loop_
 _atom_site_type_symbol
 _atom_site_label
 _atom_site_symmetry_multiplicity
 _atom_site_fract_x
 _atom_site_fract_y
 _atom_site_fract_z
 _atom_site_occupancy
  La  La0  1  0.31012691  0.37974617  0.06878501  1
  La  La1  1  0.31090507  0.37818985  0.57007800  1
  La  La2  1  0.68901921  0.62196157  0.43016075  1
  Sm  Sm3  1  0.69006652  0.61986696  0.93054479  1
  Sm  Sm4  1  0.03395690  0.93208620  0.09394507  1
  Sm  Sm5  1  0.03312607  0.93374785  0.59531931  1
  Sm  Sm6  1  0.96685699  0.06628601  0.40521612  1
  Sm  Sm7  1  0.96794723  0.06410554  0.90552655  1
  Sm  Sm8  1  0.36685606  0.26628788  0.24494977  1
  Sm  Sm9  1  0.36570934  0.26858131  0.74647119  1
  Sm  Sm10  1  0.63316553  0.73366895  0.25469408  1
  Sm  Sm11  1  0.63377558  0.73244883  0.75584445  1
  O  O12  1  0.52890794  0.94218413  0.17111550  1
  O  O13  1  0.52856065  0.94287871  0.67172777  1
  O  O14  1  0.47141712  0.05716576  0.32843068  1
  O  O15  1  0.47176498  0.05647004  0.82853375  1
  O  O16  1  0.17353423  0.65293154  0.01204212  1
  O  O17  1  0.17356149  0.65287702  0.51547743  1
  O  O18  1  0.82642431  0.34715138  0.48458565  1
  O  O19  1  0.82452649  0.35094701  0.98304302  1
  O  O20  1  0.20112860  0.59774280  0.18937651  1
  O  O21  1  0.20103838  0.59792323  0.69027313  1
  O  O22  1  0.79891047  0.40217907  0.30991735  1
  O  O23  1  0.79657205  0.40685590  0.81238776  1
  O  O24  1  0.49995887  0.00008226  0.49990479  1
  O  O25  1  0.50069536  0.99860927  0.99960178  1
  O  O26  1  0.87406158  0.25187685  0.14355670  1
  O  O27  1  0.87348474  0.25303052  0.64506501  1
  O  O28  1  0.12623129  0.74753742  0.35547744  1
  O  O29  1  0.12771002  0.74457997  0.85794851  1
