# generated using pymatgen
data_K3Nb4Mo4(PO4)12
_symmetry_space_group_name_H-M   'P 1'
_cell_length_a   9.02434567
_cell_length_b   9.33531329
_cell_length_c   12.65660626
_cell_angle_alpha   90.00000000
_cell_angle_beta   90.00000000
_cell_angle_gamma   89.77907139
_symmetry_Int_Tables_number   1
_chemical_formula_structural   K3Nb4Mo4(PO4)12
_chemical_formula_sum   'K3 Nb4 Mo4 P12 O48'
_cell_volume   1066.24905847
_cell_formula_units_Z   1
loop_
 _symmetry_equiv_pos_site_id
 _symmetry_equiv_pos_as_xyz
  1  'x, y, z'
loop_
 _atom_site_type_symbol
 _atom_site_label
 _atom_site_symmetry_multiplicity
 _atom_site_fract_x
 _atom_site_fract_y
 _atom_site_fract_z
 _atom_site_occupancy
  K  K0  1  0.83126910  0.34319029  0.75000000  1
  K  K1  1  0.16339041  0.66517664  0.25000000  1
  K  K2  1  0.83638074  0.16404005  0.25000000  1
  Nb  Nb3  1  0.24559982  0.47662062  0.59954023  1
  Nb  Nb4  1  0.75466344  0.97366430  0.90027019  1
  Nb  Nb5  1  0.24559982  0.47662062  0.90045977  1
  Nb  Nb6  1  0.75466344  0.97366430  0.59972981  1
  Mo  Mo7  1  0.75160160  0.52792342  0.10315659  1
  Mo  Mo8  1  0.24897134  0.02801132  0.39698759  1
  Mo  Mo9  1  0.75160160  0.52792342  0.39684341  1
  Mo  Mo10  1  0.24897134  0.02801132  0.10301241  1
  P  P11  1  0.97112553  0.24930697  0.49932435  1
  P  P12  1  0.02863584  0.74963729  0.00093116  1
  P  P13  1  0.02863584  0.74963729  0.49906884  1
  P  P14  1  0.97112553  0.24930697  0.00067565  1
  P  P15  1  0.40200575  0.13315444  0.63168516  1
  P  P16  1  0.59741144  0.86808532  0.13326595  1
  P  P17  1  0.40338324  0.36753750  0.36644867  1
  P  P18  1  0.59708067  0.63346279  0.86904419  1
  P  P19  1  0.59741144  0.86808532  0.36673405  1
  P  P20  1  0.40200575  0.13315444  0.86831484  1
  P  P21  1  0.59708067  0.63346279  0.63095581  1
  P  P22  1  0.40338324  0.36753750  0.13355133  1
  O  O23  1  0.43103677  0.59873590  0.61984691  1
  O  O24  1  0.56602589  0.39920249  0.12321334  1
  O  O25  1  0.43417261  0.89872391  0.37640603  1
  O  O26  1  0.56980329  0.10011530  0.87889942  1
  O  O27  1  0.56602589  0.39920249  0.37678666  1
  O  O28  1  0.43103677  0.59873590  0.88015309  1
  O  O29  1  0.56980329  0.10011530  0.62110058  1
  O  O30  1  0.43417261  0.89872391  0.12359397  1
  O  O31  1  0.30197432  0.45803738  0.44010446  1
  O  O32  1  0.69973754  0.54001450  0.93402635  1
  O  O33  1  0.30311617  0.04327287  0.56320046  1
  O  O34  1  0.69745340  0.96021088  0.06082875  1
  O  O35  1  0.69973754  0.54001450  0.56597365  1
  O  O36  1  0.30197432  0.45803738  0.05989554  1
  O  O37  1  0.69745340  0.96021088  0.43917125  1
  O  O38  1  0.30311617  0.04327287  0.93679954  1
  O  O39  1  0.37663849  0.29622429  0.62128913  1
  O  O40  1  0.62137056  0.70900142  0.12351726  1
  O  O41  1  0.37966956  0.20860875  0.37531554  1
  O  O42  1  0.62184567  0.79458641  0.87932016  1
  O  O43  1  0.62137056  0.70900142  0.37648274  1
  O  O44  1  0.37663849  0.29622429  0.87871087  1
  O  O45  1  0.62184567  0.79458641  0.62067984  1
  O  O46  1  0.37966956  0.20860875  0.12468446  1
  O  O47  1  0.20956500  0.47835284  0.75000000  1
  O  O48  1  0.81565983  0.51053081  0.25000000  1
  O  O49  1  0.18493786  0.00841547  0.25000000  1
  O  O50  1  0.78844574  0.98265310  0.75000000  1
  O  O51  1  0.35563175  0.08949009  0.75000000  1
  O  O52  1  0.65371474  0.91948453  0.25000000  1
  O  O53  1  0.34686628  0.42087300  0.25000000  1
  O  O54  1  0.64430606  0.58731388  0.75000000  1
  O  O55  1  0.06755500  0.34615387  0.57423137  1
  O  O56  1  0.93762764  0.65477649  0.07289038  1
  O  O57  1  0.06223382  0.15450487  0.42705533  1
  O  O58  1  0.92888705  0.84550308  0.92753696  1
  O  O59  1  0.93762764  0.65477649  0.42710962  1
  O  O60  1  0.06755500  0.34615387  0.92576863  1
  O  O61  1  0.92888705  0.84550308  0.57246304  1
  O  O62  1  0.06223382  0.15450487  0.07294467  1
  O  O63  1  0.12452822  0.64905134  0.57339598  1
  O  O64  1  0.86858288  0.33833704  0.06930030  1
  O  O65  1  0.13152094  0.83817924  0.43150688  1
  O  O66  1  0.87544774  0.15418066  0.92380053  1
  O  O67  1  0.86858288  0.33833704  0.43069970  1
  O  O68  1  0.12452822  0.64905134  0.92660402  1
  O  O69  1  0.87544774  0.15418066  0.57619947  1
  O  O70  1  0.13152094  0.83817924  0.06849312  1
