# generated using pymatgen
data_La10MgTi7O30
_symmetry_space_group_name_H-M   'P 1'
_cell_length_a   5.60381349
_cell_length_b   5.60384262
_cell_length_c   22.20587258
_cell_angle_alpha   89.99987217
_cell_angle_beta   89.99915722
_cell_angle_gamma   59.99923387
_symmetry_Int_Tables_number   1
_chemical_formula_structural   La10MgTi7O30
_chemical_formula_sum   'La10 Mg1 Ti7 O30'
_cell_volume   603.89957594
_cell_formula_units_Z   1
loop_
 _symmetry_equiv_pos_site_id
 _symmetry_equiv_pos_as_xyz
  1  'x, y, z'
loop_
 _atom_site_type_symbol
 _atom_site_label
 _atom_site_symmetry_multiplicity
 _atom_site_fract_x
 _atom_site_fract_y
 _atom_site_fract_z
 _atom_site_occupancy
  La  La0  1  0.00001388  0.00001303  0.75491644  1
  La  La1  1  0.99999264  0.99999238  0.24969130  1
  La  La2  1  0.66667845  0.66665253  0.85824626  1
  La  La3  1  0.66664360  0.66666315  0.35928776  1
  La  La4  1  0.33333703  0.33333290  0.13936166  1
  La  La5  1  0.33333700  0.33331317  0.64538121  1
  La  La6  1  0.33334164  0.33331307  0.95362186  1
  La  La7  1  0.33333209  0.33333754  0.46768523  1
  La  La8  1  0.66666839  0.66668116  0.03037931  1
  La  La9  1  0.66666471  0.66668052  0.54440182  1
  Mg  Mg10  1  0.33336134  0.33330584  0.80133967  1
  Ti  Ti11  1  0.00000684  0.99997200  0.90604426  1
  Ti  Ti12  1  0.99998938  0.00000865  0.41079544  1
  Ti  Ti13  1  0.99999666  -0.00000453  0.08883636  1
  Ti  Ti14  1  0.99999026  0.00000545  0.59211589  1
  Ti  Ti15  1  0.33332360  0.33333853  0.30272812  1
  Ti  Ti16  1  0.66666032  0.66666822  0.19663185  1
  Ti  Ti17  1  0.66667109  0.66667030  0.70199385  1
  O  O18  1  0.09213374  0.67987341  0.85142409  1
  O  O19  1  0.22803345  0.09213570  0.85143329  1
  O  O20  1  0.67989895  0.22800765  0.85143028  1
  O  O21  1  0.66840483  0.10533001  0.34784300  1
  O  O22  1  0.22624823  0.66843125  0.34784169  1
  O  O23  1  0.10532941  0.22626355  0.34784508  1
  O  O24  1  0.89425856  0.33099138  0.15308338  1
  O  O25  1  0.77473135  0.89426130  0.15308195  1
  O  O26  1  0.33098296  0.77474974  0.15308162  1
  O  O27  1  0.33295295  0.89769201  0.64780975  1
  O  O28  1  0.76934600  0.33295100  0.64780815  1
  O  O29  1  0.89769493  0.76935068  0.64780651  1
  O  O30  1  0.23728257  0.10169156  0.05462760  1
  O  O31  1  0.66103558  0.23728357  0.05462823  1
  O  O32  1  0.10167658  0.66104282  0.05463067  1
  O  O33  1  0.09767474  0.24198522  0.55227434  1
  O  O34  1  0.66034070  0.09769267  0.55227237  1
  O  O35  1  0.24195892  0.66035445  0.55227423  1
  O  O36  1  0.75390428  0.90445077  0.94822450  1
  O  O37  1  0.34165556  0.75389146  0.94822976  1
  O  O38  1  0.90444446  0.34165620  0.94822164  1
  O  O39  1  0.89964459  0.76149630  0.44586789  1
  O  O40  1  0.33885137  0.89965652  0.44586962  1
  O  O41  1  0.76147652  0.33888038  0.44586945  1
  O  O42  1  0.99213206  0.43782922  0.74717990  1
  O  O43  1  0.57005631  0.99208277  0.74718113  1
  O  O44  1  0.43788438  0.57002165  0.74717902  1
  O  O45  1  0.43880405  0.99976825  0.25050655  1
  O  O46  1  0.56139648  0.43881721  0.25050809  1
  O  O47  1  0.99975658  0.56141735  0.25050793  1
