# generated using pymatgen
data_Ho2Ge4Pd
_symmetry_space_group_name_H-M   'P 1'
_cell_length_a   4.08732881
_cell_length_b   4.12164359
_cell_length_c   8.66460105
_cell_angle_alpha   76.24068239
_cell_angle_beta   90.00000000
_cell_angle_gamma   90.00000000
_symmetry_Int_Tables_number   1
_chemical_formula_structural   Ho2Ge4Pd
_chemical_formula_sum   'Ho2 Ge4 Pd1'
_cell_volume   141.77951705
_cell_formula_units_Z   1
loop_
 _symmetry_equiv_pos_site_id
 _symmetry_equiv_pos_as_xyz
  1  'x, y, z'
loop_
 _atom_site_type_symbol
 _atom_site_label
 _atom_site_symmetry_multiplicity
 _atom_site_fract_x
 _atom_site_fract_y
 _atom_site_fract_z
 _atom_site_occupancy
  Ho  Ho0  1  0.25000000  0.89692012  0.20615975  1
  Ho  Ho1  1  0.75000000  0.10222603  0.79554795  1
  Ge  Ge2  1  0.25000000  0.53777552  0.92444895  1
  Ge  Ge3  1  0.75000000  0.44514155  0.10971691  1
  Ge  Ge4  1  0.25000000  0.26913628  0.46172744  1
  Ge  Ge5  1  0.75000000  0.76632635  0.46734730  1
  Pd  Pd6  1  0.25000000  0.68247415  0.63505169  1
