# generated using pymatgen
data_GdErCo4
_symmetry_space_group_name_H-M   'P 1'
_cell_length_a   5.06514789
_cell_length_b   5.06277806
_cell_length_c   5.01969247
_cell_angle_alpha   90.22306573
_cell_angle_beta   60.21438114
_cell_angle_gamma   120.69714153
_symmetry_Int_Tables_number   1
_chemical_formula_structural   GdErCo4
_chemical_formula_sum   'Gd1 Er1 Co4'
_cell_volume   90.52687053
_cell_formula_units_Z   1
loop_
 _symmetry_equiv_pos_site_id
 _symmetry_equiv_pos_as_xyz
  1  'x, y, z'
loop_
 _atom_site_type_symbol
 _atom_site_label
 _atom_site_symmetry_multiplicity
 _atom_site_fract_x
 _atom_site_fract_y
 _atom_site_fract_z
 _atom_site_occupancy
  Gd  Gd0  1  0.00086348  0.99960899  0.99953547  1
  Er  Er1  1  0.49920201  0.75036875  0.75046597  1
  Co  Co2  1  0.75021950  0.37516727  0.87462124  1
  Co  Co3  1  0.24976913  0.37513961  0.37506178  1
  Co  Co4  1  0.24974998  0.87464492  0.37517548  1
  Co  Co5  1  0.75019590  0.37507046  0.37514006  1
