# generated using pymatgen
data_Ho(MnAl)6
_symmetry_space_group_name_H-M   'P 1'
_cell_length_a   4.93370826
_cell_length_b   6.63627780
_cell_length_c   6.63627780
_cell_angle_alpha   99.14364499
_cell_angle_beta   111.82189091
_cell_angle_gamma   68.17810909
_symmetry_Int_Tables_number   1
_chemical_formula_structural   Ho(MnAl)6
_chemical_formula_sum   'Ho1 Mn6 Al6'
_cell_volume   187.20378516
_cell_formula_units_Z   1
loop_
 _symmetry_equiv_pos_site_id
 _symmetry_equiv_pos_as_xyz
  1  'x, y, z'
loop_
 _atom_site_type_symbol
 _atom_site_label
 _atom_site_symmetry_multiplicity
 _atom_site_fract_x
 _atom_site_fract_y
 _atom_site_fract_z
 _atom_site_occupancy
  Ho  Ho0  1  0.00000000  0.00000000  0.00000000  1
  Mn  Mn1  1  0.50000000  0.00000000  0.50000000  1
  Mn  Mn2  1  0.00000000  0.00000000  0.50000000  1
  Mn  Mn3  1  0.50000000  0.50000000  0.00000000  1
  Mn  Mn4  1  0.00000000  0.50000000  0.00000000  1
  Mn  Mn5  1  0.50000000  0.76444116  0.76444116  1
  Mn  Mn6  1  0.50000000  0.23555884  0.23555884  1
  Al  Al7  1  0.65367437  0.34632563  0.65367437  1
  Al  Al8  1  0.34632563  0.65367437  0.34632563  1
  Al  Al9  1  0.00000000  0.33864647  0.33864647  1
  Al  Al10  1  -0.00000000  0.66135353  0.66135353  1
  Al  Al11  1  0.69711727  0.80288273  0.19711727  1
  Al  Al12  1  0.30288273  0.19711727  0.80288273  1
