# generated using pymatgen
data_In3Pt4
_symmetry_space_group_name_H-M   'P 1'
_cell_length_a   7.22525956
_cell_length_b   7.19833793
_cell_length_c   8.98464785
_cell_angle_alpha   72.13741612
_cell_angle_beta   71.72677657
_cell_angle_gamma   103.21781708
_symmetry_Int_Tables_number   1
_chemical_formula_structural   In3Pt4
_chemical_formula_sum   'In9 Pt12'
_cell_volume   394.11609949
_cell_formula_units_Z   3
loop_
 _symmetry_equiv_pos_site_id
 _symmetry_equiv_pos_as_xyz
  1  'x, y, z'
loop_
 _atom_site_type_symbol
 _atom_site_label
 _atom_site_symmetry_multiplicity
 _atom_site_fract_x
 _atom_site_fract_y
 _atom_site_fract_z
 _atom_site_occupancy
  In  In0  1  0.93579248  0.16947523  0.32372918  1
  In  In1  1  0.51409905  0.74938915  0.30837328  1
  In  In2  1  0.05296370  0.83062815  0.69052589  1
  In  In3  1  0.48603529  0.24438053  0.69208433  1
  In  In4  1  0.49026560  0.73564153  0.81789278  1
  In  In5  1  0.53645255  0.29421867  0.16900961  1
  In  In6  1  0.94035665  0.17192755  0.87125938  1
  In  In7  1  0.05735065  0.82397923  0.11879907  1
  In  In8  1  0.00249637  0.49938870  0.50071551  1
  Pt  Pt9  1  0.72501120  0.45157202  0.82210373  1
  Pt  Pt10  1  0.28011540  0.54583975  0.17072720  1
  Pt  Pt11  1  0.24584376  0.25265003  0.00040810  1
  Pt  Pt12  1  0.74933084  0.74792136  0.99948554  1
  Pt  Pt13  1  0.00181628  0.49966909  0.99828408  1
  Pt  Pt14  1  0.49869522  0.00023792  0.99621822  1
  Pt  Pt15  1  0.24465057  0.25632523  0.49753923  1
  Pt  Pt16  1  0.74306885  0.73892103  0.50622953  1
  Pt  Pt17  1  0.49654903  0.99702597  0.50589527  1
  Pt  Pt18  1  0.28139840  0.54246552  0.66343801  1
  Pt  Pt19  1  0.19451093  0.94020987  0.34347698  1
  Pt  Pt20  1  0.72929718  0.44893346  0.34290509  1
