# generated using pymatgen
data_KTi3AlO8
_symmetry_space_group_name_H-M   'P 1'
_cell_length_a   2.97209747
_cell_length_b   7.29486928
_cell_length_c   7.31308588
_cell_angle_alpha   92.43103837
_cell_angle_beta   101.66656701
_cell_angle_gamma   78.17210157
_symmetry_Int_Tables_number   1
_chemical_formula_structural   KTi3AlO8
_chemical_formula_sum   'K1 Ti3 Al1 O8'
_cell_volume   151.98284395
_cell_formula_units_Z   1
loop_
 _symmetry_equiv_pos_site_id
 _symmetry_equiv_pos_as_xyz
  1  'x, y, z'
loop_
 _atom_site_type_symbol
 _atom_site_label
 _atom_site_symmetry_multiplicity
 _atom_site_fract_x
 _atom_site_fract_y
 _atom_site_fract_z
 _atom_site_occupancy
  K  K0  1  0.15031636  0.00552014  0.00455398  1
  Ti  Ti1  1  0.32748802  0.51230970  0.16914355  1
  Ti  Ti2  1  0.86280316  0.80465113  0.52369513  1
  Ti  Ti3  1  0.14642640  0.18521022  0.48925736  1
  Al  Al4  1  0.67544616  0.48382894  0.81596151  1
  O  O5  1  0.96980714  0.37373605  0.29068492  1
  O  O6  1  0.05344585  0.61955922  0.70723539  1
  O  O7  1  0.67594264  0.29930330  0.62861941  1
  O  O8  1  0.34230620  0.70862489  0.37299430  1
  O  O9  1  0.71101806  0.64330814  0.04278079  1
  O  O10  1  0.30576075  0.36196310  0.94714137  1
  O  O11  1  0.66913152  0.05262755  0.36207847  1
  O  O12  1  0.36010774  0.94935761  0.64585383  1
