# generated using pymatgen
data_Eu2Si3Au
_symmetry_space_group_name_H-M   'P 1'
_cell_length_a   4.22647285
_cell_length_b   4.22332544
_cell_length_c   8.87403096
_cell_angle_alpha   90.00000000
_cell_angle_beta   90.00000000
_cell_angle_gamma   119.99424276
_symmetry_Int_Tables_number   1
_chemical_formula_structural   Eu2Si3Au
_chemical_formula_sum   'Eu2 Si3 Au1'
_cell_volume   137.18587416
_cell_formula_units_Z   1
loop_
 _symmetry_equiv_pos_site_id
 _symmetry_equiv_pos_as_xyz
  1  'x, y, z'
loop_
 _atom_site_type_symbol
 _atom_site_label
 _atom_site_symmetry_multiplicity
 _atom_site_fract_x
 _atom_site_fract_y
 _atom_site_fract_z
 _atom_site_occupancy
  Eu  Eu0  1  0.00003384  0.00001302  0.00213345  1
  Eu  Eu1  1  0.00003384  0.00001302  0.49786655  1
  Si  Si2  1  0.33346068  0.66686373  0.75000000  1
  Si  Si3  1  0.66641235  0.33326784  0.25000000  1
  Si  Si4  1  0.66647550  0.33311546  0.75000000  1
  Au  Au5  1  0.33338379  0.66672692  0.25000000  1
