# generated using pymatgen
data_Fe3Mo5N8
_symmetry_space_group_name_H-M   'P 1'
_cell_length_a   2.86352774
_cell_length_b   11.28221800
_cell_length_c   4.96892319
_cell_angle_alpha   77.85434969
_cell_angle_beta   89.98100607
_cell_angle_gamma   97.28637925
_symmetry_Int_Tables_number   1
_chemical_formula_structural   Fe3Mo5N8
_chemical_formula_sum   'Fe3 Mo5 N8'
_cell_volume   155.60963813
_cell_formula_units_Z   1
loop_
 _symmetry_equiv_pos_site_id
 _symmetry_equiv_pos_as_xyz
  1  'x, y, z'
loop_
 _atom_site_type_symbol
 _atom_site_label
 _atom_site_symmetry_multiplicity
 _atom_site_fract_x
 _atom_site_fract_y
 _atom_site_fract_z
 _atom_site_occupancy
  Fe  Fe0  1  0.75000000  0.50000000  0.25000000  1
  Fe  Fe1  1  0.99897825  0.99846836  0.99945647  1
  Fe  Fe2  1  0.50102175  0.00153164  0.50054353  1
  Mo  Mo3  1  0.87764424  0.75539090  0.12130091  1
  Mo  Mo4  1  0.37939815  0.75892480  0.62288975  1
  Mo  Mo5  1  0.62235576  0.24460910  0.37869909  1
  Mo  Mo6  1  0.12060185  0.24107520  0.87711025  1
  Mo  Mo7  1  0.25000000  0.50000000  0.75000000  1
  N  N8  1  0.31690871  0.63351710  0.01275549  1
  N  N9  1  0.81679266  0.63371118  0.51800384  1
  N  N10  1  0.55966585  0.11932941  0.10435627  1
  N  N11  1  0.06009752  0.12018385  0.60328120  1
  N  N12  1  0.68320734  0.36628882  0.98199616  1
  N  N13  1  0.18309129  0.36648290  0.48724451  1
  N  N14  1  0.43990248  0.87981615  0.89671880  1
  N  N15  1  0.94033415  0.88067059  0.39564373  1
