# generated using pymatgen
data_DyCuSi
_symmetry_space_group_name_H-M   'P 1'
_cell_length_a   3.94942550
_cell_length_b   4.07007267
_cell_length_c   4.06984618
_cell_angle_alpha   59.98262716
_cell_angle_beta   90.00000000
_cell_angle_gamma   90.00000000
_symmetry_Int_Tables_number   1
_chemical_formula_structural   DyCuSi
_chemical_formula_sum   'Dy1 Cu1 Si1'
_cell_volume   56.64592353
_cell_formula_units_Z   1
loop_
 _symmetry_equiv_pos_site_id
 _symmetry_equiv_pos_as_xyz
  1  'x, y, z'
loop_
 _atom_site_type_symbol
 _atom_site_label
 _atom_site_symmetry_multiplicity
 _atom_site_fract_x
 _atom_site_fract_y
 _atom_site_fract_z
 _atom_site_occupancy
  Dy  Dy0  1  -0.00000000  0.99997619  0.00002558  1
  Cu  Cu1  1  0.50000000  0.33330612  0.33341190  1
  Si  Si2  1  0.50000000  0.66661769  0.66666252  1
