# generated using pymatgen
data_InAg(MoO4)2
_symmetry_space_group_name_H-M   'P 1'
_cell_length_a   5.10457285
_cell_length_b   5.03737776
_cell_length_c   19.31771600
_cell_angle_alpha   82.60836822
_cell_angle_beta   82.50655508
_cell_angle_gamma   90.75094632
_symmetry_Int_Tables_number   1
_chemical_formula_structural   InAg(MoO4)2
_chemical_formula_sum   'In3 Ag3 Mo6 O24'
_cell_volume   488.16881959
_cell_formula_units_Z   3
loop_
 _symmetry_equiv_pos_site_id
 _symmetry_equiv_pos_as_xyz
  1  'x, y, z'
loop_
 _atom_site_type_symbol
 _atom_site_label
 _atom_site_symmetry_multiplicity
 _atom_site_fract_x
 _atom_site_fract_y
 _atom_site_fract_z
 _atom_site_occupancy
  In  In0  1  0.42324229  0.92324229  0.15351542  1
  In  In1  1  0.67736629  0.67736629  0.64526742  1
  In  In2  1  0.07224125  0.57224125  0.85551750  1
  Ag  Ag3  1  0.25769156  0.75769156  0.48461687  1
  Ag  Ag4  1  0.49782851  0.49782851  0.00434298  1
  Ag  Ag5  1  0.32607517  0.32607517  0.34784966  1
  Mo  Mo6  1  0.90305130  0.40305130  0.19389740  1
  Mo  Mo7  1  0.15205125  0.15205125  0.69589749  1
  Mo  Mo8  1  0.74610025  0.24610025  0.50779950  1
  Mo  Mo9  1  0.99924756  0.99924756  0.00150487  1
  Mo  Mo10  1  0.84538759  0.84538759  0.30922483  1
  Mo  Mo11  1  0.59605824  0.09605824  0.80788352  1
  O  O12  1  0.58396977  0.67453243  0.36837133  1
  O  O13  1  0.04765890  0.95709623  0.36837133  1
  O  O14  1  0.41767927  0.30844470  0.86490839  1
  O  O15  1  0.71741234  0.82664691  0.86490839  1
  O  O16  1  0.52619448  0.12533809  0.45491373  1
  O  O17  1  0.01889179  0.41974818  0.45491373  1
  O  O18  1  0.88732338  0.28425258  0.94658720  1
  O  O19  1  0.16608942  0.76916022  0.94658720  1
  O  O20  1  0.70087658  0.27196772  0.13252533  1
  O  O21  1  0.16659810  0.59550695  0.13252533  1
  O  O22  1  0.02814421  0.41733375  0.63994360  1
  O  O23  1  0.33191219  0.94272265  0.63994360  1
  O  O24  1  0.56306111  0.47647357  0.56181037  1
  O  O25  1  0.87512853  0.96171606  0.56181037  1
  O  O26  1  0.23571714  0.11418666  0.05287406  1
  O  O27  1  0.71140880  0.83293927  0.05287406  1
  O  O28  1  0.11481591  0.09134141  0.21486677  1
  O  O29  1  0.67031732  0.69379182  0.21486677  1
  O  O30  1  0.82697485  0.92934408  0.71958241  1
  O  O31  1  0.45344274  0.35107351  0.71958241  1
  O  O32  1  0.67161818  0.16439448  0.27641140  1
  O  O33  1  0.05197042  0.55919412  0.27641140  1
  O  O34  1  0.92190635  0.31877740  0.78554669  1
  O  O35  1  0.29254696  0.89567591  0.78554669  1
