# generated using pymatgen
data_Gd2ScNbO7
_symmetry_space_group_name_H-M   'P 1'
_cell_length_a   7.43226440
_cell_length_b   7.36784302
_cell_length_c   7.49928227
_cell_angle_alpha   90.00000000
_cell_angle_beta   59.70126397
_cell_angle_gamma   119.71368323
_symmetry_Int_Tables_number   1
_chemical_formula_structural   Gd2ScNbO7
_chemical_formula_sum   'Gd4 Sc2 Nb2 O14'
_cell_volume   290.31759172
_cell_formula_units_Z   2
loop_
 _symmetry_equiv_pos_site_id
 _symmetry_equiv_pos_as_xyz
  1  'x, y, z'
loop_
 _atom_site_type_symbol
 _atom_site_label
 _atom_site_symmetry_multiplicity
 _atom_site_fract_x
 _atom_site_fract_y
 _atom_site_fract_z
 _atom_site_occupancy
  Gd  Gd0  1  0.50000000  0.00000000  0.50000000  1
  Gd  Gd1  1  0.50000000  0.50000000  0.50000000  1
  Gd  Gd2  1  0.00000000  0.50000000  -0.00000000  1
  Gd  Gd3  1  0.00000000  0.50000000  0.50000000  1
  Sc  Sc4  1  0.50000000  0.50000000  -0.00000000  1
  Sc  Sc5  1  0.50000000  0.00000000  -0.00000000  1
  Nb  Nb6  1  0.00000000  0.00000000  0.50000000  1
  Nb  Nb7  1  0.00000000  0.00000000  -0.00000000  1
  O  O8  1  0.74296950  0.37148475  0.37851525  1
  O  O9  1  0.25703050  0.62851525  0.62148475  1
  O  O10  1  0.85369836  0.92684918  0.32315082  1
  O  O11  1  0.69588257  0.34794128  0.90205872  1
  O  O12  1  0.25058841  0.92364237  0.90771531  1
  O  O13  1  0.25058841  0.32694604  0.34169628  1
  O  O14  1  0.25058841  0.32694604  0.90771531  1
  O  O15  1  0.25058841  0.92364237  0.34169628  1
  O  O16  1  0.14630164  0.07315082  0.67684918  1
  O  O17  1  0.30411743  0.65205872  0.09794128  1
  O  O18  1  0.74941159  0.07635763  0.09228469  1
  O  O19  1  0.74941159  0.67305396  0.65830372  1
  O  O20  1  0.74941159  0.67305396  0.09228469  1
  O  O21  1  0.74941159  0.07635763  0.65830372  1
