# generated using pymatgen
data_DyUTe6
_symmetry_space_group_name_H-M   'P 1'
_cell_length_a   4.37719450
_cell_length_b   4.38241781
_cell_length_c   12.92637636
_cell_angle_alpha   90.00000000
_cell_angle_beta   80.25215315
_cell_angle_gamma   90.00000000
_symmetry_Int_Tables_number   1
_chemical_formula_structural   DyUTe6
_chemical_formula_sum   'Dy1 U1 Te6'
_cell_volume   244.38275559
_cell_formula_units_Z   1
loop_
 _symmetry_equiv_pos_site_id
 _symmetry_equiv_pos_as_xyz
  1  'x, y, z'
loop_
 _atom_site_type_symbol
 _atom_site_label
 _atom_site_symmetry_multiplicity
 _atom_site_fract_x
 _atom_site_fract_y
 _atom_site_fract_z
 _atom_site_occupancy
  Dy  Dy0  1  0.16906154  0.25000000  0.66187692  1
  U  U1  1  0.83307871  0.75000000  0.33384258  1
  Te  Te2  1  0.42266970  0.75000000  0.15466061  1
  Te  Te3  1  0.57444629  0.25000000  0.85110743  1
  Te  Te4  1  0.70805642  0.75000000  0.58388716  1
  Te  Te5  1  0.29591677  0.25000000  0.40816645  1
  Te  Te6  1  0.07409276  0.75000000  0.85181449  1
  Te  Te7  1  0.92267782  0.25000000  0.15464436  1
