# generated using pymatgen
data_Fe5Sb4
_symmetry_space_group_name_H-M   'P 1'
_cell_length_a   4.11401571
_cell_length_b   6.55235609
_cell_length_c   6.55235609
_cell_angle_alpha   78.21552862
_cell_angle_beta   71.68215559
_cell_angle_gamma   108.31784441
_symmetry_Int_Tables_number   1
_chemical_formula_structural   Fe5Sb4
_chemical_formula_sum   'Fe5 Sb4'
_cell_volume   149.91479753
_cell_formula_units_Z   1
loop_
 _symmetry_equiv_pos_site_id
 _symmetry_equiv_pos_as_xyz
  1  'x, y, z'
loop_
 _atom_site_type_symbol
 _atom_site_label
 _atom_site_symmetry_multiplicity
 _atom_site_fract_x
 _atom_site_fract_y
 _atom_site_fract_z
 _atom_site_occupancy
  Fe  Fe0  1  0.00163041  0.24657175  0.24342707  1
  Fe  Fe1  1  0.99753041  0.75161762  0.75665707  1
  Fe  Fe2  1  0.00163041  0.00657293  0.00342825  1
  Fe  Fe3  1  0.99753041  0.49334293  0.49838238  1
  Fe  Fe4  1  0.65939826  0.28476682  0.96523318  1
  Sb  Sb5  1  0.66808146  0.54985977  0.21372432  1
  Sb  Sb6  1  0.66808146  0.03627568  0.70014023  1
  Sb  Sb7  1  0.36561006  0.49042868  0.75957132  1
  Sb  Sb8  1  0.30720712  0.93221382  0.31778618  1
