# generated using pymatgen
data_Fe3Ge2
_symmetry_space_group_name_H-M   'P 1'
_cell_length_a   4.00527351
_cell_length_b   4.00527351
_cell_length_c   4.91833110
_cell_angle_alpha   90.00000000
_cell_angle_beta   90.00000000
_cell_angle_gamma   119.97224923
_symmetry_Int_Tables_number   1
_chemical_formula_structural   Fe3Ge2
_chemical_formula_sum   'Fe3 Ge2'
_cell_volume   68.34930884
_cell_formula_units_Z   1
loop_
 _symmetry_equiv_pos_site_id
 _symmetry_equiv_pos_as_xyz
  1  'x, y, z'
loop_
 _atom_site_type_symbol
 _atom_site_label
 _atom_site_symmetry_multiplicity
 _atom_site_fract_x
 _atom_site_fract_y
 _atom_site_fract_z
 _atom_site_occupancy
  Fe  Fe0  1  0.00002157  0.99997843  0.50459995  1
  Fe  Fe1  1  0.00002157  0.99997843  0.99540005  1
  Fe  Fe2  1  0.66661248  0.33338752  0.25000000  1
  Ge  Ge3  1  0.66668884  0.33331116  0.75000000  1
  Ge  Ge4  1  0.33335555  0.66664445  0.25000000  1
