# generated using pymatgen
data_Cs2CeAgF6
_symmetry_space_group_name_H-M   'P 1'
_cell_length_a   6.77541222
_cell_length_b   6.77553814
_cell_length_c   6.77592118
_cell_angle_alpha   59.99822493
_cell_angle_beta   59.99774328
_cell_angle_gamma   59.99579484
_symmetry_Int_Tables_number   1
_chemical_formula_structural   Cs2CeAgF6
_chemical_formula_sum   'Cs2 Ce1 Ag1 F6'
_cell_volume   219.94081411
_cell_formula_units_Z   1
loop_
 _symmetry_equiv_pos_site_id
 _symmetry_equiv_pos_as_xyz
  1  'x, y, z'
loop_
 _atom_site_type_symbol
 _atom_site_label
 _atom_site_symmetry_multiplicity
 _atom_site_fract_x
 _atom_site_fract_y
 _atom_site_fract_z
 _atom_site_occupancy
  Cs  Cs0  1  0.24999828  0.24999402  0.25000241  1
  Cs  Cs1  1  0.75000172  0.75000598  0.74999759  1
  Ce  Ce2  1  0.50000002  0.50000000  0.50000000  1
  Ag  Ag3  1  0.00000000  0.00000000  0.00000000  1
  F  F4  1  0.26044334  0.73955475  0.26044624  1
  F  F5  1  0.73955886  0.73955502  0.26044311  1
  F  F6  1  0.73955666  0.26044525  0.73955375  1
  F  F7  1  0.73955754  0.26044431  0.26044339  1
  F  F8  1  0.26044245  0.73955568  0.73955661  1
  F  F9  1  0.26044113  0.26044498  0.73955689  1
