# generated using pymatgen
data_CsBi4Se7
_symmetry_space_group_name_H-M   'P 1'
_cell_length_a   4.45440678
_cell_length_b   11.10518667
_cell_length_c   18.10352701
_cell_angle_alpha   84.47769078
_cell_angle_beta   82.93323036
_cell_angle_gamma   101.56942861
_symmetry_Int_Tables_number   1
_chemical_formula_structural   CsBi4Se7
_chemical_formula_sum   'Cs2 Bi8 Se14'
_cell_volume   863.90910481
_cell_formula_units_Z   2
loop_
 _symmetry_equiv_pos_site_id
 _symmetry_equiv_pos_as_xyz
  1  'x, y, z'
loop_
 _atom_site_type_symbol
 _atom_site_label
 _atom_site_symmetry_multiplicity
 _atom_site_fract_x
 _atom_site_fract_y
 _atom_site_fract_z
 _atom_site_occupancy
  Cs  Cs0  1  0.74551269  0.28471001  0.79368463  1
  Cs  Cs1  1  0.25448731  0.71528999  0.20631537  1
  Bi  Bi2  1  0.93622386  0.30128906  0.42884135  1
  Bi  Bi3  1  0.06377614  0.69871094  0.57115865  1
  Bi  Bi4  1  0.53387252  0.82162045  0.75387541  1
  Bi  Bi5  1  0.46612748  0.17837955  0.24612459  1
  Bi  Bi6  1  0.23916106  0.07796193  0.59963980  1
  Bi  Bi7  1  0.76083894  0.92203807  0.40036020  1
  Bi  Bi8  1  0.84409917  0.60872300  0.92052466  1
  Bi  Bi9  1  0.15590083  0.39127700  0.07947534  1
  Se  Se10  1  0.12730131  0.00942611  0.75482350  1
  Se  Se11  1  0.87269869  0.99057389  0.24517650  1
  Se  Se12  1  0.43749647  0.78446817  0.90947523  1
  Se  Se13  1  0.56250353  0.21553183  0.09052477  1
  Se  Se14  1  0.65088762  0.87867920  0.57690397  1
  Se  Se15  1  0.34911238  0.12132080  0.42309603  1
  Se  Se16  1  0.82290247  0.24190093  0.59609600  1
  Se  Se17  1  0.17709753  0.75809907  0.40390400  1
  Se  Se18  1  0.24421055  0.41353643  0.92511533  1
  Se  Se19  1  0.75578945  0.58646357  0.07488467  1
  Se  Se20  1  0.95457122  0.64336718  0.73422475  1
  Se  Se21  1  0.04542878  0.35663282  0.26577525  1
  Se  Se22  1  0.52513360  0.48588917  0.43562197  1
  Se  Se23  1  0.47486640  0.51411083  0.56437803  1
