# generated using pymatgen
data_DyTiFe11C
_symmetry_space_group_name_H-M   'P 1'
_cell_length_a   4.85396940
_cell_length_b   6.50514841
_cell_length_c   6.50514841
_cell_angle_alpha   97.58547075
_cell_angle_beta   111.90611644
_cell_angle_gamma   68.09388356
_symmetry_Int_Tables_number   1
_chemical_formula_structural   DyTiFe11C
_chemical_formula_sum   'Dy1 Ti1 Fe11 C1'
_cell_volume   176.80791507
_cell_formula_units_Z   1
loop_
 _symmetry_equiv_pos_site_id
 _symmetry_equiv_pos_as_xyz
  1  'x, y, z'
loop_
 _atom_site_type_symbol
 _atom_site_label
 _atom_site_symmetry_multiplicity
 _atom_site_fract_x
 _atom_site_fract_y
 _atom_site_fract_z
 _atom_site_occupancy
  Dy  Dy0  1  0.00743271  0.99256729  0.00743271  1
  Ti  Ti1  1  0.63356470  0.36643530  0.63356470  1
  Fe  Fe2  1  0.72473428  0.77526572  0.22473428  1
  Fe  Fe3  1  0.27740406  0.22259594  0.77740406  1
  Fe  Fe4  1  0.49780029  0.78220617  0.77780675  1
  Fe  Fe5  1  0.49780029  0.22219325  0.21779383  1
  Fe  Fe6  1  0.50018326  0.99773775  0.49915653  1
  Fe  Fe7  1  0.00123552  0.99773775  0.49915653  1
  Fe  Fe8  1  0.50018326  0.50084347  0.00226225  1
  Fe  Fe9  1  0.00123552  0.50084347  0.00226225  1
  Fe  Fe10  1  0.35673183  0.64326817  0.35673183  1
  Fe  Fe11  1  0.00002692  0.35863894  0.35869278  1
  Fe  Fe12  1  0.00002692  0.64130722  0.64136106  1
  C  C13  1  0.50164043  0.99835957  0.00164043  1
