# generated using pymatgen
data_Er4MnGe8
_symmetry_space_group_name_H-M   'P 1'
_cell_length_a   3.98684366
_cell_length_b   4.16512506
_cell_length_c   15.85846643
_cell_angle_alpha   90.00000000
_cell_angle_beta   90.00000000
_cell_angle_gamma   90.00000000
_symmetry_Int_Tables_number   1
_chemical_formula_structural   Er4MnGe8
_chemical_formula_sum   'Er4 Mn1 Ge8'
_cell_volume   263.34097467
_cell_formula_units_Z   1
loop_
 _symmetry_equiv_pos_site_id
 _symmetry_equiv_pos_as_xyz
  1  'x, y, z'
loop_
 _atom_site_type_symbol
 _atom_site_label
 _atom_site_symmetry_multiplicity
 _atom_site_fract_x
 _atom_site_fract_y
 _atom_site_fract_z
 _atom_site_occupancy
  Er  Er0  1  0.25000000  0.00000000  0.10142532  1
  Er  Er1  1  0.25000000  0.50000000  0.60665940  1
  Er  Er2  1  0.75000000  0.50000000  0.39934221  1
  Er  Er3  1  0.75000000  0.00000000  0.89630985  1
  Mn  Mn4  1  0.25000000  0.00000000  0.31087843  1
  Ge  Ge5  1  0.25000000  0.00000000  0.45936766  1
  Ge  Ge6  1  0.25000000  0.50000000  0.94574903  1
  Ge  Ge7  1  0.75000000  0.50000000  0.05478171  1
  Ge  Ge8  1  0.75000000  0.00000000  0.56452358  1
  Ge  Ge9  1  0.25000000  0.50000000  0.24096129  1
  Ge  Ge10  1  0.25000000  0.00000000  0.74878340  1
  Ge  Ge11  1  0.75000000  -0.00000000  0.23645864  1
  Ge  Ge12  1  0.75000000  0.50000000  0.75275948  1
