# generated using pymatgen
data_CrNi3Sb4
_symmetry_space_group_name_H-M   'P 1'
_cell_length_a   4.00182684
_cell_length_b   4.00190151
_cell_length_c   10.52909499
_cell_angle_alpha   90.00000000
_cell_angle_beta   90.00716488
_cell_angle_gamma   59.99937468
_symmetry_Int_Tables_number   1
_chemical_formula_structural   CrNi3Sb4
_chemical_formula_sum   'Cr1 Ni3 Sb4'
_cell_volume   146.03051696
_cell_formula_units_Z   1
loop_
 _symmetry_equiv_pos_site_id
 _symmetry_equiv_pos_as_xyz
  1  'x, y, z'
loop_
 _atom_site_type_symbol
 _atom_site_label
 _atom_site_symmetry_multiplicity
 _atom_site_fract_x
 _atom_site_fract_y
 _atom_site_fract_z
 _atom_site_occupancy
  Cr  Cr0  1  -0.00000000  0.00000000  0.25000000  1
  Ni  Ni1  1  -0.00000000  0.00000000  0.75000000  1
  Ni  Ni2  1  0.00020425  0.99989788  0.99742312  1
  Ni  Ni3  1  0.99979575  0.00010212  0.50257688  1
  Sb  Sb4  1  0.33307147  0.33346426  0.39078260  1
  Sb  Sb5  1  0.33339564  0.33330218  0.87122933  1
  Sb  Sb6  1  0.66692853  0.66653574  0.10921740  1
  Sb  Sb7  1  0.66660436  0.66669782  0.62877067  1
