# generated using pymatgen
data_DyUTe3
_symmetry_space_group_name_H-M   'P 1'
_cell_length_a   4.28878620
_cell_length_b   12.03743053
_cell_length_c   11.84489896
_cell_angle_alpha   90.00000000
_cell_angle_beta   90.00000000
_cell_angle_gamma   90.00000000
_symmetry_Int_Tables_number   1
_chemical_formula_structural   DyUTe3
_chemical_formula_sum   'Dy4 U4 Te12'
_cell_volume   611.50435028
_cell_formula_units_Z   4
loop_
 _symmetry_equiv_pos_site_id
 _symmetry_equiv_pos_as_xyz
  1  'x, y, z'
loop_
 _atom_site_type_symbol
 _atom_site_label
 _atom_site_symmetry_multiplicity
 _atom_site_fract_x
 _atom_site_fract_y
 _atom_site_fract_z
 _atom_site_occupancy
  Dy  Dy0  1  0.25000000  0.30605641  0.50275631  1
  Dy  Dy1  1  0.25000000  0.80605641  0.99724369  1
  Dy  Dy2  1  0.75000000  0.69394359  0.49724369  1
  Dy  Dy3  1  0.75000000  0.19394359  0.00275631  1
  U  U4  1  0.75000000  0.50936593  0.81181573  1
  U  U5  1  0.75000000  0.00936593  0.68818427  1
  U  U6  1  0.25000000  0.49063407  0.18818427  1
  U  U7  1  0.25000000  0.99063407  0.31181573  1
  Te  Te8  1  0.75000000  0.27097654  0.70057223  1
  Te  Te9  1  0.75000000  0.77097654  0.79942777  1
  Te  Te10  1  0.25000000  0.72902346  0.29942777  1
  Te  Te11  1  0.25000000  0.22902346  0.20057223  1
  Te  Te12  1  0.25000000  0.37721476  0.94574824  1
  Te  Te13  1  0.25000000  0.87721476  0.55425176  1
  Te  Te14  1  0.75000000  0.62278524  0.05425176  1
  Te  Te15  1  0.75000000  0.12278524  0.44574824  1
  Te  Te16  1  0.75000000  0.45373660  0.37630362  1
  Te  Te17  1  0.75000000  0.95373660  0.12369638  1
  Te  Te18  1  0.25000000  0.54626340  0.62369638  1
  Te  Te19  1  0.25000000  0.04626340  0.87630362  1
