# generated using pymatgen
data_Ce2In3Cu
_symmetry_space_group_name_H-M   'P 1'
_cell_length_a   3.68888257
_cell_length_b   4.84436100
_cell_length_c   8.41346397
_cell_angle_alpha   90.03604339
_cell_angle_beta   90.00000000
_cell_angle_gamma   90.00000000
_symmetry_Int_Tables_number   1
_chemical_formula_structural   Ce2In3Cu
_chemical_formula_sum   'Ce2 In3 Cu1'
_cell_volume   150.35091754
_cell_formula_units_Z   1
loop_
 _symmetry_equiv_pos_site_id
 _symmetry_equiv_pos_as_xyz
  1  'x, y, z'
loop_
 _atom_site_type_symbol
 _atom_site_label
 _atom_site_symmetry_multiplicity
 _atom_site_fract_x
 _atom_site_fract_y
 _atom_site_fract_z
 _atom_site_occupancy
  Ce  Ce0  1  0.00000000  0.00001679  0.01326694  1
  Ce  Ce1  1  0.00000000  0.50016472  0.49234951  1
  In  In2  1  0.50000000  0.49991833  0.83600245  1
  In  In3  1  0.50000000  0.49964053  0.18042429  1
  In  In4  1  0.50000000  0.00017900  0.64918516  1
  Cu  Cu5  1  0.50000000  0.99988064  0.32877164  1
