# generated using pymatgen
data_CaAl2F10
_symmetry_space_group_name_H-M   'P 1'
_cell_length_a   5.55158500
_cell_length_b   5.55158500
_cell_length_c   7.26418958
_cell_angle_alpha   69.14580263
_cell_angle_beta   69.14580263
_cell_angle_gamma   71.72309382
_symmetry_Int_Tables_number   1
_chemical_formula_structural   CaAl2F10
_chemical_formula_sum   'Ca1 Al2 F10'
_cell_volume   190.98113151
_cell_formula_units_Z   1
loop_
 _symmetry_equiv_pos_site_id
 _symmetry_equiv_pos_as_xyz
  1  'x, y, z'
loop_
 _atom_site_type_symbol
 _atom_site_label
 _atom_site_symmetry_multiplicity
 _atom_site_fract_x
 _atom_site_fract_y
 _atom_site_fract_z
 _atom_site_occupancy
  Ca  Ca0  1  0.46013213  0.53986787  0.25000000  1
  Al  Al1  1  0.98352105  0.03061986  0.49817608  1
  Al  Al2  1  0.96938014  0.01647895  0.00182392  1
  F  F3  1  0.85571263  0.72136015  0.62269519  1
  F  F4  1  0.27863985  0.14428737  0.87730481  1
  F  F5  1  0.19751867  0.24974194  0.37210813  1
  F  F6  1  0.75025806  0.80248133  0.12789187  1
  F  F7  1  0.05600154  0.94399846  0.25000000  1
  F  F8  1  0.93711981  0.06288019  0.75000000  1
  F  F9  1  0.24740390  0.72343843  0.54618129  1
  F  F10  1  0.27656157  0.75259610  0.95381871  1
  F  F11  1  0.68647726  0.24272660  0.46807782  1
  F  F12  1  0.75727340  0.31352274  0.03192218  1
