# generated using pymatgen
data_Be6Al4Si12O37
_symmetry_space_group_name_H-M   'P 1'
_cell_length_a   9.28188092
_cell_length_b   9.30205569
_cell_length_c   9.30175059
_cell_angle_alpha   120.00108787
_cell_angle_beta   90.00000372
_cell_angle_gamma   89.99993579
_symmetry_Int_Tables_number   1
_chemical_formula_structural   Be6Al4Si12O37
_chemical_formula_sum   'Be6 Al4 Si12 O37'
_cell_volume   695.51337973
_cell_formula_units_Z   1
loop_
 _symmetry_equiv_pos_site_id
 _symmetry_equiv_pos_as_xyz
  1  'x, y, z'
loop_
 _atom_site_type_symbol
 _atom_site_label
 _atom_site_symmetry_multiplicity
 _atom_site_fract_x
 _atom_site_fract_y
 _atom_site_fract_z
 _atom_site_occupancy
  Be  Be0  1  0.25000015  0.50000309  0.99999985  1
  Be  Be1  1  0.25003528  0.49999405  0.50000831  1
  Be  Be2  1  0.24996459  0.99998604  0.49999126  1
  Be  Be3  1  0.74999992  0.50000519  0.99999975  1
  Be  Be4  1  0.74996578  0.49999310  0.50000832  1
  Be  Be5  1  0.75003462  0.99998492  0.49999127  1
  Al  Al6  1  0.24999985  0.33325351  0.66653547  1
  Al  Al7  1  0.75000015  0.33327022  0.66656785  1
  Al  Al8  1  0.74999992  0.66670215  0.33343213  1
  Al  Al9  1  0.24999998  0.66671797  0.33346461  1
  Si  Si10  1  0.50000377  0.61232157  0.88425973  1
  Si  Si11  1  0.49985480  0.27189640  0.38759417  1
  Si  Si12  1  0.49993837  0.11550791  0.72791208  1
  Si  Si13  1  -0.00000398  0.72806167  0.11574016  1
  Si  Si14  1  0.00014513  0.88430234  0.61240593  1
  Si  Si15  1  0.00006185  0.38759587  0.27208831  1
  Si  Si16  1  0.50000373  0.38767470  0.11574055  1
  Si  Si17  1  0.49985504  0.72810066  0.61240731  1
  Si  Si18  1  0.49993846  0.88448794  0.27208939  1
  Si  Si19  1  -0.00000363  0.27193448  0.88425968  1
  Si  Si20  1  0.00014514  0.11569357  0.38759296  1
  Si  Si21  1  0.00006149  0.61239801  0.72791047  1
  O  O22  1  0.50007910  0.69008105  0.76382485  1
  O  O23  1  0.50020197  0.07362857  0.30995950  1
  O  O24  1  0.49993216  0.23620882  0.92642053  1
  O  O25  1  0.99992079  0.92625681  0.23617559  1
  O  O26  1  0.99979846  0.76366903  0.69004032  1
  O  O27  1  0.00006805  0.30978838  0.07357921  1
  O  O28  1  0.50007914  0.30991912  0.23617578  1
  O  O29  1  0.50020186  0.92637166  0.69004062  1
  O  O30  1  0.49993201  0.76379062  0.07357837  1
  O  O31  1  0.99992064  0.07374381  0.76382463  1
  O  O32  1  0.99979840  0.23633163  0.30995939  1
  O  O33  1  0.00006784  0.69021174  0.92642119  1
  O  O34  1  0.35429469  0.50151086  0.85512042  1
  O  O35  1  0.35432979  0.35367112  0.49862684  1
  O  O36  1  0.35431933  0.14496128  0.64641717  1
  O  O37  1  0.64571576  0.50148467  0.85511661  1
  O  O38  1  0.64565964  0.35358053  0.49848470  1
  O  O39  1  0.64569799  0.14495753  0.64645717  1
  O  O40  1  0.85428403  0.64636829  0.14488383  1
  O  O41  1  0.85434046  0.85509487  0.50151536  1
  O  O42  1  0.85430184  0.49850056  0.35354272  1
  O  O43  1  0.14570505  0.64638982  0.14487997  1
  O  O44  1  0.14567058  0.85504413  0.50137308  1
  O  O45  1  0.14568067  0.49854382  0.35358256  1
  O  O46  1  0.64571557  0.49850880  0.14488190  1
  O  O47  1  0.64565907  0.64641343  0.50151570  1
  O  O48  1  0.64569936  0.85503284  0.35354118  1
  O  O49  1  0.35429524  0.49848226  0.14487772  1
  O  O50  1  0.35433018  0.64632163  0.50137424  1
  O  O51  1  0.35431838  0.85503025  0.35358219  1
  O  O52  1  0.14570502  0.35360504  0.85512208  1
  O  O53  1  0.14566942  0.14494858  0.49862628  1
  O  O54  1  0.14568155  0.50144724  0.64641746  1
  O  O55  1  0.85428433  0.35362684  0.85511862  1
  O  O56  1  0.85434078  0.14489721  0.49848418  1
  O  O57  1  0.85430039  0.50149182  0.64645848  1
  O  O58  1  0.25000007  -0.00000006  0.00000001  1
