# generated using pymatgen
data_CdAg2SnSe4
_symmetry_space_group_name_H-M   'P 1'
_cell_length_a   4.36862559
_cell_length_b   7.53647386
_cell_length_c   7.13538715
_cell_angle_alpha   89.96706202
_cell_angle_beta   90.00000000
_cell_angle_gamma   90.00000000
_symmetry_Int_Tables_number   1
_chemical_formula_structural   CdAg2SnSe4
_chemical_formula_sum   'Cd1 Ag2 Sn1 Se4'
_cell_volume   234.92567992
_cell_formula_units_Z   1
loop_
 _symmetry_equiv_pos_site_id
 _symmetry_equiv_pos_as_xyz
  1  'x, y, z'
loop_
 _atom_site_type_symbol
 _atom_site_label
 _atom_site_symmetry_multiplicity
 _atom_site_fract_x
 _atom_site_fract_y
 _atom_site_fract_z
 _atom_site_occupancy
  Cd  Cd0  1  0.00000000  0.82925504  0.11634682  1
  Ag  Ag1  1  0.50000000  0.33882746  0.11809031  1
  Ag  Ag2  1  0.50000000  0.67407517  0.64108269  1
  Sn  Sn3  1  -0.00000000  0.15365488  0.63520905  1
  Se  Se4  1  0.50000000  0.32873743  0.50115655  1
  Se  Se5  1  0.00000000  0.83592944  0.50337728  1
  Se  Se6  1  0.50000000  0.66755918  0.00945250  1
  Se  Se7  1  0.00000000  0.17196140  0.99568481  1
