# generated using pymatgen
data_CeCo4Cu
_symmetry_space_group_name_H-M   'P 1'
_cell_length_a   4.03890921
_cell_length_b   4.93492341
_cell_length_c   4.92026176
_cell_angle_alpha   119.91039672
_cell_angle_beta   90.00000000
_cell_angle_gamma   90.00000000
_symmetry_Int_Tables_number   1
_chemical_formula_structural   CeCo4Cu
_chemical_formula_sum   'Ce1 Co4 Cu1'
_cell_volume   85.00701487
_cell_formula_units_Z   1
loop_
 _symmetry_equiv_pos_site_id
 _symmetry_equiv_pos_as_xyz
  1  'x, y, z'
loop_
 _atom_site_type_symbol
 _atom_site_label
 _atom_site_symmetry_multiplicity
 _atom_site_fract_x
 _atom_site_fract_y
 _atom_site_fract_z
 _atom_site_occupancy
  Ce  Ce0  1  -0.00000000  0.00025150  0.00019059  1
  Co  Co1  1  0.00000000  0.66652998  0.33319898  1
  Co  Co2  1  0.50000000  0.50030229  0.00068401  1
  Co  Co3  1  0.50000000  0.50035186  0.49962890  1
  Co  Co4  1  0.50000000  0.99882304  0.49943769  1
  Cu  Cu5  1  0.00000000  0.33364134  0.66685982  1
