# generated using pymatgen
data_Ce2Fe(SeO)2
_symmetry_space_group_name_H-M   'P 1'
_cell_length_a   3.96808340
_cell_length_b   8.44256438
_cell_length_c   17.29013483
_cell_angle_alpha   90.00000000
_cell_angle_beta   90.00000000
_cell_angle_gamma   76.40810442
_symmetry_Int_Tables_number   1
_chemical_formula_structural   Ce2Fe(SeO)2
_chemical_formula_sum   'Ce8 Fe4 Se8 O8'
_cell_volume   563.01147783
_cell_formula_units_Z   4
loop_
 _symmetry_equiv_pos_site_id
 _symmetry_equiv_pos_as_xyz
  1  'x, y, z'
loop_
 _atom_site_type_symbol
 _atom_site_label
 _atom_site_symmetry_multiplicity
 _atom_site_fract_x
 _atom_site_fract_y
 _atom_site_fract_z
 _atom_site_occupancy
  Ce  Ce0  1  0.76828216  0.46343568  0.58958691  1
  Ce  Ce1  1  0.22884072  0.54231856  0.40846442  1
  Ce  Ce2  1  0.77115928  0.45768144  0.90846442  1
  Ce  Ce3  1  0.23171784  0.53656432  0.08958691  1
  Ce  Ce4  1  0.07449997  0.85100006  0.58127949  1
  Ce  Ce5  1  0.92608591  0.14782818  0.41678418  1
  Ce  Ce6  1  0.07391409  0.85217182  0.91678418  1
  Ce  Ce7  1  0.92550003  0.14899994  0.08127949  1
  Fe  Fe8  1  0.63294872  0.73410257  0.75017085  1
  Fe  Fe9  1  0.36705128  0.26589743  0.25017085  1
  Fe  Fe10  1  0.41176789  0.17646423  0.72308049  1
  Fe  Fe11  1  0.58823211  0.82353577  0.22308049  1
  Se  Se12  1  0.42036245  0.15927511  0.57130681  1
  Se  Se13  1  0.57915247  0.84169506  0.43274224  1
  Se  Se14  1  0.42084753  0.15830494  0.93274224  1
  Se  Se15  1  0.57963755  0.84072489  0.07130681  1
  Se  Se16  1  0.00563625  0.98872749  0.75131678  1
  Se  Se17  1  0.99436375  0.01127251  0.25131678  1
  Se  Se18  1  0.25914271  0.48171457  0.75088763  1
  Se  Se19  1  0.74085729  0.51828543  0.25088763  1
  O  O20  1  0.21120901  0.57758198  0.54520513  1
  O  O21  1  0.78964349  0.42071303  0.45523950  1
  O  O22  1  0.21035651  0.57928697  0.95523950  1
  O  O23  1  0.78879099  0.42241802  0.04520513  1
  O  O24  1  0.62958130  0.74083741  0.63498501  1
  O  O25  1  0.37062056  0.25875888  0.36502055  1
  O  O26  1  0.62937944  0.74124112  0.86502055  1
  O  O27  1  0.37041870  0.25916259  0.13498501  1
