# generated using pymatgen
data_Ca3Mg9Al8(SiO4)12
_symmetry_space_group_name_H-M   'P 1'
_cell_length_a   10.11094243
_cell_length_b   10.11277642
_cell_length_c   10.11094243
_cell_angle_alpha   70.02263996
_cell_angle_beta   70.53147880
_cell_angle_gamma   108.96202302
_symmetry_Int_Tables_number   1
_chemical_formula_structural   Ca3Mg9Al8(SiO4)12
_chemical_formula_sum   'Ca3 Mg9 Al8 Si12 O48'
_cell_volume   795.86072446
_cell_formula_units_Z   1
loop_
 _symmetry_equiv_pos_site_id
 _symmetry_equiv_pos_as_xyz
  1  'x, y, z'
loop_
 _atom_site_type_symbol
 _atom_site_label
 _atom_site_symmetry_multiplicity
 _atom_site_fract_x
 _atom_site_fract_y
 _atom_site_fract_z
 _atom_site_occupancy
  Ca  Ca0  1  0.37440845  0.62427959  0.25170985  1
  Ca  Ca1  1  0.12401057  0.87572041  0.74987113  1
  Ca  Ca2  1  0.37539101  0.75000000  0.87460899  1
  Mg  Mg3  1  0.12440438  0.25000000  0.62559562  1
  Mg  Mg4  1  0.24944862  0.62337824  0.62451390  1
  Mg  Mg5  1  0.75210785  0.87662176  0.87392962  1
  Mg  Mg6  1  0.62551727  0.37544246  0.74951549  1
  Mg  Mg7  1  0.87504205  0.12455754  0.24992519  1
  Mg  Mg8  1  0.62550335  0.25000000  0.12449665  1
  Mg  Mg9  1  0.87445130  0.75000000  0.37554870  1
  Mg  Mg10  1  0.74989964  0.37496725  0.37554693  1
  Mg  Mg11  1  0.24948582  0.12503275  0.12506761  1
  Al  Al12  1  0.50266450  0.00494715  0.99986788  1
  Al  Al13  1  0.50227704  0.50105372  0.50108999  1
  Al  Al14  1  0.99518497  0.49505285  0.00228265  1
  Al  Al15  1  0.99785630  0.99894628  0.49877668  1
  Al  Al16  1  0.50111955  0.49700951  0.99798239  1
  Al  Al17  1  0.50500810  0.00299049  0.49588996  1
  Al  Al18  1  0.99600275  0.49747544  0.50265437  1
  Al  Al19  1  0.99987019  0.00252456  0.00147269  1
  Si  Si20  1  0.12027196  0.36923737  0.25151977  1
  Si  Si21  1  0.37924286  0.13076263  0.74896541  1
  Si  Si22  1  0.62950987  0.75000000  0.62049013  1
  Si  Si23  1  0.87474532  0.25000000  0.87525468  1
  Si  Si24  1  0.25030681  0.87507304  0.37506961  1
  Si  Si25  1  0.74985735  0.62492696  0.12476622  1
  Si  Si26  1  0.87035283  0.62028778  0.75022930  1
  Si  Si27  1  0.62948292  0.87971222  0.24993495  1
  Si  Si28  1  0.37507542  0.25000000  0.37492458  1
  Si  Si29  1  0.12064903  0.75000000  0.12935097  1
  Si  Si30  1  0.75130772  0.12602649  0.62482722  1
  Si  Si31  1  0.24914630  0.37397351  0.87471877  1
  O  O32  1  0.52022910  0.31778624  0.60329526  1
  O  O33  1  0.42050322  0.12337167  0.89582066  1
  O  O34  1  0.07891850  0.18221376  0.29755713  1
  O  O35  1  0.98080767  0.37662833  0.20286845  1
  O  O36  1  0.68765342  0.20586708  0.91666994  1
  O  O37  1  0.87746298  0.29413292  0.01821366  1
  O  O38  1  0.81576789  0.89684154  0.47919188  1
  O  O39  1  0.62396658  0.60315846  0.58107365  1
  O  O40  1  0.79592907  0.48243293  0.12164834  1
  O  O41  1  0.70181063  0.58085172  0.31347003  1
  O  O42  1  0.10567825  0.91914828  0.37904109  1
  O  O43  1  0.39591873  0.01756707  0.18650386  1
  O  O44  1  0.49182668  0.69226829  0.39834427  1
  O  O45  1  0.59169273  0.89101686  0.10069796  1
  O  O46  1  0.90938744  0.80773171  0.70044160  1
  O  O47  1  0.00828518  0.60898314  0.79932413  1
  O  O48  1  0.30860874  0.80378537  0.08793835  1
  O  O49  1  0.10827628  0.69621463  0.99517663  1
  O  O50  1  0.18512085  0.10811494  0.51242909  1
  O  O51  1  0.37945597  0.39188506  0.42299409  1
  O  O52  1  0.19726512  0.51317746  0.87759672  1
  O  O53  1  0.29930601  0.42101354  0.68437191  1
  O  O54  1  0.89461454  0.07898646  0.62170753  1
  O  O55  1  0.60922582  0.98682254  0.81591234  1
  O  O56  1  0.49213020  0.80063617  0.60966256  1
  O  O57  1  0.58970126  0.69936383  0.80850597  1
  O  O58  1  0.92068393  0.10610907  0.87800153  1
  O  O59  1  0.01588940  0.39389093  0.68542515  1
  O  O60  1  0.30788148  0.50460985  0.10434746  1
  O  O61  1  0.10841105  0.40731947  0.40039245  1
  O  O62  1  0.19228808  0.09268053  0.79890843  1
  O  O63  1  0.39104269  0.99539015  0.69672837  1
  O  O64  1  0.19718493  0.68416345  0.42477787  1
  O  O65  1  0.30281499  0.87925285  0.51305652  1
  O  O66  1  0.89105868  0.81583655  0.98697852  1
  O  O67  1  0.60769063  0.62074715  0.07643786  1
  O  O68  1  0.51636439  0.20226184  0.37850311  1
  O  O69  1  0.41923505  0.29773816  0.18589745  1
  O  O70  1  0.07865474  0.89614877  0.12263799  1
  O  O71  1  0.98121324  0.60385123  0.31749403  1
  O  O72  1  0.68386269  0.47820824  0.89743950  1
  O  O73  1  0.87636135  0.57969204  0.60409544  1
  O  O74  1  0.81621252  0.92030796  0.20333069  1
  O  O75  1  0.62435226  0.02179176  0.29434555  1
  O  O76  1  0.79543782  0.31324955  0.58261437  1
  O  O77  1  0.70500757  0.12194489  0.48298364  1
  O  O78  1  0.10413608  0.18675045  0.01781173  1
  O  O79  1  0.39507148  0.37805511  0.91693732  1
