# generated using pymatgen
data_Cu2Bi5Pb5S14
_symmetry_space_group_name_H-M   'P 1'
_cell_length_a   4.05678498
_cell_length_b   15.00714032
_cell_length_c   21.27154196
_cell_angle_alpha   90.00000000
_cell_angle_beta   90.00000000
_cell_angle_gamma   90.00000000
_symmetry_Int_Tables_number   1
_chemical_formula_structural   Cu2Bi5Pb5S14
_chemical_formula_sum   'Cu4 Bi10 Pb10 S28'
_cell_volume   1295.02724616
_cell_formula_units_Z   2
loop_
 _symmetry_equiv_pos_site_id
 _symmetry_equiv_pos_as_xyz
  1  'x, y, z'
loop_
 _atom_site_type_symbol
 _atom_site_label
 _atom_site_symmetry_multiplicity
 _atom_site_fract_x
 _atom_site_fract_y
 _atom_site_fract_z
 _atom_site_occupancy
  Cu  Cu0  1  0.25000000  0.82775131  0.67510040  1
  Cu  Cu1  1  0.25000000  0.67224869  0.17510040  1
  Cu  Cu2  1  0.75000000  0.17219458  0.32429619  1
  Cu  Cu3  1  0.75000000  0.32780542  0.82429619  1
  Bi  Bi4  1  0.25000000  0.89620687  0.97204208  1
  Bi  Bi5  1  0.25000000  0.60379313  0.47204208  1
  Bi  Bi6  1  0.75000000  0.10767982  0.03242759  1
  Bi  Bi7  1  0.75000000  0.39232018  0.53242759  1
  Bi  Bi8  1  0.25000000  0.53454572  0.84122949  1
  Bi  Bi9  1  0.25000000  0.96545428  0.34122949  1
  Bi  Bi10  1  0.75000000  0.46595117  0.15794528  1
  Bi  Bi11  1  0.75000000  0.03404883  0.65794528  1
  Bi  Bi12  1  0.75000000  0.66172828  0.30784643  1
  Bi  Bi13  1  0.75000000  0.83827172  0.80784643  1
  Pb  Pb14  1  0.25000000  0.86465936  0.51931336  1
  Pb  Pb15  1  0.25000000  0.63534064  0.01931336  1
  Pb  Pb16  1  0.75000000  0.14054525  0.47893048  1
  Pb  Pb17  1  0.75000000  0.35945475  0.97893048  1
  Pb  Pb18  1  0.25000000  0.10753860  0.83530981  1
  Pb  Pb19  1  0.25000000  0.39246140  0.33530981  1
  Pb  Pb20  1  0.75000000  0.89453605  0.16501710  1
  Pb  Pb21  1  0.75000000  0.60546395  0.66501710  1
  Pb  Pb22  1  0.25000000  0.33160356  0.69226769  1
  Pb  Pb23  1  0.25000000  0.16839644  0.19226769  1
  S  S24  1  0.25000000  0.96163235  0.74266750  1
  S  S25  1  0.25000000  0.53836765  0.24266750  1
  S  S26  1  0.75000000  0.03222655  0.26160359  1
  S  S27  1  0.75000000  0.46777345  0.76160359  1
  S  S28  1  0.25000000  0.76964383  0.88294785  1
  S  S29  1  0.25000000  0.73035617  0.38294785  1
  S  S30  1  0.75000000  0.23754255  0.11258481  1
  S  S31  1  0.75000000  0.26245745  0.61258481  1
  S  S32  1  0.25000000  0.04567827  0.56821934  1
  S  S33  1  0.25000000  0.45432173  0.06821934  1
  S  S34  1  0.75000000  0.95327462  0.43528591  1
  S  S35  1  0.75000000  0.54672538  0.93528591  1
  S  S36  1  0.25000000  0.18880162  0.96559189  1
  S  S37  1  0.25000000  0.31119838  0.46559189  1
  S  S38  1  0.75000000  0.80920002  0.03187159  1
  S  S39  1  0.75000000  0.69079998  0.53187159  1
  S  S40  1  0.25000000  0.36409374  0.87276690  1
  S  S41  1  0.25000000  0.13590626  0.37276690  1
  S  S42  1  0.75000000  0.63579903  0.12772781  1
  S  S43  1  0.75000000  0.86420097  0.62772781  1
  S  S44  1  0.25000000  0.48317793  0.60503216  1
  S  S45  1  0.25000000  0.01682207  0.10503216  1
  S  S46  1  0.75000000  0.52571301  0.39016012  1
  S  S47  1  0.75000000  0.97428699  0.89016012  1
  S  S48  1  0.25000000  0.70117461  0.73248238  1
  S  S49  1  0.25000000  0.79882539  0.23248238  1
  S  S50  1  0.75000000  0.30121484  0.26933223  1
  S  S51  1  0.75000000  0.19878516  0.76933223  1
