# generated using pymatgen
data_Ba2Y2Zn8O13
_symmetry_space_group_name_H-M   'P 1'
_cell_length_a   6.45799868
_cell_length_b   6.45799868
_cell_length_c   10.38435355
_cell_angle_alpha   89.70625894
_cell_angle_beta   90.29374106
_cell_angle_gamma   119.84055174
_symmetry_Int_Tables_number   1
_chemical_formula_structural   Ba2Y2Zn8O13
_chemical_formula_sum   'Ba2 Y2 Zn8 O13'
_cell_volume   375.65910767
_cell_formula_units_Z   1
loop_
 _symmetry_equiv_pos_site_id
 _symmetry_equiv_pos_as_xyz
  1  'x, y, z'
loop_
 _atom_site_type_symbol
 _atom_site_label
 _atom_site_symmetry_multiplicity
 _atom_site_fract_x
 _atom_site_fract_y
 _atom_site_fract_z
 _atom_site_occupancy
  Ba  Ba0  1  0.15634123  0.84365877  0.94429357  1
  Ba  Ba1  1  0.86855030  0.13144970  0.43663747  1
  Y  Y2  1  0.17063191  0.82936809  0.31180026  1
  Y  Y3  1  0.85426672  0.14573328  0.80116188  1
  Zn  Zn4  1  0.15396236  0.32933216  0.12668493  1
  Zn  Zn5  1  0.67066784  0.84603764  0.12668493  1
  Zn  Zn6  1  0.84080113  0.65594953  0.62396356  1
  Zn  Zn7  1  0.34405047  0.15919887  0.62396356  1
  Zn  Zn8  1  0.46981585  0.53018415  0.86797152  1
  Zn  Zn9  1  0.50151733  0.49848267  0.38527537  1
  Zn  Zn10  1  0.66161528  0.33838472  0.16194261  1
  Zn  Zn11  1  0.32261431  0.67738569  0.63139172  1
  O  O12  1  0.49062749  0.50937251  0.18851309  1
  O  O13  1  0.49940750  0.50059250  0.68447706  1
  O  O14  1  0.99920363  0.52759711  0.15371721  1
  O  O15  1  0.47240289  0.00079637  0.15371721  1
  O  O16  1  0.00288793  0.51552947  0.72211643  1
  O  O17  1  0.48447053  0.99711207  0.72211643  1
  O  O18  1  0.17859668  0.28689400  0.93794166  1
  O  O19  1  0.71310600  0.82140332  0.93794166  1
  O  O20  1  0.84074176  0.66187885  0.43460043  1
  O  O21  1  0.33812115  0.15925824  0.43460043  1
  O  O22  1  0.33296718  0.66703282  0.44242148  1
  O  O23  1  0.98256407  0.01743593  0.21245897  1
  O  O24  1  0.99326845  0.00673155  0.66470658  1
