# generated using pymatgen
data_Ba5Ce4ZrO15
_symmetry_space_group_name_H-M   'P 1'
_cell_length_a   4.43032494
_cell_length_b   6.27528789
_cell_length_c   16.01639651
_cell_angle_alpha   78.70258209
_cell_angle_beta   90.00000000
_cell_angle_gamma   90.00000000
_symmetry_Int_Tables_number   1
_chemical_formula_structural   Ba5Ce4ZrO15
_chemical_formula_sum   'Ba5 Ce4 Zr1 O15'
_cell_volume   436.65288931
_cell_formula_units_Z   1
loop_
 _symmetry_equiv_pos_site_id
 _symmetry_equiv_pos_as_xyz
  1  'x, y, z'
loop_
 _atom_site_type_symbol
 _atom_site_label
 _atom_site_symmetry_multiplicity
 _atom_site_fract_x
 _atom_site_fract_y
 _atom_site_fract_z
 _atom_site_occupancy
  Ba  Ba0  1  0.50000000  0.69964035  0.60071930  1
  Ba  Ba1  1  0.50000000  0.09500993  0.80998014  1
  Ba  Ba2  1  0.50000000  0.50000000  0.00000000  1
  Ba  Ba3  1  0.50000000  0.90499007  0.19001986  1
  Ba  Ba4  1  0.50000000  0.30035965  0.39928070  1
  Ce  Ce5  1  -0.00000000  0.40176609  0.19646783  1
  Ce  Ce6  1  0.00000000  0.80083207  0.39833586  1
  Ce  Ce7  1  -0.00000000  0.19916793  0.60166414  1
  Ce  Ce8  1  0.00000000  0.59823391  0.80353217  1
  Zr  Zr9  1  0.00000000  0.00000000  0.00000000  1
  O  O10  1  0.00000000  0.40166076  0.70228179  1
  O  O11  1  0.00000000  0.80844622  0.90463682  1
  O  O12  1  0.00000000  0.19155378  0.09536318  1
  O  O13  1  0.00000000  0.59833924  0.29771821  1
  O  O14  1  0.00000000  0.00000000  0.50000000  1
  O  O15  1  0.00000000  0.50000000  0.50000000  1
  O  O16  1  0.00000000  0.89605745  0.70228179  1
  O  O17  1  0.00000000  0.28691696  0.90463682  1
  O  O18  1  0.00000000  0.71308304  0.09536318  1
  O  O19  1  0.00000000  0.10394255  0.29771821  1
  O  O20  1  0.50000000  0.20024487  0.59951027  1
  O  O21  1  0.50000000  0.59695574  0.80608851  1
  O  O22  1  0.50000000  0.00000000  0.00000000  1
  O  O23  1  0.50000000  0.40304426  0.19391149  1
  O  O24  1  0.50000000  0.79975513  0.40048973  1
