# generated using pymatgen
data_Dy3Si3Ni
_symmetry_space_group_name_H-M   'P 1'
_cell_length_a   3.96476799
_cell_length_b   4.13013376
_cell_length_c   9.20219616
_cell_angle_alpha   77.03180049
_cell_angle_beta   77.55953207
_cell_angle_gamma   90.00000000
_symmetry_Int_Tables_number   1
_chemical_formula_structural   Dy3Si3Ni
_chemical_formula_sum   'Dy3 Si3 Ni1'
_cell_volume   143.20990588
_cell_formula_units_Z   1
loop_
 _symmetry_equiv_pos_site_id
 _symmetry_equiv_pos_as_xyz
  1  'x, y, z'
loop_
 _atom_site_type_symbol
 _atom_site_label
 _atom_site_symmetry_multiplicity
 _atom_site_fract_x
 _atom_site_fract_y
 _atom_site_fract_z
 _atom_site_occupancy
  Dy  Dy0  1  0.68447198  0.18447198  0.63105603  1
  Dy  Dy1  1  0.31846645  0.81846645  0.36306709  1
  Dy  Dy2  1  0.99941602  0.99941602  0.00116796  1
  Si  Si3  1  0.86226844  0.36226844  0.27546313  1
  Si  Si4  1  0.14269079  0.64269079  0.71461842  1
  Si  Si5  1  0.55986228  0.55986228  0.88027545  1
  Ni  Ni6  1  0.43282404  0.43282404  0.13435192  1
