# generated using pymatgen
data_BaSr3Zr2Ti2O12
_symmetry_space_group_name_H-M   'P 1'
_cell_length_a   5.77735081
_cell_length_b   5.77735081
_cell_length_c   10.03170807
_cell_angle_alpha   90.01432583
_cell_angle_beta   106.74392562
_cell_angle_gamma   59.98738800
_symmetry_Int_Tables_number   1
_chemical_formula_structural   BaSr3Zr2Ti2O12
_chemical_formula_sum   'Ba1 Sr3 Zr2 Ti2 O12'
_cell_volume   273.43689254
_cell_formula_units_Z   1
loop_
 _symmetry_equiv_pos_site_id
 _symmetry_equiv_pos_as_xyz
  1  'x, y, z'
loop_
 _atom_site_type_symbol
 _atom_site_label
 _atom_site_symmetry_multiplicity
 _atom_site_fract_x
 _atom_site_fract_y
 _atom_site_fract_z
 _atom_site_occupancy
  Ba  Ba0  1  0.25575408  0.12200620  0.13374788  1
  Sr  Sr1  1  0.75049146  0.37473056  0.37576091  1
  Sr  Sr2  1  0.24287154  0.62876053  0.61411101  1
  Sr  Sr3  1  0.74906593  0.87548422  0.87358171  1
  Zr  Zr4  1  0.99503230  0.25251835  0.74251395  1
  Zr  Zr5  1  0.50386418  0.49805152  0.00581266  1
  Ti  Ti6  1  0.00532370  0.74726831  0.25805538  1
  Ti  Ti7  1  0.49771095  0.00117332  0.49653763  1
  O  O8  1  0.24501472  0.62739260  0.13525865  1
  O  O9  1  0.75551013  0.87218109  0.37821405  1
  O  O10  1  0.25553589  0.12228372  0.61481433  1
  O  O11  1  0.74501511  0.37755497  0.87168677  1
  O  O12  1  0.25039515  0.37729608  0.37821405  1
  O  O13  1  0.73709805  0.64072156  0.61481433  1
  O  O14  1  0.24924174  0.87332834  0.87168677  1
  O  O15  1  0.76265125  0.10975607  0.13525865  1
  O  O16  1  0.25038602  0.87211925  0.37826677  1
  O  O17  1  0.73699542  0.12234327  0.61465214  1
  O  O18  1  0.24921402  0.37763967  0.87157435  1
  O  O19  1  0.76282837  0.62739040  0.13543797  1
