# generated using pymatgen
data_Ba4Y2Cu6NiO15
_symmetry_space_group_name_H-M   'P 1'
_cell_length_a   3.91847441
_cell_length_b   3.88797576
_cell_length_c   25.46382799
_cell_angle_alpha   85.62160174
_cell_angle_beta   90.00000000
_cell_angle_gamma   90.00000000
_symmetry_Int_Tables_number   1
_chemical_formula_structural   Ba4Y2Cu6NiO15
_chemical_formula_sum   'Ba4 Y2 Cu6 Ni1 O15'
_cell_volume   386.80756572
_cell_formula_units_Z   1
loop_
 _symmetry_equiv_pos_site_id
 _symmetry_equiv_pos_as_xyz
  1  'x, y, z'
loop_
 _atom_site_type_symbol
 _atom_site_label
 _atom_site_symmetry_multiplicity
 _atom_site_fract_x
 _atom_site_fract_y
 _atom_site_fract_z
 _atom_site_occupancy
  Ba  Ba0  1  0.50000000  0.31173382  0.37653235  1
  Ba  Ba1  1  0.50000000  0.68844240  0.62311519  1
  Ba  Ba2  1  0.50000000  0.45814592  0.08370816  1
  Ba  Ba3  1  0.50000000  0.54208799  0.91582402  1
  Y  Y4  1  0.50000000  0.38475049  0.23049901  1
  Y  Y5  1  0.50000000  0.61581922  0.76836156  1
  Cu  Cu6  1  0.00000000  0.77012468  0.45975063  1
  Cu  Cu7  1  0.00000000  0.22922633  0.54154734  1
  Cu  Cu8  1  0.00000000  0.00000113  0.99999774  1
  Cu  Cu9  1  0.00000000  0.91841528  0.16316945  1
  Cu  Cu10  1  0.00000000  0.08143408  0.83713183  1
  Cu  Cu11  1  -0.00000000  0.85121937  0.29756126  1
  Ni  Ni12  1  -0.00000000  0.15119261  0.69761478  1
  O  O13  1  0.50000000  0.85581550  0.28836899  1
  O  O14  1  0.50000000  0.14406878  0.71186244  1
  O  O15  1  -0.00000000  0.26638293  0.46723414  1
  O  O16  1  -0.00000000  0.73287911  0.53424178  1
  O  O17  1  -0.00000000  0.80655621  0.38688757  1
  O  O18  1  -0.00000000  0.19216008  0.61567984  1
  O  O19  1  -0.00000000  0.96299661  0.07400678  1
  O  O20  1  -0.00000000  0.03692596  0.92614809  1
  O  O21  1  -0.00000000  0.35660527  0.28678947  1
  O  O22  1  -0.00000000  0.64333972  0.71332057  1
  O  O23  1  -0.00000000  0.41276189  0.17447621  1
  O  O24  1  -0.00000000  0.58708163  0.82583673  1
  O  O25  1  0.50000000  0.91228166  0.17543668  1
  O  O26  1  0.50000000  0.08759147  0.82481706  1
  O  O27  1  0.50000000  0.99995985  0.00008031  1
