# generated using pymatgen
data_Ba6YCu3O11
_symmetry_space_group_name_H-M   'P 1'
_cell_length_a   4.14141309
_cell_length_b   8.20291600
_cell_length_c   11.17535288
_cell_angle_alpha   100.57764289
_cell_angle_beta   79.32182883
_cell_angle_gamma   90.00000000
_symmetry_Int_Tables_number   1
_chemical_formula_structural   Ba6YCu3O11
_chemical_formula_sum   'Ba6 Y1 Cu3 O11'
_cell_volume   366.50419220
_cell_formula_units_Z   1
loop_
 _symmetry_equiv_pos_site_id
 _symmetry_equiv_pos_as_xyz
  1  'x, y, z'
loop_
 _atom_site_type_symbol
 _atom_site_label
 _atom_site_symmetry_multiplicity
 _atom_site_fract_x
 _atom_site_fract_y
 _atom_site_fract_z
 _atom_site_occupancy
  Ba  Ba0  1  0.50069997  0.25198993  0.99860006  1
  Ba  Ba1  1  0.50054636  0.74747279  0.99890728  1
  Ba  Ba2  1  0.31244272  0.34214870  0.37511456  1
  Ba  Ba3  1  0.31249865  0.84572728  0.37500270  1
  Ba  Ba4  1  0.68408535  0.65638099  0.63182930  1
  Ba  Ba5  1  0.68079743  0.16124184  0.63840514  1
  Y  Y6  1  0.90433544  0.04807898  0.19132911  1
  Cu  Cu7  1  0.09829601  0.94981714  0.80340797  1
  Cu  Cu8  1  0.09569107  0.45331442  0.80861786  1
  Cu  Cu9  1  0.90135749  0.54940522  0.19728503  1
  O  O10  1  0.18506325  0.41031962  0.62987350  1
  O  O11  1  0.18638538  0.90431321  0.62722925  1
  O  O12  1  0.80721336  0.59616261  0.38557329  1
  O  O13  1  0.79866971  0.10082337  0.40266059  1
  O  O14  1  0.00737341  0.49711623  0.98525317  1
  O  O15  1  0.01280374  0.99240377  0.97439253  1
  O  O16  1  0.09577585  0.19905898  0.80844830  1
  O  O17  1  0.09730483  0.70435588  0.80539035  1
  O  O18  1  0.90471061  0.77171669  0.19057877  1
  O  O19  1  0.90470261  0.32366093  0.19059477  1
  O  O20  1  0.40924676  0.04449143  0.18150647  1
