# generated using pymatgen
data_BaMg2V6(Cu4O13)2
_symmetry_space_group_name_H-M   'P 1'
_cell_length_a   6.08011060
_cell_length_b   8.40952610
_cell_length_c   10.89325795
_cell_angle_alpha   98.14491652
_cell_angle_beta   90.00000000
_cell_angle_gamma   90.00000000
_symmetry_Int_Tables_number   1
_chemical_formula_structural   BaMg2V6(Cu4O13)2
_chemical_formula_sum   'Ba1 Mg2 V6 Cu8 O26'
_cell_volume   551.36319404
_cell_formula_units_Z   1
loop_
 _symmetry_equiv_pos_site_id
 _symmetry_equiv_pos_as_xyz
  1  'x, y, z'
loop_
 _atom_site_type_symbol
 _atom_site_label
 _atom_site_symmetry_multiplicity
 _atom_site_fract_x
 _atom_site_fract_y
 _atom_site_fract_z
 _atom_site_occupancy
  Ba  Ba0  1  0.75000000  0.51395586  0.91150301  1
  Mg  Mg1  1  0.75000000  0.80980382  0.15091370  1
  Mg  Mg2  1  0.25000000  0.19680332  0.86576672  1
  V  V3  1  0.75000000  0.46905470  0.28832735  1
  V  V4  1  0.25000000  0.53131587  0.70767942  1
  V  V5  1  0.75000000  0.12819129  0.99767603  1
  V  V6  1  0.25000000  0.86237253  0.00208243  1
  V  V7  1  0.75000000  0.17895790  0.62554339  1
  V  V8  1  0.25000000  0.81872281  0.37271723  1
  Cu  Cu9  1  0.50049313  0.89463135  0.73012538  1
  Cu  Cu10  1  0.00033482  0.10640778  0.27073890  1
  Cu  Cu11  1  0.49966518  0.10640778  0.27073890  1
  Cu  Cu12  1  0.99950687  0.89463135  0.73012538  1
  Cu  Cu13  1  0.75000000  0.60166572  0.60120288  1
  Cu  Cu14  1  0.25000000  0.39813949  0.38772254  1
  Cu  Cu15  1  0.75000000  0.85689122  0.44118750  1
  Cu  Cu16  1  0.25000000  0.14382314  0.55773254  1
  O  O17  1  0.75000000  0.84312442  0.62049667  1
  O  O18  1  0.25000000  0.15804473  0.37845923  1
  O  O19  1  0.75000000  0.38320615  0.63328106  1
  O  O20  1  0.25000000  0.61930508  0.37579767  1
  O  O21  1  0.75000000  0.61771265  0.42309031  1
  O  O22  1  0.25000000  0.38504413  0.57365314  1
  O  O23  1  0.75000000  0.09209885  0.47141845  1
  O  O24  1  0.25000000  0.90840226  0.52687572  1
  O  O25  1  0.75000000  0.96482391  0.88792928  1
  O  O26  1  0.25000000  0.02811120  0.10914662  1
  O  O27  1  0.75000000  0.06111141  0.15926536  1
  O  O28  1  0.25000000  0.94000986  0.84291546  1
  O  O29  1  0.52177987  0.33870951  0.28140315  1
  O  O30  1  0.01448410  0.65825401  0.72378714  1
  O  O31  1  0.48551590  0.65825401  0.72378714  1
  O  O32  1  0.97822013  0.33870951  0.28140315  1
  O  O33  1  0.52639305  0.24415421  0.97038693  1
  O  O34  1  0.01077482  0.75828544  0.02358633  1
  O  O35  1  0.48922518  0.75828544  0.02358633  1
  O  O36  1  0.97360695  0.24415421  0.97038693  1
  O  O37  1  0.75000000  0.57119287  0.16387618  1
  O  O38  1  0.25000000  0.42914794  0.83187723  1
  O  O39  1  0.50255506  0.87643968  0.29984035  1
  O  O40  1  0.00043395  0.12410145  0.69966326  1
  O  O41  1  0.49956605  0.12410145  0.69966326  1
  O  O42  1  0.99744494  0.87643968  0.29984035  1
