# generated using pymatgen
data_Ba10Y5Cu15O34
_symmetry_space_group_name_H-M   'P 1'
_cell_length_a   8.65296325
_cell_length_b   8.78372929
_cell_length_c   12.52970648
_cell_angle_alpha   106.43646337
_cell_angle_beta   98.25668672
_cell_angle_gamma   88.86952338
_symmetry_Int_Tables_number   1
_chemical_formula_structural   Ba10Y5Cu15O34
_chemical_formula_sum   'Ba10 Y5 Cu15 O34'
_cell_volume   903.71930912
_cell_formula_units_Z   1
loop_
 _symmetry_equiv_pos_site_id
 _symmetry_equiv_pos_as_xyz
  1  'x, y, z'
loop_
 _atom_site_type_symbol
 _atom_site_label
 _atom_site_symmetry_multiplicity
 _atom_site_fract_x
 _atom_site_fract_y
 _atom_site_fract_z
 _atom_site_occupancy
  Ba  Ba0  1  0.73630090  0.97266349  0.18162068  1
  Ba  Ba1  1  0.94433910  0.37195265  0.18789146  1
  Ba  Ba2  1  0.13601879  0.77293027  0.18131201  1
  Ba  Ba3  1  0.33646111  0.17205887  0.18124102  1
  Ba  Ba4  1  0.53079733  0.57830248  0.18788458  1
  Ba  Ba5  1  0.86920267  0.22169752  0.81211542  1
  Ba  Ba6  1  0.06353889  0.62794113  0.81875898  1
  Ba  Ba7  1  0.26398121  0.02706973  0.81868799  1
  Ba  Ba8  1  0.45566090  0.42804735  0.81210854  1
  Ba  Ba9  1  0.66369910  0.82733651  0.81837932  1
  Y  Y10  1  0.60047070  0.70028257  0.50083632  1
  Y  Y11  1  0.40001561  0.29961022  0.49912619  1
  Y  Y12  1  0.20000000  0.90000000  0.50000000  1
  Y  Y13  1  -0.00001561  0.50038978  0.50087381  1
  Y  Y14  1  0.79952930  0.09971743  0.49916368  1
  Cu  Cu15  1  0.87130310  0.74247420  0.35760802  1
  Cu  Cu16  1  0.67179205  0.34355164  0.35740993  1
  Cu  Cu17  1  0.47113791  0.94319028  0.35619533  1
  Cu  Cu18  1  0.27131952  0.54255886  0.35643158  1
  Cu  Cu19  1  0.07115981  0.14169518  0.35617007  1
  Cu  Cu20  1  0.92886209  0.85680972  0.64380467  1
  Cu  Cu21  1  0.72820795  0.45644836  0.64259007  1
  Cu  Cu22  1  0.52869690  0.05752580  0.64239198  1
  Cu  Cu23  1  0.32884019  0.65830482  0.64382993  1
  Cu  Cu24  1  0.12868048  0.25744114  0.64356842  1
  Cu  Cu25  1  0.80665295  0.61294078  0.00007341  1
  Cu  Cu26  1  0.59334705  0.18705922  0.99992659  1
  Cu  Cu27  1  0.39906852  0.79624034  0.00005624  1
  Cu  Cu28  1  0.20000000  0.40000000  0.00000000  1
  Cu  Cu29  1  0.00093148  0.00375966  -0.00005624  1
  O  O30  1  0.67577956  0.85183753  0.37956101  1
  O  O31  1  0.47574698  0.45201691  0.37959963  1
  O  O32  1  0.27605160  0.05198498  0.37990803  1
  O  O33  1  0.07590862  0.65179557  0.37960799  1
  O  O34  1  0.87610674  0.25174205  0.37957799  1
  O  O35  1  0.72422044  0.94816247  0.62043899  1
  O  O36  1  0.52389326  0.54825795  0.62042201  1
  O  O37  1  0.32409138  0.14820443  0.62039201  1
  O  O38  1  0.12394840  0.74801502  0.62009197  1
  O  O39  1  0.92425302  0.34798309  0.62040037  1
  O  O40  1  0.77605281  0.55182361  0.37920105  1
  O  O41  1  0.57581294  0.15145274  0.37737236  1
  O  O42  1  0.37587910  0.75108008  0.37787685  1
  O  O43  1  0.17511231  0.35123310  0.37794979  1
  O  O44  1  0.97508528  0.95041405  0.37783595  1
  O  O45  1  0.82418706  0.64854726  0.62262764  1
  O  O46  1  0.62394719  0.24817639  0.62079895  1
  O  O47  1  0.42491472  0.84958595  0.62216405  1
  O  O48  1  0.22488769  0.44876690  0.62205021  1
  O  O49  1  0.02412090  0.04891992  0.62212315  1
  O  O50  1  0.82293116  0.64700704  0.15226395  1
  O  O51  1  0.63806473  0.27476756  0.15226627  1
  O  O52  1  0.43109360  0.86320020  0.15952590  1
  O  O53  1  0.23197266  0.46388726  0.15970006  1
  O  O54  1  0.03271488  0.06424834  0.15954921  1
  O  O55  1  0.96890640  0.93679980  0.84047410  1
  O  O56  1  0.76193527  0.52523244  0.84773373  1
  O  O57  1  0.57706884  0.15299296  0.84773605  1
  O  O58  1  0.36728512  0.73575166  0.84045079  1
  O  O59  1  0.16802734  0.33611274  0.84029994  1
  O  O60  1  0.90580365  0.81201206  -0.00000279  1
  O  O61  1  0.09969098  0.20656323  0.00010428  1
  O  O62  1  0.30030902  0.59343677  0.99989572  1
  O  O63  1  0.49419635  0.98798794  0.00000279  1
