# generated using pymatgen
data_Ba3CaLa2Cu6O13
_symmetry_space_group_name_H-M   'P 1'
_cell_length_a   5.57361763
_cell_length_b   5.57361763
_cell_length_c   12.44992488
_cell_angle_alpha   77.52344635
_cell_angle_beta   77.52344635
_cell_angle_gamma   90.97586381
_symmetry_Int_Tables_number   1
_chemical_formula_structural   Ba3CaLa2Cu6O13
_chemical_formula_sum   'Ba3 Ca1 La2 Cu6 O13'
_cell_volume   367.88409263
_cell_formula_units_Z   1
loop_
 _symmetry_equiv_pos_site_id
 _symmetry_equiv_pos_as_xyz
  1  'x, y, z'
loop_
 _atom_site_type_symbol
 _atom_site_label
 _atom_site_symmetry_multiplicity
 _atom_site_fract_x
 _atom_site_fract_y
 _atom_site_fract_z
 _atom_site_occupancy
  Ba  Ba0  1  0.58517956  0.08517956  0.81716068  1
  Ba  Ba1  1  0.10074138  0.60074138  0.81296485  1
  Ba  Ba2  1  0.91623426  0.41623426  0.18235866  1
  Ca  Ca3  1  0.41329517  0.91329517  0.20790023  1
  La  La4  1  0.25061772  0.75061772  0.49840681  1
  La  La5  1  0.75158143  0.25158143  0.49610911  1
  Cu  Cu6  1  0.17558183  0.17817212  0.64663461  1
  Cu  Cu7  1  0.67817212  0.67558183  0.64663461  1
  Cu  Cu8  1  0.32967390  0.32908385  0.34285713  1
  Cu  Cu9  1  0.82908385  0.82967390  0.34285713  1
  Cu  Cu10  1  0.48500926  0.50579267  0.00620282  1
  Cu  Cu11  1  0.00579267  0.98500926  0.00620282  1
  O  O12  1  0.05775292  0.09630622  0.85278893  1
  O  O13  1  0.59630622  0.55775292  0.85278893  1
  O  O14  1  0.43521798  0.35268819  0.15489012  1
  O  O15  1  0.85268819  0.93521798  0.15489012  1
  O  O16  1  0.43476697  0.93476697  0.63334446  1
  O  O17  1  0.93547052  0.43547052  0.62799648  1
  O  O18  1  0.93488243  0.93639476  0.62901240  1
  O  O19  1  0.43639476  0.43488243  0.62901240  1
  O  O20  1  0.56273819  0.06273819  0.36485644  1
  O  O21  1  0.08072249  0.58072249  0.35363966  1
  O  O22  1  0.07188426  0.06628387  0.36210845  1
  O  O23  1  0.56628387  0.57188426  0.36210845  1
  O  O24  1  0.26392806  0.76392806  0.01627371  1
