# generated using pymatgen
data_Ba12V4O19
_symmetry_space_group_name_H-M   'P 1'
_cell_length_a   7.98237730
_cell_length_b   7.98237730
_cell_length_c   10.43099479
_cell_angle_alpha   89.94698589
_cell_angle_beta   90.05301411
_cell_angle_gamma   81.33520914
_symmetry_Int_Tables_number   1
_chemical_formula_structural   Ba12V4O19
_chemical_formula_sum   'Ba12 V4 O19'
_cell_volume   657.05925458
_cell_formula_units_Z   1
loop_
 _symmetry_equiv_pos_site_id
 _symmetry_equiv_pos_as_xyz
  1  'x, y, z'
loop_
 _atom_site_type_symbol
 _atom_site_label
 _atom_site_symmetry_multiplicity
 _atom_site_fract_x
 _atom_site_fract_y
 _atom_site_fract_z
 _atom_site_occupancy
  Ba  Ba0  1  0.26307690  0.26307690  0.50000000  1
  Ba  Ba1  1  0.74594604  0.74594604  -0.00000000  1
  Ba  Ba2  1  0.25405396  0.25405396  -0.00000000  1
  Ba  Ba3  1  0.73692310  0.73692310  0.50000000  1
  Ba  Ba4  1  0.57400673  0.42599327  0.75440946  1
  Ba  Ba5  1  0.07100848  0.92899152  0.23794789  1
  Ba  Ba6  1  0.42599327  0.57400673  0.24559054  1
  Ba  Ba7  1  0.92899152  0.07100848  0.76205211  1
  Ba  Ba8  1  0.74720933  0.25279067  0.07274800  1
  Ba  Ba9  1  0.25824835  0.74175165  0.57302526  1
  Ba  Ba10  1  0.25279067  0.74720933  0.92725200  1
  Ba  Ba11  1  0.74175165  0.25824835  0.42697474  1
  V  V12  1  0.00080371  0.49919980  0.74653137  1
  V  V13  1  0.49919980  0.00080371  0.25346863  1
  V  V14  1  0.50080020  0.99919629  0.74653137  1
  V  V15  1  0.99919629  0.50080020  0.25346863  1
  O  O16  1  0.95997228  0.73359257  0.73793600  1
  O  O17  1  0.45956420  0.23527234  0.25209906  1
  O  O18  1  0.23527234  0.45956420  0.74790094  1
  O  O19  1  0.73359257  0.95997228  0.26206400  1
  O  O20  1  0.60586175  0.09252786  0.61160935  1
  O  O21  1  0.09439042  0.59456521  0.11334212  1
  O  O22  1  0.59456521  0.09439042  0.88665788  1
  O  O23  1  0.09252786  0.60586175  0.38839065  1
  O  O24  1  0.54043580  0.76472766  0.74790094  1
  O  O25  1  0.04002772  0.26640743  0.26206400  1
  O  O26  1  0.26640743  0.04002772  0.73793600  1
  O  O27  1  0.76472766  0.54043580  0.25209906  1
  O  O28  1  0.90560958  0.40543479  0.88665788  1
  O  O29  1  0.39413825  0.90747214  0.38839065  1
  O  O30  1  0.90747214  0.39413825  0.61160935  1
  O  O31  1  0.40543479  0.90560958  0.11334212  1
  O  O32  1  0.50000000  0.50000000  -0.00000000  1
  O  O33  1  0.00000000  0.00000000  -0.00000000  1
  O  O34  1  0.50000000  0.50000000  0.50000000  1
