# generated using pymatgen
data_CdFe4Cu10(SnSe4)5
_symmetry_space_group_name_H-M   'P 1'
_cell_length_a   10.79069542
_cell_length_b   10.79069542
_cell_length_c   10.79069542
_cell_angle_alpha   73.80946096
_cell_angle_beta   106.19053904
_cell_angle_gamma   63.74704583
_symmetry_Int_Tables_number   1
_chemical_formula_structural   CdFe4Cu10(SnSe4)5
_chemical_formula_sum   'Cd1 Fe4 Cu10 Sn5 Se20'
_cell_volume   956.94317006
_cell_formula_units_Z   1
loop_
 _symmetry_equiv_pos_site_id
 _symmetry_equiv_pos_as_xyz
  1  'x, y, z'
loop_
 _atom_site_type_symbol
 _atom_site_label
 _atom_site_symmetry_multiplicity
 _atom_site_fract_x
 _atom_site_fract_y
 _atom_site_fract_z
 _atom_site_occupancy
  Cd  Cd0  1  -0.00000000  -0.00000000  0.00000000  1
  Fe  Fe1  1  0.80023976  0.39947324  0.40029602  1
  Fe  Fe2  1  0.60005627  0.80023976  0.80028700  1
  Fe  Fe3  1  0.39947324  0.20023074  0.19971300  1
  Fe  Fe4  1  0.20023074  0.60005627  0.59970398  1
  Cu  Cu5  1  0.64596771  0.45300683  0.69663061  1
  Cu  Cu6  1  0.25000000  0.25000000  0.50000000  1
  Cu  Cu7  1  0.85036256  0.05066290  0.30336939  1
  Cu  Cu8  1  0.45300683  0.85036256  0.09897455  1
  Cu  Cu9  1  0.05066290  0.64596771  0.90102545  1
  Cu  Cu10  1  0.75000000  0.75000000  0.50000000  1
  Cu  Cu11  1  0.35155628  0.54574018  0.30181583  1
  Cu  Cu12  1  0.95025955  0.35155628  0.10270353  1
  Cu  Cu13  1  0.54574018  0.15244399  0.89729647  1
  Cu  Cu14  1  0.15244399  0.95025955  0.69818417  1
  Sn  Sn15  1  0.30091249  0.90089470  0.40245895  1
  Sn  Sn16  1  0.90089470  0.69664636  0.20180719  1
  Sn  Sn17  1  0.50000000  0.50000000  0.00000000  1
  Sn  Sn18  1  0.10154645  0.30091249  0.79819281  1
  Sn  Sn19  1  0.69664636  0.10154645  0.59754105  1
  Se  Se20  1  0.67125826  0.02074951  0.38661071  1
  Se  Se21  1  0.47237629  0.42035918  0.78541388  1
  Se  Se22  1  0.29659468  0.80504019  0.20297496  1
  Se  Se23  1  0.07238043  0.22026218  0.58518457  1
  Se  Se24  1  0.87133520  0.62239292  0.98553520  1
  Se  Se25  1  0.99198485  0.90638028  0.79702504  1
  Se  Se26  1  0.79422694  0.31303759  0.21458612  1
  Se  Se27  1  0.59263978  0.71535245  0.61338929  1
  Se  Se28  1  0.39207188  0.11420000  0.01446480  1
  Se  Se29  1  0.19455325  0.51280414  0.41481543  1
  Se  Se30  1  0.42035918  0.79422694  0.89273547  1
  Se  Se31  1  0.22026218  0.19455325  0.29264261  1
  Se  Se32  1  0.02074951  0.59263978  0.69200777  1
  Se  Se33  1  0.80504019  0.99198485  0.10163487  1
  Se  Se34  1  0.62239292  0.39207188  0.49372813  1
  Se  Se35  1  0.31303759  0.47237629  0.10726453  1
  Se  Se36  1  0.11420000  0.87133520  0.50627187  1
  Se  Se37  1  0.90638028  0.29659468  0.89836513  1
  Se  Se38  1  0.71535245  0.67125826  0.30799223  1
  Se  Se39  1  0.51280414  0.07238043  0.70735739  1
