# generated using pymatgen
data_Al2CrFeCo4
_symmetry_space_group_name_H-M   'P 1'
_cell_length_a   4.03088811
_cell_length_b   4.03088812
_cell_length_c   6.97301587
_cell_angle_alpha   73.19981544
_cell_angle_beta   90.00000000
_cell_angle_gamma   120.00000006
_symmetry_Int_Tables_number   1
_chemical_formula_structural   Al2CrFeCo4
_chemical_formula_sum   'Al2 Cr1 Fe1 Co4'
_cell_volume   92.49298749
_cell_formula_units_Z   1
loop_
 _symmetry_equiv_pos_site_id
 _symmetry_equiv_pos_as_xyz
  1  'x, y, z'
loop_
 _atom_site_type_symbol
 _atom_site_label
 _atom_site_symmetry_multiplicity
 _atom_site_fract_x
 _atom_site_fract_y
 _atom_site_fract_z
 _atom_site_occupancy
  Al  Al0  1  0.25044340  0.50088681  0.24866979  1
  Al  Al1  1  0.74955660  0.49911319  0.75133021  1
  Cr  Cr2  1  0.00000000  -0.00000000  0.00000000  1
  Fe  Fe3  1  0.50000000  -0.00000000  0.50000000  1
  Co  Co4  1  0.62485940  0.24971880  0.12542180  1
  Co  Co5  1  0.12538503  0.25077006  0.62384491  1
  Co  Co6  1  0.87461497  0.74922994  0.37615509  1
  Co  Co7  1  0.37514060  0.75028120  0.87457820  1
