# generated using pymatgen
data_Mn5SiC
_symmetry_space_group_name_H-M   'P 1'
_cell_length_a   6.36045514
_cell_length_b   6.36045532
_cell_length_c   7.49734988
_cell_angle_alpha   90.00000000
_cell_angle_beta   90.00000000
_cell_angle_gamma   103.86529312
_symmetry_Int_Tables_number   1
_chemical_formula_structural   Mn5SiC
_chemical_formula_sum   'Mn20 Si4 C4'
_cell_volume   294.47037019
_cell_formula_units_Z   4
loop_
 _symmetry_equiv_pos_site_id
 _symmetry_equiv_pos_as_xyz
  1  'x, y, z'
loop_
 _atom_site_type_symbol
 _atom_site_label
 _atom_site_symmetry_multiplicity
 _atom_site_fract_x
 _atom_site_fract_y
 _atom_site_fract_z
 _atom_site_occupancy
  Mn  Mn0  1  0.12595244  0.87410794  0.43866733  1
  Mn  Mn1  1  0.87404756  0.12589206  0.93866733  1
  Mn  Mn2  1  0.12589206  0.87404756  0.93866733  1
  Mn  Mn3  1  0.87410794  0.12595244  0.43866733  1
  Mn  Mn4  1  0.29942590  0.06405393  0.68862823  1
  Mn  Mn5  1  0.70057410  0.93594607  0.18862823  1
  Mn  Mn6  1  0.93594607  0.70057410  0.18862823  1
  Mn  Mn7  1  0.06405393  0.29942590  0.68862823  1
  Mn  Mn8  1  0.48401698  0.19265609  0.00346701  1
  Mn  Mn9  1  0.51598302  0.80734391  0.50346701  1
  Mn  Mn10  1  0.80734391  0.51598302  0.50346701  1
  Mn  Mn11  1  0.19265609  0.48401698  0.00346701  1
  Mn  Mn12  1  0.86575289  0.86575289  0.68872684  1
  Mn  Mn13  1  0.13424711  0.13424711  0.18872684  1
  Mn  Mn14  1  0.53291693  0.53291693  0.18870769  1
  Mn  Mn15  1  0.46708307  0.46708307  0.68870769  1
  Mn  Mn16  1  0.19269464  0.48402997  0.37389880  1
  Mn  Mn17  1  0.80730536  0.51597003  0.87389880  1
  Mn  Mn18  1  0.51597003  0.80730536  0.87389880  1
  Mn  Mn19  1  0.48402997  0.19269464  0.37389880  1
  Si  Si20  1  0.82397421  0.33439646  0.18870618  1
  Si  Si21  1  0.17602579  0.66560354  0.68870618  1
  Si  Si22  1  0.66560354  0.17602579  0.68870618  1
  Si  Si23  1  0.33439646  0.82397421  0.18870618  1
  C  C24  1  0.80697193  0.80697193  0.40402693  1
  C  C25  1  0.19302807  0.19302807  0.90402693  1
  C  C26  1  0.80684378  0.80684378  0.97320445  1
  C  C27  1  0.19315622  0.19315622  0.47320445  1
