# generated using pymatgen
data_Ca4Mn2O7
_symmetry_space_group_name_H-M   'P 1'
_cell_length_a   5.50159916
_cell_length_b   6.72276306
_cell_length_c   10.08758192
_cell_angle_alpha   90.00000000
_cell_angle_beta   90.00000000
_cell_angle_gamma   114.15314159
_symmetry_Int_Tables_number   1
_chemical_formula_structural   Ca4Mn2O7
_chemical_formula_sum   'Ca8 Mn4 O14'
_cell_volume   340.43586628
_cell_formula_units_Z   2
loop_
 _symmetry_equiv_pos_site_id
 _symmetry_equiv_pos_as_xyz
  1  'x, y, z'
loop_
 _atom_site_type_symbol
 _atom_site_label
 _atom_site_symmetry_multiplicity
 _atom_site_fract_x
 _atom_site_fract_y
 _atom_site_fract_z
 _atom_site_occupancy
  O  O0  1  0.50000000  0.00000000  0.50000000  1
  O  O1  1  0.00000000  0.00000000  0.00000000  1
  O  O2  1  0.08498443  0.00000000  0.69541661  1
  O  O3  1  0.58498443  0.00000000  0.80458339  1
  O  O4  1  0.41501557  0.00000000  0.19541661  1
  O  O5  1  0.91501557  0.00000000  0.30458339  1
  O  O6  1  0.57674859  0.67705134  0.11987364  1
  O  O7  1  0.39969726  0.32294866  0.38012636  1
  O  O8  1  0.92325141  0.32294866  0.61987364  1
  O  O9  1  0.10030274  0.67705134  0.88012636  1
  O  O10  1  0.42325141  0.32294866  0.88012636  1
  O  O11  1  0.60030274  0.67705134  0.61987364  1
  O  O12  1  0.89969726  0.32294866  0.11987364  1
  O  O13  1  0.07674859  0.67705134  0.38012636  1
  Ca  Ca14  1  0.35339798  0.30311842  0.12559190  1
  Ca  Ca15  1  0.55027956  0.69688158  0.37440810  1
  Ca  Ca16  1  0.14660202  0.69688158  0.62559190  1
  Ca  Ca17  1  0.94972044  0.30311842  0.87440810  1
  Ca  Ca18  1  0.05027956  0.69688158  0.12559190  1
  Ca  Ca19  1  0.85339798  0.30311842  0.37440810  1
  Ca  Ca20  1  0.44972044  0.30311842  0.62559190  1
  Ca  Ca21  1  0.64660202  0.69688158  0.87440810  1
  Mn  Mn22  1  0.73095613  0.00000000  0.12467699  1
  Mn  Mn23  1  0.23095613  0.00000000  0.37532301  1
  Mn  Mn24  1  0.76904387  0.00000000  0.62467699  1
  Mn  Mn25  1  0.26904387  0.00000000  0.87532301  1
