# generated using pymatgen
data_CeSe2
_symmetry_space_group_name_H-M   'P 1'
_cell_length_a   4.21209302
_cell_length_b   8.41749365
_cell_length_c   8.33166708
_cell_angle_alpha   90.00266671
_cell_angle_beta   90.00000000
_cell_angle_gamma   90.00000000
_symmetry_Int_Tables_number   1
_chemical_formula_structural   CeSe2
_chemical_formula_sum   'Ce4 Se8'
_cell_volume   295.40147445
_cell_formula_units_Z   4
loop_
 _symmetry_equiv_pos_site_id
 _symmetry_equiv_pos_as_xyz
  1  'x, y, z'
loop_
 _atom_site_type_symbol
 _atom_site_label
 _atom_site_symmetry_multiplicity
 _atom_site_fract_x
 _atom_site_fract_y
 _atom_site_fract_z
 _atom_site_occupancy
  Ce  Ce0  1  0.24569190  0.62510476  0.26974206  1
  Ce  Ce1  1  0.74569190  0.87489524  0.73025794  1
  Ce  Ce2  1  0.75430810  0.37489524  0.73025794  1
  Ce  Ce3  1  0.25430810  0.12510476  0.26974206  1
  Se  Se4  1  0.25872687  0.37510018  -0.00003824  1
  Se  Se5  1  0.75872687  0.12489982  0.00003824  1
  Se  Se6  1  0.74127313  0.62489982  0.00003824  1
  Se  Se7  1  0.24127313  0.87510018  -0.00003824  1
  Se  Se8  1  0.25092948  0.12495775  0.63570361  1
  Se  Se9  1  0.75092948  0.37504225  0.36429639  1
  Se  Se10  1  0.74907052  0.87504225  0.36429639  1
  Se  Se11  1  0.24907052  0.62495775  0.63570361  1
