# generated using pymatgen
data_Nb2Zn3O8
_symmetry_space_group_name_H-M   'P 1'
_cell_length_a   5.27124549
_cell_length_b   5.98027966
_cell_length_c   10.13770883
_cell_angle_alpha   107.15467292
_cell_angle_beta   90.13547244
_cell_angle_gamma   90.00000001
_symmetry_Int_Tables_number   1
_chemical_formula_structural   Nb2Zn3O8
_chemical_formula_sum   'Nb4 Zn6 O16'
_cell_volume   305.35804428
_cell_formula_units_Z   2
loop_
 _symmetry_equiv_pos_site_id
 _symmetry_equiv_pos_as_xyz
  1  'x, y, z'
loop_
 _atom_site_type_symbol
 _atom_site_label
 _atom_site_symmetry_multiplicity
 _atom_site_fract_x
 _atom_site_fract_y
 _atom_site_fract_z
 _atom_site_occupancy
  O  O0  1  0.91427013  0.43290652  0.11616953  1
  O  O1  1  0.58572987  0.31673699  0.88383047  1
  O  O2  1  0.08572987  0.56709348  0.88383047  1
  O  O3  1  0.41427013  0.68326301  0.11616953  1
  O  O4  1  0.57546605  0.81520857  0.86065741  1
  O  O5  1  0.92453395  0.95455116  0.13934259  1
  O  O6  1  0.42453395  0.18479143  0.13934259  1
  O  O7  1  0.07546605  0.04544884  0.86065741  1
  O  O8  1  0.63151776  0.54814344  0.38577001  1
  O  O9  1  0.86848224  0.16237343  0.61422999  1
  O  O10  1  0.44277423  0.92290983  0.64016985  1
  O  O11  1  0.05722577  0.28273998  0.35983015  1
  O  O12  1  0.55722577  0.07709017  0.35983015  1
  O  O13  1  0.94277423  0.71726002  0.64016985  1
  O  O14  1  0.13151776  0.83762657  0.38577001  1
  O  O15  1  0.36848224  0.45185656  0.61422999  1
  Zn  Zn16  1  0.25000000  0.34662957  0.00000000  1
  Zn  Zn17  1  0.75000000  0.65337043  0.00000000  1
  Zn  Zn18  1  0.23840462  0.12482834  0.55850552  1
  Zn  Zn19  1  0.26159538  0.56632282  0.44149448  1
  Zn  Zn20  1  0.73840462  0.43367718  0.55850552  1
  Zn  Zn21  1  0.76159538  0.87517166  0.44149448  1
  Nb  Nb22  1  0.26309506  0.95110759  0.22915167  1
  Nb  Nb23  1  0.23690494  0.72195592  0.77084833  1
  Nb  Nb24  1  0.73690494  0.04889241  0.77084833  1
  Nb  Nb25  1  0.76309506  0.27804408  0.22915167  1
