# generated using pymatgen
data_Ho4(B2O5)3
_symmetry_space_group_name_H-M   'P 1'
_cell_length_a   4.39843796
_cell_length_b   6.25543923
_cell_length_c   18.88972246
_cell_angle_alpha   96.02219360
_cell_angle_beta   90.00000000
_cell_angle_gamma   110.58331677
_symmetry_Int_Tables_number   1
_chemical_formula_structural   Ho4(B2O5)3
_chemical_formula_sum   'Ho8 B12 O30'
_cell_volume   483.49097483
_cell_formula_units_Z   2
loop_
 _symmetry_equiv_pos_site_id
 _symmetry_equiv_pos_as_xyz
  1  'x, y, z'
loop_
 _atom_site_type_symbol
 _atom_site_label
 _atom_site_symmetry_multiplicity
 _atom_site_fract_x
 _atom_site_fract_y
 _atom_site_fract_z
 _atom_site_occupancy
  B  B0  1  0.02184598  0.66138369  0.02583404  1
  B  B1  1  0.36046229  0.33861631  0.47416596  1
  B  B2  1  0.97815402  0.33861631  0.97416596  1
  B  B3  1  0.63953771  0.66138369  0.52583404  1
  B  B4  1  0.65924154  0.86434427  0.30571302  1
  B  B5  1  0.79489728  0.13565573  0.19428698  1
  B  B6  1  0.34075846  0.13565573  0.69428698  1
  B  B7  1  0.20510272  0.86434427  0.80571302  1
  B  B8  1  0.60922038  0.80588652  0.08748833  1
  B  B9  1  0.80333386  0.19411348  0.41251167  1
  B  B10  1  0.39077962  0.19411348  0.91251167  1
  B  B11  1  0.19666614  0.80588652  0.58748833  1
  O  O12  1  0.43844870  0.36160091  0.86122805  1
  O  O13  1  0.56155130  0.63839909  0.13877195  1
  O  O14  1  0.50554513  0.41700015  0.54926049  1
  O  O15  1  0.08854498  0.58299985  0.95073951  1
  O  O16  1  0.49445487  0.58299985  0.45073951  1
  O  O17  1  0.91145502  0.41700015  0.04926049  1
  O  O18  1  0.19015168  0.02817856  0.62150457  1
  O  O19  1  0.16197312  0.97182144  0.87849543  1
  O  O20  1  0.92315221  0.36160091  0.36122805  1
  O  O21  1  0.83802688  0.02817856  0.12150457  1
  O  O22  1  0.53344859  0.86868929  0.80318334  1
  O  O23  1  0.66475930  0.13131071  0.69681666  1
  O  O24  1  0.46655141  0.13131071  0.19681666  1
  O  O25  1  0.33524070  0.86868929  0.30318334  1
  O  O26  1  0.54117225  0.82935985  0.57062574  1
  O  O27  1  0.71181240  0.17064015  0.92937426  1
  O  O28  1  0.45882775  0.17064015  0.42937426  1
  O  O29  1  0.28818760  0.82935985  0.07062574  1
  O  O30  1  0.00741971  0.25449900  0.47896687  1
  O  O31  1  0.75292070  0.74550100  0.02103313  1
  O  O32  1  0.99258029  0.74550100  0.52103313  1
  O  O33  1  0.24707930  0.25449900  0.97896687  1
  O  O34  1  0.31435094  0.36301742  0.70347089  1
  O  O35  1  0.95133352  0.63698258  0.79652911  1
  O  O36  1  0.68564906  0.63698258  0.29652911  1
  O  O37  1  0.04866648  0.36301742  0.20347089  1
  O  O38  1  0.86668821  0.00000000  0.25000000  1
  O  O39  1  0.13331179  0.00000000  0.75000000  1
  O  O40  1  0.80984832  0.97182144  0.37849543  1
  O  O41  1  0.07684779  0.63839909  0.63877195  1
  Ho  Ho42  1  0.33227789  0.26765619  0.09905982  1
  Ho  Ho43  1  0.06462170  0.73234381  0.40094018  1
  Ho  Ho44  1  0.66772211  0.73234381  0.90094018  1
  Ho  Ho45  1  0.93537830  0.26765619  0.59905982  1
  Ho  Ho46  1  0.07290694  0.72568130  0.19707869  1
  Ho  Ho47  1  0.34722564  0.27431870  0.30292131  1
  Ho  Ho48  1  0.92709306  0.27431870  0.80292131  1
  Ho  Ho49  1  0.65277436  0.72568130  0.69707869  1
