# generated using pymatgen
data_Al2Co3(SiO4)3
_symmetry_space_group_name_H-M   'P 1'
_cell_length_a   10.01922904
_cell_length_b   10.01922905
_cell_length_c   10.01922904
_cell_angle_alpha   109.47122060
_cell_angle_beta   109.47122061
_cell_angle_gamma   109.47122067
_symmetry_Int_Tables_number   1
_chemical_formula_structural   Al2Co3(SiO4)3
_chemical_formula_sum   'Al8 Co12 Si12 O48'
_cell_volume   774.24966073
_cell_formula_units_Z   4
loop_
 _symmetry_equiv_pos_site_id
 _symmetry_equiv_pos_as_xyz
  1  'x, y, z'
loop_
 _atom_site_type_symbol
 _atom_site_label
 _atom_site_symmetry_multiplicity
 _atom_site_fract_x
 _atom_site_fract_y
 _atom_site_fract_z
 _atom_site_occupancy
  O  O0  1  0.29606118  0.48242500  0.38068444  1
  O  O1  1  0.01757475  0.31363608  0.89825922  1
  O  O2  1  0.11931570  0.60174107  0.91537699  1
  O  O3  1  0.20393818  0.58462265  0.18636374  1
  O  O4  1  0.20393772  0.11931485  0.01757433  1
  O  O5  1  0.58462222  0.18636304  0.20393773  1
  O  O6  1  0.60174048  0.18636304  0.48242492  1
  O  O7  1  0.18636380  0.20393838  0.58462356  1
  O  O8  1  0.89825961  0.38068427  0.58462284  1
  O  O9  1  0.31363675  0.91537714  0.29606227  1
  O  O10  1  0.91537720  0.29606196  0.31363653  1
  O  O11  1  0.01757458  0.20393838  0.11931499  1
  O  O12  1  0.18636382  0.48242500  0.60174072  1
  O  O13  1  0.58462320  0.89825995  0.38068535  1
  O  O14  1  0.11931548  0.01757412  0.20393808  1
  O  O15  1  0.48242536  0.60174107  0.18636325  1
  O  O16  1  0.38068447  0.58462265  0.89825908  1
  O  O17  1  0.89825937  0.01757412  0.31363600  1
  O  O18  1  0.60174039  0.91537714  0.11931571  1
  O  O19  1  0.10174048  0.61931519  0.41537745  1
  O  O20  1  0.48242538  0.38068427  0.29606139  1
  O  O21  1  0.38068442  0.29606196  0.48242504  1
  O  O22  1  0.31363675  0.89825995  0.01757543  1
  O  O23  1  0.29606133  0.31363608  0.91537637  1
  O  O24  1  0.70393785  0.51757446  0.61931550  1
  O  O25  1  0.98242534  0.68636338  0.10174008  1
  O  O26  1  0.88068500  0.39825961  0.08462292  1
  O  O27  1  0.79606191  0.41537680  0.81363655  1
  O  O28  1  0.79606131  0.88068461  0.98242561  1
  O  O29  1  0.41537681  0.81363641  0.79606121  1
  O  O30  1  0.39825961  0.81363641  0.51757437  1
  O  O31  1  0.81363690  0.79606230  0.41537735  1
  O  O32  1  0.70393770  0.68636338  0.08462257  1
  O  O33  1  0.68636395  0.10174073  0.98242548  1
  O  O34  1  0.61931522  0.70393872  0.51757451  1
  O  O35  1  0.51757471  0.61931519  0.70393790  1
  O  O36  1  0.08462330  0.88068461  0.39825917  1
  O  O37  1  0.39825864  0.08462231  0.88068424  1
  O  O38  1  0.10174072  0.98242533  0.68636329  1
  O  O39  1  0.61931562  0.41537680  0.10174022  1
  O  O40  1  0.51757534  0.39825961  0.81363666  1
  O  O41  1  0.88068461  0.98242533  0.79606221  1
  O  O42  1  0.41537750  0.10174073  0.61931555  1
  O  O43  1  0.81363627  0.51757446  0.39825957  1
  O  O44  1  0.98242506  0.79606230  0.88068456  1
  O  O45  1  0.08462350  0.70393872  0.68636438  1
  O  O46  1  0.68636334  0.08462231  0.70393803  1
  O  O47  1  0.91537679  0.11931485  0.60174013  1
  Al  Al48  1  0.50000036  0.00000000  0.00000040  1
  Al  Al49  1  0.00000000  0.00000000  0.00000000  1
  Al  Al50  1  0.99999999  0.50000034  0.00000039  1
  Al  Al51  1  0.00000000  0.00000000  0.50000017  1
  Al  Al52  1  0.99999999  0.50000034  0.50000055  1
  Al  Al53  1  0.50000036  0.00000000  0.50000057  1
  Al  Al54  1  0.50000035  0.50000034  0.99999978  1
  Al  Al55  1  0.50000035  0.50000034  0.49999995  1
  Si  Si56  1  0.25000044  0.12500008  0.87500043  1
  Si  Si57  1  0.87499957  0.25000017  0.12499983  1
  Si  Si58  1  0.62500044  0.75000051  0.37499995  1
  Si  Si59  1  0.25000043  0.62500042  0.37500065  1
  Si  Si60  1  0.37499999  0.62500042  0.74999995  1
  Si  Si61  1  0.75000027  0.37500025  0.62500026  1
  Si  Si62  1  0.87500037  0.12500008  0.74999996  1
  Si  Si63  1  0.12500007  0.75000051  0.87499973  1
  Si  Si64  1  0.12500033  0.87500059  0.24999995  1
  Si  Si65  1  0.62499965  0.37500025  0.24999961  1
  Si  Si66  1  0.37500027  0.25000017  0.62499995  1
  Si  Si67  1  0.75000026  0.87500059  0.12500048  1
  Co  Co68  1  0.24999990  0.87500059  0.62500025  1
  Co  Co69  1  0.87500036  0.62500042  0.25000017  1
  Co  Co70  1  0.62500070  0.87500059  0.75000051  1
  Co  Co71  1  0.87500062  0.75000051  0.62500074  1
  Co  Co72  1  0.62500045  0.25000017  0.87499974  1
  Co  Co73  1  0.74999973  0.62500042  0.87499986  1
  Co  Co74  1  0.74999975  0.12500008  0.37500031  1
  Co  Co75  1  0.12500035  0.37500025  0.74999973  1
  Co  Co76  1  0.37500000  0.12500008  0.25000039  1
  Co  Co77  1  0.12500008  0.25000017  0.37500017  1
  Co  Co78  1  0.37500025  0.75000051  0.12500017  1
  Co  Co79  1  0.24999991  0.37500025  0.12499969  1
