# generated using pymatgen
data_U3Se4
_symmetry_space_group_name_H-M   'P 1'
_cell_length_a   7.50898745
_cell_length_b   7.50898745
_cell_length_c   7.50898745
_cell_angle_alpha   109.47122066
_cell_angle_beta   109.47122066
_cell_angle_gamma   109.47122060
_symmetry_Int_Tables_number   1
_chemical_formula_structural   U3Se4
_chemical_formula_sum   'U6 Se8'
_cell_volume   325.92843003
_cell_formula_units_Z   2
loop_
 _symmetry_equiv_pos_site_id
 _symmetry_equiv_pos_as_xyz
  1  'x, y, z'
loop_
 _atom_site_type_symbol
 _atom_site_label
 _atom_site_symmetry_multiplicity
 _atom_site_fract_x
 _atom_site_fract_y
 _atom_site_fract_z
 _atom_site_occupancy
  Se  Se0  1  0.65241791  0.65241791  0.65241791  1
  Se  Se1  1  0.34758209  0.50000000  0.00000000  1
  Se  Se2  1  0.50000000  0.00000000  0.34758209  1
  Se  Se3  1  0.00000000  0.34758209  0.50000000  1
  Se  Se4  1  0.50000000  0.00000000  0.84758209  1
  Se  Se5  1  0.00000000  0.84758209  0.50000000  1
  Se  Se6  1  0.15241791  0.15241791  0.15241791  1
  Se  Se7  1  0.84758209  0.50000000  0.00000000  1
  U  U8  1  0.75000000  0.87500000  0.12500000  1
  U  U9  1  0.62500000  0.37500000  0.25000000  1
  U  U10  1  0.87500000  0.12500000  0.75000000  1
  U  U11  1  0.12500000  0.75000000  0.87500000  1
  U  U12  1  0.37500000  0.25000000  0.62500000  1
  U  U13  1  0.25000000  0.62500000  0.37500000  1
