# generated using pymatgen
data_PdF2
_symmetry_space_group_name_H-M   'P 1'
_cell_length_a   5.36994729
_cell_length_b   5.36994729
_cell_length_c   5.36994729
_cell_angle_alpha   90.00000000
_cell_angle_beta   90.00000000
_cell_angle_gamma   90.00000000
_symmetry_Int_Tables_number   1
_chemical_formula_structural   PdF2
_chemical_formula_sum   'Pd4 F8'
_cell_volume   154.84959307
_cell_formula_units_Z   4
loop_
 _symmetry_equiv_pos_site_id
 _symmetry_equiv_pos_as_xyz
  1  'x, y, z'
loop_
 _atom_site_type_symbol
 _atom_site_label
 _atom_site_symmetry_multiplicity
 _atom_site_fract_x
 _atom_site_fract_y
 _atom_site_fract_z
 _atom_site_occupancy
  F  F0  1  0.34282707  0.15717293  0.84282707  1
  F  F1  1  0.15717293  0.84282707  0.34282707  1
  F  F2  1  0.84282707  0.34282707  0.15717293  1
  F  F3  1  0.65717293  0.65717293  0.65717293  1
  F  F4  1  0.34282707  0.34282707  0.34282707  1
  F  F5  1  0.15717293  0.65717293  0.84282707  1
  F  F6  1  0.84282707  0.15717293  0.65717293  1
  F  F7  1  0.65717293  0.84282707  0.15717293  1
  Pd  Pd8  1  0.00000000  0.50000000  0.50000000  1
  Pd  Pd9  1  0.50000000  0.50000000  0.00000000  1
  Pd  Pd10  1  0.50000000  0.00000000  0.50000000  1
  Pd  Pd11  1  0.00000000  0.00000000  0.00000000  1
