# generated using pymatgen
data_Lu(FeO2)2
_symmetry_space_group_name_H-M   'P 1'
_cell_length_a   3.46659285
_cell_length_b   3.47080893
_cell_length_c   8.69452177
_cell_angle_alpha   78.25187210
_cell_angle_beta   78.50075598
_cell_angle_gamma   60.04017453
_symmetry_Int_Tables_number   1
_chemical_formula_structural   Lu(FeO2)2
_chemical_formula_sum   'Lu1 Fe2 O4'
_cell_volume   88.14401010
_cell_formula_units_Z   1
loop_
 _symmetry_equiv_pos_site_id
 _symmetry_equiv_pos_as_xyz
  1  'x, y, z'
loop_
 _atom_site_type_symbol
 _atom_site_label
 _atom_site_symmetry_multiplicity
 _atom_site_fract_x
 _atom_site_fract_y
 _atom_site_fract_z
 _atom_site_occupancy
  Lu  Lu0  1  -0.00000000  0.00000000  0.00000000  1
  Fe  Fe1  1  0.22000008  0.20303326  0.35696659  1
  Fe  Fe2  1  0.77999992  0.79696674  0.64303341  1
  O  O3  1  0.29562678  0.28773626  0.12101018  1
  O  O4  1  0.70437322  0.71226374  0.87898982  1
  O  O5  1  0.12616630  0.13274092  0.61492649  1
  O  O6  1  0.87383370  0.86725908  0.38507351  1
