# generated using pymatgen
data_Ba2Na(NiO2)3
_symmetry_space_group_name_H-M   'P 1'
_cell_length_a   7.04985030
_cell_length_b   7.04985030
_cell_length_c   8.41337000
_cell_angle_alpha   107.13512421
_cell_angle_beta   107.13512425
_cell_angle_gamma   107.26428104
_symmetry_Int_Tables_number   1
_chemical_formula_structural   Ba2Na(NiO2)3
_chemical_formula_sum   'Ba4 Na2 Ni6 O12'
_cell_volume   346.53048251
_cell_formula_units_Z   2
loop_
 _symmetry_equiv_pos_site_id
 _symmetry_equiv_pos_as_xyz
  1  'x, y, z'
loop_
 _atom_site_type_symbol
 _atom_site_label
 _atom_site_symmetry_multiplicity
 _atom_site_fract_x
 _atom_site_fract_y
 _atom_site_fract_z
 _atom_site_occupancy
  O  O0  1  0.49664937  0.27616931  0.18625925  1
  O  O1  1  0.08991074  0.31039091  0.81374136  1
  O  O2  1  0.72383067  0.50335074  0.81374150  1
  O  O3  1  0.68960967  0.91008923  0.18625949  1
  O  O4  1  0.50335052  0.72382997  0.81374127  1
  O  O5  1  0.91008982  0.68961000  0.18625972  1
  O  O6  1  0.27616989  0.49665017  0.18625959  1
  O  O7  1  0.31039021  0.08991005  0.81374102  1
  O  O8  1  0.29854446  0.07208081  0.37062420  1
  O  O9  1  0.70145611  0.92792011  0.62937570  1
  O  O10  1  0.92791926  0.70145601  0.62937547  1
  O  O11  1  0.07208131  0.29854491  0.37062444  1
  Na  Na12  1  0.67265050  0.67264948  0.34529986  1
  Na  Na13  1  0.32734939  0.32734979  0.65469947  1
  Ni  Ni14  1  0.99495214  0.99495200  0.29089077  1
  Ni  Ni15  1  0.70406086  0.70406124  0.70910823  1
  Ni  Ni16  1  0.29593754  0.29593804  0.29089073  1
  Ni  Ni17  1  0.00504775  0.00504728  0.70910856  1
  Ni  Ni18  1  0.30388286  0.30388310  0.99999961  1
  Ni  Ni19  1  0.69611756  0.69611749  0.00000056  1
  Ba  Ba20  1  0.25000029  0.75000066  0.50000000  1
  Ba  Ba21  1  0.75000028  0.25000026  0.49999990  1
  Ba  Ba22  1  0.22827919  0.77172046  0.00000046  1
  Ba  Ba23  1  0.77171973  0.22828014  0.00000052  1
