# generated using pymatgen
data_NpSi
_symmetry_space_group_name_H-M   'P 1'
_cell_length_a   4.28072091
_cell_length_b   6.37602152
_cell_length_c   6.41747370
_cell_angle_alpha   90.00000000
_cell_angle_beta   109.48261012
_cell_angle_gamma   90.00000000
_symmetry_Int_Tables_number   1
_chemical_formula_structural   NpSi
_chemical_formula_sum   'Np4 Si4'
_cell_volume   165.12924404
_cell_formula_units_Z   4
loop_
 _symmetry_equiv_pos_site_id
 _symmetry_equiv_pos_as_xyz
  1  'x, y, z'
loop_
 _atom_site_type_symbol
 _atom_site_label
 _atom_site_symmetry_multiplicity
 _atom_site_fract_x
 _atom_site_fract_y
 _atom_site_fract_z
 _atom_site_occupancy
  Np  Np0  1  0.27237749  0.25000000  0.54475497  1
  Np  Np1  1  0.72762251  0.75000000  0.45524503  1
  Np  Np2  1  0.44392697  0.75000000  0.88785394  1
  Np  Np3  1  0.55607303  0.25000000  0.11214606  1
  Si  Si4  1  0.09616457  0.55933671  0.19232914  1
  Si  Si5  1  0.90383543  0.44066329  0.80767086  1
  Si  Si6  1  0.09616457  0.94066329  0.19232914  1
  Si  Si7  1  0.90383543  0.05933671  0.80767086  1
