# generated using pymatgen
data_CeGe2
_symmetry_space_group_name_H-M   'P 1'
_cell_length_a   4.16805124
_cell_length_b   4.13364340
_cell_length_c   8.45236450
_cell_angle_alpha   104.15381528
_cell_angle_beta   104.27411798
_cell_angle_gamma   90.00000000
_symmetry_Int_Tables_number   1
_chemical_formula_structural   CeGe2
_chemical_formula_sum   'Ce2 Ge4'
_cell_volume   136.56553901
_cell_formula_units_Z   2
loop_
 _symmetry_equiv_pos_site_id
 _symmetry_equiv_pos_as_xyz
  1  'x, y, z'
loop_
 _atom_site_type_symbol
 _atom_site_label
 _atom_site_symmetry_multiplicity
 _atom_site_fract_x
 _atom_site_fract_y
 _atom_site_fract_z
 _atom_site_occupancy
  Ce  Ce0  1  0.62528365  0.37528365  0.75056729  1
  Ce  Ce1  1  0.37471635  0.62471635  0.24943271  1
  Ge  Ge2  1  0.04467763  0.79467763  0.58935526  1
  Ge  Ge3  1  0.95532237  0.20532237  0.41064474  1
  Ge  Ge4  1  0.20622202  0.95622202  0.91244405  1
  Ge  Ge5  1  0.79377798  0.04377798  0.08755595  1
