# generated using pymatgen
data_Gd(MnSi)2
_symmetry_space_group_name_H-M   'P 1'
_cell_length_a   3.92389509
_cell_length_b   3.92389509
_cell_length_c   5.75356016
_cell_angle_alpha   109.93763674
_cell_angle_beta   109.93763682
_cell_angle_gamma   89.99999992
_symmetry_Int_Tables_number   1
_chemical_formula_structural   Gd(MnSi)2
_chemical_formula_sum   'Gd1 Mn2 Si2'
_cell_volume   77.60580139
_cell_formula_units_Z   1
loop_
 _symmetry_equiv_pos_site_id
 _symmetry_equiv_pos_as_xyz
  1  'x, y, z'
loop_
 _atom_site_type_symbol
 _atom_site_label
 _atom_site_symmetry_multiplicity
 _atom_site_fract_x
 _atom_site_fract_y
 _atom_site_fract_z
 _atom_site_occupancy
  Si  Si0  1  0.62671212  0.62671212  0.25342424  1
  Si  Si1  1  0.37328788  0.37328788  0.74657576  1
  Mn  Mn2  1  0.25000000  0.75000000  0.50000000  1
  Mn  Mn3  1  0.75000000  0.25000000  0.50000000  1
  Gd  Gd4  1  0.00000000  0.00000000  0.00000000  1
