# generated using pymatgen
data_U(CuP)2
_symmetry_space_group_name_H-M   'P 1'
_cell_length_a   3.88314143
_cell_length_b   3.88377958
_cell_length_c   6.35010350
_cell_angle_alpha   90.00000002
_cell_angle_beta   90.01038068
_cell_angle_gamma   120.00542956
_symmetry_Int_Tables_number   1
_chemical_formula_structural   U(CuP)2
_chemical_formula_sum   'U1 Cu2 P2'
_cell_volume   82.93263123
_cell_formula_units_Z   1
loop_
 _symmetry_equiv_pos_site_id
 _symmetry_equiv_pos_as_xyz
  1  'x, y, z'
loop_
 _atom_site_type_symbol
 _atom_site_label
 _atom_site_symmetry_multiplicity
 _atom_site_fract_x
 _atom_site_fract_y
 _atom_site_fract_z
 _atom_site_occupancy
  U  U0  1  0.00000000  0.00000000  -0.00000000  1
  Cu  Cu1  1  0.33340630  0.66670315  0.63359192  1
  Cu  Cu2  1  0.66659370  0.33329685  0.36640808  1
  P  P3  1  0.33337220  0.66668610  0.25597980  1
  P  P4  1  0.66662780  0.33331390  0.74402020  1
