# generated using pymatgen
data_BaTm2CuO5
_symmetry_space_group_name_H-M   'P 1'
_cell_length_a   5.64869398
_cell_length_b   7.13887857
_cell_length_c   12.12921840
_cell_angle_alpha   90.00000000
_cell_angle_beta   90.00000000
_cell_angle_gamma   90.00000000
_symmetry_Int_Tables_number   1
_chemical_formula_structural   BaTm2CuO5
_chemical_formula_sum   'Ba4 Tm8 Cu4 O20'
_cell_volume   489.11486079
_cell_formula_units_Z   4
loop_
 _symmetry_equiv_pos_site_id
 _symmetry_equiv_pos_as_xyz
  1  'x, y, z'
loop_
 _atom_site_type_symbol
 _atom_site_label
 _atom_site_symmetry_multiplicity
 _atom_site_fract_x
 _atom_site_fract_y
 _atom_site_fract_z
 _atom_site_occupancy
  O  O0  1  0.25000000  0.41306305  0.60108350  1
  O  O1  1  0.75000000  0.58693695  0.39891650  1
  O  O2  1  0.75000000  0.91306305  0.89891650  1
  O  O3  1  0.25000000  0.08693695  0.10108350  1
  O  O4  1  0.00213869  0.85741839  0.27224972  1
  O  O5  1  0.50213869  0.14258161  0.72775028  1
  O  O6  1  0.99786131  0.35741839  0.22775028  1
  O  O7  1  0.49786131  0.64258161  0.77224972  1
  O  O8  1  0.99786131  0.14258161  0.72775028  1
  O  O9  1  0.49786131  0.85741839  0.27224972  1
  O  O10  1  0.00213869  0.64258161  0.77224972  1
  O  O11  1  0.50213869  0.35741839  0.22775028  1
  O  O12  1  0.49656149  0.65920077  0.06820634  1
  O  O13  1  0.99656149  0.34079923  0.93179366  1
  O  O14  1  0.50343851  0.15920077  0.43179366  1
  O  O15  1  0.00343851  0.84079923  0.56820634  1
  O  O16  1  0.99656149  0.15920077  0.43179366  1
  O  O17  1  0.49656149  0.84079923  0.56820634  1
  O  O18  1  0.00343851  0.65920077  0.06820634  1
  O  O19  1  0.50343851  0.34079923  0.93179366  1
  Cu  Cu20  1  0.25000000  0.78179791  0.16076821  1
  Cu  Cu21  1  0.75000000  0.21820209  0.83923179  1
  Cu  Cu22  1  0.75000000  0.28179791  0.33923179  1
  Cu  Cu23  1  0.25000000  0.71820209  0.66076821  1
  Ba  Ba24  1  0.25000000  0.56914194  0.40387630  1
  Ba  Ba25  1  0.75000000  0.43085806  0.59612370  1
  Ba  Ba26  1  0.75000000  0.06914194  0.09612370  1
  Ba  Ba27  1  0.25000000  0.93085806  0.90387630  1
  Tm  Tm28  1  0.25000000  0.10283859  0.57389729  1
  Tm  Tm29  1  0.75000000  0.89716141  0.42610271  1
  Tm  Tm30  1  0.75000000  0.60283859  0.92610271  1
  Tm  Tm31  1  0.25000000  0.39716141  0.07389729  1
  Tm  Tm32  1  0.25000000  0.38663396  0.78694979  1
  Tm  Tm33  1  0.75000000  0.61336604  0.21305021  1
  Tm  Tm34  1  0.75000000  0.88663396  0.71305021  1
  Tm  Tm35  1  0.25000000  0.11336604  0.28694979  1
