# generated using pymatgen
data_Li3CoPCO7
_symmetry_space_group_name_H-M   'P 1'
_cell_length_a   4.99886117
_cell_length_b   6.42673009
_cell_length_c   8.48772746
_cell_angle_alpha   90.00000000
_cell_angle_beta   83.89400347
_cell_angle_gamma   90.00000000
_symmetry_Int_Tables_number   1
_chemical_formula_structural   Li3CoPCO7
_chemical_formula_sum   'Li6 Co2 P2 C2 O14'
_cell_volume   271.13258530
_cell_formula_units_Z   2
loop_
 _symmetry_equiv_pos_site_id
 _symmetry_equiv_pos_as_xyz
  1  'x, y, z'
loop_
 _atom_site_type_symbol
 _atom_site_label
 _atom_site_symmetry_multiplicity
 _atom_site_fract_x
 _atom_site_fract_y
 _atom_site_fract_z
 _atom_site_occupancy
  Li  Li0  1  0.73179034  0.98484255  0.72574698  1
  Li  Li1  1  0.26820966  0.01515745  0.27425302  1
  Li  Li2  1  0.79358016  0.25000000  0.10496915  1
  Li  Li3  1  0.20641984  0.75000000  0.89503085  1
  Li  Li4  1  0.26820966  0.48484255  0.27425302  1
  Li  Li5  1  0.73179034  0.51515745  0.72574698  1
  C  C6  1  0.67886828  0.75000000  0.04091321  1
  C  C7  1  0.32113172  0.25000000  0.95908679  1
  O  O8  1  0.50242112  0.25000000  0.83530776  1
  O  O9  1  0.92810174  0.75000000  0.06794580  1
  O  O10  1  0.16380250  0.75000000  0.42449225  1
  O  O11  1  0.49757888  0.75000000  0.16469224  1
  O  O12  1  0.16191967  0.56231760  0.69438304  1
  O  O13  1  0.83619750  0.25000000  0.57550775  1
  O  O14  1  0.16191967  0.93768240  0.69438304  1
  O  O15  1  0.83808033  0.43768240  0.30561696  1
  O  O16  1  0.83808033  0.06231760  0.30561696  1
  O  O17  1  0.41814779  0.25000000  0.43273513  1
  O  O18  1  0.60642858  0.75000000  0.89880622  1
  O  O19  1  0.39357142  0.25000000  0.10119378  1
  O  O20  1  0.58185221  0.75000000  0.56726487  1
  O  O21  1  0.07189826  0.25000000  0.93205420  1
  P  P22  1  0.73248971  0.25000000  0.41127006  1
  P  P23  1  0.26751029  0.75000000  0.58872994  1
  Co  Co24  1  0.78845182  0.75000000  0.33187804  1
  Co  Co25  1  0.21154818  0.25000000  0.66812196  1
