# generated using pymatgen
data_Li2CrPO4F
_symmetry_space_group_name_H-M   'P 1'
_cell_length_a   5.30875101
_cell_length_b   5.56995649
_cell_length_c   7.59924314
_cell_angle_alpha   72.46922956
_cell_angle_beta   73.01306028
_cell_angle_gamma   94.26226673
_symmetry_Int_Tables_number   1
_chemical_formula_structural   Li2CrPO4F
_chemical_formula_sum   'Li4 Cr2 P2 O8 F2'
_cell_volume   201.64889185
_cell_formula_units_Z   2
loop_
 _symmetry_equiv_pos_site_id
 _symmetry_equiv_pos_as_xyz
  1  'x, y, z'
loop_
 _atom_site_type_symbol
 _atom_site_label
 _atom_site_symmetry_multiplicity
 _atom_site_fract_x
 _atom_site_fract_y
 _atom_site_fract_z
 _atom_site_occupancy
  Li  Li0  1  0.84333959  0.45576956  0.11753981  1
  Li  Li1  1  0.47952332  0.81563347  0.85791863  1
  Li  Li2  1  0.50598493  0.09583725  0.47732468  1
  Li  Li3  1  0.24468049  0.56358495  0.66690469  1
  O  O4  1  0.28759660  0.81032919  0.38939109  1
  O  O5  1  0.70586143  0.16428548  0.65539457  1
  O  O6  1  0.63185160  0.61406001  0.67577582  1
  O  O7  1  0.87386985  0.33811306  0.87985672  1
  O  O8  1  0.14760571  0.67220486  0.13365906  1
  O  O9  1  0.36721483  0.21381774  0.94330134  1
  O  O10  1  0.33731885  0.37298069  0.37553720  1
  O  O11  1  0.63380975  0.75048442  0.09038949  1
  F  F12  1  0.18510579  0.89035739  0.72017498  1
  F  F13  1  0.83907135  0.12141618  0.29166937  1
  P  P14  1  0.34871022  0.65043508  0.25088543  1
  P  P15  1  0.64391348  0.33498261  0.78818948  1
  Cr  Cr16  1  0.99458042  -0.00031691  0.02008071  1
  Cr  Cr17  1  0.00207984  0.00439519  0.50741900  1
