# generated using pymatgen
data_MnH4(CO3)2
_symmetry_space_group_name_H-M   'P 1'
_cell_length_a   5.75645203
_cell_length_b   6.85292422
_cell_length_c   8.26194033
_cell_angle_alpha   80.31249194
_cell_angle_beta   69.57165093
_cell_angle_gamma   65.16527373
_symmetry_Int_Tables_number   1
_chemical_formula_structural   MnH4(CO3)2
_chemical_formula_sum   'Mn2 H8 C4 O12'
_cell_volume   277.08926949
_cell_formula_units_Z   2
loop_
 _symmetry_equiv_pos_site_id
 _symmetry_equiv_pos_as_xyz
  1  'x, y, z'
loop_
 _atom_site_type_symbol
 _atom_site_label
 _atom_site_symmetry_multiplicity
 _atom_site_fract_x
 _atom_site_fract_y
 _atom_site_fract_z
 _atom_site_occupancy
  H  H0  1  0.32129653  0.32110909  0.35391833  1
  H  H1  1  0.99595586  0.17893367  0.14605510  1
  H  H2  1  0.37334372  0.32275557  0.14859710  1
  H  H3  1  0.84481464  0.17714382  0.35150947  1
  H  H4  1  0.62665672  0.67724453  0.85140337  1
  H  H5  1  0.15518612  0.82285640  0.64849098  1
  H  H6  1  0.67870294  0.67889254  0.64608267  1
  H  H7  1  0.00404420  0.82106724  0.85394512  1
  C  C8  1  0.52417692  0.75129690  0.35090059  1
  C  C9  1  0.37326247  0.25131360  0.85108887  1
  C  C10  1  0.47582222  0.24870231  0.64909904  1
  C  C11  1  0.62673767  0.74868554  0.14891092  1
  O  O12  1  0.75333485  0.60565643  0.74143274  1
  O  O13  1  0.53092995  0.25232572  0.92636746  1
  O  O14  1  0.10071669  0.89430823  0.75841236  1
  O  O15  1  0.86050810  0.74752504  0.07485076  1
  O  O16  1  0.89928477  0.10569195  0.24158804  1
  O  O17  1  0.24666665  0.39434553  0.25856689  1
  O  O18  1  0.46906986  0.74767363  0.07363166  1
  O  O19  1  0.71004010  0.24743796  0.57386713  1
  O  O20  1  0.13949071  0.25247436  0.92514944  1
  O  O21  1  0.28995937  0.75256179  0.42613337  1
  O  O22  1  0.31742894  0.24763971  0.57497856  1
  O  O23  1  0.68257145  0.75235943  0.42502075  1
  Mn  Mn24  1  0.07458466  0.75007315  0.24993327  1
  Mn  Mn25  1  0.92541374  0.24992775  0.75006600  1
