# generated using pymatgen
data_La4CoO8
_symmetry_space_group_name_H-M   'P 1'
_cell_length_a   5.34915385
_cell_length_b   6.91961109
_cell_length_c   6.91961109
_cell_angle_alpha   45.12126261
_cell_angle_beta   90.00000000
_cell_angle_gamma   90.00000000
_symmetry_Int_Tables_number   1
_chemical_formula_structural   La4CoO8
_chemical_formula_sum   'La4 Co1 O8'
_cell_volume   181.48915364
_cell_formula_units_Z   1
loop_
 _symmetry_equiv_pos_site_id
 _symmetry_equiv_pos_as_xyz
  1  'x, y, z'
loop_
 _atom_site_type_symbol
 _atom_site_label
 _atom_site_symmetry_multiplicity
 _atom_site_fract_x
 _atom_site_fract_y
 _atom_site_fract_z
 _atom_site_occupancy
  O  O0  1  0.73835354  0.75190403  0.24809597  1
  O  O1  1  0.73835354  0.24809597  0.75190403  1
  O  O2  1  0.50000000  0.83842099  0.83842099  1
  O  O3  1  0.50000000  0.16157901  0.16157901  1
  O  O4  1  0.26164646  0.24809597  0.75190403  1
  O  O5  1  0.00000000  0.31175372  0.31175372  1
  O  O6  1  0.00000000  0.68824628  0.68824628  1
  O  O7  1  0.26164646  0.75190403  0.24809597  1
  Co  Co8  1  0.50000000  0.00000000  0.00000000  1
  La  La9  1  0.50000000  0.63369016  0.63369016  1
  La  La10  1  0.00000000  0.86543511  0.86543511  1
  La  La11  1  0.00000000  0.13456489  0.13456489  1
  La  La12  1  0.50000000  0.36630984  0.36630984  1
