# generated using pymatgen
data_SiNi2As
_symmetry_space_group_name_H-M   'P 1'
_cell_length_a   5.12547346
_cell_length_b   6.03717989
_cell_length_c   13.88709530
_cell_angle_alpha   90.00000000
_cell_angle_beta   90.00000000
_cell_angle_gamma   90.00000000
_symmetry_Int_Tables_number   1
_chemical_formula_structural   SiNi2As
_chemical_formula_sum   'Si8 Ni16 As8'
_cell_volume   429.71401830
_cell_formula_units_Z   8
loop_
 _symmetry_equiv_pos_site_id
 _symmetry_equiv_pos_as_xyz
  1  'x, y, z'
loop_
 _atom_site_type_symbol
 _atom_site_label
 _atom_site_symmetry_multiplicity
 _atom_site_fract_x
 _atom_site_fract_y
 _atom_site_fract_z
 _atom_site_occupancy
  Si  Si0  1  0.82047102  0.93243400  0.94228899  1
  Si  Si1  1  0.82047102  0.43243400  0.55771101  1
  Si  Si2  1  0.32047102  0.56756600  0.94228899  1
  Si  Si3  1  0.67952898  0.93243400  0.44228899  1
  Si  Si4  1  0.17952898  0.06756600  0.05771101  1
  Si  Si5  1  0.17952898  0.56756600  0.44228899  1
  Si  Si6  1  0.67952898  0.43243400  0.05771101  1
  Si  Si7  1  0.32047102  0.06756600  0.55771101  1
  Ni  Ni8  1  0.01647708  0.69591411  0.83416996  1
  Ni  Ni9  1  0.48352292  0.19591411  0.16583004  1
  Ni  Ni10  1  0.51647708  0.30408589  0.66583004  1
  Ni  Ni11  1  0.98942636  0.80520926  0.55641234  1
  Ni  Ni12  1  0.01647708  0.19591411  0.66583004  1
  Ni  Ni13  1  0.51647708  0.80408589  0.83416996  1
  Ni  Ni14  1  0.48352292  0.69591411  0.33416996  1
  Ni  Ni15  1  0.98352292  0.30408589  0.16583004  1
  Ni  Ni16  1  0.01057364  0.19479074  0.44358766  1
  Ni  Ni17  1  0.98942636  0.30520926  0.94358766  1
  Ni  Ni18  1  0.48942636  0.69479074  0.55641234  1
  Ni  Ni19  1  0.51057364  0.80520926  0.05641234  1
  Ni  Ni20  1  0.48942636  0.19479074  0.94358766  1
  Ni  Ni21  1  0.01057364  0.69479074  0.05641234  1
  Ni  Ni22  1  0.51057364  0.30520926  0.44358766  1
  Ni  Ni23  1  0.98352292  0.80408589  0.33416996  1
  As  As24  1  0.68399195  0.93107495  0.68281355  1
  As  As25  1  0.18399195  0.06892505  0.81718645  1
  As  As26  1  0.81600805  0.43107495  0.31718645  1
  As  As27  1  0.31600805  0.56892505  0.18281355  1
  As  As28  1  0.31600805  0.06892505  0.31718645  1
  As  As29  1  0.81600805  0.93107495  0.18281355  1
  As  As30  1  0.18399195  0.56892505  0.68281355  1
  As  As31  1  0.68399195  0.43107495  0.81718645  1
