# generated using pymatgen
data_Ti(SiO3)2
_symmetry_space_group_name_H-M   'P 1'
_cell_length_a   6.58171654
_cell_length_b   6.58171653
_cell_length_c   5.36559799
_cell_angle_alpha   75.21110548
_cell_angle_beta   104.78889443
_cell_angle_gamma   95.66360441
_symmetry_Int_Tables_number   1
_chemical_formula_structural   Ti(SiO3)2
_chemical_formula_sum   'Ti2 Si4 O12'
_cell_volume   217.14793236
_cell_formula_units_Z   2
loop_
 _symmetry_equiv_pos_site_id
 _symmetry_equiv_pos_as_xyz
  1  'x, y, z'
loop_
 _atom_site_type_symbol
 _atom_site_label
 _atom_site_symmetry_multiplicity
 _atom_site_fract_x
 _atom_site_fract_y
 _atom_site_fract_z
 _atom_site_occupancy
  O  O0  1  0.04771992  0.81452833  0.63172694  1
  O  O1  1  0.18547167  0.95228008  0.13172694  1
  O  O2  1  0.10584356  0.38286278  0.77528834  1
  O  O3  1  0.36700953  0.65247481  0.54522716  1
  O  O4  1  0.61713722  0.89415644  0.27528834  1
  O  O5  1  0.34752519  0.63299047  0.04522716  1
  O  O6  1  0.65247481  0.36700953  0.95477284  1
  O  O7  1  0.38286278  0.10584356  0.72471166  1
  O  O8  1  0.63299047  0.34752519  0.45477284  1
  O  O9  1  0.89415644  0.61713722  0.22471166  1
  O  O10  1  0.81452833  0.04771992  0.86827306  1
  O  O11  1  0.95228008  0.18547167  0.36827306  1
  Si  Si12  1  0.21471481  0.61992029  0.74963040  1
  Si  Si13  1  0.38007971  0.78528519  0.24963040  1
  Si  Si14  1  0.61992029  0.21471481  0.75036960  1
  Si  Si15  1  0.78528519  0.38007971  0.25036960  1
  Ti  Ti16  1  0.11043031  0.11043031  0.75000000  1
  Ti  Ti17  1  0.88956969  0.88956969  0.25000000  1
