# generated using pymatgen
data_AsS3(ClF2)3
_symmetry_space_group_name_H-M   'P 1'
_cell_length_a   7.82990377
_cell_length_b   8.45469534
_cell_length_c   10.36437434
_cell_angle_alpha   80.16872552
_cell_angle_beta   67.68226335
_cell_angle_gamma   64.11863921
_symmetry_Int_Tables_number   1
_chemical_formula_structural   AsS3(ClF2)3
_chemical_formula_sum   'As2 S6 Cl6 F12'
_cell_volume   571.04764619
_cell_formula_units_Z   2
loop_
 _symmetry_equiv_pos_site_id
 _symmetry_equiv_pos_as_xyz
  1  'x, y, z'
loop_
 _atom_site_type_symbol
 _atom_site_label
 _atom_site_symmetry_multiplicity
 _atom_site_fract_x
 _atom_site_fract_y
 _atom_site_fract_z
 _atom_site_occupancy
  As  As0  1  0.96201721  0.74563114  0.24942911  1
  As  As1  1  0.03798279  0.25436886  0.75057089  1
  S  S2  1  0.47989008  0.22196016  0.97866454  1
  S  S3  1  0.73523331  0.84311169  0.91786991  1
  S  S4  1  0.50832273  0.32564298  0.39261112  1
  S  S5  1  0.49167727  0.67435702  0.60738888  1
  S  S6  1  0.52010992  0.77803984  0.02133546  1
  S  S7  1  0.26476669  0.15688831  0.08213009  1
  Cl  Cl8  1  0.34015645  0.71784298  0.48090989  1
  Cl  Cl9  1  0.79281376  0.84315891  0.70656143  1
  Cl  Cl10  1  0.65984355  0.28215702  0.51909011  1
  Cl  Cl11  1  0.69666714  0.34392920  0.20321100  1
  Cl  Cl12  1  0.20718624  0.15684109  0.29343857  1
  Cl  Cl13  1  0.30333286  0.65607080  0.79678900  1
  F  F14  1  0.90790092  0.86660251  0.39467966  1
  F  F15  1  0.20785151  0.60986643  0.25732759  1
  F  F16  1  0.71842563  0.88105156  0.24039373  1
  F  F17  1  0.13592865  0.40057259  0.63591278  1
  F  F18  1  0.79214849  0.39013357  0.74267241  1
  F  F19  1  0.28157437  0.11894844  0.75960627  1
  F  F20  1  0.86407135  0.59942741  0.36408722  1
  F  F21  1  0.01960609  0.62277588  0.10368509  1
  F  F22  1  0.93941400  0.10873460  0.86517006  1
  F  F23  1  0.98039391  0.37722412  0.89631491  1
  F  F24  1  0.09209908  0.13339749  0.60532034  1
  F  F25  1  0.06058600  0.89126540  0.13482994  1
