# generated using pymatgen
data_Li2CuP2O7
_symmetry_space_group_name_H-M   'P 1'
_cell_length_a   8.08850792
_cell_length_b   13.31921126
_cell_length_c   5.01269906
_cell_angle_alpha   90.00000000
_cell_angle_beta   94.07988945
_cell_angle_gamma   90.00000000
_symmetry_Int_Tables_number   1
_chemical_formula_structural   Li2CuP2O7
_chemical_formula_sum   'Li8 Cu4 P8 O28'
_cell_volume   538.66229351
_cell_formula_units_Z   4
loop_
 _symmetry_equiv_pos_site_id
 _symmetry_equiv_pos_as_xyz
  1  'x, y, z'
loop_
 _atom_site_type_symbol
 _atom_site_label
 _atom_site_symmetry_multiplicity
 _atom_site_fract_x
 _atom_site_fract_y
 _atom_site_fract_z
 _atom_site_occupancy
  Li  Li0  1  0.13528638  0.88799152  0.18286150  1
  Li  Li1  1  0.86471362  0.11200848  0.81713850  1
  Li  Li2  1  0.82674821  0.70406750  0.25787992  1
  Li  Li3  1  0.67325179  0.20406750  0.24212008  1
  Li  Li4  1  0.63528638  0.61200848  0.68286150  1
  Li  Li5  1  0.17325179  0.29593250  0.74212008  1
  Li  Li6  1  0.32674821  0.79593250  0.75787992  1
  Li  Li7  1  0.36471362  0.38799152  0.31713850  1
  O  O8  1  0.42044589  0.05284415  0.73093378  1
  O  O9  1  0.86498678  0.89240163  0.13397600  1
  O  O10  1  0.92044589  0.44715585  0.23093378  1
  O  O11  1  0.95387428  0.29057739  0.51269269  1
  O  O12  1  0.04612572  0.70942261  0.48730731  1
  O  O13  1  0.07955411  0.55284415  0.76906622  1
  O  O14  1  0.13501322  0.10759837  0.86602400  1
  O  O15  1  0.15685580  0.72116288  0.97406164  1
  O  O16  1  0.14725007  0.32175638  0.13680756  1
  O  O17  1  0.16920322  0.03183708  0.40323460  1
  O  O18  1  0.20931526  0.92146006  0.82399993  1
  O  O19  1  0.29068474  0.42146006  0.67600007  1
  O  O20  1  0.33079678  0.53183708  0.09676540  1
  O  O21  1  0.85274993  0.67824362  0.86319244  1
  O  O22  1  0.35274993  0.82175638  0.36319244  1
  O  O23  1  0.36498678  0.60759837  0.63397600  1
  O  O24  1  0.34314420  0.22116288  0.52593836  1
  O  O25  1  0.45387428  0.20942261  0.01269269  1
  O  O26  1  0.54612572  0.79057739  0.98730731  1
  O  O27  1  0.57955411  0.94715585  0.26906622  1
  O  O28  1  0.63501322  0.39240163  0.36602400  1
  O  O29  1  0.64725007  0.17824362  0.63680756  1
  O  O30  1  0.65685580  0.77883712  0.47406164  1
  O  O31  1  0.66920322  0.46816292  0.90323460  1
  O  O32  1  0.70931526  0.57853994  0.32399993  1
  O  O33  1  0.79068474  0.07853994  0.17600007  1
  O  O34  1  0.83079678  0.96816292  0.59676540  1
  O  O35  1  0.84314420  0.27883712  0.02593836  1
  P  P36  1  0.47241585  0.17026517  0.72643097  1
  P  P37  1  0.52758415  0.82973483  0.27356903  1
  P  P38  1  0.72175872  0.47540350  0.20531709  1
  P  P39  1  0.77824128  0.97540350  0.29468291  1
  P  P40  1  0.02758415  0.67026517  0.77356903  1
  P  P41  1  0.22175872  0.02459650  0.70531709  1
  P  P42  1  0.97241585  0.32973483  0.22643097  1
  P  P43  1  0.27824128  0.52459650  0.79468291  1
  Cu  Cu44  1  0.74487309  0.85063125  0.79530090  1
  Cu  Cu45  1  0.75512691  0.35063125  0.70469910  1
  Cu  Cu46  1  0.24487309  0.64936875  0.29530090  1
  Cu  Cu47  1  0.25512691  0.14936875  0.20469910  1
