# generated using pymatgen
data_Li17La12Zr8O48
_symmetry_space_group_name_H-M   'P 1'
_cell_length_a   11.35238524
_cell_length_b   11.35238524
_cell_length_c   11.35238524
_cell_angle_alpha   108.37176335
_cell_angle_beta   108.37176335
_cell_angle_gamma   111.69324777
_symmetry_Int_Tables_number   1
_chemical_formula_structural   Li17La12Zr8O48
_chemical_formula_sum   'Li17 La12 Zr8 O48'
_cell_volume   1124.98619508
_cell_formula_units_Z   1
loop_
 _symmetry_equiv_pos_site_id
 _symmetry_equiv_pos_as_xyz
  1  'x, y, z'
loop_
 _atom_site_type_symbol
 _atom_site_label
 _atom_site_symmetry_multiplicity
 _atom_site_fract_x
 _atom_site_fract_y
 _atom_site_fract_z
 _atom_site_occupancy
  Li  Li0  1  0.37500000  0.62500000  0.25000000  1
  Li  Li1  1  0.27722174  0.78779368  0.16204611  1
  Li  Li2  1  0.10926613  0.27591857  0.49478930  1
  Li  Li3  1  0.27399940  0.78256146  0.66821168  1
  Li  Li4  1  0.61506576  0.28107727  0.50433227  1
  Li  Li5  1  0.71892273  0.22325501  0.83398850  1
  Li  Li6  1  0.89421228  0.72600060  0.50856206  1
  Li  Li7  1  0.72408143  0.21887074  0.33334757  1
  Li  Li8  1  0.38482437  0.72277826  0.51057194  1
  Li  Li9  1  0.78112926  0.11447683  0.00521070  1
  Li  Li10  1  0.62574757  0.61517563  0.33795389  1
  Li  Li11  1  0.77674499  0.61073349  0.99566773  1
  Li  Li12  1  0.11434979  0.10578772  0.83178832  1
  Li  Li13  1  0.21743854  0.88565021  0.99143794  1
  Li  Li14  1  0.38926651  0.38493424  0.66601150  1
  Li  Li15  1  0.21220632  0.37425243  0.98942806  1
  Li  Li16  1  0.88552317  0.89073387  0.16665243  1
  La  La17  1  0.12200994  0.37200994  0.25000000  1
  La  La18  1  0.62799006  0.87799006  0.25000000  1
  La  La19  1  0.87483865  0.62483865  0.75000000  1
  La  La20  1  0.37516135  0.12516135  0.75000000  1
  La  La21  1  0.75093978  0.38879688  0.13915010  1
  La  La22  1  0.74887135  0.88811892  0.63757315  1
  La  La23  1  0.88821033  0.24906022  0.63785711  1
  La  La24  1  0.11188108  0.74945423  0.36075242  1
  La  La25  1  0.25054577  0.61129819  0.86242685  1
  La  La26  1  0.24964678  0.11178967  0.36084990  1
  La  La27  1  0.38870181  0.25112865  0.13924758  1
  La  La28  1  0.61120312  0.75035322  0.86214289  1
  Zr  Zr29  1  0.00414394  0.50168093  0.00678549  1
  Zr  Zr30  1  0.99860989  0.99945077  0.49996442  1
  Zr  Zr31  1  0.00054923  0.50051365  0.49915912  1
  Zr  Zr32  1  0.50264156  0.99585606  0.49753699  1
  Zr  Zr33  1  0.49948635  0.99864547  0.00003558  1
  Zr  Zr34  1  0.49489543  0.49735844  0.49321451  1
  Zr  Zr35  1  0.49831907  0.50510457  0.00246301  1
  Zr  Zr36  1  0.00135453  0.00139011  0.00084088  1
  O  O37  1  0.90157487  0.31966053  0.03279436  1
  O  O38  1  0.78787665  0.81826389  0.41890507  1
  O  O39  1  0.82000929  0.40226331  0.53194508  1
  O  O40  1  0.36997577  0.90175039  0.58294734  1
  O  O41  1  0.09824961  0.68119695  0.96822438  1
  O  O42  1  0.21193480  0.17999071  0.58225402  1
  O  O43  1  0.18173611  0.60064118  0.46961176  1
  O  O44  1  0.63121850  0.09842513  0.41808567  1
  O  O45  1  0.39935882  0.86897158  0.08109493  1
  O  O46  1  0.28686717  0.36878150  0.46720564  1
  O  O47  1  0.31880305  0.28702843  0.91705266  1
  O  O48  1  0.87031922  0.78806520  0.96805492  1
  O  O49  1  0.59773669  0.12968078  0.91774598  1
  O  O50  1  0.71297157  0.63002423  0.53177562  1
  O  O51  1  0.68033947  0.71313283  0.08191433  1
  O  O52  1  0.13102842  0.21212335  0.03038824  1
  O  O53  1  0.32091177  0.02171882  0.91077929  1
  O  O54  1  0.61409872  0.52357878  0.70033660  1
  O  O55  1  0.51816864  0.81676786  0.40783354  1
  O  O56  1  0.91139717  0.32264456  0.29970826  1
  O  O57  1  0.67735544  0.97706370  0.08875262  1
  O  O58  1  0.38966490  0.48183136  0.29859922  1
  O  O59  1  0.47642122  0.17675782  0.59051995  1
  O  O60  1  0.08986752  0.67908823  0.70080705  1
  O  O61  1  0.82324218  0.41376213  0.79966340  1
  O  O62  1  0.11093953  0.91013248  0.58922071  1
  O  O63  1  0.02293630  0.11168892  0.20029174  1
  O  O64  1  0.40893432  0.61033510  0.09216646  1
  O  O65  1  0.18323214  0.59106568  0.20140078  1
  O  O66  1  0.88831108  0.08860283  0.41124738  1
  O  O67  1  0.97828118  0.88906047  0.79919295  1
  O  O68  1  0.58623787  0.38590128  0.90948005  1
  O  O69  1  0.58451478  0.20427601  0.17230106  1
  O  O70  1  0.53329193  0.70343289  0.62158227  1
  O  O71  1  0.70468278  0.08504894  0.67373525  1
  O  O72  1  0.91121720  0.58526999  0.38032179  1
  O  O73  1  0.41473001  0.79505180  0.82594721  1
  O  O74  1  0.46905147  0.29531722  0.38036616  1
  O  O75  1  0.29656711  0.91814938  0.32985804  1
  O  O76  1  0.08778628  0.41548522  0.61976122  1
  O  O77  1  0.08185062  0.41170866  0.87841773  1
  O  O78  1  0.03197594  0.91221372  0.32769894  1
  O  O79  1  0.20494820  0.03089641  0.11967821  1
  O  O80  1  0.41131369  0.53094853  0.82626475  1
  O  O81  1  0.91495106  0.58868631  0.11963384  1
  O  O82  1  0.96910359  0.08878280  0.67405279  1
  O  O83  1  0.79572399  0.96802406  0.88023878  1
  O  O84  1  0.58829134  0.46670807  0.17014196  1
