# generated using pymatgen
data_LiTi(PO3)4
_symmetry_space_group_name_H-M   'P 1'
_cell_length_a   7.39280944
_cell_length_b   7.39280921
_cell_length_c   9.81044901
_cell_angle_alpha   82.04073621
_cell_angle_beta   69.31739435
_cell_angle_gamma   110.33782557
_symmetry_Int_Tables_number   1
_chemical_formula_structural   LiTi(PO3)4
_chemical_formula_sum   'Li2 Ti2 P8 O24'
_cell_volume   449.01176824
_cell_formula_units_Z   2
loop_
 _symmetry_equiv_pos_site_id
 _symmetry_equiv_pos_as_xyz
  1  'x, y, z'
loop_
 _atom_site_type_symbol
 _atom_site_label
 _atom_site_symmetry_multiplicity
 _atom_site_fract_x
 _atom_site_fract_y
 _atom_site_fract_z
 _atom_site_occupancy
  Li  Li0  1  0.79117408  0.04117408  0.25000000  1
  Li  Li1  1  0.20882592  0.95882592  0.75000000  1
  Ti  Ti2  1  -0.00000000  0.50000000  0.00000000  1
  Ti  Ti3  1  -0.00000000  -0.00000000  0.50000000  1
  P  P4  1  0.26929238  0.73041325  0.47334372  1
  P  P5  1  0.00035667  0.68401722  0.30440041  1
  P  P6  1  0.99964333  0.31598278  0.69559959  1
  P  P7  1  0.51158137  0.69524292  0.80440041  1
  P  P8  1  0.70375696  0.74263610  0.02665628  1
  P  P9  1  0.48841863  0.30475708  0.19559959  1
  P  P10  1  0.73070762  0.26958675  0.52665628  1
  P  P11  1  0.29624304  0.25736390  0.97334372  1
  O  O12  1  0.69839214  0.29589069  0.17347182  1
  O  O13  1  0.19585094  0.68263759  0.33808682  1
  O  O14  1  0.47927560  0.46606225  0.83808682  1
  O  O15  1  0.69821039  0.80942780  0.65076333  1
  O  O16  1  0.88066120  0.19272105  0.42760596  1
  O  O17  1  0.87967299  0.69173284  0.92760596  1
  O  O18  1  0.12032701  0.30826716  0.07239404  1
  O  O19  1  0.57068450  0.77630099  0.93271286  1
  O  O20  1  0.03980886  0.65102628  0.15076333  1
  O  O21  1  0.30178961  0.19057220  0.34923667  1
  O  O22  1  0.75277646  0.90976180  0.09237699  1
  O  O23  1  0.52072440  0.53393775  0.16191318  1
  O  O24  1  0.03063749  0.12813604  0.67347182  1
  O  O25  1  0.80414906  0.31736241  0.66191318  1
  O  O26  1  0.30160786  0.70410931  0.82652818  1
  O  O27  1  0.50213878  0.84515344  0.40762301  1
  O  O28  1  0.96936251  0.87186396  0.32652818  1
  O  O29  1  0.42931550  0.22369901  0.06728714  1
  O  O30  1  0.20901285  0.50339636  0.56728714  1
  O  O31  1  0.79098715  0.49660364  0.43271286  1
  O  O32  1  0.49786122  0.15484656  0.59237699  1
  O  O33  1  0.96019114  0.34897372  0.84923667  1
  O  O34  1  0.11933880  0.80727895  0.57239404  1
  O  O35  1  0.24722354  0.09023820  0.90762301  1
