# generated using pymatgen
data_Li2FePO4F
_symmetry_space_group_name_H-M   'P 1'
_cell_length_a   5.36667097
_cell_length_b   5.44785501
_cell_length_c   7.52903666
_cell_angle_alpha   72.34320643
_cell_angle_beta   71.69776927
_cell_angle_gamma   95.53350560
_symmetry_Int_Tables_number   1
_chemical_formula_structural   Li2FePO4F
_chemical_formula_sum   'Li4 Fe2 P2 O8 F2'
_cell_volume   194.62336813
_cell_formula_units_Z   2
loop_
 _symmetry_equiv_pos_site_id
 _symmetry_equiv_pos_as_xyz
  1  'x, y, z'
loop_
 _atom_site_type_symbol
 _atom_site_label
 _atom_site_symmetry_multiplicity
 _atom_site_fract_x
 _atom_site_fract_y
 _atom_site_fract_z
 _atom_site_occupancy
  Li  Li0  1  0.83504507  0.45236504  0.12058891  1
  Li  Li1  1  0.48369583  0.83575016  0.86207127  1
  Li  Li2  1  0.50915617  0.06190849  0.48006046  1
  Li  Li3  1  0.23356359  0.55368503  0.70318156  1
  O  O4  1  0.27887335  0.76264138  0.41770783  1
  O  O5  1  0.72069894  0.20011871  0.63221984  1
  O  O6  1  0.67378682  0.66424908  0.65786660  1
  O  O7  1  0.85903903  0.34788001  0.88115680  1
  O  O8  1  0.14435710  0.66644377  0.14260583  1
  O  O9  1  0.36034606  0.25811710  0.91090871  1
  O  O10  1  0.32432677  0.32992609  0.36658679  1
  O  O11  1  0.62798900  0.74430859  0.09657930  1
  F  F12  1  0.18294822  0.89068302  0.74456164  1
  F  F13  1  0.84379175  0.10665070  0.27463287  1
  P  P14  1  0.33819899  0.62587698  0.25995806  1
  P  P15  1  0.65758250  0.36636306  0.76975374  1
  Fe  Fe16  1  0.99218621  0.00172627  0.01818527  1
  Fe  Fe17  1  0.00653501  0.99967725  0.50278227  1
