# generated using pymatgen
data_Li2NiPO4F
_symmetry_space_group_name_H-M   'P 1'
_cell_length_a   5.30480371
_cell_length_b   5.32375565
_cell_length_c   7.41216193
_cell_angle_alpha   71.66405428
_cell_angle_beta   71.56948007
_cell_angle_gamma   93.92504563
_symmetry_Int_Tables_number   1
_chemical_formula_structural   Li2NiPO4F
_chemical_formula_sum   'Li4 Ni2 P2 O8 F2'
_cell_volume   185.20466334
_cell_formula_units_Z   2
loop_
 _symmetry_equiv_pos_site_id
 _symmetry_equiv_pos_as_xyz
  1  'x, y, z'
loop_
 _atom_site_type_symbol
 _atom_site_label
 _atom_site_symmetry_multiplicity
 _atom_site_fract_x
 _atom_site_fract_y
 _atom_site_fract_z
 _atom_site_occupancy
  Li  Li0  1  0.83661948  0.45063965  0.12473147  1
  Li  Li1  1  0.48369913  0.84584705  0.86187420  1
  Li  Li2  1  0.51740152  0.03936745  0.47472657  1
  Li  Li3  1  0.21964915  0.54807203  0.71301805  1
  O  O4  1  0.27660061  0.76069470  0.42407447  1
  O  O5  1  0.72441050  0.20526459  0.62360957  1
  O  O6  1  0.67683763  0.67803393  0.65635778  1
  O  O7  1  0.85608432  0.33779258  0.88481275  1
  O  O8  1  0.13995727  0.67250480  0.14295195  1
  O  O9  1  0.35714991  0.26593948  0.90572026  1
  O  O10  1  0.33026326  0.32200998  0.36326196  1
  O  O11  1  0.62829303  0.74817778  0.09535005  1
  F  F12  1  0.16143198  0.89721025  0.74981437  1
  F  F13  1  0.86517731  0.09658030  0.27196649  1
  P  P14  1  0.33908116  0.62584642  0.26072436  1
  P  P15  1  0.65690458  0.37045612  0.76650357  1
  Ni  Ni16  1  0.99242112  0.00032155  0.01641154  1
  Ni  Ni17  1  0.01013149  0.00360628  0.50550192  1
