# generated using pymatgen
data_Li2VPO4F
_symmetry_space_group_name_H-M   'P 1'
_cell_length_a   5.42435336
_cell_length_b   5.43408251
_cell_length_c   7.46053403
_cell_angle_alpha   72.49014039
_cell_angle_beta   72.55444113
_cell_angle_gamma   94.79824177
_symmetry_Int_Tables_number   1
_chemical_formula_structural   Li2VPO4F
_chemical_formula_sum   'Li4 V2 P2 O8 F2'
_cell_volume   196.38682952
_cell_formula_units_Z   2
loop_
 _symmetry_equiv_pos_site_id
 _symmetry_equiv_pos_as_xyz
  1  'x, y, z'
loop_
 _atom_site_type_symbol
 _atom_site_label
 _atom_site_symmetry_multiplicity
 _atom_site_fract_x
 _atom_site_fract_y
 _atom_site_fract_z
 _atom_site_occupancy
  Li  Li0  1  0.83626166  0.45406374  0.12393507  1
  Li  Li1  1  0.48753769  0.84096271  0.86216283  1
  Li  Li2  1  0.51433910  0.05021602  0.47234599  1
  Li  Li3  1  0.22405750  0.54799665  0.70900411  1
  O  O4  1  0.28496164  0.75945688  0.41994527  1
  O  O5  1  0.71367486  0.20249418  0.63112366  1
  O  O6  1  0.66957197  0.66992100  0.65753220  1
  O  O7  1  0.85687862  0.34994048  0.87995785  1
  O  O8  1  0.14570584  0.66524642  0.14412193  1
  O  O9  1  0.36379143  0.26987063  0.90744389  1
  O  O10  1  0.33187301  0.32655241  0.36439993  1
  O  O11  1  0.62340446  0.73930301  0.09854942  1
  F  F12  1  0.17168734  0.89405208  0.74790840  1
  F  F13  1  0.85081798  0.10342174  0.27267133  1
  P  P14  1  0.34268943  0.62211901  0.26048226  1
  P  P15  1  0.65348803  0.37196206  0.76828448  1
  V  V16  1  0.99539541  0.00181236  0.01365094  1
  V  V17  1  0.00598313  0.99897556  0.50788876  1
