# generated using pymatgen
data_Li3Cu2P5O16
_symmetry_space_group_name_H-M   'P 1'
_cell_length_a   17.52236908
_cell_length_b   7.01837195
_cell_length_c   5.10343273
_cell_angle_alpha   90.00000000
_cell_angle_beta   91.10962019
_cell_angle_gamma   90.00000000
_symmetry_Int_Tables_number   1
_chemical_formula_structural   Li3Cu2P5O16
_chemical_formula_sum   'Li6 Cu4 P10 O32'
_cell_volume   627.49482729
_cell_formula_units_Z   2
loop_
 _symmetry_equiv_pos_site_id
 _symmetry_equiv_pos_as_xyz
  1  'x, y, z'
loop_
 _atom_site_type_symbol
 _atom_site_label
 _atom_site_symmetry_multiplicity
 _atom_site_fract_x
 _atom_site_fract_y
 _atom_site_fract_z
 _atom_site_occupancy
  Li  Li0  1  0.03732400  0.32761013  0.26816409  1
  Li  Li1  1  0.96267600  0.67238987  0.73183591  1
  Li  Li2  1  0.75000000  0.02436911  0.50000000  1
  Li  Li3  1  0.53732400  0.67238987  0.26816409  1
  Li  Li4  1  0.46267600  0.32761013  0.73183591  1
  Li  Li5  1  0.25000000  0.97563089  0.50000000  1
  O  O6  1  0.51742505  0.80579701  0.62665675  1
  O  O7  1  0.92754139  0.91193544  0.92907934  1
  O  O8  1  0.93682641  0.38755930  0.10311190  1
  O  O9  1  0.98257495  0.80579701  0.37334325  1
  O  O10  1  0.01742505  0.19420299  0.62665675  1
  O  O11  1  0.06317359  0.61244070  0.89688810  1
  O  O12  1  0.07245861  0.08806456  0.07092066  1
  O  O13  1  0.11030921  0.55473766  0.42972749  1
  O  O14  1  0.13710292  0.98122007  0.63872588  1
  O  O15  1  0.14449715  0.31665953  0.78867510  1
  O  O16  1  0.19709539  0.86577927  0.17108693  1
  O  O17  1  0.20683952  0.61537827  0.80062142  1
  O  O18  1  0.29316048  0.61537827  0.19937858  1
  O  O19  1  0.30290461  0.86577927  0.82891307  1
  O  O20  1  0.35550285  0.31665953  0.21132490  1
  O  O21  1  0.36289708  0.98122007  0.36127412  1
  O  O22  1  0.38969079  0.55473766  0.57027251  1
  O  O23  1  0.86289708  0.01877993  0.36127412  1
  O  O24  1  0.43682641  0.61244070  0.10311190  1
  O  O25  1  0.48257495  0.19420299  0.37334325  1
  O  O26  1  0.42754139  0.08806456  0.92907934  1
  O  O27  1  0.56317359  0.38755930  0.89688810  1
  O  O28  1  0.57245861  0.91193544  0.07092066  1
  O  O29  1  0.61030921  0.44526234  0.42972749  1
  O  O30  1  0.63710292  0.01877993  0.63872588  1
  O  O31  1  0.64449715  0.68334047  0.78867510  1
  O  O32  1  0.69709539  0.13422073  0.17108693  1
  O  O33  1  0.70683952  0.38462173  0.80062142  1
  O  O34  1  0.79316048  0.38462173  0.19937858  1
  O  O35  1  0.80290461  0.13422073  0.82891307  1
  O  O36  1  0.85550285  0.68334047  0.21132490  1
  O  O37  1  0.88969079  0.44526234  0.57027251  1
  P  P38  1  0.58951595  0.87384369  0.78130909  1
  P  P39  1  0.62373032  0.46671788  0.72384050  1
  P  P40  1  0.75000000  0.24708648  0.00000000  1
  P  P41  1  0.87626968  0.46671788  0.27615950  1
  P  P42  1  0.08951595  0.12615631  0.78130909  1
  P  P43  1  0.12373032  0.53328212  0.72384050  1
  P  P44  1  0.25000000  0.75291352  0.00000000  1
  P  P45  1  0.91048405  0.87384369  0.21869091  1
  P  P46  1  0.41048405  0.12615631  0.21869091  1
  P  P47  1  0.37626968  0.53328212  0.27615950  1
  Cu  Cu48  1  0.91201731  0.16957343  0.74259140  1
  Cu  Cu49  1  0.58798269  0.16957343  0.25740860  1
  Cu  Cu50  1  0.41201731  0.83042657  0.74259140  1
  Cu  Cu51  1  0.08798269  0.83042657  0.25740860  1
