# generated using pymatgen
data_Cu2P3O10
_symmetry_space_group_name_H-M   'P 1'
_cell_length_a   4.76921532
_cell_length_b   8.30968902
_cell_length_c   9.18943411
_cell_angle_alpha   90.00000000
_cell_angle_beta   102.38202671
_cell_angle_gamma   90.00000000
_symmetry_Int_Tables_number   1
_chemical_formula_structural   Cu2P3O10
_chemical_formula_sum   'Cu4 P6 O20'
_cell_volume   355.71261006
_cell_formula_units_Z   2
loop_
 _symmetry_equiv_pos_site_id
 _symmetry_equiv_pos_as_xyz
  1  'x, y, z'
loop_
 _atom_site_type_symbol
 _atom_site_label
 _atom_site_symmetry_multiplicity
 _atom_site_fract_x
 _atom_site_fract_y
 _atom_site_fract_z
 _atom_site_occupancy
  O  O0  1  0.66534074  0.90410157  0.82608335  1
  O  O1  1  0.84591050  0.90545163  0.19489321  1
  O  O2  1  0.84591050  0.59454837  0.19489321  1
  O  O3  1  0.80705255  0.25000000  0.24083265  1
  O  O4  1  0.15408950  0.09454837  0.80510679  1
  O  O5  1  0.15408950  0.40545163  0.80510679  1
  O  O6  1  0.19294745  0.75000000  0.75916735  1
  O  O7  1  0.24468179  0.59598682  0.47034336  1
  O  O8  1  0.24468179  0.90401318  0.47034336  1
  O  O9  1  0.28789450  0.25000000  0.44585319  1
  O  O10  1  0.53541710  0.25000000  0.97942218  1
  O  O11  1  0.55212938  0.25000000  0.71871222  1
  O  O12  1  0.75531821  0.09598682  0.52965664  1
  O  O13  1  0.33465926  0.40410157  0.17391665  1
  O  O14  1  0.66534074  0.59589843  0.82608335  1
  O  O15  1  0.33465926  0.09589843  0.17391665  1
  O  O16  1  0.44787062  0.75000000  0.28128778  1
  O  O17  1  0.46458290  0.75000000  0.02057782  1
  O  O18  1  0.71210550  0.75000000  0.55414681  1
  O  O19  1  0.75531821  0.40401318  0.52965664  1
  P  P20  1  0.51085367  0.75000000  0.85133718  1
  P  P21  1  0.40773163  0.75000000  0.44900915  1
  P  P22  1  0.59226837  0.25000000  0.55099085  1
  P  P23  1  0.48914633  0.25000000  0.14866282  1
  P  P24  1  0.31835106  0.25000000  0.82046149  1
  P  P25  1  0.68164894  0.75000000  0.17953851  1
  Cu  Cu26  1  0.93040957  0.93502713  0.67763457  1
  Cu  Cu27  1  0.93040957  0.56497287  0.67763457  1
  Cu  Cu28  1  0.06959043  0.43502713  0.32236543  1
  Cu  Cu29  1  0.06959043  0.06497287  0.32236543  1
