# generated using pymatgen
data_Li3Bi2(PO4)3
_symmetry_space_group_name_H-M   'P 1'
_cell_length_a   8.92839824
_cell_length_b   9.75653487
_cell_length_c   8.92828145
_cell_angle_alpha   90.00338351
_cell_angle_beta   59.99820302
_cell_angle_gamma   117.23235350
_symmetry_Int_Tables_number   1
_chemical_formula_structural   Li3Bi2(PO4)3
_chemical_formula_sum   'Li6 Bi4 P6 O24'
_cell_volume   571.84174874
_cell_formula_units_Z   2
loop_
 _symmetry_equiv_pos_site_id
 _symmetry_equiv_pos_as_xyz
  1  'x, y, z'
loop_
 _atom_site_type_symbol
 _atom_site_label
 _atom_site_symmetry_multiplicity
 _atom_site_fract_x
 _atom_site_fract_y
 _atom_site_fract_z
 _atom_site_occupancy
  Li  Li0  1  0.92960476  0.86480001  0.33324074  1
  Li  Li1  1  0.07039506  0.13519943  0.66675863  1
  Li  Li2  1  0.80197703  0.13515198  0.26279582  1
  Li  Li3  1  0.39800004  0.13516367  0.93523514  1
  Li  Li4  1  0.60200160  0.86483622  0.06476519  1
  Li  Li5  1  0.19802128  0.86484706  0.73720444  1
  O  O6  1  0.67972501  0.18451718  0.85653134  1
  O  O7  1  0.04104323  0.18455201  0.46371510  1
  O  O8  1  0.09141383  0.26715378  0.16073835  1
  O  O9  1  0.21058812  0.08845920  0.20005147  1
  O  O10  1  0.78941092  0.91154092  0.79994903  1
  O  O11  1  0.90858025  0.73284725  0.83925897  1
  O  O12  1  0.95895532  0.81544750  0.53628647  1
  O  O13  1  0.32216978  0.91149118  0.87785865  1
  O  O14  1  0.80439798  0.38373206  1.01060466  1
  O  O15  1  0.71145096  0.91151212  0.41065021  1
  O  O16  1  0.60563728  0.61629164  0.81503052  1
  O  O17  1  0.19560414  0.61626012  -0.01061070  1
  O  O18  1  0.35165927  0.81547072  0.50481276  1
  O  O19  1  0.57195870  0.73281646  0.25220933  1
  O  O20  1  0.98501931  0.73282766  0.17578947  1
  O  O21  1  0.43119717  0.61631044  0.57939548  1
  O  O22  1  0.56879703  0.38368028  0.42061433  1
  O  O23  1  0.32027589  0.81548310  0.14346652  1
  O  O24  1  0.42803913  0.26718499  0.74779956  1
  O  O25  1  0.64834055  0.18452868  0.49518820  1
  O  O26  1  0.01499168  0.26717475  0.82420313  1
  O  O27  1  0.39434813  0.38369891  0.18497434  1
  O  O28  1  0.28854871  0.08848773  0.58935124  1
  O  O29  1  0.67783207  0.08851002  0.12213924  1
  P  P30  1  0.79801664  0.23573494  0.95000182  1
  P  P31  1  0.51224665  0.76429404  0.43770106  1
  P  P32  1  0.48775970  0.23571362  0.56228244  1
  P  P33  1  0.20197457  0.76427281  0.05000824  1
  P  P34  1  0.81428314  0.76429260  0.74805291  1
  P  P35  1  0.18573512  0.23571463  0.25194601  1
  Bi  Bi36  1  0.68921597  0.03381167  0.65538293  1
  Bi  Bi37  1  0.69535180  0.54299951  0.15232624  1
  Bi  Bi38  1  0.30464785  0.45700052  0.84767422  1
  Bi  Bi39  1  0.31078435  0.96618858  0.34461648  1
