# generated using pymatgen
data_LiBi(PO3)4
_symmetry_space_group_name_H-M   'P 1'
_cell_length_a   7.58995296
_cell_length_b   9.04580214
_cell_length_c   15.58388811
_cell_angle_alpha   90.00000000
_cell_angle_beta   96.05078033
_cell_angle_gamma   90.00000000
_symmetry_Int_Tables_number   1
_chemical_formula_structural   LiBi(PO3)4
_chemical_formula_sum   'Li4 Bi4 P16 O48'
_cell_volume   1063.98550377
_cell_formula_units_Z   4
loop_
 _symmetry_equiv_pos_site_id
 _symmetry_equiv_pos_as_xyz
  1  'x, y, z'
loop_
 _atom_site_type_symbol
 _atom_site_label
 _atom_site_symmetry_multiplicity
 _atom_site_fract_x
 _atom_site_fract_y
 _atom_site_fract_z
 _atom_site_occupancy
  Li  Li0  1  -0.00565244  0.58022357  0.92415762  1
  Li  Li1  1  1.00565244  0.41977643  0.07584238  1
  Li  Li2  1  0.49434756  0.91977643  0.42415762  1
  Li  Li3  1  0.50565244  0.08022357  0.57584238  1
  O  O4  1  0.24060373  0.37593701  0.15646088  1
  O  O5  1  0.89482731  0.73658216  0.47974125  1
  O  O6  1  0.85846103  0.84153427  0.29054508  1
  O  O7  1  0.92608362  0.62177493  0.03965528  1
  O  O8  1  0.07391638  0.37822507  0.96034472  1
  O  O9  1  0.06589661  0.15243036  0.86651188  1
  O  O10  1  0.14153897  0.15846573  0.70945492  1
  O  O11  1  0.10517269  0.26341784  0.52025875  1
  O  O12  1  0.05554206  0.03884238  0.23486167  1
  O  O13  1  0.14703666  0.78944508  0.59974572  1
  O  O14  1  0.09947992  0.39191948  0.37108132  1
  O  O15  1  0.15047876  0.11444975  0.39100599  1
  O  O16  1  0.23002881  0.45653639  0.68526809  1
  O  O17  1  0.13207519  0.61314798  0.22281968  1
  O  O18  1  0.26997119  0.95653639  0.81473191  1
  O  O19  1  0.35296334  0.28944508  0.90025428  1
  O  O20  1  0.25939627  0.87593701  0.34353912  1
  O  O21  1  0.27412282  0.63813296  0.48164181  1
  O  O22  1  0.39482731  0.76341784  0.97974125  1
  O  O23  1  0.35846103  0.65846573  0.79054508  1
  O  O24  1  0.22587718  0.13813296  0.01835819  1
  O  O25  1  0.93410339  0.84756964  0.13348812  1
  O  O26  1  0.43410339  0.65243036  0.63348812  1
  O  O27  1  0.36792481  0.11314798  0.27718032  1
  O  O28  1  0.42608362  0.87822507  0.53965528  1
  O  O29  1  0.34952124  0.61444975  0.10899401  1
  O  O30  1  0.40052008  0.89191948  0.12891868  1
  O  O31  1  0.44445794  0.53884238  0.26513833  1
  O  O32  1  0.55554206  0.46115762  0.73486167  1
  O  O33  1  0.59947992  0.10808052  0.87108132  1
  O  O34  1  0.65047876  0.38555025  0.89100599  1
  O  O35  1  0.57391638  0.12177493  0.46034472  1
  O  O36  1  0.63207519  0.88685202  0.72281968  1
  O  O37  1  0.56589661  0.34756964  0.36651188  1
  O  O38  1  0.75939627  0.62406299  0.84353912  1
  O  O39  1  0.77412282  0.86186704  0.98164181  1
  O  O40  1  0.64153897  0.34153427  0.20945492  1
  O  O41  1  0.60517269  0.23658216  0.02025875  1
  O  O42  1  0.72587718  0.36186704  0.51835819  1
  O  O43  1  0.74060373  0.12406299  0.65646088  1
  O  O44  1  0.64703666  0.71055492  0.09974572  1
  O  O45  1  0.73002881  0.04346361  0.18526809  1
  O  O46  1  0.86792481  0.38685202  0.77718032  1
  O  O47  1  0.76997119  0.54346361  0.31473191  1
  O  O48  1  0.84952124  0.88555025  0.60899401  1
  O  O49  1  0.94445794  0.96115762  0.76513833  1
  O  O50  1  0.85296334  0.21055492  0.40025428  1
  O  O51  1  0.90052008  0.60808052  0.62891868  1
  P  P52  1  0.78271942  0.96995908  0.69020749  1
  P  P53  1  0.82289577  0.75916433  0.05618143  1
  P  P54  1  0.67710423  0.25916433  0.44381857  1
  P  P55  1  0.94165980  0.73991165  0.57624599  1
  P  P56  1  0.12237973  0.05964230  0.78558529  1
  P  P57  1  0.05834020  0.26008835  0.42375401  1
  P  P58  1  0.17710423  0.24083567  0.94381857  1
  P  P59  1  0.21728058  0.03004092  0.30979251  1
  P  P60  1  0.32289577  0.74083567  0.55618143  1
  P  P61  1  0.37762027  0.55964230  0.71441471  1
  P  P62  1  0.28271942  0.53004092  0.19020749  1
  P  P63  1  0.55834020  0.23991165  0.92375401  1
  P  P64  1  0.44165980  0.76008835  0.07624599  1
  P  P65  1  0.71728058  0.46995908  0.80979251  1
  P  P66  1  0.62237973  0.44035770  0.28558529  1
  P  P67  1  0.87762027  0.94035770  0.21441471  1
  Bi  Bi68  1  0.95911990  0.34617605  0.63963164  1
  Bi  Bi69  1  0.45911990  0.15382395  0.13963164  1
  Bi  Bi70  1  0.54088010  0.84617605  0.86036836  1
  Bi  Bi71  1  0.04088010  0.65382395  0.36036836  1
