# generated using pymatgen
data_CsTlI4
_symmetry_space_group_name_H-M   'P 1'
_cell_length_a   7.65476275
_cell_length_b   8.84454584
_cell_length_c   19.46863610
_cell_angle_alpha   90.00000000
_cell_angle_beta   90.00000000
_cell_angle_gamma   105.70162700
_symmetry_Int_Tables_number   1
_chemical_formula_structural   CsTlI4
_chemical_formula_sum   'Cs4 Tl4 I16'
_cell_volume   1268.89761443
_cell_formula_units_Z   4
loop_
 _symmetry_equiv_pos_site_id
 _symmetry_equiv_pos_as_xyz
  1  'x, y, z'
loop_
 _atom_site_type_symbol
 _atom_site_label
 _atom_site_symmetry_multiplicity
 _atom_site_fract_x
 _atom_site_fract_y
 _atom_site_fract_z
 _atom_site_occupancy
  I  I0  1  0.63077008  0.13182127  0.74383260  1
  I  I1  1  0.36922992  0.36817873  0.24383260  1
  I  I2  1  0.36922992  0.86817873  0.25616740  1
  I  I3  1  0.63077008  0.63182127  0.75616740  1
  I  I4  1  0.72366195  0.43970925  0.95124711  1
  I  I5  1  0.27633805  0.06029075  0.45124711  1
  I  I6  1  0.27633805  0.56029075  0.04875289  1
  I  I7  1  0.72366195  0.93970925  0.54875289  1
  I  I8  1  0.18935091  0.79620053  0.66091907  1
  I  I9  1  0.81064909  0.70379947  0.16091907  1
  I  I10  1  0.81064909  0.20379947  0.33908093  1
  I  I11  1  0.18935091  0.29620053  0.83908093  1
  I  I12  1  0.72900402  0.42210338  0.55001752  1
  I  I13  1  0.27099598  0.07789662  0.05001752  1
  I  I14  1  0.27099598  0.57789662  0.44998248  1
  I  I15  1  0.72900402  0.92210338  0.94998248  1
  Cs  Cs16  1  0.80951865  0.70940180  0.37206733  1
  Cs  Cs17  1  0.19048135  0.79059820  0.87206733  1
  Cs  Cs18  1  0.19048135  0.29059820  0.62793267  1
  Cs  Cs19  1  0.80951865  0.20940180  0.12793267  1
  Tl  Tl20  1  0.81106388  0.70402558  0.62933445  1
  Tl  Tl21  1  0.18893612  0.79597442  0.12933445  1
  Tl  Tl22  1  0.18893612  0.29597442  0.37066555  1
  Tl  Tl23  1  0.81106388  0.20402558  0.87066555  1
