# generated using pymatgen
data_Sn5Sb2S9
_symmetry_space_group_name_H-M   'P 1'
_cell_length_a   11.66331637
_cell_length_b   11.62480984
_cell_length_c   11.53337316
_cell_angle_alpha   90.00000000
_cell_angle_beta   90.00000000
_cell_angle_gamma   90.00000000
_symmetry_Int_Tables_number   1
_chemical_formula_structural   Sn5Sb2S9
_chemical_formula_sum   'Sn20 Sb8 S36'
_cell_volume   1563.73896242
_cell_formula_units_Z   4
loop_
 _symmetry_equiv_pos_site_id
 _symmetry_equiv_pos_as_xyz
  1  'x, y, z'
loop_
 _atom_site_type_symbol
 _atom_site_label
 _atom_site_symmetry_multiplicity
 _atom_site_fract_x
 _atom_site_fract_y
 _atom_site_fract_z
 _atom_site_occupancy
  S  S0  1  0.70684487  0.44445771  0.92883201  1
  S  S1  1  0.20684487  0.55554229  0.57116799  1
  S  S2  1  0.79315513  0.94445771  0.07116799  1
  S  S3  1  0.29315513  0.05554229  0.42883201  1
  S  S4  1  0.29315513  0.55554229  0.07116799  1
  S  S5  1  0.79315513  0.44445771  0.42883201  1
  S  S6  1  0.20684487  0.05554229  0.92883201  1
  S  S7  1  0.70684487  0.94445771  0.57116799  1
  S  S8  1  0.55434196  0.20612074  0.55352075  1
  S  S9  1  0.05434196  0.79387926  0.94647925  1
  S  S10  1  0.94565804  0.70612074  0.44647925  1
  S  S11  1  0.44565804  0.29387926  0.05352075  1
  S  S12  1  0.44565804  0.79387926  0.44647925  1
  S  S13  1  0.94565804  0.20612074  0.05352075  1
  S  S14  1  0.05434196  0.29387926  0.55352075  1
  S  S15  1  0.67241496  0.16320542  0.82540241  1
  S  S16  1  0.55434196  0.70612074  0.94647925  1
  S  S17  1  0.44441255  0.94617392  0.71276569  1
  S  S18  1  0.55558745  0.55382608  0.21276569  1
  S  S19  1  0.05558745  0.44617392  0.28723431  1
  S  S20  1  0.05558745  0.94617392  0.21276569  1
  S  S21  1  0.55558745  0.05382608  0.28723431  1
  S  S22  1  0.44441255  0.44617392  0.78723431  1
  S  S23  1  0.94441255  0.55382608  0.71276569  1
  S  S24  1  0.50000000  0.00000000  0.00000000  1
  S  S25  1  0.00000000  0.00000000  0.50000000  1
  S  S26  1  0.00000000  0.50000000  0.00000000  1
  S  S27  1  0.50000000  0.50000000  0.50000000  1
  S  S28  1  0.67241496  0.66320542  0.67459759  1
  S  S29  1  0.17241496  0.33679458  0.82540241  1
  S  S30  1  0.82758504  0.16320542  0.32540241  1
  S  S31  1  0.32758504  0.83679458  0.17459759  1
  S  S32  1  0.32758504  0.33679458  0.32540241  1
  S  S33  1  0.82758504  0.66320542  0.17459759  1
  S  S34  1  0.17241496  0.83679458  0.67459759  1
  S  S35  1  0.94441255  0.05382608  0.78723431  1
  Sn  Sn36  1  0.00000000  0.50000000  0.50000000  1
  Sn  Sn37  1  0.50000000  0.50000000  0.00000000  1
  Sn  Sn38  1  0.50000000  0.00000000  0.50000000  1
  Sn  Sn39  1  0.00000000  0.00000000  0.00000000  1
  Sn  Sn40  1  0.80451837  0.15311864  0.56304314  1
  Sn  Sn41  1  0.30451837  0.84688136  0.93695686  1
  Sn  Sn42  1  0.69548163  0.65311864  0.43695686  1
  Sn  Sn43  1  0.19548163  0.34688136  0.06304314  1
  Sn  Sn44  1  0.19548163  0.84688136  0.43695686  1
  Sn  Sn45  1  0.69548163  0.15311864  0.06304314  1
  Sn  Sn46  1  0.30451837  0.34688136  0.56304314  1
  Sn  Sn47  1  0.80451837  0.65311864  0.93695686  1
  Sn  Sn48  1  0.93746531  0.30759540  0.85199082  1
  Sn  Sn49  1  0.43746531  0.69240460  0.64800918  1
  Sn  Sn50  1  0.56253469  0.80759540  0.14800918  1
  Sn  Sn51  1  0.06253469  0.19240460  0.35199082  1
  Sn  Sn52  1  0.06253469  0.69240460  0.14800918  1
  Sn  Sn53  1  0.56253469  0.30759540  0.35199082  1
  Sn  Sn54  1  0.43746531  0.19240460  0.85199082  1
  Sn  Sn55  1  0.93746531  0.80759540  0.64800918  1
  Sb  Sb56  1  0.63987273  0.45052510  0.70309153  1
  Sb  Sb57  1  0.13987273  0.54947490  0.79690847  1
  Sb  Sb58  1  0.86012727  0.95052510  0.29690847  1
  Sb  Sb59  1  0.36012727  0.04947490  0.20309153  1
  Sb  Sb60  1  0.36012727  0.54947490  0.29690847  1
  Sb  Sb61  1  0.86012727  0.45052510  0.20309153  1
  Sb  Sb62  1  0.13987273  0.04947490  0.70309153  1
  Sb  Sb63  1  0.63987273  0.95052510  0.79690847  1
