# generated using pymatgen
data_Sr3Zr2O7
_symmetry_space_group_name_H-M   'P 1'
_cell_length_a   4.19130634
_cell_length_b   4.19129628
_cell_length_c   21.14639444
_cell_angle_alpha   90.00000000
_cell_angle_beta   90.00000000
_cell_angle_gamma   90.00000000
_symmetry_Int_Tables_number   1
_chemical_formula_structural   Sr3Zr2O7
_chemical_formula_sum   'Sr6 Zr4 O14'
_cell_volume   371.47885220
_cell_formula_units_Z   2
loop_
 _symmetry_equiv_pos_site_id
 _symmetry_equiv_pos_as_xyz
  1  'x, y, z'
loop_
 _atom_site_type_symbol
 _atom_site_label
 _atom_site_symmetry_multiplicity
 _atom_site_fract_x
 _atom_site_fract_y
 _atom_site_fract_z
 _atom_site_occupancy
  O  O0  1  0.50000000  0.00000000  0.40139743  1
  O  O1  1  0.50000000  0.00000000  0.59860257  1
  O  O2  1  0.00000000  0.50000000  0.40092019  1
  O  O3  1  0.00000000  0.50000000  0.59907981  1
  O  O4  1  0.00000000  0.50000000  0.09825944  1
  O  O5  1  0.00000000  0.50000000  0.90174056  1
  O  O6  1  0.50000000  0.00000000  0.09828612  1
  O  O7  1  0.50000000  0.00000000  0.90171388  1
  O  O8  1  0.50000000  0.50000000  0.29991736  1
  O  O9  1  0.50000000  0.50000000  0.70008264  1
  O  O10  1  0.00000000  0.00000000  0.00000000  1
  O  O11  1  0.50000000  0.50000000  0.50000000  1
  O  O12  1  0.00000000  0.00000000  0.80040771  1
  O  O13  1  0.00000000  0.00000000  0.19959229  1
  Sr  Sr14  1  0.00000000  0.00000000  0.50000000  1
  Sr  Sr15  1  0.50000000  0.50000000  0.00000000  1
  Sr  Sr16  1  0.00000000  0.00000000  0.68668471  1
  Sr  Sr17  1  0.00000000  0.00000000  0.31331529  1
  Sr  Sr18  1  0.50000000  0.50000000  0.18612192  1
  Sr  Sr19  1  0.50000000  0.50000000  0.81387808  1
  Zr  Zr20  1  0.00000000  0.00000000  0.89978812  1
  Zr  Zr21  1  0.00000000  0.00000000  0.10021188  1
  Zr  Zr22  1  0.50000000  0.50000000  0.60059150  1
  Zr  Zr23  1  0.50000000  0.50000000  0.39940850  1
