# generated using pymatgen
data_SrCuO3
_symmetry_space_group_name_H-M   'P 1'
_cell_length_a   3.85589336
_cell_length_b   8.55260598
_cell_length_c   10.81911821
_cell_angle_alpha   90.00000000
_cell_angle_beta   90.00000000
_cell_angle_gamma   90.01780206
_symmetry_Int_Tables_number   1
_chemical_formula_structural   SrCuO3
_chemical_formula_sum   'Sr6 Cu6 O18'
_cell_volume   356.79217754
_cell_formula_units_Z   6
loop_
 _symmetry_equiv_pos_site_id
 _symmetry_equiv_pos_as_xyz
  1  'x, y, z'
loop_
 _atom_site_type_symbol
 _atom_site_label
 _atom_site_symmetry_multiplicity
 _atom_site_fract_x
 _atom_site_fract_y
 _atom_site_fract_z
 _atom_site_occupancy
  O  O0  1  0.00001943  0.99003478  0.24998405  1
  O  O1  1  0.00001943  0.99003478  0.75001595  1
  O  O2  1  0.00042792  0.29365876  0.50000000  1
  O  O3  1  0.99992588  0.67912155  0.50000000  1
  O  O4  1  0.99958291  0.68627164  0.00000000  1
  O  O5  1  0.00004278  0.30070074  0.00000000  1
  O  O6  1  0.50033946  0.15586490  0.37521582  1
  O  O7  1  0.50033946  0.15586490  0.62478418  1
  O  O8  1  0.50029413  0.48654032  0.37568435  1
  O  O9  1  0.50029413  0.48654032  0.62431565  1
  O  O10  1  0.49982330  0.81710998  0.37454797  1
  O  O11  1  0.49982330  0.81710998  0.62545203  1
  O  O12  1  0.49965863  0.82408461  0.87519012  1
  O  O13  1  0.49965863  0.82408461  0.12480988  1
  O  O14  1  0.49968013  0.49343884  0.87570684  1
  O  O15  1  0.49968013  0.49343884  0.12429316  1
  O  O16  1  0.50016231  0.16295129  0.87453541  1
  O  O17  1  0.50016231  0.16295129  0.12546459  1
  Cu  Cu18  1  0.50003052  0.99006874  0.24997842  1
  Cu  Cu19  1  0.50003052  0.99006874  0.75002158  1
  Cu  Cu20  1  0.50045489  0.32139180  0.50000000  1
  Cu  Cu21  1  0.49993435  0.65290791  0.50000000  1
  Cu  Cu22  1  0.50003436  0.32709997  0.00000000  1
  Cu  Cu23  1  0.49956599  0.65858052  0.00000000  1
  Sr  Sr24  1  0.00044569  0.29318982  0.25136440  1
  Sr  Sr25  1  0.00044569  0.29318982  0.74863560  1
  Sr  Sr26  1  0.99956434  0.68685329  0.24874141  1
  Sr  Sr27  1  0.99956434  0.68685329  0.75125859  1
  Sr  Sr28  1  0.00010251  0.98660555  0.50000000  1
  Sr  Sr29  1  -0.00010748  -0.00661156  0.00000000  1
