# generated using pymatgen
data_W3Br7
_symmetry_space_group_name_H-M   'P 1'
_cell_length_a   14.18288976
_cell_length_b   14.18288976
_cell_length_c   14.18288976
_cell_angle_alpha   90.00000000
_cell_angle_beta   90.00000000
_cell_angle_gamma   90.00000000
_symmetry_Int_Tables_number   1
_chemical_formula_structural   W3Br7
_chemical_formula_sum   'W24 Br56'
_cell_volume   2852.95014020
_cell_formula_units_Z   8
loop_
 _symmetry_equiv_pos_site_id
 _symmetry_equiv_pos_as_xyz
  1  'x, y, z'
loop_
 _atom_site_type_symbol
 _atom_site_label
 _atom_site_symmetry_multiplicity
 _atom_site_fract_x
 _atom_site_fract_y
 _atom_site_fract_z
 _atom_site_occupancy
  Br  Br0  1  0.13310022  0.13310022  0.13310022  1
  Br  Br1  1  0.36689978  0.36689978  0.13310022  1
  Br  Br2  1  0.13310022  0.36689978  0.36689978  1
  Br  Br3  1  0.36689978  0.13310022  0.36689978  1
  Br  Br4  1  0.86689978  0.86689978  0.86689978  1
  Br  Br5  1  0.63310022  0.63310022  0.86689978  1
  Br  Br6  1  0.86689978  0.63310022  0.63310022  1
  Br  Br7  1  0.63310022  0.86689978  0.63310022  1
  Br  Br8  1  0.18533833  0.06291652  0.88145920  1
  Br  Br9  1  0.88145920  0.18533833  0.06291652  1
  Br  Br10  1  0.06291652  0.88145920  0.18533833  1
  Br  Br11  1  0.43708348  0.61854080  0.18533833  1
  Br  Br12  1  0.88145920  0.31466167  0.43708348  1
  Br  Br13  1  0.43708348  0.88145920  0.31466167  1
  Br  Br14  1  0.61854080  0.31466167  0.06291652  1
  Br  Br15  1  0.61854080  0.18533833  0.43708348  1
  Br  Br16  1  0.06291652  0.61854080  0.31466167  1
  Br  Br17  1  0.18533833  0.43708348  0.61854080  1
  Br  Br18  1  0.31466167  0.06291652  0.61854080  1
  Br  Br19  1  0.31466167  0.43708348  0.88145920  1
  Br  Br20  1  0.81466167  0.93708348  0.11854080  1
  Br  Br21  1  0.11854080  0.81466167  0.93708348  1
  Br  Br22  1  0.93708348  0.11854080  0.81466167  1
  Br  Br23  1  0.56291652  0.38145920  0.81466167  1
  Br  Br24  1  0.11854080  0.68533833  0.56291652  1
  Br  Br25  1  0.56291652  0.11854080  0.68533833  1
  Br  Br26  1  0.38145920  0.68533833  0.93708348  1
  Br  Br27  1  0.38145920  0.81466167  0.56291652  1
  Br  Br28  1  0.93708348  0.38145920  0.68533833  1
  Br  Br29  1  0.81466167  0.56291652  0.38145920  1
  Br  Br30  1  0.68533833  0.93708348  0.38145920  1
  Br  Br31  1  0.68533833  0.56291652  0.11854080  1
  Br  Br32  1  0.29616711  0.93874676  0.08163087  1
  Br  Br33  1  0.08163087  0.29616711  0.93874676  1
  Br  Br34  1  0.93874676  0.08163087  0.29616711  1
  Br  Br35  1  0.56125324  0.41836913  0.29616711  1
  Br  Br36  1  0.08163087  0.20383289  0.56125324  1
  Br  Br37  1  0.56125324  0.08163087  0.20383289  1
  Br  Br38  1  0.41836913  0.20383289  0.93874676  1
  Br  Br39  1  0.41836913  0.29616711  0.56125324  1
  Br  Br40  1  0.93874676  0.41836913  0.20383289  1
  Br  Br41  1  0.29616711  0.56125324  0.41836913  1
  Br  Br42  1  0.20383289  0.93874676  0.41836913  1
  Br  Br43  1  0.20383289  0.56125324  0.08163087  1
  Br  Br44  1  0.70383289  0.06125324  0.91836913  1
  Br  Br45  1  0.91836913  0.70383289  0.06125324  1
  Br  Br46  1  0.06125324  0.91836913  0.70383289  1
  Br  Br47  1  0.43874676  0.58163087  0.70383289  1
  Br  Br48  1  0.91836913  0.79616711  0.43874676  1
  Br  Br49  1  0.43874676  0.91836913  0.79616711  1
  Br  Br50  1  0.58163087  0.79616711  0.06125324  1
  Br  Br51  1  0.58163087  0.70383289  0.43874676  1
  Br  Br52  1  0.06125324  0.58163087  0.79616711  1
  Br  Br53  1  0.70383289  0.43874676  0.58163087  1
  Br  Br54  1  0.79616711  0.06125324  0.58163087  1
  Br  Br55  1  0.79616711  0.43874676  0.91836913  1
  W  W56  1  0.12632597  0.97365434  0.03519521  1
  W  W57  1  0.03519521  0.12632597  0.97365434  1
  W  W58  1  0.97365434  0.03519521  0.12632597  1
  W  W59  1  0.52634566  0.46480479  0.12632597  1
  W  W60  1  0.03519521  0.37367403  0.52634566  1
  W  W61  1  0.52634566  0.03519521  0.37367403  1
  W  W62  1  0.46480479  0.37367403  0.97365434  1
  W  W63  1  0.46480479  0.12632597  0.52634566  1
  W  W64  1  0.97365434  0.46480479  0.37367403  1
  W  W65  1  0.12632597  0.52634566  0.46480479  1
  W  W66  1  0.37367403  0.97365434  0.46480479  1
  W  W67  1  0.37367403  0.52634566  0.03519521  1
  W  W68  1  0.87367403  0.02634566  0.96480479  1
  W  W69  1  0.96480479  0.87367403  0.02634566  1
  W  W70  1  0.02634566  0.96480479  0.87367403  1
  W  W71  1  0.47365434  0.53519521  0.87367403  1
  W  W72  1  0.96480479  0.62632597  0.47365434  1
  W  W73  1  0.47365434  0.96480479  0.62632597  1
  W  W74  1  0.53519521  0.62632597  0.02634566  1
  W  W75  1  0.53519521  0.87367403  0.47365434  1
  W  W76  1  0.02634566  0.53519521  0.62632597  1
  W  W77  1  0.87367403  0.47365434  0.53519521  1
  W  W78  1  0.62632597  0.02634566  0.53519521  1
  W  W79  1  0.62632597  0.47365434  0.96480479  1
