# generated using pymatgen
data_La2Be2O5
_symmetry_space_group_name_H-M   'P 1'
_cell_length_a   5.29590516
_cell_length_b   5.29590515
_cell_length_c   7.45791963
_cell_angle_alpha   89.23128527
_cell_angle_beta   89.23128523
_cell_angle_gamma   88.37735058
_symmetry_Int_Tables_number   1
_chemical_formula_structural   La2Be2O5
_chemical_formula_sum   'La4 Be4 O10'
_cell_volume   209.04889558
_cell_formula_units_Z   2
loop_
 _symmetry_equiv_pos_site_id
 _symmetry_equiv_pos_as_xyz
  1  'x, y, z'
loop_
 _atom_site_type_symbol
 _atom_site_label
 _atom_site_symmetry_multiplicity
 _atom_site_fract_x
 _atom_site_fract_y
 _atom_site_fract_z
 _atom_site_occupancy
  Be  Be0  1  0.31238408  0.74797975  0.53012970  1
  Be  Be1  1  0.25202025  0.68761592  0.96987030  1
  Be  Be2  1  0.74797975  0.31238408  0.03012970  1
  Be  Be3  1  0.68761592  0.25202025  0.46987030  1
  O  O4  1  0.24703895  0.75296105  0.75000000  1
  O  O5  1  0.75296105  0.24703895  0.25000000  1
  O  O6  1  0.50000000  0.50000000  0.50000000  1
  O  O7  1  0.50000000  0.50000000  0.00000000  1
  O  O8  1  0.25616552  0.94373667  0.08400282  1
  O  O9  1  0.05626333  0.74383448  0.41599718  1
  O  O10  1  0.74383448  0.05626333  0.91599718  1
  O  O11  1  0.94373667  0.25616552  0.58400282  1
  O  O12  1  0.50000000  0.00000000  0.50000000  1
  O  O13  1  0.00000000  0.50000000  0.00000000  1
  La  La14  1  0.20018484  0.27185149  0.30596364  1
  La  La15  1  0.72814851  0.79981516  0.19403636  1
  La  La16  1  0.79981516  0.72814851  0.69403636  1
  La  La17  1  0.27185149  0.20018484  0.80596364  1
