# generated using pymatgen
data_I2(OF2)3
_symmetry_space_group_name_H-M   'P 1'
_cell_length_a   8.74605522
_cell_length_b   9.58473084
_cell_length_c   10.08464706
_cell_angle_alpha   116.44032055
_cell_angle_beta   90.00000000
_cell_angle_gamma   90.00000000
_symmetry_Int_Tables_number   1
_chemical_formula_structural   I2(OF2)3
_chemical_formula_sum   'I8 O12 F24'
_cell_volume   756.95361720
_cell_formula_units_Z   4
loop_
 _symmetry_equiv_pos_site_id
 _symmetry_equiv_pos_as_xyz
  1  'x, y, z'
loop_
 _atom_site_type_symbol
 _atom_site_label
 _atom_site_symmetry_multiplicity
 _atom_site_fract_x
 _atom_site_fract_y
 _atom_site_fract_z
 _atom_site_occupancy
  O  O0  1  0.51502605  0.51288758  0.77440054  1
  O  O1  1  0.01502605  0.98711242  0.22559946  1
  O  O2  1  0.48497395  0.48711242  0.22559946  1
  O  O3  1  0.98497395  0.01288758  0.77440054  1
  O  O4  1  0.61847821  0.70954710  0.15673301  1
  O  O5  1  0.11847821  0.79045290  0.84326699  1
  O  O6  1  0.38152179  0.29045290  0.84326699  1
  O  O7  1  0.88152179  0.20954710  0.15673301  1
  O  O8  1  0.27725759  0.59909805  0.06014352  1
  O  O9  1  0.77725759  0.90090195  0.93985648  1
  O  O10  1  0.72274241  0.40090195  0.93985648  1
  O  O11  1  0.22274241  0.09909805  0.06014352  1
  F  F12  1  0.42864592  0.79661198  0.38784630  1
  F  F13  1  0.40830583  0.35377971  0.50808672  1
  F  F14  1  0.09169417  0.85377971  0.50808672  1
  F  F15  1  0.59169417  0.64622029  0.49191328  1
  F  F16  1  0.78451175  0.34187358  0.42925664  1
  F  F17  1  0.90830583  0.14622029  0.49191328  1
  F  F18  1  0.21548825  0.65812642  0.57074336  1
  F  F19  1  0.71548825  0.84187358  0.42925664  1
  F  F20  1  0.71632036  0.05562659  0.27864031  1
  F  F21  1  0.21632036  0.44437341  0.72135969  1
  F  F22  1  0.28367964  0.94437341  0.72135969  1
  F  F23  1  0.78367964  0.55562659  0.27864031  1
  F  F24  1  0.65628643  0.00401262  0.75159625  1
  F  F25  1  0.15628643  0.49598738  0.24840375  1
  F  F26  1  0.34371357  0.99598738  0.24840375  1
  F  F27  1  0.84371357  0.50401262  0.75159625  1
  F  F28  1  0.58436966  0.15159572  0.03135673  1
  F  F29  1  0.08436966  0.34840428  0.96864327  1
  F  F30  1  0.41563034  0.84840428  0.96864327  1
  F  F31  1  0.91563034  0.65159572  0.03135673  1
  F  F32  1  0.57135408  0.20338802  0.61215370  1
  F  F33  1  0.07135408  0.29661198  0.38784630  1
  F  F34  1  0.28451175  0.15812642  0.57074336  1
  F  F35  1  0.92864592  0.70338802  0.61215370  1
  I  I36  1  0.72637077  0.57877513  0.92890677  1
  I  I37  1  0.22637077  0.92122487  0.07109323  1
  I  I38  1  0.27362923  0.42122487  0.07109323  1
  I  I39  1  0.77362923  0.07877513  0.92890677  1
  I  I40  1  0.59832701  0.66478420  0.31444087  1
  I  I41  1  0.09832701  0.83521580  0.68555913  1
  I  I42  1  0.40167299  0.33521580  0.68555913  1
  I  I43  1  0.90167299  0.16478420  0.31444087  1
