# generated using pymatgen
data_Ba2CoCl6
_symmetry_space_group_name_H-M   'P 1'
_cell_length_a   8.18976821
_cell_length_b   9.23340128
_cell_length_c   12.91942347
_cell_angle_alpha   90.13925747
_cell_angle_beta   90.00000000
_cell_angle_gamma   90.00000000
_symmetry_Int_Tables_number   1
_chemical_formula_structural   Ba2CoCl6
_chemical_formula_sum   'Ba8 Co4 Cl24'
_cell_volume   976.95637573
_cell_formula_units_Z   4
loop_
 _symmetry_equiv_pos_site_id
 _symmetry_equiv_pos_as_xyz
  1  'x, y, z'
loop_
 _atom_site_type_symbol
 _atom_site_label
 _atom_site_symmetry_multiplicity
 _atom_site_fract_x
 _atom_site_fract_y
 _atom_site_fract_z
 _atom_site_occupancy
  Cl  Cl0  1  0.42079381  0.82567223  0.03871963  1
  Cl  Cl1  1  0.92079381  0.67432777  0.46128037  1
  Cl  Cl2  1  0.57920619  0.17432777  0.96128037  1
  Cl  Cl3  1  0.07920619  0.32567223  0.53871963  1
  Cl  Cl4  1  0.58048346  0.80110135  0.29694779  1
  Cl  Cl5  1  0.08048346  0.69889865  0.20305221  1
  Cl  Cl6  1  0.41951654  0.19889865  0.70305221  1
  Cl  Cl7  1  0.91951654  0.30110135  0.79694779  1
  Cl  Cl8  1  0.07164103  0.67988387  0.93007378  1
  Cl  Cl9  1  0.57164103  0.82011613  0.56992622  1
  Cl  Cl10  1  0.92835897  0.32011613  0.06992622  1
  Cl  Cl11  1  0.42835897  0.17988387  0.43007378  1
  Cl  Cl12  1  0.64567203  0.44501078  0.57270822  1
  Cl  Cl13  1  0.14567203  0.05498922  0.92729178  1
  Cl  Cl14  1  0.35432797  0.55498922  0.42729178  1
  Cl  Cl15  1  0.85432797  0.94501078  0.07270822  1
  Cl  Cl16  1  0.89901798  0.08030505  0.36641830  1
  Cl  Cl17  1  0.39901798  0.41969495  0.13358170  1
  Cl  Cl18  1  0.10098202  0.91969495  0.63358170  1
  Cl  Cl19  1  0.60098202  0.58030505  0.86641830  1
  Cl  Cl20  1  0.76668948  0.94371557  0.80279403  1
  Cl  Cl21  1  0.26668948  0.55628443  0.69720597  1
  Cl  Cl22  1  0.23331052  0.05628443  0.19720597  1
  Cl  Cl23  1  0.73331052  0.44371557  0.30279403  1
  Co  Co24  1  0.14291116  0.86725329  0.06774839  1
  Co  Co25  1  0.64291116  0.63274671  0.43225161  1
  Co  Co26  1  0.85708884  0.13274671  0.93225161  1
  Co  Co27  1  0.35708884  0.36725329  0.56774839  1
  Ba  Ba28  1  0.60950484  0.13860984  0.20501525  1
  Ba  Ba29  1  0.10950484  0.36139016  0.29498475  1
  Ba  Ba30  1  0.39049516  0.86139016  0.79498475  1
  Ba  Ba31  1  0.89049516  0.63860984  0.70501525  1
  Ba  Ba32  1  0.72011342  0.62233015  0.09551402  1
  Ba  Ba33  1  0.22011342  0.87766985  0.40448598  1
  Ba  Ba34  1  0.27988658  0.37766985  0.90448598  1
  Ba  Ba35  1  0.77988658  0.12233015  0.59551402  1
