# generated using pymatgen
data_LiCr2(PO4)3
_symmetry_space_group_name_H-M   'P 1'
_cell_length_a   8.85914691
_cell_length_b   8.33113143
_cell_length_c   8.25773515
_cell_angle_alpha   119.40977189
_cell_angle_beta   89.93377532
_cell_angle_gamma   61.50006138
_symmetry_Int_Tables_number   1
_chemical_formula_structural   LiCr2(PO4)3
_chemical_formula_sum   'Li2 Cr4 P6 O24'
_cell_volume   443.97538518
_cell_formula_units_Z   2
loop_
 _symmetry_equiv_pos_site_id
 _symmetry_equiv_pos_as_xyz
  1  'x, y, z'
loop_
 _atom_site_type_symbol
 _atom_site_label
 _atom_site_symmetry_multiplicity
 _atom_site_fract_x
 _atom_site_fract_y
 _atom_site_fract_z
 _atom_site_occupancy
  Li  Li0  1  0.13725200  0.93371517  0.24587953  1
  Li  Li1  1  0.86274706  0.06628567  0.75412021  1
  O  O2  1  0.27275711  0.63362156  0.90202251  1
  O  O3  1  0.79971617  0.65713468  0.17479186  1
  O  O4  1  0.74054183  0.99821754  0.88377922  1
  O  O5  1  0.89571891  0.60647729  0.77681661  1
  O  O6  1  0.10428015  0.39352356  0.22318434  1
  O  O7  1  0.20200616  0.28698863  0.46558502  1
  O  O8  1  0.20028290  0.34286616  0.82520788  1
  O  O9  1  0.10216304  0.68597994  0.17194730  1
  O  O10  1  0.07988616  0.76824164  0.53915873  1
  O  O11  1  0.43372414  0.18205651  0.19587798  1
  O  O12  1  0.79799404  0.71301221  0.53441472  1
  O  O13  1  0.43175527  0.35887873  0.98902062  1
  O  O14  1  0.20684856  0.97336343  0.51108086  1
  O  O15  1  0.92011478  0.23175755  0.46084139  1
  O  O16  1  0.41936405  0.57430496  0.37463550  1
  O  O17  1  0.25945724  0.00178330  0.11622051  1
  O  O18  1  0.89783790  0.31401925  0.82805283  1
  O  O19  1  0.58063614  0.42569588  0.62536545  1
  O  O20  1  0.73115892  0.15613658  0.25934362  1
  O  O21  1  0.79315050  0.02663742  0.48892009  1
  O  O22  1  0.56824567  0.64112045  0.01097950  1
  O  O23  1  0.72724309  0.36637929  0.09797844  1
  O  O24  1  0.56627680  0.81794268  0.80412093  1
  O  O25  1  0.26884088  0.84386261  0.74065530  1
  P  P26  1  0.25039726  0.49969656  0.96663050  1
  P  P27  1  0.24816169  0.78396545  0.53637587  1
  P  P28  1  0.75183737  0.21603540  0.46362508  1
  P  P29  1  0.74960180  0.50030429  0.03337046  1
  P  P30  1  0.25026640  0.21813563  0.25178932  1
  P  P31  1  0.74973266  0.78186522  0.74821164  1
  Cr  Cr32  1  0.94204133  0.70216890  0.35122249  1
  Cr  Cr33  1  0.43002446  0.71927787  0.85714689  1
  Cr  Cr34  1  0.56997460  0.28072297  0.14285406  1
  Cr  Cr35  1  0.05795886  0.29783195  0.64877846  1
