# generated using pymatgen
data_LiCoPO4
_symmetry_space_group_name_H-M   'P 1'
_cell_length_a   8.45681731
_cell_length_b   5.32802016
_cell_length_c   8.07842899
_cell_angle_alpha   90.00000000
_cell_angle_beta   104.70133535
_cell_angle_gamma   90.00000000
_symmetry_Int_Tables_number   1
_chemical_formula_structural   LiCoPO4
_chemical_formula_sum   'Li4 Co4 P4 O16'
_cell_volume   352.08196034
_cell_formula_units_Z   4
loop_
 _symmetry_equiv_pos_site_id
 _symmetry_equiv_pos_as_xyz
  1  'x, y, z'
loop_
 _atom_site_type_symbol
 _atom_site_label
 _atom_site_symmetry_multiplicity
 _atom_site_fract_x
 _atom_site_fract_y
 _atom_site_fract_z
 _atom_site_occupancy
  Li  Li0  1  0.07229692  0.84646654  0.96779944  1
  Li  Li1  1  0.77849294  0.66617706  0.49851518  1
  Li  Li2  1  0.57229678  0.15353384  0.96779956  1
  Li  Li3  1  0.27849308  0.33382332  0.49851507  1
  O  O4  1  0.05352894  0.40040739  0.31757345  1
  O  O5  1  0.66614086  0.20102932  0.21741475  1
  O  O6  1  0.84520761  0.31497876  0.58025501  1
  O  O7  1  0.93648294  0.81378739  0.37710179  1
  O  O8  1  0.99850041  0.17492649  0.87748688  1
  O  O9  1  0.49850026  0.82507388  0.87748576  1
  O  O10  1  0.19872932  0.69930897  0.81740967  1
  O  O11  1  0.77947449  0.89142046  0.69898512  1
  O  O12  1  0.16614100  0.79896917  0.21741464  1
  O  O13  1  0.34520775  0.68502162  0.58025490  1
  O  O14  1  0.89304863  0.67924880  0.06516839  1
  O  O15  1  0.43648309  0.18621298  0.37710292  1
  O  O16  1  0.39304877  0.32075158  0.06516828  1
  O  O17  1  0.55352880  0.59959110  0.31757356  1
  O  O18  1  0.69872917  0.30069140  0.81740854  1
  O  O19  1  0.27947464  0.10857992  0.69898625  1
  P  P20  1  0.01022847  0.67004480  0.24639502  1
  P  P21  1  0.33012590  0.82930655  0.74187581  1
  P  P22  1  0.51022833  0.32995369  0.24639513  1
  P  P23  1  0.83012576  0.17069382  0.74187592  1
  Co  Co24  1  0.88601403  0.17423025  0.36555341  1
  Co  Co25  1  0.70552905  0.66523836  0.86726747  1
  Co  Co26  1  0.38601417  0.82577013  0.36555330  1
  Co  Co27  1  0.20552920  0.33476014  0.86726736  1
