# generated using pymatgen
data_LiCrP2O7
_symmetry_space_group_name_H-M   'P 1'
_cell_length_a   9.18863855
_cell_length_b   8.30751632
_cell_length_c   6.70208479
_cell_angle_alpha   90.00000000
_cell_angle_beta   105.10110582
_cell_angle_gamma   90.00000000
_symmetry_Int_Tables_number   1
_chemical_formula_structural   LiCrP2O7
_chemical_formula_sum   'Li4 Cr4 P8 O28'
_cell_volume   493.93521968
_cell_formula_units_Z   4
loop_
 _symmetry_equiv_pos_site_id
 _symmetry_equiv_pos_as_xyz
  1  'x, y, z'
loop_
 _atom_site_type_symbol
 _atom_site_label
 _atom_site_symmetry_multiplicity
 _atom_site_fract_x
 _atom_site_fract_y
 _atom_site_fract_z
 _atom_site_occupancy
  Li  Li0  1  0.24906362  0.07362891  0.25697536  1
  Li  Li1  1  0.75093678  0.92637118  0.74302456  1
  Li  Li2  1  0.75093678  0.57362835  0.74302456  1
  Li  Li3  1  0.24906362  0.42637174  0.25697536  1
  O  O4  1  0.38176777  0.09822394  0.91423619  1
  O  O5  1  0.94473190  0.25000033  0.76181210  1
  O  O6  1  0.85272323  0.09408067  0.01776442  1
  O  O7  1  0.85272323  0.40591877  0.01776442  1
  O  O8  1  0.14727716  0.59408132  0.98223550  1
  O  O9  1  0.14727716  0.90591942  0.98223550  1
  O  O10  1  0.05526850  0.74999977  0.23818783  1
  O  O11  1  0.11033495  0.74999977  0.61349770  1
  O  O12  1  0.11907760  0.09822098  0.58336194  1
  O  O13  1  0.11907760  0.40177967  0.58336194  1
  O  O14  1  0.10376245  0.25000033  0.13546226  1
  O  O15  1  0.55901975  0.25000033  0.74059196  1
  O  O16  1  0.38176777  0.40177672  0.91423619  1
  O  O17  1  0.38979357  0.74999977  0.88545439  1
  O  O18  1  0.35182965  0.59408159  0.51731229  1
  O  O19  1  0.88092167  0.90177911  0.41663759  1
  O  O20  1  0.39684262  0.25000033  0.36878391  1
  O  O21  1  0.44098065  0.74999977  0.25940797  1
  O  O22  1  0.88966545  0.25000033  0.38650222  1
  O  O23  1  0.60315777  0.74999977  0.63121601  1
  O  O24  1  0.64817074  0.09408094  0.48268764  1
  O  O25  1  0.64817074  0.40591850  0.48268764  1
  O  O26  1  0.61020682  0.25000033  0.11454554  1
  O  O27  1  0.61823150  0.59822338  0.08576334  1
  O  O28  1  0.61823150  0.90177616  0.08576334  1
  O  O29  1  0.89623794  0.74999977  0.86453766  1
  O  O30  1  0.88092167  0.59822042  0.41663759  1
  O  O31  1  0.35182965  0.90591916  0.51731229  1
  P  P32  1  0.44259299  0.74999977  0.50154701  1
  P  P33  1  0.55740741  0.25000033  0.49845291  1
  P  P34  1  0.52712806  0.74999977  0.08325043  1
  P  P35  1  0.97199331  0.74999977  0.41713552  1
  P  P36  1  0.05618981  0.74999977  0.99651331  1
  P  P37  1  0.02800709  0.25000033  0.58286440  1
  P  P38  1  0.47287234  0.25000033  0.91674949  1
  P  P39  1  0.94381058  0.25000033  0.00348661  1
  Cr  Cr40  1  0.75007355  0.43397550  0.24980272  1
  Cr  Cr41  1  0.75007355  0.06602394  0.24980272  1
  Cr  Cr42  1  0.24992685  0.93397494  0.75019720  1
  Cr  Cr43  1  0.24992685  0.56602459  0.75019720  1
