# generated using pymatgen
data_ScFeSi2
_symmetry_space_group_name_H-M   'P 1'
_cell_length_a   5.06379858
_cell_length_b   9.76790067
_cell_length_c   14.22760258
_cell_angle_alpha   90.00000000
_cell_angle_beta   90.00000000
_cell_angle_gamma   105.02295926
_symmetry_Int_Tables_number   1
_chemical_formula_structural   ScFeSi2
_chemical_formula_sum   'Sc12 Fe12 Si24'
_cell_volume   679.68313301
_cell_formula_units_Z   12
loop_
 _symmetry_equiv_pos_site_id
 _symmetry_equiv_pos_as_xyz
  1  'x, y, z'
loop_
 _atom_site_type_symbol
 _atom_site_label
 _atom_site_symmetry_multiplicity
 _atom_site_fract_x
 _atom_site_fract_y
 _atom_site_fract_z
 _atom_site_occupancy
  Si  Si0  1  0.64008440  0.28016880  0.49243980  1
  Si  Si1  1  0.35991560  0.71983120  0.50756020  1
  Si  Si2  1  0.85991560  0.71983120  0.99243980  1
  Si  Si3  1  0.14008440  0.28016880  0.00756020  1
  Si  Si4  1  0.73559855  0.47119710  0.64329201  1
  Si  Si5  1  0.26440145  0.52880290  0.35670799  1
  Si  Si6  1  0.76440145  0.52880290  0.14329201  1
  Si  Si7  1  0.23559855  0.47119710  0.85670799  1
  Si  Si8  1  0.58703636  0.17407272  0.64358931  1
  Si  Si9  1  0.41296364  0.82592728  0.35641069  1
  Si  Si10  1  0.91296364  0.82592728  0.14358931  1
  Si  Si11  1  0.08703636  0.17407272  0.85641069  1
  Si  Si12  1  0.66714017  0.33428035  0.89933257  1
  Si  Si13  1  0.33285983  0.66571965  0.10066743  1
  Si  Si14  1  0.83285983  0.66571965  0.39933257  1
  Si  Si15  1  0.16714017  0.33428035  0.60066743  1
  Si  Si16  1  0.66419237  0.82838474  0.75000000  1
  Si  Si17  1  0.74665690  0.00000000  0.00000000  1
  Si  Si18  1  0.33580763  0.17161526  0.25000000  1
  Si  Si19  1  0.16419237  0.82838474  0.75000000  1
  Si  Si20  1  0.24665690  0.00000000  0.50000000  1
  Si  Si21  1  0.25334310  0.00000000  0.00000000  1
  Si  Si22  1  0.75334310  0.00000000  0.50000000  1
  Si  Si23  1  0.83580763  0.17161526  0.25000000  1
  Sc  Sc24  1  0.87704541  0.75409082  0.58457153  1
  Sc  Sc25  1  0.70387172  0.40774344  0.31887632  1
  Sc  Sc26  1  0.20387172  0.40774344  0.18112368  1
  Sc  Sc27  1  0.79612828  0.59225656  0.81887632  1
  Sc  Sc28  1  0.03286478  0.06572956  0.67693302  1
  Sc  Sc29  1  0.96713522  0.93427044  0.32306698  1
  Sc  Sc30  1  0.46713522  0.93427044  0.17693302  1
  Sc  Sc31  1  0.53286478  0.06572956  0.82306698  1
  Sc  Sc32  1  0.37704541  0.75409082  0.91542847  1
  Sc  Sc33  1  0.62295459  0.24590918  0.08457153  1
  Sc  Sc34  1  0.12295459  0.24590918  0.41542847  1
  Sc  Sc35  1  0.29612828  0.59225656  0.68112368  1
  Fe  Fe36  1  0.00000000  0.50000000  0.00000000  1
  Fe  Fe37  1  0.50000000  0.50000000  0.00000000  1
  Fe  Fe38  1  0.50000000  0.50000000  0.50000000  1
  Fe  Fe39  1  0.00000000  0.50000000  0.50000000  1
  Fe  Fe40  1  0.91120116  0.32240232  0.75000000  1
  Fe  Fe41  1  0.58879884  0.67759768  0.25000000  1
  Fe  Fe42  1  0.08879884  0.67759768  0.25000000  1
  Fe  Fe43  1  0.41120116  0.32240232  0.75000000  1
  Fe  Fe44  1  0.45905247  0.91810493  0.62323794  1
  Fe  Fe45  1  0.54094753  0.08189507  0.37676206  1
  Fe  Fe46  1  0.04094753  0.08189507  0.12323794  1
  Fe  Fe47  1  0.95905247  0.91810493  0.87676206  1
