# generated using pymatgen
data_Cr(PO3)3
_symmetry_space_group_name_H-M   'P 1'
_cell_length_a   8.44093864
_cell_length_b   8.48652799
_cell_length_c   9.14742793
_cell_angle_alpha   90.00000000
_cell_angle_beta   90.00000000
_cell_angle_gamma   90.00000000
_symmetry_Int_Tables_number   1
_chemical_formula_structural   Cr(PO3)3
_chemical_formula_sum   'Cr4 P12 O36'
_cell_volume   655.26924924
_cell_formula_units_Z   4
loop_
 _symmetry_equiv_pos_site_id
 _symmetry_equiv_pos_as_xyz
  1  'x, y, z'
loop_
 _atom_site_type_symbol
 _atom_site_label
 _atom_site_symmetry_multiplicity
 _atom_site_fract_x
 _atom_site_fract_y
 _atom_site_fract_z
 _atom_site_occupancy
  O  O0  1  0.63425590  0.63654921  0.83226275  1
  O  O1  1  0.98132846  0.28821079  0.57934611  1
  O  O2  1  0.93493635  0.63765461  0.14997046  1
  O  O3  1  0.89977502  0.02503247  0.80545407  1
  O  O4  1  0.01867124  0.78821133  0.92065464  1
  O  O5  1  0.06506454  0.13765408  0.35003015  1
  O  O6  1  0.10022469  0.52503182  0.69454558  1
  O  O7  1  0.11278228  0.59345281  0.42333013  1
  O  O8  1  0.13425604  0.86345122  0.16773738  1
  O  O9  1  0.14084481  0.90375317  0.68888650  1
  O  O10  1  0.15524241  0.32933562  0.09951300  1
  O  O11  1  0.16974705  0.05349327  0.93022903  1
  O  O12  1  0.20710735  0.61028764  0.03073921  1
  O  O13  1  0.29289250  0.38971225  0.53073872  1
  O  O14  1  0.33025281  0.94650662  0.43022842  1
  O  O15  1  0.34475744  0.67066427  0.59951252  1
  O  O16  1  0.35915505  0.09624672  0.18888699  1
  O  O17  1  0.36574381  0.13654867  0.66773800  1
  O  O18  1  0.38721757  0.40654708  0.92333074  1
  O  O19  1  0.39977517  0.47496807  0.19454606  1
  O  O20  1  0.43493531  0.86234581  0.85002967  1
  O  O21  1  0.48132861  0.21178856  0.42065402  1
  O  O22  1  0.51867110  0.71178910  0.07934549  1
  O  O23  1  0.86574366  0.36345068  0.33226213  1
  O  O24  1  0.60022454  0.97496743  0.30545455  1
  O  O25  1  0.61278213  0.90654762  0.57667000  1
  O  O26  1  0.88721743  0.09345227  0.07666939  1
  O  O27  1  0.64084466  0.59624726  0.31111363  1
  O  O28  1  0.65524227  0.17066491  0.90048713  1
  O  O29  1  0.66974690  0.44650609  0.06977110  1
  O  O30  1  0.70710720  0.88971279  0.96926092  1
  O  O31  1  0.79289236  0.11028710  0.46926141  1
  O  O32  1  0.83025266  0.55349380  0.56977061  1
  O  O33  1  0.84475729  0.82933616  0.40048651  1
  O  O34  1  0.85915609  0.40375263  0.81111315  1
  O  O35  1  0.56506440  0.36234528  0.64996998  1
  P  P36  1  0.57144407  0.55297398  0.16555083  1
  P  P37  1  0.71555630  0.94008884  0.44501281  1
  P  P38  1  0.78444326  0.05991105  0.94501343  1
  P  P39  1  0.92855667  0.44702710  0.66555035  1
  P  P40  1  0.06906443  0.72735612  0.08127876  1
  P  P41  1  0.07144422  0.94702645  0.83444930  1
  P  P42  1  0.21555645  0.55991158  0.55498622  1
  P  P43  1  0.28444341  0.44008831  0.05498671  1
  P  P44  1  0.42855682  0.05297344  0.33444978  1
  P  P45  1  0.43093542  0.27264377  0.58127828  1
  P  P46  1  0.56906428  0.77264312  0.91872137  1
  P  P47  1  0.93093528  0.22735677  0.41872185  1
  Cr  Cr48  1  0.87534119  0.59749294  0.36245658  1
  Cr  Cr49  1  0.62465956  0.40250695  0.86245719  1
  Cr  Cr50  1  0.37534014  0.90250748  0.63754355  1
  Cr  Cr51  1  0.12465971  0.09749241  0.13754294  1
