# generated using pymatgen
data_LiMn4(PO4)3
_symmetry_space_group_name_H-M   'P 1'
_cell_length_a   8.66085078
_cell_length_b   9.79573692
_cell_length_c   8.66149595
_cell_angle_alpha   116.23828987
_cell_angle_beta   59.99753580
_cell_angle_gamma   116.23873867
_symmetry_Int_Tables_number   1
_chemical_formula_structural   LiMn4(PO4)3
_chemical_formula_sum   'Li2 Mn8 P6 O24'
_cell_volume   547.20243866
_cell_formula_units_Z   2
loop_
 _symmetry_equiv_pos_site_id
 _symmetry_equiv_pos_as_xyz
  1  'x, y, z'
loop_
 _atom_site_type_symbol
 _atom_site_label
 _atom_site_symmetry_multiplicity
 _atom_site_fract_x
 _atom_site_fract_y
 _atom_site_fract_z
 _atom_site_occupancy
  Li  Li0  1  0.04430523  0.13286664  0.04420485  1
  Li  Li1  1  0.54430498  0.63286710  0.54435670  1
  O  O2  1  0.02548676  0.46045216  0.39646250  1
  O  O3  1  0.72059472  0.31384670  0.61070540  1
  O  O4  1  0.82724621  0.19461677  0.25711027  1
  O  O5  1  0.80545016  0.93504968  0.92345334  1
  O  O6  1  0.70607922  0.43497601  0.42346730  1
  O  O7  1  0.89643328  0.96040866  0.52543106  1
  O  O8  1  0.61036178  0.69459428  0.75710555  1
  O  O9  1  0.75701023  0.69457589  0.32724135  1
  O  O10  1  0.11065082  0.81376325  0.22055880  1
  O  O11  1  0.03845730  0.46035647  0.02548575  1
  O  O12  1  0.61065087  0.31376365  0.98255338  1
  O  O13  1  0.22059506  0.81384749  0.48254755  1
  O  O14  1  0.48256701  0.81383590  0.11069866  1
  O  O15  1  0.20607916  0.93497560  0.80543006  1
  O  O16  1  0.39643353  0.46040820  0.03854376  1
  O  O17  1  0.98256706  0.31383630  0.72057115  1
  O  O18  1  0.25701088  0.19457662  0.11032415  1
  O  O19  1  0.32724615  0.69461637  0.61025969  1
  O  O20  1  0.92341896  0.93490889  0.20604109  1
  O  O21  1  0.42341786  0.43490844  0.30545012  1
  O  O22  1  0.11036203  0.19459382  0.82712597  1
  O  O23  1  0.30545081  0.43505041  0.70614676  1
  O  O24  1  0.53845705  0.96035693  0.89641356  1
  O  O25  1  0.52548611  0.96045142  0.53850264  1
  P  P26  1  0.82325640  0.34905054  0.41749263  1
  P  P27  1  0.91744642  0.84899829  0.32321636  1
  P  P28  1  0.60832031  0.84903830  0.91748447  1
  P  P29  1  0.10832096  0.34903904  0.82323410  1
  P  P30  1  0.41744572  0.34899903  0.10833603  1
  P  P31  1  0.32325674  0.84905133  0.60830131  1
  Mn  Mn32  1  0.25320860  0.95841397  0.03361730  1
  Mn  Mn33  1  0.03361999  0.95841477  0.67152458  1
  Mn  Mn34  1  0.21159254  0.63473778  0.21159766  1
  Mn  Mn35  1  0.17155309  0.45846565  0.53366201  1
  Mn  Mn36  1  0.67155284  0.95846611  0.25325070  1
  Mn  Mn37  1  0.75320865  0.45841437  0.17158824  1
  Mn  Mn38  1  0.53362004  0.45841517  0.75326995  1
  Mn  Mn39  1  0.71159220  0.13473699  0.71154694  1
