# generated using pymatgen
data_LiFe(PO3)4
_symmetry_space_group_name_H-M   'P 1'
_cell_length_a   5.24022198
_cell_length_b   13.70751028
_cell_length_c   7.35653669
_cell_angle_alpha   90.00000000
_cell_angle_beta   98.24176546
_cell_angle_gamma   90.00000000
_symmetry_Int_Tables_number   1
_chemical_formula_structural   LiFe(PO3)4
_chemical_formula_sum   'Li2 Fe2 P8 O24'
_cell_volume   522.96539629
_cell_formula_units_Z   2
loop_
 _symmetry_equiv_pos_site_id
 _symmetry_equiv_pos_as_xyz
  1  'x, y, z'
loop_
 _atom_site_type_symbol
 _atom_site_label
 _atom_site_symmetry_multiplicity
 _atom_site_fract_x
 _atom_site_fract_y
 _atom_site_fract_z
 _atom_site_occupancy
  Li  Li0  1  0.35687765  0.49185053  0.88477218  1
  Li  Li1  1  0.64312141  0.99185047  0.11522695  1
  O  O2  1  0.29031344  0.89057162  0.50943888  1
  O  O3  1  0.99518001  0.63859003  0.22863964  1
  O  O4  1  0.00481905  0.13859009  0.77135949  1
  O  O5  1  0.04651189  0.73294804  0.94585451  1
  O  O6  1  0.02780908  0.89042763  0.77270479  1
  O  O7  1  0.07021555  0.51354553  0.48354894  1
  O  O8  1  0.18414435  0.38158639  0.94222958  1
  O  O9  1  0.19154308  0.34346205  0.54960229  1
  O  O10  1  0.20882848  0.68221369  0.55484413  1
  O  O11  1  0.27669478  0.14125608  0.51259254  1
  O  O12  1  0.62659903  0.78282945  0.77040464  1
  O  O13  1  0.37340005  0.28282951  0.22959585  1
  O  O14  1  0.37499600  0.75553527  0.23312504  1
  O  O15  1  0.35264690  0.59777498  0.03815772  1
  O  O16  1  0.97219000  0.39042769  0.22729570  1
  O  O17  1  0.62500499  0.25553533  0.76687428  1
  O  O18  1  0.95348719  0.23294810  0.05414598  1
  O  O19  1  0.70968564  0.39057168  0.49056161  1
  O  O20  1  0.72330623  0.64125602  0.48740814  1
  O  O21  1  0.79117251  0.18221374  0.44515518  1
  O  O22  1  0.80845793  0.84346200  0.45039839  1
  O  O23  1  0.81585664  0.88158706  0.05776974  1
  O  O24  1  0.92978353  0.01354559  0.51645155  1
  O  O25  1  0.64735219  0.09777503  0.96184278  1
  P  P26  1  0.85635559  0.82375661  0.89438877  1
  P  P27  1  0.97788596  0.40292341  0.44446212  1
  P  P28  1  0.00777833  0.12584385  0.55556605  1
  P  P29  1  0.02211503  0.90292335  0.55553720  1
  P  P30  1  0.14364541  0.32375666  0.10561054  1
  P  P31  1  0.21936483  0.68044695  0.11443584  1
  P  P32  1  0.78063425  0.18044701  0.88556466  1
  P  P33  1  0.99222266  0.62584380  0.44443326  1
  Fe  Fe34  1  0.50606084  0.76528458  0.50207723  1
  Fe  Fe35  1  0.49393824  0.26528464  0.49792326  1
