# generated using pymatgen
data_LiNiPO4
_symmetry_space_group_name_H-M   'P 1'
_cell_length_a   8.46760877
_cell_length_b   8.46760878
_cell_length_c   8.46760877
_cell_angle_alpha   107.03798696
_cell_angle_beta   107.03798699
_cell_angle_gamma   107.03798696
_symmetry_Int_Tables_number   1
_chemical_formula_structural   LiNiPO4
_chemical_formula_sum   'Li6 Ni6 P6 O24'
_cell_volume   505.09957822
_cell_formula_units_Z   6
loop_
 _symmetry_equiv_pos_site_id
 _symmetry_equiv_pos_as_xyz
  1  'x, y, z'
loop_
 _atom_site_type_symbol
 _atom_site_label
 _atom_site_symmetry_multiplicity
 _atom_site_fract_x
 _atom_site_fract_y
 _atom_site_fract_z
 _atom_site_occupancy
  Li  Li0  1  0.12760548  0.89194188  0.71748543  1
  Li  Li1  1  0.20485173  0.43182947  0.61187006  1
  Li  Li2  1  0.43182891  0.61186948  0.20485070  1
  Li  Li3  1  0.71748654  0.12760640  0.89194272  1
  Li  Li4  1  0.61186956  0.20485121  0.43182828  1
  Li  Li5  1  0.89194245  0.71748661  0.12760645  1
  O  O6  1  0.02473403  0.08173439  0.74340388  1
  O  O7  1  0.91020992  0.57946853  0.27629346  1
  O  O8  1  0.76987956  0.08574432  0.40355408  1
  O  O9  1  0.97348109  0.96238669  0.29634398  1
  O  O10  1  0.96238588  0.29634410  0.97348006  1
  O  O11  1  0.91612097  0.64274281  0.59208588  1
  O  O12  1  0.29634418  0.97348091  0.96238678  1
  O  O13  1  0.08574388  0.40355328  0.76987966  1
  O  O14  1  0.74340479  0.02473346  0.08173469  1
  O  O15  1  0.27629310  0.91021011  0.57946917  1
  O  O16  1  0.02439311  0.28617447  0.35323080  1
  O  O17  1  0.08173503  0.74340493  0.02473419  1
  O  O18  1  0.35685702  0.68575195  0.68582523  1
  O  O19  1  0.31330871  0.65079646  0.36965715  1
  O  O20  1  0.36965753  0.31330973  0.65079667  1
  O  O21  1  0.65079624  0.36965637  0.31330852  1
  O  O22  1  0.40355416  0.76987920  0.08574335  1
  O  O23  1  0.64274422  0.59208615  0.91612233  1
  O  O24  1  0.28617498  0.35323105  0.02439347  1
  O  O25  1  0.57946833  0.27629263  0.91020944  1
  O  O26  1  0.35323086  0.02439330  0.28617507  1
  O  O27  1  0.68575279  0.68582554  0.35685667  1
  O  O28  1  0.68582545  0.35685710  0.68575270  1
  O  O29  1  0.59208578  0.91612155  0.64274334  1
  P  P30  1  0.87622633  0.09123527  0.28260679  1
  P  P31  1  0.79208008  0.56717434  0.38546787  1
  P  P32  1  0.56717474  0.38546867  0.79208053  1
  P  P33  1  0.28260734  0.87622656  0.09123541  1
  P  P34  1  0.38546860  0.79208019  0.56717489  1
  P  P35  1  0.09123479  0.28260695  0.87622676  1
  Ni  Ni36  1  0.06539210  0.45376349  0.23553933  1
  Ni  Ni37  1  0.54133091  0.77792577  0.93390298  1
  Ni  Ni38  1  0.23553965  0.06539263  0.45376383  1
  Ni  Ni39  1  0.77792586  0.93390252  0.54133070  1
  Ni  Ni40  1  0.45376313  0.23553943  0.06539231  1
  Ni  Ni41  1  0.93390255  0.54133075  0.77792591  1
