# generated using pymatgen
data_LiCr2(PO4)3
_symmetry_space_group_name_H-M   'P 1'
_cell_length_a   8.52619676
_cell_length_b   12.07996256
_cell_length_c   8.62693942
_cell_angle_alpha   90.00000000
_cell_angle_beta   90.00000000
_cell_angle_gamma   89.99399454
_symmetry_Int_Tables_number   1
_chemical_formula_structural   LiCr2(PO4)3
_chemical_formula_sum   'Li4 Cr8 P12 O48'
_cell_volume   888.54143528
_cell_formula_units_Z   4
loop_
 _symmetry_equiv_pos_site_id
 _symmetry_equiv_pos_as_xyz
  1  'x, y, z'
loop_
 _atom_site_type_symbol
 _atom_site_label
 _atom_site_symmetry_multiplicity
 _atom_site_fract_x
 _atom_site_fract_y
 _atom_site_fract_z
 _atom_site_occupancy
  Li  Li0  1  0.21977598  0.18194047  0.78122386  1
  Li  Li1  1  0.78352580  0.18209905  0.28091611  1
  Li  Li2  1  0.71977585  0.68194023  0.71877572  1
  Li  Li3  1  0.28352574  0.68209909  0.21908375  1
  O  O4  1  0.32806952  0.72932727  0.01031065  1
  O  O5  1  0.86080919  0.41927452  0.65981498  1
  O  O6  1  0.85261015  0.17184307  0.77527671  1
  O  O7  1  0.84537761  0.03097877  0.55270776  1
  O  O8  1  0.85579564  0.58044222  0.83864989  1
  O  O9  1  0.92957348  0.84341477  0.40539816  1
  O  O10  1  0.94194535  0.57456807  0.14196857  1
  O  O11  1  0.93796387  0.42925640  0.36215482  1
  O  O12  1  0.05955433  0.57457485  0.64103828  1
  O  O13  1  0.06526199  0.42935081  0.86128249  1
  O  O14  1  0.07267982  0.84338976  0.90610469  1
  O  O15  1  0.08011378  0.15558758  0.60031850  1
  O  O16  1  0.14100140  0.41942951  0.15932031  1
  O  O17  1  0.14877221  0.17187417  0.27550550  1
  O  O18  1  0.14699446  0.58046426  0.33833295  1
  O  O19  1  0.15750037  0.03106372  0.05286891  1
  O  O20  1  0.16490987  0.97072132  0.43783660  1
  O  O21  1  0.16210834  0.82388152  0.22751220  1
  O  O22  1  0.17550109  0.76981457  0.51171250  1
  O  O23  1  0.17446911  0.22939168  0.98978522  1
  O  O24  1  0.32646677  0.26984465  0.48839548  1
  O  O25  1  0.92225957  0.15554454  0.09957106  1
  O  O26  1  0.34102086  0.32373317  0.77274986  1
  O  O27  1  0.33701593  0.47070431  0.56264622  1
  O  O28  1  0.34537754  0.53097881  0.94729299  1
  O  O29  1  0.35579577  0.08044246  0.66135086  1
  O  O30  1  0.35261008  0.67184311  0.72472404  1
  O  O31  1  0.36081030  0.91927456  0.84018577  1
  O  O32  1  0.42225950  0.65554457  0.40042880  1
  O  O33  1  0.42957362  0.34341417  0.09460170  1
  O  O34  1  0.44194549  0.07456831  0.35803128  1
  O  O35  1  0.43796380  0.92925644  0.13784504  1
  O  O36  1  0.55955440  0.07457481  0.85896246  1
  O  O37  1  0.56526185  0.92935057  0.63871826  1
  O  O38  1  0.57267989  0.34338972  0.59389489  1
  O  O39  1  0.58011364  0.65558818  0.89968108  1
  O  O40  1  0.64100126  0.91942927  0.34068072  1
  O  O41  1  0.64699452  0.08046423  0.16166691  1
  O  O42  1  0.64877207  0.67187393  0.22449436  1
  O  O43  1  0.65750023  0.53106432  0.44713095  1
  O  O44  1  0.66490994  0.47072129  0.06216325  1
  O  O45  1  0.66210841  0.32388148  0.27248766  1
  O  O46  1  0.83701579  0.97070407  0.93735336  1
  O  O47  1  0.67446897  0.72939144  0.51021436  1
  O  O48  1  0.82806959  0.22932723  0.48969038  1
  O  O49  1  0.82646663  0.76984441  0.01160438  1
  O  O50  1  0.84102072  0.82373377  0.72724971  1
  O  O51  1  0.67550116  0.26981454  0.98828707  1
  P  P52  1  0.39738123  0.64541553  0.89258614  1
  P  P53  1  0.46470639  0.99883582  0.74787984  1
  P  P54  1  0.39171512  0.35483066  0.60553083  1
  P  P55  1  0.53763477  0.99887851  0.24767863  1
  P  P56  1  0.60497525  0.64543957  0.39265041  1
  P  P57  1  0.61060578  0.35484684  0.10551084  1
  P  P58  1  0.89171498  0.85483042  0.89446875  1
  P  P59  1  0.89738129  0.14541549  0.60741344  1
  P  P60  1  0.03763490  0.49887875  0.25232123  1
  P  P61  1  0.10497538  0.14543897  0.10734945  1
  P  P62  1  0.11060572  0.85484688  0.39448902  1
  P  P63  1  0.96470646  0.49883578  0.75211973  1
  Cr  Cr64  1  0.75287461  0.88521196  0.52948293  1
  Cr  Cr65  1  0.75376435  0.61744382  0.04079027  1
  Cr  Cr66  1  0.74973600  0.38519651  0.47048986  1
  Cr  Cr67  1  0.74818997  0.11739587  0.95910897  1
  Cr  Cr68  1  0.24973594  0.88519654  0.02951000  1
  Cr  Cr69  1  0.25287475  0.38521136  0.97051782  1
  Cr  Cr70  1  0.25376449  0.11744406  0.45920959  1
  Cr  Cr71  1  0.24818991  0.61739591  0.54089177  1
