# generated using pymatgen
data_LiV2P3O11
_symmetry_space_group_name_H-M   'P 1'
_cell_length_a   7.27645084
_cell_length_b   7.27645084
_cell_length_c   8.91286576
_cell_angle_alpha   70.43478870
_cell_angle_beta   109.56521131
_cell_angle_gamma   106.41811231
_symmetry_Int_Tables_number   1
_chemical_formula_structural   LiV2P3O11
_chemical_formula_sum   'Li2 V4 P6 O22'
_cell_volume   411.18724410
_cell_formula_units_Z   2
loop_
 _symmetry_equiv_pos_site_id
 _symmetry_equiv_pos_as_xyz
  1  'x, y, z'
loop_
 _atom_site_type_symbol
 _atom_site_label
 _atom_site_symmetry_multiplicity
 _atom_site_fract_x
 _atom_site_fract_y
 _atom_site_fract_z
 _atom_site_occupancy
  Li  Li0  1  0.47648110  0.98379567  0.08333682  1
  Li  Li1  1  0.98379483  0.47648053  0.41666335  1
  O  O2  1  0.26257625  0.40243272  0.43095561  1
  O  O3  1  0.12299235  0.99211632  0.40457919  1
  O  O4  1  0.24673656  0.61379249  0.81598619  1
  O  O5  1  0.46588634  0.84348665  0.62686119  1
  O  O6  1  0.61729208  0.72021895  0.93672925  1
  O  O7  1  0.04396349  0.24629464  0.76956990  1
  O  O8  1  0.38904155  0.76848378  0.28890532  1
  O  O9  1  0.48500425  0.48500374  0.75000052  1
  O  O10  1  0.15095522  0.53126051  0.12055821  1
  O  O11  1  0.01737387  0.87640276  0.90724397  1
  O  O12  1  0.74952632  0.95700763  0.26481837  1
  O  O13  1  0.24629398  0.04396311  0.73042964  1
  O  O14  1  0.72021859  0.61729101  0.56327056  1
  O  O15  1  0.84348587  0.46588579  0.87313951  1
  O  O16  1  0.50547657  0.50547661  0.25000011  1
  O  O17  1  0.99211593  0.12299374  0.09542057  1
  O  O18  1  0.95700774  0.74952588  0.23518204  1
  O  O19  1  0.40243221  0.26257677  0.06904436  1
  O  O20  1  0.53126062  0.15095456  0.37944112  1
  O  O21  1  0.76848387  0.38904205  0.21109482  1
  O  O22  1  0.87640323  0.01737378  0.59275695  1
  O  O23  1  0.61379254  0.24673600  0.68401473  1
  P  P24  1  0.45186528  0.67329191  0.78747123  1
  P  P25  1  0.04192562  0.04192605  0.75000026  1
  P  P26  1  0.32039172  0.55323386  0.27940107  1
  P  P27  1  0.67329205  0.45186477  0.71252858  1
  P  P28  1  0.95843396  0.95843338  0.25000029  1
  P  P29  1  0.55323366  0.32039068  0.22059942  1
  V  V30  1  0.11577192  0.35960683  0.95455356  1
  V  V31  1  0.63872193  0.88519066  0.46236965  1
  V  V32  1  0.35960618  0.11577265  0.54544681  1
  V  V33  1  0.88519042  0.63872131  0.03762957  1
