# generated using pymatgen
data_LiV(PO3)4
_symmetry_space_group_name_H-M   'P 1'
_cell_length_a   5.26903087
_cell_length_b   13.73461041
_cell_length_c   7.26328712
_cell_angle_alpha   90.00000000
_cell_angle_beta   97.25874252
_cell_angle_gamma   90.00000000
_symmetry_Int_Tables_number   1
_chemical_formula_structural   LiV(PO3)4
_chemical_formula_sum   'Li2 V2 P8 O24'
_cell_volume   521.41762124
_cell_formula_units_Z   2
loop_
 _symmetry_equiv_pos_site_id
 _symmetry_equiv_pos_as_xyz
  1  'x, y, z'
loop_
 _atom_site_type_symbol
 _atom_site_label
 _atom_site_symmetry_multiplicity
 _atom_site_fract_x
 _atom_site_fract_y
 _atom_site_fract_z
 _atom_site_occupancy
  Li  Li0  1  0.61880650  0.99183791  0.11380899  1
  Li  Li1  1  0.38119350  0.49183791  0.88619101  1
  V  V2  1  0.48575652  0.26356925  0.49296855  1
  V  V3  1  0.51424348  0.76356925  0.50703145  1
  P  P4  1  0.99634900  0.62407023  0.45424245  1
  P  P5  1  0.13882838  0.32846280  0.10157594  1
  P  P6  1  0.96903261  0.40165551  0.44882223  1
  P  P7  1  0.77929385  0.17996806  0.88470914  1
  P  P8  1  0.03096739  0.90165551  0.55117777  1
  P  P9  1  0.00365100  0.12407023  0.54575755  1
  P  P10  1  0.22070615  0.67996806  0.11529086  1
  P  P11  1  0.86117162  0.82846280  0.89842406  1
  O  O12  1  0.03132117  0.89399899  0.77226002  1
  O  O13  1  0.93559887  0.01116666  0.50484184  1
  O  O14  1  0.06440113  0.51116666  0.49515816  1
  O  O15  1  0.95098814  0.23915485  0.04336640  1
  O  O16  1  0.63524390  0.78526760  0.77556673  1
  O  O17  1  0.38813500  0.74995292  0.23751786  1
  O  O18  1  0.65500367  0.10032460  0.97679010  1
  O  O19  1  0.00524433  0.63476459  0.23490739  1
  O  O20  1  0.36475610  0.28526860  0.22443327  1
  O  O21  1  0.72420483  0.63958376  0.49362493  1
  O  O22  1  0.17072443  0.33861726  0.55141326  1
  O  O23  1  0.99475567  0.13476459  0.76509261  1
  O  O24  1  0.20681425  0.68005603  0.56545017  1
  O  O25  1  0.18512897  0.38819518  0.94008905  1
  O  O26  1  0.27579517  0.13958376  0.50637507  1
  O  O27  1  0.82927557  0.83861726  0.44858674  1
  O  O28  1  0.04901186  0.73915485  0.95663360  1
  O  O29  1  0.30362039  0.89020180  0.51039448  1
  O  O30  1  0.69637961  0.39020180  0.48960552  1
  O  O31  1  0.34499633  0.60032460  0.02320990  1
  O  O32  1  0.96867883  0.39399899  0.22773998  1
  O  O33  1  0.61186500  0.24995292  0.76248214  1
  O  O34  1  0.81487103  0.88819518  0.05991095  1
  O  O35  1  0.79318575  0.18005603  0.43454983  1
