# generated using pymatgen
data_SrNb2CuO7
_symmetry_space_group_name_H-M   'P 1'
_cell_length_a   3.97197324
_cell_length_b   9.65640402
_cell_length_c   3.97197324
_cell_angle_alpha   78.13155585
_cell_angle_beta   90.00000000
_cell_angle_gamma   101.86844415
_symmetry_Int_Tables_number   1
_chemical_formula_structural   SrNb2CuO7
_chemical_formula_sum   'Sr1 Nb2 Cu1 O7'
_cell_volume   145.75866060
_cell_formula_units_Z   1
loop_
 _symmetry_equiv_pos_site_id
 _symmetry_equiv_pos_as_xyz
  1  'x, y, z'
loop_
 _atom_site_type_symbol
 _atom_site_label
 _atom_site_symmetry_multiplicity
 _atom_site_fract_x
 _atom_site_fract_y
 _atom_site_fract_z
 _atom_site_occupancy
  Sr  Sr0  1  -0.00000000  0.00000000  -0.00000000  1
  Nb  Nb1  1  0.61536815  0.23073629  0.38463185  1
  Nb  Nb2  1  0.38463185  0.76926371  0.61536815  1
  Cu  Cu3  1  0.25000000  0.50000000  0.25000000  1
  O  O4  1  0.71989320  0.43978739  0.28010680  1
  O  O5  1  0.10643855  0.21287710  0.39356145  1
  O  O6  1  0.39356145  0.78712290  0.10643855  1
  O  O7  1  0.28010680  0.56021261  0.71989320  1
  O  O8  1  0.59939011  0.19878021  0.90060989  1
  O  O9  1  0.90060989  0.80121979  0.59939011  1
  O  O10  1  0.50000000  0.00000000  0.50000000  1
