# generated using pymatgen
data_LiFeP2O7
_symmetry_space_group_name_H-M   'P 1'
_cell_length_a   12.52516516
_cell_length_b   5.09324705
_cell_length_c   8.61275453
_cell_angle_alpha   90.00000000
_cell_angle_beta   102.01198650
_cell_angle_gamma   90.00000000
_symmetry_Int_Tables_number   1
_chemical_formula_structural   LiFeP2O7
_chemical_formula_sum   'Li4 Fe4 P8 O28'
_cell_volume   537.40950692
_cell_formula_units_Z   4
loop_
 _symmetry_equiv_pos_site_id
 _symmetry_equiv_pos_as_xyz
  1  'x, y, z'
loop_
 _atom_site_type_symbol
 _atom_site_label
 _atom_site_symmetry_multiplicity
 _atom_site_fract_x
 _atom_site_fract_y
 _atom_site_fract_z
 _atom_site_occupancy
  Li  Li0  1  0.30506981  0.23885515  0.37051935  1
  Li  Li1  1  0.91255881  0.72894432  0.41112239  1
  Li  Li2  1  0.80506959  0.26114445  0.87051883  1
  Li  Li3  1  0.41255886  0.77105448  0.91112306  1
  O  O4  1  0.25777694  0.70687146  0.59450614  1
  O  O5  1  0.93520210  0.33052296  0.41888949  1
  O  O6  1  0.90791598  0.45259377  0.08643741  1
  O  O7  1  0.94462568  0.89979074  0.21939178  1
  O  O8  1  0.05696682  0.08835022  0.79545726  1
  O  O9  1  0.08926722  0.55263550  0.89354965  1
  O  O10  1  0.05567987  0.72481336  0.56437873  1
  O  O11  1  0.13344239  0.54481828  0.33950910  1
  O  O12  1  0.15331596  0.03502245  0.40546792  1
  O  O13  1  0.10901135  0.17914750  0.09420774  1
  O  O14  1  0.24313155  0.21608664  0.91791846  1
  O  O15  1  0.63344216  0.95518052  0.83950858  1
  O  O16  1  0.43520215  0.16947860  0.91888899  1
  O  O17  1  0.40791603  0.04740583  0.58643692  1
  O  O18  1  0.38785805  0.63347785  0.41245250  1
  O  O19  1  0.87342047  0.42582430  0.67693047  1
  O  O20  1  0.37341988  0.07417530  0.17693074  1
  O  O21  1  0.36753015  0.54849546  0.07428918  1
  O  O22  1  0.86752992  0.95150531  0.57428866  1
  O  O23  1  0.65331574  0.46497911  0.90546740  1
  O  O24  1  0.55696677  0.41165134  0.29545775  1
  O  O25  1  0.60901193  0.32085211  0.59420748  1
  O  O26  1  0.58926717  0.94736330  0.39355014  1
  O  O27  1  0.55567982  0.77518545  0.06437922  1
  O  O28  1  0.74313150  0.28391296  0.41791895  1
  O  O29  1  0.75777689  0.79312930  0.09450663  1
  O  O30  1  0.88785782  0.86652291  0.91245314  1
  O  O31  1  0.44462573  0.60021003  0.71939128  1
  P  P32  1  0.36129893  0.25586653  0.03134762  1
  P  P33  1  0.64416187  0.74438042  0.96912581  1
  P  P34  1  0.61724301  0.23687109  0.42732502  1
  P  P35  1  0.86129870  0.24413308  0.53134826  1
  P  P36  1  0.11724306  0.26312851  0.92732569  1
  P  P37  1  0.14416210  0.75561839  0.46912517  1
  P  P38  1  0.38257952  0.75240652  0.57435614  1
  P  P39  1  0.88257947  0.74759228  0.07435548  1
  Fe  Fe40  1  0.97997603  0.75847482  0.74941510  1
  Fe  Fe41  1  0.47997626  0.74152595  0.24941562  1
  Fe  Fe42  1  0.53109575  0.25299357  0.76165515  1
  Fe  Fe43  1  0.03109598  0.24700799  0.26165451  1
