# generated using pymatgen
data_Pr2SmS4
_symmetry_space_group_name_H-M   'P 1'
_cell_length_a   7.43968764
_cell_length_b   7.43968687
_cell_length_c   7.43968717
_cell_angle_alpha   109.58923176
_cell_angle_beta   109.23545083
_cell_angle_gamma   109.58923671
_symmetry_Int_Tables_number   1
_chemical_formula_structural   Pr2SmS4
_chemical_formula_sum   'Pr4 Sm2 S8'
_cell_volume   316.98347826
_cell_formula_units_Z   2
loop_
 _symmetry_equiv_pos_site_id
 _symmetry_equiv_pos_as_xyz
  1  'x, y, z'
loop_
 _atom_site_type_symbol
 _atom_site_label
 _atom_site_symmetry_multiplicity
 _atom_site_fract_x
 _atom_site_fract_y
 _atom_site_fract_z
 _atom_site_occupancy
  Pr  Pr0  1  0.25000000  0.62422549  0.37422549  1
  Pr  Pr1  1  0.75000000  0.87577451  0.12577451  1
  Pr  Pr2  1  0.62577451  0.37577451  0.25000000  1
  Pr  Pr3  1  0.87422549  0.12422549  0.75000000  1
  S  S4  1  0.00422286  0.85304711  0.50287824  1
  S  S5  1  0.15117575  0.14695289  0.14983113  1
  S  S6  1  0.34882425  0.49865538  0.99577714  1
  S  S7  1  0.64983113  0.64695289  0.65117575  1
  S  S8  1  0.49577714  0.99865538  0.84882425  1
  S  S9  1  0.49712176  0.00134462  0.35016887  1
  S  S10  1  0.85016887  0.50134462  0.99712176  1
  S  S11  1  0.00287824  0.35304711  0.50422286  1
  Sm  Sm12  1  0.12500000  0.75000000  0.87500000  1
  Sm  Sm13  1  0.37500000  0.25000000  0.62500000  1
