# generated using pymatgen
data_Zn(FeO2)2
_symmetry_space_group_name_H-M   'P 1'
_cell_length_a   6.05330498
_cell_length_b   6.05332384
_cell_length_c   18.12909060
_cell_angle_alpha   59.94730419
_cell_angle_beta   59.94737080
_cell_angle_gamma   59.99356091
_symmetry_Int_Tables_number   1
_chemical_formula_structural   Zn(FeO2)2
_chemical_formula_sum   'Zn6 Fe12 O24'
_cell_volume   469.33206436
_cell_formula_units_Z   6
loop_
 _symmetry_equiv_pos_site_id
 _symmetry_equiv_pos_as_xyz
  1  'x, y, z'
loop_
 _atom_site_type_symbol
 _atom_site_label
 _atom_site_symmetry_multiplicity
 _atom_site_fract_x
 _atom_site_fract_y
 _atom_site_fract_z
 _atom_site_occupancy
  Fe  Fe0  1  0.49779874  0.49780000  0.16602823  1
  Fe  Fe1  1  0.49781138  0.00632600  0.16603335  1
  Fe  Fe2  1  0.49902096  0.49901643  0.49899692  1
  Fe  Fe3  1  0.00632496  0.49781266  0.16603356  1
  Fe  Fe4  1  0.49899374  0.00498240  0.49900558  1
  Fe  Fe5  1  0.50195168  0.50196088  0.66468245  1
  Fe  Fe6  1  0.87814359  0.87815132  0.28852518  1
  Fe  Fe7  1  0.49949665  0.49949831  0.83270439  1
  Fe  Fe8  1  0.00498387  0.49898881  0.49900679  1
  Fe  Fe9  1  0.49948325  0.00286271  0.83270336  1
  Fe  Fe10  1  0.00286088  0.49948329  0.83270486  1
  Fe  Fe11  1  0.87614667  0.87614640  0.95716345  1
  O  O12  1  0.25447607  0.25447309  0.09025786  1
  O  O13  1  0.25876716  0.25877240  0.24123390  1
  O  O14  1  0.25448336  0.72029938  0.09025169  1
  O  O15  1  0.72030039  0.25448053  0.09025203  1
  O  O16  1  0.25288992  0.25288609  0.42456030  1
  O  O17  1  0.27052192  0.74822799  0.24434995  1
  O  O18  1  0.25933040  0.25932621  0.57396556  1
  O  O19  1  0.74821597  0.27053111  0.24435308  1
  O  O20  1  0.74325330  0.74324608  0.09006983  1
  O  O21  1  0.25299859  0.72052459  0.42452357  1
  O  O22  1  0.72053617  0.25298785  0.42452588  1
  O  O23  1  0.74824910  0.74825526  0.24433108  1
  O  O24  1  0.26066645  0.26066509  0.75362105  1
  O  O25  1  0.28319878  0.73839825  0.58001199  1
  O  O26  1  0.73839859  0.28319564  0.58001424  1
  O  O27  1  0.25966641  0.25967274  0.90699241  1
  O  O28  1  0.74523063  0.74522896  0.42148119  1
  O  O29  1  0.26066294  0.71777768  0.75362393  1
  O  O30  1  0.71777564  0.26066418  0.75362303  1
  O  O31  1  0.73845974  0.73845520  0.57996698  1
  O  O32  1  0.26741894  0.74980487  0.91098845  1
  O  O33  1  0.74980101  0.26742002  0.91098840  1
  O  O34  1  0.73813340  0.73812656  0.76185362  1
  O  O35  1  0.74979081  0.74979799  0.91098566  1
  Zn  Zn36  1  0.12222168  0.12222100  0.04444611  1
  Zn  Zn37  1  0.12132758  0.12131605  0.37864217  1
  Zn  Zn38  1  0.49884317  0.49885081  0.33449876  1
  Zn  Zn39  1  0.12522519  0.12522817  0.70809841  1
  Zn  Zn40  1  0.49899418  0.49899452  0.00100187  1
  Zn  Zn41  1  0.87714616  0.87714247  0.62289890  1
