# generated using pymatgen
data_Ce2Y2O7
_symmetry_space_group_name_H-M   'P 1'
_cell_length_a   9.41691718
_cell_length_b   9.39212069
_cell_length_c   9.38404803
_cell_angle_alpha   109.33803737
_cell_angle_beta   109.32648638
_cell_angle_gamma   109.48554876
_symmetry_Int_Tables_number   1
_chemical_formula_structural   Ce2Y2O7
_chemical_formula_sum   'Ce8 Y8 O28'
_cell_volume   640.98039197
_cell_formula_units_Z   4
loop_
 _symmetry_equiv_pos_site_id
 _symmetry_equiv_pos_as_xyz
  1  'x, y, z'
loop_
 _atom_site_type_symbol
 _atom_site_label
 _atom_site_symmetry_multiplicity
 _atom_site_fract_x
 _atom_site_fract_y
 _atom_site_fract_z
 _atom_site_occupancy
  Ce  Ce0  1  0.00665605  0.74821003  0.77361406  1
  Ce  Ce1  1  0.48903545  0.24458648  0.73730877  1
  Ce  Ce2  1  0.52428746  0.77111357  0.27072770  1
  Ce  Ce3  1  0.74819128  0.74819800  0.00105668  1
  Ce  Ce4  1  0.72196984  0.48063485  0.23266309  1
  Ce  Ce5  1  0.49409137  0.99524120  0.99903830  1
  Ce  Ce6  1  0.75647120  0.00726587  0.74971922  1
  Ce  Ce7  1  0.98588750  0.25830812  0.23456976  1
  O  O8  1  1.00381929  0.96421246  0.72176972  1
  O  O9  1  0.01759186  0.48659002  0.75756307  1
  O  O10  1  0.02531221  0.26223092  0.00780073  1
  O  O11  1  0.23140191  0.96863858  0.49568148  1
  O  O12  1  0.23808881  0.75574052  0.73477790  1
  O  O13  1  0.24582078  0.00863090  0.02098737  1
  O  O14  1  0.24096984  0.47067460  0.47675289  1
  O  O15  1  0.23147580  0.26866170  0.74285709  1
  O  O16  1  0.25722391  0.71665946  0.22691840  1
  O  O17  1  0.51336060  0.51276302  0.75626944  1
  O  O18  1  0.49076404  0.23307885  0.98605714  1
  O  O19  1  0.52422039  0.76392686  0.50978465  1
  O  O20  1  0.47644305  0.24844767  0.48216768  1
  O  O21  1  0.50816811  -0.00152320  0.75022014  1
  O  O22  1  0.76287241  0.76267701  0.76736213  1
  O  O23  1  0.48823428  0.73758495  0.00312257  1
  O  O24  1  0.46406417  0.47874123  0.22462205  1
  O  O25  1  0.73585930  0.24955810  0.74897168  1
  O  O26  1  0.77076523  0.74993214  0.27115505  1
  O  O27  1  0.76787427  0.52377265  0.50462177  1
  O  O28  1  0.74620182  0.00327271  0.99953515  1
  O  O29  1  0.50100961  0.99614904  0.25266162  1
  O  O30  1  0.75567347  0.24637180  0.26094827  1
  O  O31  1  0.77679925  0.03180193  0.50776324  1
  O  O32  1  0.73096952  0.49111054  0.99548079  1
  O  O33  1  0.99182062  0.74510976  0.01140013  1
  O  O34  1  0.98649936  0.51706909  0.26561097  1
  O  O35  1  0.02408798  0.05358457  0.27507168  1
  Y  Y36  1  0.25053729  0.97280033  0.25520336  1
  Y  Y37  1  0.00883631  0.00817356  0.50100012  1
  Y  Y38  1  0.97780765  0.49601323  0.99946626  1
  Y  Y39  1  0.24088366  0.22283041  0.96764172  1
  Y  Y40  1  0.26624847  0.51863455  0.74181579  1
  Y  Y41  1  0.27072500  0.74328975  0.49318494  1
  Y  Y42  1  0.52345443  0.51994399  0.51840695  1
  Y  Y43  1  0.72752516  0.25548817  0.50284848  1
