# generated using pymatgen
data_Mn2CuO4
_symmetry_space_group_name_H-M   'P 1'
_cell_length_a   6.11317591
_cell_length_b   6.11321673
_cell_length_c   17.69348435
_cell_angle_alpha   60.97371924
_cell_angle_beta   60.97485610
_cell_angle_gamma   58.12699543
_symmetry_Int_Tables_number   1
_chemical_formula_structural   Mn2CuO4
_chemical_formula_sum   'Mn12 Cu6 O24'
_cell_volume   467.06920450
_cell_formula_units_Z   6
loop_
 _symmetry_equiv_pos_site_id
 _symmetry_equiv_pos_as_xyz
  1  'x, y, z'
loop_
 _atom_site_type_symbol
 _atom_site_label
 _atom_site_symmetry_multiplicity
 _atom_site_fract_x
 _atom_site_fract_y
 _atom_site_fract_z
 _atom_site_occupancy
  Cu  Cu0  1  0.24300023  0.24299391  0.08696721  1
  Cu  Cu1  1  0.24285775  0.24287307  0.42227529  1
  Cu  Cu2  1  0.62420606  0.62418942  0.04221718  1
  Cu  Cu3  1  0.24518457  0.24520173  0.75106271  1
  Cu  Cu4  1  0.62599687  0.62599133  0.37562097  1
  Cu  Cu5  1  0.00523911  0.00525520  0.66428710  1
  Mn  Mn6  1  0.00950738  0.00949690  0.99564222  1
  Mn  Mn7  1  0.12650256  0.62278255  0.20860519  1
  Mn  Mn8  1  0.62279052  0.12649413  0.20860522  1
  Mn  Mn9  1  0.00945271  0.00943452  0.32965710  1
  Mn  Mn10  1  0.62491991  0.62491433  0.20747196  1
  Mn  Mn11  1  0.12829526  0.62555334  0.54195182  1
  Mn  Mn12  1  0.62555228  0.12829970  0.54195034  1
  Mn  Mn13  1  0.62612805  0.62613240  0.54095456  1
  Mn  Mn14  1  0.12381490  0.62375655  0.87461935  1
  Mn  Mn15  1  0.62374777  0.12382017  0.87461981  1
  Mn  Mn16  1  0.62491088  0.62492128  0.70777216  1
  Mn  Mn17  1  0.62490419  0.62490631  0.87420941  1
  O  O18  1  0.37387093  0.37387087  0.13372682  1
  O  O19  1  0.37302066  0.83012838  0.13472801  1
  O  O20  1  0.37160947  0.37159496  0.28429526  1
  O  O21  1  0.37903382  0.37904630  0.46522551  1
  O  O22  1  0.42231262  0.87284341  0.28175936  1
  O  O23  1  0.83013255  0.37301992  0.13472859  1
  O  O24  1  0.87536505  0.87536487  0.13407260  1
  O  O25  1  0.37964253  0.83656411  0.46646006  1
  O  O26  1  0.87285836  0.42229910  0.28176068  1
  O  O27  1  0.37643369  0.37642867  0.61640680  1
  O  O28  1  0.37567981  0.37568481  0.79965979  1
  O  O29  1  0.41672979  0.86654132  0.61967993  1
  O  O30  1  0.87173117  0.87171316  0.28395182  1
  O  O31  1  0.83655874  0.37965810  0.46645989  1
  O  O32  1  0.87397737  0.87398407  0.46869059  1
  O  O33  1  0.38081678  0.83067045  0.79782121  1
  O  O34  1  0.86654563  0.41673258  0.61968108  1
  O  O35  1  0.37419136  0.37421738  0.95085699  1
  O  O36  1  0.83066833  0.38086043  0.79781691  1
  O  O37  1  0.87124119  0.87124175  0.61914003  1
  O  O38  1  0.42089386  0.86997600  0.94888816  1
  O  O39  1  0.87478987  0.87477723  0.79876730  1
  O  O40  1  0.87002146  0.42089178  0.94888272  1
  O  O41  1  0.87486395  0.87487355  0.94805031  1
