# generated using pymatgen
data_CrSiH12(OF)6
_symmetry_space_group_name_H-M   'P 1'
_cell_length_a   6.41969715
_cell_length_b   6.41969690
_cell_length_c   6.41969697
_cell_angle_alpha   96.92029692
_cell_angle_beta   96.92029872
_cell_angle_gamma   96.92029878
_symmetry_Int_Tables_number   1
_chemical_formula_structural   CrSiH12(OF)6
_chemical_formula_sum   'Cr1 Si1 H12 O6 F6'
_cell_volume   258.27267355
_cell_formula_units_Z   1
loop_
 _symmetry_equiv_pos_site_id
 _symmetry_equiv_pos_as_xyz
  1  'x, y, z'
loop_
 _atom_site_type_symbol
 _atom_site_label
 _atom_site_symmetry_multiplicity
 _atom_site_fract_x
 _atom_site_fract_y
 _atom_site_fract_z
 _atom_site_occupancy
  Cr  Cr0  1  0.00000000  0.00000000  0.00000000  1
  F  F1  1  0.30322929  0.32362588  0.56660390  1
  F  F2  1  0.32362588  0.56660390  0.30322929  1
  F  F3  1  0.43339610  0.69677071  0.67637412  1
  F  F4  1  0.56660390  0.30322929  0.32362588  1
  F  F5  1  0.67637412  0.43339610  0.69677071  1
  F  F6  1  0.69677071  0.67637412  0.43339610  1
  H  H7  1  0.17372111  0.68255036  0.76530589  1
  H  H8  1  0.06278637  0.41172365  0.21028443  1
  H  H9  1  0.21028443  0.06278637  0.41172365  1
  H  H10  1  0.23469411  0.82627889  0.31744964  1
  H  H11  1  0.31744964  0.23469411  0.82627889  1
  H  H12  1  0.58827635  0.78971557  0.93721363  1
  H  H13  1  0.41172365  0.21028443  0.06278637  1
  H  H14  1  0.68255036  0.76530589  0.17372111  1
  H  H15  1  0.76530589  0.17372111  0.68255036  1
  H  H16  1  0.78971557  0.93721363  0.58827635  1
  H  H17  1  0.93721363  0.58827635  0.78971557  1
  H  H18  1  0.82627889  0.31744964  0.23469411  1
  O  O19  1  0.05994031  0.69207585  0.85415218  1
  O  O20  1  0.14584782  0.94005969  0.30792415  1
  O  O21  1  0.30792415  0.14584782  0.94005969  1
  O  O22  1  0.69207585  0.85415218  0.05994031  1
  O  O23  1  0.85415218  0.05994031  0.69207585  1
  O  O24  1  0.94005969  0.30792415  0.14584782  1
  Si  Si25  1  0.50000000  0.50000000  0.50000000  1
