# generated using pymatgen
data_Li7Mo4P9O32
_symmetry_space_group_name_H-M   'P 1'
_cell_length_a   14.13153635
_cell_length_b   14.13153635
_cell_length_c   6.60343416
_cell_angle_alpha   90.00000000
_cell_angle_beta   90.00000000
_cell_angle_gamma   90.00000000
_symmetry_Int_Tables_number   1
_chemical_formula_structural   Li7Mo4P9O32
_chemical_formula_sum   'Li14 Mo8 P18 O64'
_cell_volume   1318.70791228
_cell_formula_units_Z   2
loop_
 _symmetry_equiv_pos_site_id
 _symmetry_equiv_pos_as_xyz
  1  'x, y, z'
loop_
 _atom_site_type_symbol
 _atom_site_label
 _atom_site_symmetry_multiplicity
 _atom_site_fract_x
 _atom_site_fract_y
 _atom_site_fract_z
 _atom_site_occupancy
  Li  Li0  1  0.00000000  0.00000000  0.00000000  1
  Li  Li1  1  0.00000000  0.50000000  0.13213617  1
  Li  Li2  1  0.00000000  0.50000000  0.63213717  1
  Li  Li3  1  0.11183237  0.74557569  0.79706072  1
  Li  Li4  1  0.24557669  0.61183237  0.29705972  1
  Li  Li5  1  0.25442331  0.11183237  0.20293828  1
  Li  Li6  1  0.38816763  0.24557669  0.70293928  1
  Li  Li7  1  0.50000000  0.00000000  0.36786183  1
  Li  Li8  1  0.50000000  0.00000000  0.86786283  1
  Li  Li9  1  0.50000000  0.50000000  0.50000000  1
  Li  Li10  1  0.61183237  0.75442431  0.70293928  1
  Li  Li11  1  0.74557569  0.88816763  0.20293828  1
  Li  Li12  1  0.75442431  0.38816763  0.29705972  1
  Li  Li13  1  0.88816763  0.25442331  0.79706072  1
  O  O14  1  0.55417302  0.91644277  0.11489518  1
  O  O15  1  0.98136564  0.25963528  0.57124406  1
  O  O16  1  0.94035836  0.06293589  0.35481772  1
  O  O17  1  0.94582698  0.41644277  0.38510582  1
  O  O18  1  0.93706411  0.94035836  0.64518128  1
  O  O19  1  0.91644277  0.44582698  0.88510582  1
  O  O20  1  0.90478430  0.81051337  0.93548616  1
  O  O21  1  0.84660508  0.65811631  0.10955522  1
  O  O22  1  0.00701416  0.72940701  0.18159206  1
  O  O23  1  0.01863436  0.74036372  0.57124406  1
  O  O24  1  0.05964164  0.93706411  0.35481772  1
  O  O25  1  0.05417302  0.58355723  0.38510582  1
  O  O26  1  0.06293589  0.05964164  0.64518128  1
  O  O27  1  0.08355623  0.55417302  0.88510582  1
  O  O28  1  0.09521570  0.18948663  0.93548616  1
  O  O29  1  0.14183300  0.18389455  0.29744624  1
  O  O30  1  0.15339492  0.34188269  0.10955522  1
  O  O31  1  0.15811731  0.34660508  0.60955522  1
  O  O32  1  0.16285260  0.72629308  0.35061691  1
  O  O33  1  0.18389455  0.85816600  0.70255476  1
  O  O34  1  0.18948663  0.90478430  0.06451284  1
  O  O35  1  0.22629208  0.66285260  0.85061591  1
  O  O36  1  0.22940701  0.50701416  0.68159106  1
  O  O37  1  0.24036372  0.51863436  0.07124406  1
  O  O38  1  0.25963528  0.01863436  0.42875694  1
  O  O39  1  0.27059299  0.00701416  0.81840794  1
  O  O40  1  0.27370792  0.16285260  0.64938409  1
  O  O41  1  0.31051337  0.40478430  0.43548716  1
  O  O42  1  0.31610445  0.35816700  0.79744524  1
  O  O43  1  0.33714740  0.22629208  0.14938409  1
  O  O44  1  0.34188269  0.84660508  0.89044478  1
  O  O45  1  0.34660508  0.84188369  0.39044578  1
  O  O46  1  0.35816700  0.68389455  0.20255376  1
  O  O47  1  0.40478430  0.68948663  0.56451384  1
  O  O48  1  0.41644277  0.05417302  0.61489418  1
  O  O49  1  0.43706411  0.55964164  0.85481872  1
  O  O50  1  0.44582698  0.08355623  0.11489518  1
  O  O51  1  0.44035836  0.43706411  0.14518228  1
  O  O52  1  0.48136564  0.24036372  0.92875494  1
  O  O53  1  0.49298584  0.22940701  0.31840794  1
  O  O54  1  0.50701416  0.77059299  0.31840794  1
  O  O55  1  0.51863436  0.75963528  0.92875494  1
  O  O56  1  0.55964164  0.56293589  0.14518228  1
  O  O57  1  0.99298584  0.27059299  0.18159206  1
  O  O58  1  0.56293589  0.44035836  0.85481872  1
  O  O59  1  0.58355723  0.94582698  0.61489418  1
  O  O60  1  0.59521570  0.31051337  0.56451384  1
  O  O61  1  0.64183300  0.31610445  0.20255376  1
  O  O62  1  0.65339492  0.15811731  0.39044578  1
  O  O63  1  0.65811631  0.15339492  0.89044478  1
  O  O64  1  0.66285260  0.77370692  0.14938409  1
  O  O65  1  0.68389455  0.64183300  0.79744524  1
  O  O66  1  0.68948663  0.59521570  0.43548716  1
  O  O67  1  0.72629308  0.83714740  0.64938409  1
  O  O68  1  0.72940701  0.99298584  0.81840794  1
  O  O69  1  0.74036372  0.98136564  0.42875694  1
  O  O70  1  0.75963528  0.48136564  0.07124406  1
  O  O71  1  0.77059299  0.49298584  0.68159106  1
  O  O72  1  0.77370692  0.33714740  0.85061591  1
  O  O73  1  0.81051337  0.09521570  0.06451284  1
  O  O74  1  0.81610545  0.14183300  0.70255476  1
  O  O75  1  0.83714740  0.27370792  0.35061691  1
  O  O76  1  0.84188369  0.65339492  0.60955522  1
  O  O77  1  0.85816600  0.81610545  0.29744624  1
  P  P78  1  0.93961036  0.30974142  0.38325657  1
  P  P79  1  0.89782622  0.75217586  0.12844972  1
  P  P80  1  0.80974142  0.43961036  0.88325657  1
  P  P81  1  0.75217586  0.10217278  0.87154928  1
  P  P82  1  0.74782314  0.60217278  0.62844972  1
  P  P83  1  0.69025958  0.93961036  0.61674343  1
  P  P84  1  0.60217278  0.25217686  0.37155028  1
  P  P85  1  0.56039064  0.80974142  0.11674243  1
  P  P86  1  0.00000000  0.00000000  0.50000000  1
  P  P87  1  0.06038964  0.69025958  0.38325657  1
  P  P88  1  0.10217278  0.24782314  0.12844972  1
  P  P89  1  0.19025958  0.56039064  0.88325657  1
  P  P90  1  0.24782314  0.89782622  0.87154928  1
  P  P91  1  0.50000000  0.50000000  0.00000000  1
  P  P92  1  0.30974142  0.06038964  0.61674343  1
  P  P93  1  0.39782722  0.74782314  0.37155028  1
  P  P94  1  0.43961036  0.19025958  0.11674243  1
  P  P95  1  0.25217686  0.39782722  0.62844972  1
  Mo  Mo96  1  0.12098064  0.19874434  0.61856100  1
  Mo  Mo97  1  0.19874434  0.87901936  0.38143900  1
  Mo  Mo98  1  0.30125566  0.37901936  0.11856100  1
  Mo  Mo99  1  0.37901936  0.69874434  0.88144000  1
  Mo  Mo100  1  0.62098064  0.30125566  0.88144000  1
  Mo  Mo101  1  0.69874434  0.62098064  0.11856100  1
  Mo  Mo102  1  0.80125566  0.12098064  0.38143900  1
  Mo  Mo103  1  0.87901936  0.80125566  0.61856100  1
