# generated using pymatgen
data_CaLu2O4
_symmetry_space_group_name_H-M   'P 1'
_cell_length_a   3.29406424
_cell_length_b   9.78229906
_cell_length_c   11.57723487
_cell_angle_alpha   90.00000000
_cell_angle_beta   90.00000000
_cell_angle_gamma   90.00000000
_symmetry_Int_Tables_number   1
_chemical_formula_structural   CaLu2O4
_chemical_formula_sum   'Ca4 Lu8 O16'
_cell_volume   373.05927696
_cell_formula_units_Z   4
loop_
 _symmetry_equiv_pos_site_id
 _symmetry_equiv_pos_as_xyz
  1  'x, y, z'
loop_
 _atom_site_type_symbol
 _atom_site_label
 _atom_site_symmetry_multiplicity
 _atom_site_fract_x
 _atom_site_fract_y
 _atom_site_fract_z
 _atom_site_occupancy
  Ca  Ca0  1  0.75000000  0.75405513  0.35127837  1
  Ca  Ca1  1  0.25000000  0.24594487  0.64872163  1
  Ca  Ca2  1  0.75000000  0.25405513  0.14872163  1
  Ca  Ca3  1  0.25000000  0.74594487  0.85127837  1
  Lu  Lu4  1  0.75000000  0.42080382  0.89006577  1
  Lu  Lu5  1  0.25000000  0.57919618  0.10993423  1
  Lu  Lu6  1  0.75000000  0.92080382  0.60993423  1
  Lu  Lu7  1  0.25000000  0.07919618  0.39006577  1
  Lu  Lu8  1  0.75000000  0.42534649  0.38612607  1
  Lu  Lu9  1  0.25000000  0.57465351  0.61387393  1
  Lu  Lu10  1  0.75000000  0.92534649  0.11387393  1
  Lu  Lu11  1  0.25000000  0.07465351  0.88612607  1
  O  O12  1  0.75000000  0.21025729  0.82047146  1
  O  O13  1  0.25000000  0.78974271  0.17952854  1
  O  O14  1  0.75000000  0.71025729  0.67952854  1
  O  O15  1  0.25000000  0.28974271  0.32047146  1
  O  O16  1  0.75000000  0.12809754  0.52286516  1
  O  O17  1  0.25000000  0.87190246  0.47713484  1
  O  O18  1  0.75000000  0.62809754  0.97713484  1
  O  O19  1  0.25000000  0.37190246  0.02286516  1
  O  O20  1  0.75000000  0.51739275  0.21577627  1
  O  O21  1  0.25000000  0.48260725  0.78422373  1
  O  O22  1  0.75000000  0.01739275  0.28422373  1
  O  O23  1  0.25000000  0.98260725  0.71577627  1
  O  O24  1  0.75000000  0.42114987  0.57791959  1
  O  O25  1  0.25000000  0.57885013  0.42208041  1
  O  O26  1  0.75000000  0.92114987  0.92208041  1
  O  O27  1  0.25000000  0.07885013  0.07791959  1
