# generated using pymatgen
data_Li7Cr4P9O32
_symmetry_space_group_name_H-M   'P 1'
_cell_length_a   13.80638381
_cell_length_b   13.80638381
_cell_length_c   6.35558022
_cell_angle_alpha   90.00000000
_cell_angle_beta   90.00000000
_cell_angle_gamma   90.00000000
_symmetry_Int_Tables_number   1
_chemical_formula_structural   Li7Cr4P9O32
_chemical_formula_sum   'Li14 Cr8 P18 O64'
_cell_volume   1211.47676584
_cell_formula_units_Z   2
loop_
 _symmetry_equiv_pos_site_id
 _symmetry_equiv_pos_as_xyz
  1  'x, y, z'
loop_
 _atom_site_type_symbol
 _atom_site_label
 _atom_site_symmetry_multiplicity
 _atom_site_fract_x
 _atom_site_fract_y
 _atom_site_fract_z
 _atom_site_occupancy
  Li  Li0  1  0.00000000  0.00000000  0.00000000  1
  Li  Li1  1  0.89574245  0.25513213  0.82477453  1
  Li  Li2  1  0.75513213  0.39574245  0.32477353  1
  Li  Li3  1  0.74486687  0.89574245  0.17522647  1
  Li  Li4  1  0.60425755  0.75513213  0.67522647  1
  Li  Li5  1  0.50000000  0.50000000  0.50000000  1
  Li  Li6  1  0.50000000  0.00000000  0.86032241  1
  Li  Li7  1  0.50000000  0.00000000  0.36032241  1
  Li  Li8  1  0.39574245  0.24486787  0.67522647  1
  Li  Li9  1  0.00000000  0.50000000  0.13967759  1
  Li  Li10  1  0.00000000  0.50000000  0.63967759  1
  Li  Li11  1  0.10425755  0.74486687  0.82477453  1
  Li  Li12  1  0.24486787  0.60425755  0.32477353  1
  Li  Li13  1  0.25513213  0.10425755  0.17522647  1
  O  O14  1  0.56249573  0.43676915  0.84923047  1
  O  O15  1  0.89256451  0.81263142  0.93116237  1
  O  O16  1  0.91555890  0.44178149  0.89267694  1
  O  O17  1  0.94178149  0.41555890  0.39267694  1
  O  O18  1  0.93750427  0.93677015  0.65076853  1
  O  O19  1  0.93677015  0.06249673  0.34923047  1
  O  O20  1  0.98701645  0.25478504  0.57584371  1
  O  O21  1  0.99504017  0.27239727  0.16980462  1
  O  O22  1  0.00495983  0.72760273  0.16980462  1
  O  O23  1  0.01298355  0.74521496  0.57584371  1
  O  O24  1  0.06322985  0.93750427  0.34923047  1
  O  O25  1  0.06249673  0.06322985  0.65076853  1
  O  O26  1  0.05821851  0.58444110  0.39267694  1
  O  O27  1  0.08444110  0.55821851  0.89267694  1
  O  O28  1  0.10743549  0.18736858  0.93116237  1
  O  O29  1  0.14121818  0.18059541  0.31033708  1
  O  O30  1  0.15634171  0.33828682  0.62013226  1
  O  O31  1  0.16171318  0.34365829  0.12013226  1
  O  O32  1  0.16345150  0.73288423  0.35242192  1
  O  O33  1  0.18059541  0.85878182  0.68966392  1
  O  O34  1  0.18736858  0.89256451  0.06883763  1
  O  O35  1  0.22760373  0.50495983  0.66980462  1
  O  O36  1  0.23288423  0.66345150  0.85242192  1
  O  O37  1  0.24521496  0.51298455  0.07584471  1
  O  O38  1  0.25478504  0.01298355  0.42415529  1
  O  O39  1  0.26711577  0.16345150  0.64757708  1
  O  O40  1  0.27239727  0.00495983  0.83019438  1
  O  O41  1  0.31263042  0.39256451  0.43116237  1
  O  O42  1  0.31940359  0.35878182  0.81033708  1
  O  O43  1  0.33654850  0.23288423  0.14757708  1
  O  O44  1  0.33828682  0.84365829  0.37986774  1
  O  O45  1  0.34365829  0.83828682  0.87986774  1
  O  O46  1  0.35878182  0.68059541  0.18966292  1
  O  O47  1  0.39256451  0.68736958  0.56883763  1
  O  O48  1  0.41555890  0.05821851  0.60732306  1
  O  O49  1  0.44178149  0.08444110  0.10732306  1
  O  O50  1  0.43750427  0.56323085  0.84923047  1
  O  O51  1  0.43676915  0.43750427  0.15076853  1
  O  O52  1  0.48701545  0.24521496  0.92415529  1
  O  O53  1  0.49504017  0.22760373  0.33019438  1
  O  O54  1  0.50495983  0.77239627  0.33019438  1
  O  O55  1  0.51298455  0.75478504  0.92415529  1
  O  O56  1  0.56323085  0.56249573  0.15076853  1
  O  O57  1  0.85878182  0.81940459  0.31033708  1
  O  O58  1  0.55821851  0.91555890  0.10732306  1
  O  O59  1  0.58444110  0.94178149  0.60732306  1
  O  O60  1  0.60743549  0.31263042  0.56883763  1
  O  O61  1  0.64121818  0.31940359  0.18966292  1
  O  O62  1  0.65634171  0.16171318  0.87986774  1
  O  O63  1  0.66171318  0.15634171  0.37986774  1
  O  O64  1  0.66345150  0.76711577  0.14757708  1
  O  O65  1  0.68059541  0.64121818  0.81033708  1
  O  O66  1  0.68736958  0.60743549  0.43116237  1
  O  O67  1  0.72760273  0.99504017  0.83019438  1
  O  O68  1  0.73288423  0.83654850  0.64757708  1
  O  O69  1  0.74521496  0.98701645  0.42415529  1
  O  O70  1  0.84365829  0.66171318  0.62013226  1
  O  O71  1  0.76711577  0.33654850  0.85242192  1
  O  O72  1  0.77239627  0.49504017  0.66980462  1
  O  O73  1  0.81263142  0.10743549  0.06883763  1
  O  O74  1  0.81940459  0.14121818  0.68966392  1
  O  O75  1  0.83654850  0.26711577  0.35242192  1
  O  O76  1  0.83828682  0.65634171  0.12013226  1
  O  O77  1  0.75478504  0.48701545  0.07584471  1
  P  P78  1  0.50000000  0.50000000  0.00000000  1
  P  P79  1  0.55967930  0.80602752  0.11426147  1
  P  P80  1  0.60836077  0.25229736  0.36894037  1
  P  P81  1  0.69397348  0.94032070  0.61426147  1
  P  P82  1  0.74770264  0.60836077  0.63105963  1
  P  P83  1  0.75229736  0.10836077  0.86893937  1
  P  P84  1  0.80602752  0.44032070  0.88573853  1
  P  P85  1  0.89163923  0.75229736  0.13105963  1
  P  P86  1  0.00000000  0.00000000  0.50000000  1
  P  P87  1  0.05967930  0.69397348  0.38573853  1
  P  P88  1  0.10836077  0.24770264  0.13105963  1
  P  P89  1  0.19397248  0.55967930  0.88573853  1
  P  P90  1  0.24770264  0.89163923  0.86893937  1
  P  P91  1  0.25229736  0.39163923  0.63105963  1
  P  P92  1  0.30602752  0.05967930  0.61426147  1
  P  P93  1  0.39163923  0.74770264  0.36894037  1
  P  P94  1  0.44032070  0.19397248  0.11426147  1
  P  P95  1  0.94032070  0.30602752  0.38573853  1
  Cr  Cr96  1  0.87876297  0.80345887  0.62029580  1
  Cr  Cr97  1  0.80345887  0.12123703  0.37970420  1
  Cr  Cr98  1  0.69654113  0.62123803  0.12029580  1
  Cr  Cr99  1  0.62123803  0.30345887  0.87970420  1
  Cr  Cr100  1  0.37876197  0.69654113  0.87970420  1
  Cr  Cr101  1  0.30345887  0.37876197  0.12029580  1
  Cr  Cr102  1  0.19654113  0.87876297  0.37970420  1
  Cr  Cr103  1  0.12123703  0.19654113  0.62029580  1
