# generated using pymatgen
data_Nd2SmS4
_symmetry_space_group_name_H-M   'P 1'
_cell_length_a   7.40254011
_cell_length_b   7.40032559
_cell_length_c   7.40254028
_cell_angle_alpha   109.50040328
_cell_angle_beta   109.43129545
_cell_angle_gamma   109.50039747
_symmetry_Int_Tables_number   1
_chemical_formula_structural   Nd2SmS4
_chemical_formula_sum   'Nd4 Sm2 S8'
_cell_volume   312.09835827
_cell_formula_units_Z   2
loop_
 _symmetry_equiv_pos_site_id
 _symmetry_equiv_pos_as_xyz
  1  'x, y, z'
loop_
 _atom_site_type_symbol
 _atom_site_label
 _atom_site_symmetry_multiplicity
 _atom_site_fract_x
 _atom_site_fract_y
 _atom_site_fract_z
 _atom_site_occupancy
  Nd  Nd0  1  0.25000007  0.62493128  0.37493502  1
  Nd  Nd1  1  0.75000328  0.87506807  0.12506744  1
  Nd  Nd2  1  0.62506744  0.37506807  0.25000328  1
  Nd  Nd3  1  0.87493502  0.12493128  0.75000007  1
  S  S4  1  0.00309933  0.85280065  0.50262461  1
  S  S5  1  0.00262461  0.35280065  0.50309933  1
  S  S6  1  0.49737019  0.00047532  0.35018082  1
  S  S7  1  0.15029189  0.14719396  0.14981597  1
  S  S8  1  0.34970657  0.49952773  0.99689760  1
  S  S9  1  0.49689760  0.99952773  0.84970657  1
  S  S10  1  0.64981597  0.64719396  0.65029189  1
  S  S11  1  0.85018082  0.50047532  0.99737019  1
  Sm  Sm12  1  0.12500291  0.75000300  0.87500430  1
  Sm  Sm13  1  0.37500430  0.25000300  0.62500291  1
