# generated using pymatgen
data_SiBr2
_symmetry_space_group_name_H-M   'P 1'
_cell_length_a   11.06144127
_cell_length_b   14.31614765
_cell_length_c   15.97561032
_cell_angle_alpha   90.00000000
_cell_angle_beta   90.00000000
_cell_angle_gamma   102.14782772
_symmetry_Int_Tables_number   1
_chemical_formula_structural   SiBr2
_chemical_formula_sum   'Si20 Br40'
_cell_volume   2473.20465430
_cell_formula_units_Z   20
loop_
 _symmetry_equiv_pos_site_id
 _symmetry_equiv_pos_as_xyz
  1  'x, y, z'
loop_
 _atom_site_type_symbol
 _atom_site_label
 _atom_site_symmetry_multiplicity
 _atom_site_fract_x
 _atom_site_fract_y
 _atom_site_fract_z
 _atom_site_occupancy
  Si  Si0  1  0.09262034  0.04002456  0.16937740  1
  Si  Si1  1  0.41064247  0.46387693  0.81963985  1
  Si  Si2  1  0.23037927  0.52240793  0.62733094  1
  Si  Si3  1  0.91064247  0.96387693  0.68036015  1
  Si  Si4  1  0.08935753  0.03612307  0.31963985  1
  Si  Si5  1  0.40737966  0.45997544  0.66937740  1
  Si  Si6  1  0.85442053  0.42724829  0.24686761  1
  Si  Si7  1  0.64557947  0.07275171  0.74686761  1
  Si  Si8  1  0.58935753  0.53612307  0.18036015  1
  Si  Si9  1  0.20954203  0.48002490  0.86121246  1
  Si  Si10  1  0.26962073  0.97759207  0.12733094  1
  Si  Si11  1  0.73037927  0.02240793  0.87266906  1
  Si  Si12  1  0.59262034  0.54002456  0.33062260  1
  Si  Si13  1  0.76962073  0.47759207  0.37266906  1
  Si  Si14  1  0.35442053  0.92724829  0.25313239  1
  Si  Si15  1  0.90737966  0.95997544  0.83062260  1
  Si  Si16  1  0.79045797  0.51997510  0.13878754  1
  Si  Si17  1  0.70954203  0.98002490  0.63878754  1
  Si  Si18  1  0.14557947  0.57275171  0.75313239  1
  Si  Si19  1  0.29045797  0.01997510  0.36121246  1
  Br  Br20  1  0.41263714  0.16551544  0.35415335  1
  Br  Br21  1  0.58255969  0.54936870  0.61969301  1
  Br  Br22  1  0.76339882  0.27464287  0.22392300  1
  Br  Br23  1  0.40955221  0.09571007  0.07034438  1
  Br  Br24  1  0.72108566  0.35603952  0.46231356  1
  Br  Br25  1  0.90955221  0.59571007  0.42965562  1
  Br  Br26  1  0.20386738  0.54256846  0.98835753  1
  Br  Br27  1  0.26339882  0.77464287  0.27607700  1
  Br  Br28  1  0.38619742  0.30963707  0.62525829  1
  Br  Br29  1  0.23660118  0.72535713  0.77607700  1
  Br  Br30  1  0.54553835  0.59527804  0.85931965  1
  Br  Br31  1  0.05925076  0.44467810  0.25392431  1
  Br  Br32  1  0.70386738  0.04256846  0.51164247  1
  Br  Br33  1  0.79613262  0.45743154  0.01164247  1
  Br  Br34  1  0.46022333  0.33364460  0.87394233  1
  Br  Br35  1  0.45446165  0.40472196  0.14068035  1
  Br  Br36  1  0.91263714  0.66551544  0.14584665  1
  Br  Br37  1  0.11380258  0.19036293  0.12525829  1
  Br  Br38  1  0.08736286  0.33448456  0.85415335  1
  Br  Br39  1  0.08255969  0.04936870  0.88030699  1
  Br  Br40  1  0.55925076  0.94467810  0.24607569  1
  Br  Br41  1  0.88619742  0.80963707  0.87474171  1
  Br  Br42  1  0.77891434  0.14396048  0.96231356  1
  Br  Br43  1  0.22108566  0.85603952  0.03768644  1
  Br  Br44  1  0.73660118  0.22535713  0.72392300  1
  Br  Br45  1  0.44074924  0.05532190  0.75392431  1
  Br  Br46  1  0.95446165  0.90472196  0.35931965  1
  Br  Br47  1  0.91744031  0.95063130  0.11969301  1
  Br  Br48  1  0.03977667  0.16635540  0.37394233  1
  Br  Br49  1  0.53977667  0.66635540  0.12605767  1
  Br  Br50  1  0.41744031  0.45063130  0.38030699  1
  Br  Br51  1  0.58736286  0.83448456  0.64584665  1
  Br  Br52  1  0.59044779  0.90428993  0.92965562  1
  Br  Br53  1  0.29613262  0.95743154  0.48835753  1
  Br  Br54  1  0.09044779  0.40428993  0.57034438  1
  Br  Br55  1  0.61380258  0.69036293  0.37474171  1
  Br  Br56  1  0.94074924  0.55532190  0.74607569  1
  Br  Br57  1  0.27891434  0.64396048  0.53768644  1
  Br  Br58  1  0.96022333  0.83364460  0.62605767  1
  Br  Br59  1  0.04553835  0.09527804  0.64068035  1
