# generated using pymatgen
data_Mn2CuO4
_symmetry_space_group_name_H-M   'P 1'
_cell_length_a   6.02316781
_cell_length_b   6.02316780
_cell_length_c   6.02316751
_cell_angle_alpha   60.00000164
_cell_angle_beta   60.00000168
_cell_angle_gamma   59.99999763
_symmetry_Int_Tables_number   1
_chemical_formula_structural   Mn2CuO4
_chemical_formula_sum   'Mn4 Cu2 O8'
_cell_volume   154.51116674
_cell_formula_units_Z   2
loop_
 _symmetry_equiv_pos_site_id
 _symmetry_equiv_pos_as_xyz
  1  'x, y, z'
loop_
 _atom_site_type_symbol
 _atom_site_label
 _atom_site_symmetry_multiplicity
 _atom_site_fract_x
 _atom_site_fract_y
 _atom_site_fract_z
 _atom_site_occupancy
  O  O0  1  0.73898802  0.73898802  0.73898802  1
  O  O1  1  0.26101298  0.26101098  0.71696506  1
  O  O2  1  0.26101198  0.71696506  0.26101198  1
  O  O3  1  0.71696506  0.26101098  0.26101198  1
  O  O4  1  0.73898902  0.28303594  0.73898702  1
  O  O5  1  0.28303594  0.73898802  0.73898802  1
  O  O6  1  0.26101298  0.26101098  0.26101198  1
  O  O7  1  0.73898802  0.73898802  0.28303494  1
  Mn  Mn8  1  0.50000000  0.00000000  0.50000000  1
  Mn  Mn9  1  0.00000000  0.49999900  0.50000100  1
  Mn  Mn10  1  0.50000000  0.49999900  0.00000100  1
  Mn  Mn11  1  0.50000000  0.49999900  0.50000000  1
  Cu  Cu12  1  0.12499900  0.12500000  0.12500000  1
  Cu  Cu13  1  0.87499900  0.87500100  0.87500000  1
