# generated using pymatgen
data_UCo5
_symmetry_space_group_name_H-M   'P 1'
_cell_length_a   4.74241704
_cell_length_b   4.74241704
_cell_length_c   12.20367156
_cell_angle_alpha   78.79599758
_cell_angle_beta   78.79599758
_cell_angle_gamma   59.99999352
_symmetry_Int_Tables_number   1
_chemical_formula_structural   UCo5
_chemical_formula_sum   'U3 Co15'
_cell_volume   231.63548874
_cell_formula_units_Z   3
loop_
 _symmetry_equiv_pos_site_id
 _symmetry_equiv_pos_as_xyz
  1  'x, y, z'
loop_
 _atom_site_type_symbol
 _atom_site_label
 _atom_site_symmetry_multiplicity
 _atom_site_fract_x
 _atom_site_fract_y
 _atom_site_fract_z
 _atom_site_occupancy
  U  U0  1  0.09909554  0.09909554  0.70271339  1
  U  U1  1  0.90090446  0.90090446  0.29728661  1
  U  U2  1  -0.00000000  -0.00000000  0.00000000  1
  Co  Co3  1  0.06379875  0.55361300  0.82897526  1
  Co  Co4  1  0.55361300  0.55361300  0.82897526  1
  Co  Co5  1  0.55361300  0.06379875  0.82897526  1
  Co  Co6  1  0.93620125  0.44638700  0.17102474  1
  Co  Co7  1  0.44638700  0.44638700  0.17102474  1
  Co  Co8  1  0.44638700  0.93620125  0.17102474  1
  Co  Co9  1  -0.00000000  -0.00000000  0.50000000  1
  Co  Co10  1  -0.00000000  0.50000000  0.50000000  1
  Co  Co11  1  0.50000000  -0.00000000  0.50000000  1
  Co  Co12  1  0.22101451  0.22101451  0.33695648  1
  Co  Co13  1  0.77898549  0.77898549  0.66304352  1
  Co  Co14  1  0.33249031  0.33249031  0.00252908  1
  Co  Co15  1  0.66750969  0.66750969  0.99747092  1
  Co  Co16  1  0.46469868  0.46469868  0.60590396  1
  Co  Co17  1  0.53530132  0.53530132  0.39409604  1
