# generated using pymatgen
data_Ti(PO3)3
_symmetry_space_group_name_H-M   'P 1'
_cell_length_a   9.71099540
_cell_length_b   10.89599605
_cell_length_c   11.90711447
_cell_angle_alpha   113.54861659
_cell_angle_beta   110.04070518
_cell_angle_gamma   98.17912017
_symmetry_Int_Tables_number   1
_chemical_formula_structural   Ti(PO3)3
_chemical_formula_sum   'Ti6 P18 O54'
_cell_volume   1026.45112162
_cell_formula_units_Z   6
loop_
 _symmetry_equiv_pos_site_id
 _symmetry_equiv_pos_as_xyz
  1  'x, y, z'
loop_
 _atom_site_type_symbol
 _atom_site_label
 _atom_site_symmetry_multiplicity
 _atom_site_fract_x
 _atom_site_fract_y
 _atom_site_fract_z
 _atom_site_occupancy
  Ti  Ti0  1  0.57521183  0.74957997  0.65912787  1
  Ti  Ti1  1  0.91608396  0.59045210  0.34087213  1
  Ti  Ti2  1  0.58279061  0.25594976  0.67624807  1
  Ti  Ti3  1  0.90654254  0.07970169  0.32375193  1
  Ti  Ti4  1  0.22481328  0.93409256  0.98985620  1
  Ti  Ti5  1  0.23495708  0.44423636  0.01014380  1
  P  P6  1  0.21545735  0.05001547  0.55619838  1
  P  P7  1  0.65925897  0.99381709  0.44380162  1
  P  P8  1  0.27844205  0.77685957  0.43634215  1
  P  P9  1  0.84209990  0.84051742  0.56365785  1
  P  P10  1  0.48237675  0.38514458  0.45615044  1
  P  P11  1  0.02622631  0.42899414  0.54384956  1
  P  P12  1  0.86636908  0.73642392  0.89449439  1
  P  P13  1  0.97187469  0.34192953  0.10550561  1
  P  P14  1  0.31342408  0.67466360  0.77265033  1
  P  P15  1  0.54077375  0.40201326  0.22734967  1
  P  P16  1  0.33535911  0.80167042  0.21320004  1
  P  P17  1  0.12215907  0.08847038  0.78679996  1
  P  P18  1  0.93693305  0.46280658  0.77240957  1
  P  P19  1  0.16452348  0.19039701  0.22759043  1
  P  P20  1  0.49339148  0.51782840  0.89605802  1
  P  P21  1  0.59733345  0.12177038  0.10394198  1
  P  P22  1  0.68521915  0.10476580  0.87611047  1
  P  P23  1  0.80910868  0.72865532  0.12388953  1
  O  O24  1  0.49248696  0.53712880  0.52994051  1
  O  O25  1  0.96254645  0.50718830  0.47005949  1
  O  O26  1  0.43975385  0.77227670  0.49741578  1
  O  O27  1  0.94233807  0.77486092  0.50258422  1
  O  O28  1  0.76397703  0.76281809  0.61615100  1
  O  O29  1  0.14782603  0.64666709  0.38384900  1
  O  O30  1  0.70278577  0.73406771  0.82790432  1
  O  O31  1  0.87488146  0.40616339  0.17209568  1
  O  O32  1  0.39365546  0.73912541  0.71203346  1
  O  O33  1  0.68162200  0.52709194  0.28796654  1
  O  O34  1  0.67246867  0.96306536  0.77199676  1
  O  O35  1  0.90047191  0.69106860  0.22800324  1
  O  O36  1  0.35406710  0.15431729  0.57748671  1
  O  O37  1  0.77658038  0.07683058  0.42251329  1
  O  O38  1  0.56740448  0.32096236  0.53614553  1
  O  O39  1  0.03125896  0.28481684  0.46385447  1
  O  O40  1  0.61905541  0.07307004  0.55665273  1
  O  O41  1  0.06240267  0.01641731  0.44334727  1
  O  O42  1  0.53810656  0.43775373  0.78632802  1
  O  O43  1  0.75177853  0.15142571  0.21367198  1
  O  O44  1  0.61779048  0.20044003  0.82774873  1
  O  O45  1  0.79004175  0.87269129  0.17225127  1
  O  O46  1  0.81243876  0.35556346  0.76401778  1
  O  O47  1  0.04842098  0.09154568  0.23598222  1
  O  O48  1  0.19067628  0.00410821  0.85085373  1
  O  O49  1  0.33982255  0.65325448  0.14914627  1
  O  O50  1  0.22585813  0.75363619  0.84084325  1
  O  O51  1  0.38501487  0.41279294  0.15915675  1
  O  O52  1  0.22681395  0.12505646  0.12721692  1
  O  O53  1  0.09959703  0.49783954  0.87278308  1
  O  O54  1  0.24865859  0.85499684  0.12215852  1
  O  O55  1  0.12650008  0.23283833  0.87784148  1
  O  O56  1  0.99329681  0.86497882  0.93760169  1
  O  O57  1  0.05569512  0.42737713  0.06239831  1
  O  O58  1  0.46061005  0.01222083  0.07777032  1
  O  O59  1  0.38283974  0.43445051  0.92222968  1
  O  O60  1  0.25727145  0.90959260  0.54447667  1
  O  O61  1  0.71279478  0.86511593  0.45552333  1
  O  O62  1  0.26303471  0.82200859  0.31971169  1
  O  O63  1  0.94332302  0.00229690  0.68028831  1
  O  O64  1  0.20797475  0.10782647  0.69929391  1
  O  O65  1  0.50868084  0.90853256  0.30070609  1
  O  O66  1  0.54310723  0.35902458  0.34234136  1
  O  O67  1  0.20076587  0.51668321  0.65765864  1
  O  O68  1  0.88976966  0.60171134  0.79271169  1
  O  O69  1  0.09705797  0.30899965  0.20728831  1
  O  O70  1  0.43560073  0.64257639  0.87821076  1
  O  O71  1  0.55738997  0.26436563  0.12178924  1
  O  O72  1  0.60462806  0.07127623  0.96105734  1
  O  O73  1  0.64357072  0.61021889  0.03894266  1
  O  O74  1  0.88609871  0.70453992  0.01960841  1
  O  O75  1  0.86649029  0.18493150  0.98039159  1
  O  O76  1  0.30380298  0.28933737  0.37663732  1
  O  O77  1  0.92716566  0.41270005  0.62336268  1
