# generated using pymatgen
data_VCdCuO4
_symmetry_space_group_name_H-M   'P 1'
_cell_length_a   5.51790963
_cell_length_b   5.51790964
_cell_length_c   6.56436727
_cell_angle_alpha   90.00000000
_cell_angle_beta   90.00000000
_cell_angle_gamma   113.02560338
_symmetry_Int_Tables_number   1
_chemical_formula_structural   VCdCuO4
_chemical_formula_sum   'V2 Cd2 Cu2 O8'
_cell_volume   183.94402814
_cell_formula_units_Z   2
loop_
 _symmetry_equiv_pos_site_id
 _symmetry_equiv_pos_as_xyz
  1  'x, y, z'
loop_
 _atom_site_type_symbol
 _atom_site_label
 _atom_site_symmetry_multiplicity
 _atom_site_fract_x
 _atom_site_fract_y
 _atom_site_fract_z
 _atom_site_occupancy
  O  O0  1  0.25866559  0.74133441  0.03078937  1
  O  O1  1  0.74133441  0.25866559  0.53078937  1
  O  O2  1  0.74133441  0.25866559  0.96921063  1
  O  O3  1  0.25866559  0.74133441  0.46921063  1
  O  O4  1  0.24772470  0.28351428  0.25000000  1
  O  O5  1  0.75227530  0.71648572  0.75000000  1
  O  O6  1  0.71648572  0.75227530  0.25000000  1
  O  O7  1  0.28351428  0.24772470  0.75000000  1
  V  V8  1  0.36588070  0.63411930  0.25000000  1
  V  V9  1  0.63411930  0.36588070  0.75000000  1
  Cu  Cu10  1  0.69394380  0.30605620  0.25000000  1
  Cu  Cu11  1  0.30605620  0.69394380  0.75000000  1
  Cd  Cd12  1  0.00000000  0.00000000  0.00000000  1
  Cd  Cd13  1  0.00000000  0.00000000  0.50000000  1
