# generated using pymatgen
data_KMgV3Cu4O13
_symmetry_space_group_name_H-M   'P 1'
_cell_length_a   6.08401019
_cell_length_b   8.37606701
_cell_length_c   10.97292191
_cell_angle_alpha   98.29212723
_cell_angle_beta   90.00000000
_cell_angle_gamma   90.00000000
_symmetry_Int_Tables_number   1
_chemical_formula_structural   KMgV3Cu4O13
_chemical_formula_sum   'K2 Mg2 V6 Cu8 O26'
_cell_volume   553.33505309
_cell_formula_units_Z   2
loop_
 _symmetry_equiv_pos_site_id
 _symmetry_equiv_pos_as_xyz
  1  'x, y, z'
loop_
 _atom_site_type_symbol
 _atom_site_label
 _atom_site_symmetry_multiplicity
 _atom_site_fract_x
 _atom_site_fract_y
 _atom_site_fract_z
 _atom_site_occupancy
  O  O0  1  0.25000000  0.11540857  0.42544515  1
  O  O1  1  0.75000000  0.88459143  0.57455485  1
  O  O2  1  0.25000000  0.34116048  0.62153041  1
  O  O3  1  0.75000000  0.65883952  0.37846959  1
  O  O4  1  0.25000000  0.59061555  0.47647783  1
  O  O5  1  0.75000000  0.40938445  0.52352217  1
  O  O6  1  0.75000000  0.92856986  0.83196250  1
  O  O7  1  0.25000000  0.07143014  0.16803750  1
  O  O8  1  0.48355850  0.84151645  0.27893398  1
  O  O9  1  0.98355850  0.15848355  0.72106602  1
  O  O10  1  0.51644150  0.15848355  0.72106602  1
  O  O11  1  0.01644150  0.84151645  0.27893398  1
  O  O12  1  0.75000000  0.12037156  0.36624847  1
  O  O13  1  0.25000000  0.87962844  0.63375153  1
  O  O14  1  0.75000000  0.43637168  0.84228228  1
  O  O15  1  0.25000000  0.56362832  0.15771772  1
  O  O16  1  0.48034336  0.74330684  0.97109331  1
  O  O17  1  0.98034336  0.25669316  0.02890669  1
  O  O18  1  0.25000000  0.46562726  0.89016279  1
  O  O19  1  0.75000000  0.53437274  0.10983721  1
  O  O20  1  0.99682393  0.62141348  0.70156025  1
  O  O21  1  0.49682393  0.37858652  0.29843975  1
  O  O22  1  0.00317607  0.37858652  0.29843975  1
  O  O23  1  0.50317607  0.62141348  0.70156025  1
  O  O24  1  0.01965664  0.74330684  0.97109331  1
  O  O25  1  0.51965664  0.25669316  0.02890669  1
  Mg  Mg26  1  0.25000000  0.30818419  0.14467869  1
  Mg  Mg27  1  0.75000000  0.69181581  0.85532131  1
  K  K28  1  0.75000000  0.98154239  0.09984987  1
  K  K29  1  0.25000000  0.01845761  0.90015013  1
  V  V30  1  0.75000000  0.36656460  0.00323459  1
  V  V31  1  0.25000000  0.67641318  0.62979184  1
  V  V32  1  0.25000000  0.63343540  0.99676541  1
  V  V33  1  0.75000000  0.03104705  0.70935731  1
  V  V34  1  0.75000000  0.32358682  0.37020816  1
  V  V35  1  0.25000000  0.96895295  0.29064269  1
  Cu  Cu36  1  0.50130226  0.60743482  0.26896389  1
  Cu  Cu37  1  0.00130226  0.39256518  0.73103611  1
  Cu  Cu38  1  0.25000000  0.09850888  0.60468330  1
  Cu  Cu39  1  0.75000000  0.90149112  0.39531670  1
  Cu  Cu40  1  0.49869774  0.39256518  0.73103611  1
  Cu  Cu41  1  0.75000000  0.64431761  0.55721928  1
  Cu  Cu42  1  0.25000000  0.35568239  0.44278072  1
  Cu  Cu43  1  0.99869774  0.60743482  0.26896389  1
