# generated using pymatgen
data_Mg7Al22O40
_symmetry_space_group_name_H-M   'P 1'
_cell_length_a   5.73201520
_cell_length_b   5.73788270
_cell_length_c   28.69275008
_cell_angle_alpha   60.00577079
_cell_angle_beta   59.83109193
_cell_angle_gamma   59.96110207
_symmetry_Int_Tables_number   1
_chemical_formula_structural   Mg7Al22O40
_chemical_formula_sum   'Mg7 Al22 O40'
_cell_volume   666.26974312
_cell_formula_units_Z   1
loop_
 _symmetry_equiv_pos_site_id
 _symmetry_equiv_pos_as_xyz
  1  'x, y, z'
loop_
 _atom_site_type_symbol
 _atom_site_label
 _atom_site_symmetry_multiplicity
 _atom_site_fract_x
 _atom_site_fract_y
 _atom_site_fract_z
 _atom_site_occupancy
  Al  Al0  1  0.12234320  0.11445229  0.02974243  1
  Al  Al1  1  0.15935823  0.11823076  0.22083370  1
  Al  Al2  1  0.45834883  0.50100808  0.00792817  1
  Al  Al3  1  0.49748702  0.49927447  0.10132861  1
  Al  Al4  1  0.54364613  0.49174071  0.19453755  1
  Al  Al5  1  0.14884587  0.12417175  0.42056367  1
  Al  Al6  1  0.49731772  0.99671919  0.10131398  1
  Al  Al7  1  0.51208895  0.50442768  0.29760887  1
  Al  Al8  1  0.51196148  0.99540061  0.29762077  1
  Al  Al9  1  0.86640870  0.88632972  0.17223366  1
  Al  Al10  1  0.51323679  0.50534742  0.39519654  1
  Al  Al11  1  0.50407572  0.50449787  0.49938659  1
  Al  Al12  1  0.49654160  0.50277857  0.59955739  1
  Al  Al13  1  0.50405460  0.99439199  0.49939187  1
  Al  Al14  1  0.49624037  0.49851164  0.70090951  1
  Al  Al15  1  0.49429860  0.49947729  0.80138550  1
  Al  Al16  1  0.49624953  0.00077648  0.70091585  1
  Al  Al17  1  0.99635439  0.49856394  0.70132052  1
  Al  Al18  1  0.48991363  0.49528319  0.90297341  1
  Al  Al19  1  0.48993227  -0.00007682  0.90297563  1
  Al  Al20  1  0.99100883  0.49594880  0.90341919  1
  Al  Al21  1  0.85061769  0.87363296  0.98043552  1
  Mg  Mg22  1  0.13435804  0.12962263  0.62127557  1
  Mg  Mg23  1  0.01180466  0.50392678  0.29606630  1
  Mg  Mg24  1  0.11959557  0.12259141  0.82706448  1
  Mg  Mg25  1  0.87063523  0.88068909  0.37357017  1
  Mg  Mg26  1  0.99867042  0.50407207  0.49862467  1
  Mg  Mg27  1  0.86263228  0.87833030  0.57612103  1
  Mg  Mg28  1  0.86905777  0.87367436  0.77675360  1
  O  O29  1  0.28007172  0.23904997  0.04826734  1
  O  O30  1  0.28569007  0.24442177  0.14508677  1
  O  O31  1  0.28012443  0.73952969  0.04827358  1
  O  O32  1  0.72855198  0.26065992  0.05001941  1
  O  O33  1  0.28937909  0.24752476  0.24728741  1
  O  O34  1  0.26824295  0.74535646  0.14821748  1
  O  O35  1  0.71480372  0.75672323  0.05436858  1
  O  O36  1  0.28459754  0.25159665  0.34244277  1
  O  O37  1  0.28945393  0.72656230  0.24727705  1
  O  O38  1  0.72698273  0.26669997  0.14894082  1
  O  O39  1  0.72691239  0.76168591  0.14895076  1
  O  O40  1  0.75356438  0.25338372  0.24791158  1
  O  O41  1  0.27977742  0.25500672  0.44561710  1
  O  O42  1  0.29352095  0.74522830  0.34319237  1
  O  O43  1  0.73083022  0.29383773  0.34482609  1
  O  O44  1  0.27975184  0.73707950  0.44561816  1
  O  O45  1  0.28970576  0.26156522  0.53742553  1
  O  O46  1  0.74349518  0.75558765  0.24905124  1
  O  O47  1  0.75134621  0.25833887  0.44637715  1
  O  O48  1  0.73076255  0.75114099  0.34483243  1
  O  O49  1  0.25405919  0.26016083  0.65537479  1
  O  O50  1  0.27777145  0.74172844  0.54774530  1
  O  O51  1  0.25817777  0.25964798  0.74452966  1
  O  O52  1  0.71347564  0.28730706  0.55052170  1
  O  O53  1  0.72030133  0.74896226  0.45633070  1
  O  O54  1  0.25403679  0.70892920  0.65538058  1
  O  O55  1  0.71343623  0.74652978  0.55052978  1
  O  O56  1  0.70897180  0.25961199  0.65436566  1
  O  O57  1  0.25279458  0.25813364  0.85737088  1
  O  O58  1  0.28218926  0.73140377  0.75103290  1
  O  O59  1  0.25275017  0.70228339  0.85737452  1
  O  O60  1  0.72758495  0.28611255  0.75100417  1
  O  O61  1  0.72985725  0.73300944  0.66083370  1
  O  O62  1  0.24438367  0.25347960  0.94973405  1
  O  O63  1  0.69776795  0.25844181  0.85707104  1
  O  O64  1  0.72756917  0.73144326  0.75100814  1
  O  O65  1  0.25533002  0.74256305  0.95191794  1
  O  O66  1  0.73687555  0.27108886  0.94974776  1
  O  O67  1  0.72111536  0.73106621  0.86334384  1
  O  O68  1  0.73690272  0.74332231  0.94974450  1
