# generated using pymatgen
data_CeP3H8O7
_symmetry_space_group_name_H-M   'P 1'
_cell_length_a   7.23863949
_cell_length_b   8.08033528
_cell_length_c   9.04428547
_cell_angle_alpha   110.74993464
_cell_angle_beta   97.57883670
_cell_angle_gamma   104.93029487
_symmetry_Int_Tables_number   1
_chemical_formula_structural   CeP3H8O7
_chemical_formula_sum   'Ce2 P6 H16 O14'
_cell_volume   463.18250825
_cell_formula_units_Z   2
loop_
 _symmetry_equiv_pos_site_id
 _symmetry_equiv_pos_as_xyz
  1  'x, y, z'
loop_
 _atom_site_type_symbol
 _atom_site_label
 _atom_site_symmetry_multiplicity
 _atom_site_fract_x
 _atom_site_fract_y
 _atom_site_fract_z
 _atom_site_occupancy
  Ce  Ce0  1  0.34642423  0.18777466  0.13232273  1
  Ce  Ce1  1  0.65357577  0.81222534  0.86767727  1
  P  P2  1  0.85213422  0.18604220  0.26641726  1
  P  P3  1  0.14786578  0.81395780  0.73358274  1
  P  P4  1  0.03165943  0.78161192  0.18935743  1
  P  P5  1  0.96834057  0.21838808  0.81064257  1
  P  P6  1  0.46965454  0.31098634  0.58604976  1
  P  P7  1  0.53034546  0.68901366  0.41395024  1
  O  O8  1  0.03515758  0.15991979  0.20968286  1
  O  O9  1  0.96484242  0.84008021  0.79031714  1
  O  O10  1  0.65485227  0.06744862  0.14026909  1
  O  O11  1  0.34514773  0.93255138  0.85973091  1
  O  O12  1  0.21590521  0.86782344  0.14186813  1
  O  O13  1  0.78409479  0.13217656  0.85813187  1
  O  O14  1  0.82845761  0.73187205  0.08058048  1
  O  O15  1  0.17154239  0.26812795  0.91941952  1
  O  O16  1  0.61631449  0.48315405  0.72659226  1
  O  O17  1  0.38368551  0.51684595  0.27340774  1
  O  O18  1  0.50125804  0.26782211  0.41480970  1
  O  O19  1  0.49874196  0.73217789  0.58519030  1
  O  O20  1  0.62224853  0.36495218  0.04872823  1
  O  O21  1  0.37775147  0.63504782  0.95127177  1
  H  H22  1  0.86752559  0.37767290  0.32344037  1
  H  H23  1  0.13247441  0.62232710  0.67655963  1
  H  H24  1  0.84953296  0.14625763  0.40698864  1
  H  H25  1  0.15046704  0.85374237  0.59301136  1
  H  H26  1  0.04847903  0.61701797  0.20475064  1
  H  H27  1  0.95152097  0.38298203  0.79524936  1
  H  H28  1  0.04024163  0.90112827  0.35124249  1
  H  H29  1  0.95975837  0.09887173  0.64875751  1
  H  H30  1  0.46393032  0.15317028  0.62280389  1
  H  H31  1  0.53606968  0.84682972  0.37719611  1
  H  H32  1  0.27589154  0.32118676  0.58342217  1
  H  H33  1  0.72410846  0.67881324  0.41657783  1
  H  H34  1  0.68034670  0.28358958  0.97083013  1
  H  H35  1  0.31965330  0.71641042  0.02916987  1
  H  H36  1  0.66805249  0.49086927  0.04835232  1
  H  H37  1  0.33194751  0.50913073  0.95164768  1
