# generated using pymatgen
data_Na3(FeS2)2
_symmetry_space_group_name_H-M   'P 1'
_cell_length_a   6.66314217
_cell_length_b   10.49862472
_cell_length_c   10.69988835
_cell_angle_alpha   90.00000000
_cell_angle_beta   90.00000000
_cell_angle_gamma   90.00000000
_symmetry_Int_Tables_number   1
_chemical_formula_structural   Na3(FeS2)2
_chemical_formula_sum   'Na12 Fe8 S16'
_cell_volume   748.49816101
_cell_formula_units_Z   4
loop_
 _symmetry_equiv_pos_site_id
 _symmetry_equiv_pos_as_xyz
  1  'x, y, z'
loop_
 _atom_site_type_symbol
 _atom_site_label
 _atom_site_symmetry_multiplicity
 _atom_site_fract_x
 _atom_site_fract_y
 _atom_site_fract_z
 _atom_site_occupancy
  Na  Na0  1  0.08210283  0.25000000  0.76514738  1
  Na  Na1  1  0.58210283  0.25000000  0.73485262  1
  Na  Na2  1  0.91789717  0.75000000  0.23485262  1
  Na  Na3  1  0.41789717  0.75000000  0.26514738  1
  Na  Na4  1  0.04311811  0.41510424  0.14363606  1
  Na  Na5  1  0.54311811  0.08489576  0.35636394  1
  Na  Na6  1  0.95688189  0.91510424  0.85636394  1
  Na  Na7  1  0.45688189  0.58489576  0.64363606  1
  Na  Na8  1  0.95688189  0.58489576  0.85636394  1
  Na  Na9  1  0.45688189  0.91510424  0.64363606  1
  Na  Na10  1  0.04311811  0.08489576  0.14363606  1
  Na  Na11  1  0.54311811  0.41510424  0.35636394  1
  Fe  Fe12  1  0.04603840  0.37405085  0.47114714  1
  Fe  Fe13  1  0.54603840  0.12594915  0.02885286  1
  Fe  Fe14  1  0.95396160  0.87405085  0.52885286  1
  Fe  Fe15  1  0.45396160  0.62594915  0.97114714  1
  Fe  Fe16  1  0.95396160  0.62594915  0.52885286  1
  Fe  Fe17  1  0.45396160  0.87405085  0.97114714  1
  Fe  Fe18  1  0.04603840  0.12594915  0.47114714  1
  Fe  Fe19  1  0.54603840  0.37405085  0.02885286  1
  S  S20  1  0.16533516  0.55186465  0.37721006  1
  S  S21  1  0.66533516  0.94813535  0.12278994  1
  S  S22  1  0.83466484  0.05186465  0.62278994  1
  S  S23  1  0.33466484  0.44813535  0.87721006  1
  S  S24  1  0.83466484  0.44813535  0.62278994  1
  S  S25  1  0.33466484  0.05186465  0.87721006  1
  S  S26  1  0.16533516  0.94813535  0.37721006  1
  S  S27  1  0.66533516  0.55186465  0.12278994  1
  S  S28  1  0.30503844  0.25000000  0.53773428  1
  S  S29  1  0.80503844  0.25000000  0.96226572  1
  S  S30  1  0.69496156  0.75000000  0.46226572  1
  S  S31  1  0.19496156  0.75000000  0.03773428  1
  S  S32  1  0.37657007  0.25000000  0.16472153  1
  S  S33  1  0.87657007  0.25000000  0.33527847  1
  S  S34  1  0.62342993  0.75000000  0.83527847  1
  S  S35  1  0.12342993  0.75000000  0.66472153  1
