# generated using pymatgen
data_Ta2Zn4O9
_symmetry_space_group_name_H-M   'P 1'
_cell_length_a   8.96006917
_cell_length_b   8.86432937
_cell_length_c   10.48865910
_cell_angle_alpha   87.50128050
_cell_angle_beta   87.60563147
_cell_angle_gamma   61.23276024
_symmetry_Int_Tables_number   1
_chemical_formula_structural   Ta2Zn4O9
_chemical_formula_sum   'Ta8 Zn16 O36'
_cell_volume   729.34691397
_cell_formula_units_Z   4
loop_
 _symmetry_equiv_pos_site_id
 _symmetry_equiv_pos_as_xyz
  1  'x, y, z'
loop_
 _atom_site_type_symbol
 _atom_site_label
 _atom_site_symmetry_multiplicity
 _atom_site_fract_x
 _atom_site_fract_y
 _atom_site_fract_z
 _atom_site_occupancy
  O  O0  1  0.05148620  0.10138366  0.33966231  1
  O  O1  1  0.04753448  0.08902379  0.83822023  1
  O  O2  1  0.08873820  0.40817973  0.37995693  1
  O  O3  1  0.23434272  0.23778481  0.17566317  1
  O  O4  1  0.09393348  0.46496011  0.87630675  1
  O  O5  1  0.25919555  0.22510360  0.67396517  1
  O  O6  1  0.04525028  0.77891467  0.91639723  1
  O  O7  1  0.08891597  0.77034408  0.42094394  1
  O  O8  1  0.40777371  0.12871483  0.90743222  1
  O  O9  1  0.41482848  0.12678146  0.40773506  1
  O  O10  1  0.24583037  0.54301135  0.18921262  1
  O  O11  1  0.23124828  0.55696749  0.68712621  1
  O  O12  1  0.42372626  0.43552766  0.42288225  1
  O  O13  1  0.40438005  0.45240477  0.92116807  1
  O  O14  1  0.24534190  0.88331012  0.05411865  1
  O  O15  1  0.56094147  0.21610025  0.20026785  1
  O  O16  1  0.23847117  0.90980440  0.55885076  1
  O  O17  1  0.56962680  0.23702164  0.70206388  1
  O  O18  1  0.43037320  0.76297836  0.29793612  1
  O  O19  1  0.76152883  0.09019560  0.44114924  1
  O  O20  1  0.43905853  0.78389975  0.79973215  1
  O  O21  1  0.75465810  0.11668988  0.94588135  1
  O  O22  1  0.59561995  0.54759523  0.07883193  1
  O  O23  1  0.57627374  0.56447234  0.57711775  1
  O  O24  1  0.76875172  0.44303251  0.31287379  1
  O  O25  1  0.75416963  0.45698865  0.81078738  1
  O  O26  1  0.58517152  0.87321854  0.59226494  1
  O  O27  1  0.59222629  0.87128517  0.09256778  1
  O  O28  1  0.91108403  0.22965592  0.57905606  1
  O  O29  1  0.95474972  0.22108533  0.08360277  1
  O  O30  1  0.74080445  0.77489640  0.32603483  1
  O  O31  1  0.90606652  0.53503989  0.12369325  1
  O  O32  1  0.76565728  0.76221519  0.82433683  1
  O  O33  1  0.91126180  0.59182027  0.62004307  1
  O  O34  1  0.95246552  0.91097621  0.16177977  1
  O  O35  1  0.94851380  0.89861634  0.66033769  1
  Ta  Ta36  1  0.00000000  0.00000000  0.00000000  1
  Ta  Ta37  1  1.00208559  0.30690721  0.24256435  1
  Ta  Ta38  1  0.00000000  0.00000000  0.50000000  1
  Ta  Ta39  1  0.35379471  0.33067043  0.30080060  1
  Ta  Ta40  1  0.35315582  0.32568703  0.79660197  1
  Ta  Ta41  1  0.64684418  0.67431297  0.20339803  1
  Ta  Ta42  1  0.64620529  0.66932957  0.69919940  1
  Ta  Ta43  1  -0.00208559  0.69309279  0.75743565  1
  Zn  Zn44  1  0.05945045  0.34104051  0.57100036  1
  Zn  Zn45  1  0.25635555  0.00790183  0.73193814  1
  Zn  Zn46  1  0.34436946  0.03991659  0.06598864  1
  Zn  Zn47  1  0.09942932  0.57549742  0.04896224  1
  Zn  Zn48  1  0.20295876  0.77497191  0.24209776  1
  Zn  Zn49  1  0.56732639  0.09898589  0.55765244  1
  Zn  Zn50  1  0.32556602  0.63635674  0.53958868  1
  Zn  Zn51  1  0.40511221  0.67196837  0.95404100  1
  Zn  Zn52  1  0.59488779  0.32803163  0.04595900  1
  Zn  Zn53  1  0.67443398  0.36364326  0.46041132  1
  Zn  Zn54  1  0.43267361  0.90101411  0.44234756  1
  Zn  Zn55  1  0.79704124  0.22502809  0.75790224  1
  Zn  Zn56  1  0.90057068  0.42450258  0.95103776  1
  Zn  Zn57  1  0.65563054  0.96008341  0.93401136  1
  Zn  Zn58  1  0.74364445  0.99209817  0.26806186  1
  Zn  Zn59  1  0.94054955  0.65895949  0.42899964  1
