# generated using pymatgen
data_LiCr(PO3)4
_symmetry_space_group_name_H-M   'P 1'
_cell_length_a   5.20437285
_cell_length_b   13.62579400
_cell_length_c   7.37091421
_cell_angle_alpha   90.00000000
_cell_angle_beta   98.31048772
_cell_angle_gamma   90.00000000
_symmetry_Int_Tables_number   1
_chemical_formula_structural   LiCr(PO3)4
_chemical_formula_sum   'Li2 Cr2 P8 O24'
_cell_volume   517.21021164
_cell_formula_units_Z   2
loop_
 _symmetry_equiv_pos_site_id
 _symmetry_equiv_pos_as_xyz
  1  'x, y, z'
loop_
 _atom_site_type_symbol
 _atom_site_label
 _atom_site_symmetry_multiplicity
 _atom_site_fract_x
 _atom_site_fract_y
 _atom_site_fract_z
 _atom_site_occupancy
  Li  Li0  1  0.36874378  0.49033759  0.89153682  1
  Li  Li1  1  0.63125622  0.99033759  0.10846418  1
  O  O2  1  0.29547243  0.89090220  0.50877351  1
  O  O3  1  0.99260972  0.63893654  0.22910312  1
  O  O4  1  0.00739028  0.13893654  0.77089788  1
  O  O5  1  0.05026221  0.73196300  0.94561497  1
  O  O6  1  0.03161494  0.89034486  0.77195726  1
  O  O7  1  0.06569146  0.51398843  0.48464443  1
  O  O8  1  0.18392812  0.38119200  0.94432825  1
  O  O9  1  0.18915601  0.34291476  0.55081821  1
  O  O10  1  0.20573973  0.68390041  0.55537132  1
  O  O11  1  0.28229501  0.14164594  0.51259763  1
  O  O12  1  0.62691310  0.78197782  0.76913738  1
  O  O13  1  0.37308690  0.28197782  0.23086262  1
  O  O14  1  0.37428359  0.75742001  0.23373705  1
  O  O15  1  0.35811929  0.59660707  0.04499770  1
  O  O16  1  0.96838506  0.39034486  0.22804374  1
  O  O17  1  0.62571641  0.25742101  0.76626295  1
  O  O18  1  0.94973779  0.23196300  0.05438603  1
  O  O19  1  0.70452757  0.39090220  0.49122649  1
  O  O20  1  0.71770499  0.64164594  0.48740137  1
  O  O21  1  0.79426027  0.18390041  0.44462868  1
  O  O22  1  0.81084399  0.84291476  0.44918279  1
  O  O23  1  0.81607188  0.88119200  0.05567075  1
  O  O24  1  0.93430854  0.01398843  0.51535557  1
  O  O25  1  0.64188071  0.09660707  0.95500330  1
  P  P26  1  0.85822069  0.82320114  0.89274033  1
  P  P27  1  0.97497028  0.40267018  0.44483207  1
  P  P28  1  0.01086099  0.12689451  0.55556863  1
  P  P29  1  0.02502972  0.90267018  0.55516893  1
  P  P30  1  0.14177931  0.32320114  0.10725967  1
  P  P31  1  0.22100864  0.68031581  0.11683190  1
  P  P32  1  0.77899136  0.18031581  0.88316810  1
  P  P33  1  0.98913901  0.62689451  0.44443137  1
  Cr  Cr34  1  0.50620623  0.76563473  0.50145976  1
  Cr  Cr35  1  0.49379377  0.26563573  0.49854024  1
