# generated using pymatgen
data_Cr4(PO4)3
_symmetry_space_group_name_H-M   'P 1'
_cell_length_a   7.61470309
_cell_length_b   8.20711424
_cell_length_c   9.67932763
_cell_angle_alpha   108.63753378
_cell_angle_beta   112.72943594
_cell_angle_gamma   94.21110731
_symmetry_Int_Tables_number   1
_chemical_formula_structural   Cr4(PO4)3
_chemical_formula_sum   'Cr8 P6 O24'
_cell_volume   515.07838115
_cell_formula_units_Z   2
loop_
 _symmetry_equiv_pos_site_id
 _symmetry_equiv_pos_as_xyz
  1  'x, y, z'
loop_
 _atom_site_type_symbol
 _atom_site_label
 _atom_site_symmetry_multiplicity
 _atom_site_fract_x
 _atom_site_fract_y
 _atom_site_fract_z
 _atom_site_occupancy
  Cr  Cr0  1  0.02739623  0.80357527  0.47530367  1
  Cr  Cr1  1  0.97260377  0.19642473  0.52469633  1
  Cr  Cr2  1  0.26109148  0.90855567  0.90577277  1
  Cr  Cr3  1  0.73890852  0.09144333  0.09422723  1
  Cr  Cr4  1  0.26630254  0.53896877  0.91855458  1
  Cr  Cr5  1  0.73369746  0.46103123  0.08144542  1
  Cr  Cr6  1  0.29529924  0.61032824  0.29479356  1
  Cr  Cr7  1  0.70470076  0.38967176  0.70520644  1
  P  P8  1  0.03036292  0.25960140  0.95077455  1
  P  P9  1  0.96963708  0.74039860  0.04922545  1
  P  P10  1  0.31266391  0.55882709  0.61636561  1
  P  P11  1  0.68733609  0.44117291  0.38363439  1
  P  P12  1  0.39668402  0.15650630  0.74807731  1
  P  P13  1  0.60331598  0.84349370  0.25192269  1
  O  O14  1  0.11827290  0.73854433  0.97378167  1
  O  O15  1  0.88172710  0.26145567  0.02621833  1
  O  O16  1  0.11299514  0.09837870  0.93949422  1
  O  O17  1  0.88700486  0.90162130  0.06050578  1
  O  O18  1  0.30039058  0.66686413  0.77718292  1
  O  O19  1  0.69960942  0.33313587  0.22281708  1
  O  O20  1  0.16034405  0.38524551  0.52873903  1
  O  O21  1  0.83965595  0.61475449  0.47126097  1
  O  O22  1  0.18912029  0.06554187  0.60346393  1
  O  O23  1  0.81087971  0.93445813  0.39653607  1
  O  O24  1  0.06131421  0.71973141  0.21752268  1
  O  O25  1  0.93868579  0.28026859  0.78247732  1
  O  O26  1  0.26088924  0.67321336  0.50639386  1
  O  O27  1  0.73911076  0.32678664  0.49360614  1
  O  O28  1  0.40099056  0.34181796  0.85777820  1
  O  O29  1  0.59900944  0.65818204  0.14222180  1
  O  O30  1  0.44847328  0.03671465  0.84655936  1
  O  O31  1  0.55152672  0.96328535  0.15344064  1
  O  O32  1  0.19368760  0.43711606  0.06304482  1
  O  O33  1  0.80631240  0.56288394  0.93695518  1
  O  O34  1  0.52143862  0.53666906  0.65234634  1
  O  O35  1  0.47856138  0.46333094  0.34765366  1
  O  O36  1  0.54675914  0.17839385  0.67954514  1
  O  O37  1  0.45324086  0.82160715  0.32045486  1
