# generated using pymatgen
data_LaAl22O34
_symmetry_space_group_name_H-M   'P 1'
_cell_length_a   11.82845899
_cell_length_b   23.65010698
_cell_length_c   34.55277614
_cell_angle_alpha   18.55747194
_cell_angle_beta   24.63620284
_cell_angle_gamma   27.64960076
_symmetry_Int_Tables_number   1
_chemical_formula_structural   LaAl22O34
_chemical_formula_sum   'La2 Al44 O68'
_cell_volume   1261.02666454
_cell_formula_units_Z   2
loop_
 _symmetry_equiv_pos_site_id
 _symmetry_equiv_pos_as_xyz
  1  'x, y, z'
loop_
 _atom_site_type_symbol
 _atom_site_label
 _atom_site_symmetry_multiplicity
 _atom_site_fract_x
 _atom_site_fract_y
 _atom_site_fract_z
 _atom_site_occupancy
  Al  Al0  1  1.00064103  -0.00037879  0.99932379  1
  Al  Al1  1  0.09969646  0.27291996  0.04985091  1
  Al  Al2  1  0.59315514  0.02516650  0.04678003  1
  Al  Al3  1  -0.00064141  0.50037879  0.00067632  1
  Al  Al4  1  0.34939227  0.08625997  0.17619849  1
  Al  Al5  1  0.44339716  0.11126628  0.22832091  1
  Al  Al6  1  0.54302429  0.13587330  0.27806312  1
  Al  Al7  1  0.09342957  0.40041242  0.29670335  1
  Al  Al8  1  0.09372307  0.02042330  0.54979660  1
  Al  Al9  1  0.09514965  0.77206096  0.04828222  1
  Al  Al10  1  0.59147911  0.52238718  0.04947848  1
  Al  Al11  1  0.64669954  0.16238471  0.32577928  1
  Al  Al12  1  0.34847595  0.59010591  0.17383292  1
  Al  Al13  1  0.40470549  0.22529414  0.44998922  1
  Al  Al14  1  0.90239556  0.35062078  0.20430437  1
  Al  Al15  1  0.45030769  0.61788360  0.22167776  1
  Al  Al16  1  0.54917911  0.64211155  0.27191145  1
  Al  Al17  1  0.09760453  0.14937916  0.79569563  1
  Al  Al18  1  0.09756154  0.52370078  0.54653147  1
  Al  Al19  1  0.09404002  0.90092612  0.29589708  1
  Al  Al20  1  0.59529481  0.27470571  0.55001088  1
  Al  Al21  1  0.65055404  0.66365138  0.32420061  1
  Al  Al22  1  0.35330041  0.33761519  0.67422081  1
  Al  Al23  1  0.00000009  0.24999993  0.50000005  1
  Al  Al24  1  0.40705675  0.72634824  0.45190505  1
  Al  Al25  1  0.90657038  0.09958766  0.70329667  1
  Al  Al26  1  0.90627725  0.47957661  0.45020335  1
  Al  Al27  1  0.90242702  0.85190542  0.20307033  1
  Al  Al28  1  0.45697572  0.36412706  0.72193661  1
  Al  Al29  1  0.55660256  0.38873378  0.77167912  1
  Al  Al30  1  0.09757296  0.64809444  0.79692977  1
  Al  Al31  1  0.59294358  0.77365173  0.54809482  1
  Al  Al32  1  0.65060739  0.41374006  0.82380157  1
  Al  Al33  1  0.34944594  0.83634860  0.67579941  1
  Al  Al34  1  1.00000001  0.74999986  0.50000008  1
  Al  Al35  1  0.40684475  0.47483373  0.95321985  1
  Al  Al36  1  0.90030313  0.22708022  0.95014901  1
  Al  Al37  1  0.90595995  0.59907396  0.70410287  1
  Al  Al38  1  0.90243857  0.97629908  0.45346858  1
  Al  Al39  1  0.45082110  0.85788878  0.72808830  1
  Al  Al40  1  0.54969260  0.88211647  0.77832209  1
  Al  Al41  1  0.65152390  0.90989407  0.82616717  1
  Al  Al42  1  0.40852092  0.97761283  0.95052147  1
  Al  Al43  1  0.90485043  0.72793911  0.95171774  1
  La  La44  1  1.00000074  0.24999786  1.00000103  1
  La  La45  1  0.49999959  0.25000077  0.49999975  1
  O  O46  1  0.09171812  0.02986069  0.04507767  1
  O  O47  1  0.29609256  0.07390248  0.14831270  1
  O  O48  1  0.19322096  0.31108830  0.09521011  1
  O  O49  1  0.72028521  0.04936421  0.09338599  1
  O  O50  1  0.09352906  0.52282104  0.04818478  1
  O  O51  1  0.09044826  0.14907926  0.30091246  1
  O  O52  1  0.60837651  0.27433414  0.04555819  1
  O  O53  1  0.56189862  0.14030955  0.21911851  1
  O  O54  1  0.40100833  0.35018273  0.20331749  1
  O  O55  1  0.90892468  0.10576730  0.19523663  1
  O  O56  1  0.29546307  0.57467625  0.14813785  1
  O  O57  1  0.27595899  0.20227859  0.40614020  1
  O  O58  1  0.81204930  0.33379341  0.14052966  1
  O  O59  1  0.19160864  0.41484238  0.35932491  1
  O  O60  1  0.19208766  0.06311242  0.59366337  1
  O  O61  1  0.19013874  0.81583925  0.09289396  1
  O  O62  1  0.71722825  0.54609662  0.09721602  1
  O  O63  1  0.70224947  0.17631204  0.35190221  1
  O  O64  1  0.10449827  0.27346239  0.54510944  1
  O  O65  1  0.09651994  0.65191957  0.29622520  1
  O  O66  1  0.59326697  0.39330974  0.30468898  1
  O  O67  1  0.59398422  0.03164609  0.54544287  1
  O  O68  1  0.59840210  0.77786194  0.04580887  1
  O  O69  1  0.50047719  0.57871309  0.28073685  1
  O  O70  1  0.40673329  0.10669024  0.69531099  1
  O  O71  1  0.40601622  0.46835384  0.45455705  1
  O  O72  1  0.40038130  0.85490069  0.19935700  1
  O  O73  1  0.90261508  0.60165418  0.20174354  1
  O  O74  1  0.89550181  0.22653761  0.45489059  1
  O  O75  1  0.29775056  0.32368778  0.64809790  1
  O  O76  1  0.28235049  0.70001469  0.40571803  1
  O  O77  1  0.80839143  0.08515753  0.64067517  1
  O  O78  1  0.80791245  0.43688751  0.40633670  1
  O  O79  1  0.80973435  0.83560344  0.13994068  1
  O  O80  1  0.18795042  0.16620649  0.85947047  1
  O  O81  1  0.18936736  0.56051858  0.59686325  1
  O  O82  1  0.18916998  0.91435602  0.36027243  1
  O  O83  1  0.72404105  0.29772135  0.59385985  1
  O  O84  1  0.70459471  0.67599109  0.35157705  1
  O  O85  1  0.09338809  0.77292411  0.54812694  1
  O  O86  1  0.09107542  0.39423264  0.80476325  1
  O  O87  1  0.59899140  0.14981741  0.79668252  1
  O  O88  1  0.59428937  0.89960636  0.29836389  1
  O  O89  1  0.60094792  0.52634417  0.54599297  1
  O  O90  1  0.43810101  0.35969120  0.78088111  1
  O  O91  1  0.39162356  0.22566585  0.95444178  1
  O  O92  1  0.40571084  0.60039362  0.70163610  1
  O  O93  1  0.39905236  0.97365587  0.45400687  1
  O  O94  1  0.90955184  0.35092061  0.69908756  1
  O  O95  1  0.90661221  0.72707578  0.45187301  1
  O  O96  1  0.29540549  0.82400901  0.64842283  1
  O  O97  1  0.27971451  0.45063588  0.90661404  1
  O  O98  1  0.80677855  0.18891168  0.90479005  1
  O  O99  1  0.81083023  0.58564373  0.63972763  1
  O  O100  1  0.81063256  0.93948126  0.40313684  1
  O  O101  1  0.19026531  0.66439662  0.86005939  1
  O  O102  1  0.71764951  0.79998514  0.59428206  1
  O  O103  1  0.70390694  0.42609758  0.85168740  1
  O  O104  1  0.09738498  0.89834587  0.79825645  1
  O  O105  1  0.59961863  0.64509957  0.80064285  1
  O  O106  1  0.49952299  0.92128767  0.71926261  1
  O  O107  1  0.40159788  0.72213811  0.95419108  1
  O  O108  1  0.90348033  0.84808034  0.70377478  1
  O  O109  1  0.90828183  0.47013942  0.95492227  1
  O  O110  1  0.28277152  0.95390328  0.90278413  1
  O  O111  1  0.80986102  0.68416076  0.90710612  1
  O  O112  1  0.70453677  0.92532375  0.85186222  1
  O  O113  1  0.90647094  0.97717900  0.95181521  1
