# generated using pymatgen
data_RbPbF3
_symmetry_space_group_name_H-M   'P 1'
_cell_length_a   11.09595818
_cell_length_b   6.84040357
_cell_length_c   8.16557955
_cell_angle_alpha   53.35437785
_cell_angle_beta   42.61619274
_cell_angle_gamma   35.80034596
_symmetry_Int_Tables_number   1
_chemical_formula_structural   RbPbF3
_chemical_formula_sum   'Rb2 Pb2 F6'
_cell_volume   245.47324613
_cell_formula_units_Z   2
loop_
 _symmetry_equiv_pos_site_id
 _symmetry_equiv_pos_as_xyz
  1  'x, y, z'
loop_
 _atom_site_type_symbol
 _atom_site_label
 _atom_site_symmetry_multiplicity
 _atom_site_fract_x
 _atom_site_fract_y
 _atom_site_fract_z
 _atom_site_occupancy
  Rb  Rb0  1  0.20311145  0.50000000  0.53112460  1
  Rb  Rb1  1  0.70311145  0.50000000  0.56265250  1
  Pb  Pb2  1  0.97539460  0.00000000  0.02460540  1
  Pb  Pb3  1  0.47539460  0.00000000  0.02460540  1
  F  F4  1  0.18062335  0.50000000  0.89631234  1
  F  F5  1  0.83383272  0.50000000  0.75808556  1
  F  F6  1  0.33383272  0.50000000  0.07424900  1
  F  F7  1  0.68062334  0.50000000  0.24244097  1
  F  F8  1  0.68203789  0.00000000  0.31796211  1
  F  F9  1  0.18203789  0.00000000  0.31796211  1
