# generated using pymatgen
data_Ni4(PO4)3
_symmetry_space_group_name_H-M   'P 1'
_cell_length_a   6.60803842
_cell_length_b   6.60803794
_cell_length_c   10.30423529
_cell_angle_alpha   71.30260106
_cell_angle_beta   71.30260247
_cell_angle_gamma   89.98515252
_symmetry_Int_Tables_number   1
_chemical_formula_structural   Ni4(PO4)3
_chemical_formula_sum   'Ni8 P6 O24'
_cell_volume   401.06437145
_cell_formula_units_Z   2
loop_
 _symmetry_equiv_pos_site_id
 _symmetry_equiv_pos_as_xyz
  1  'x, y, z'
loop_
 _atom_site_type_symbol
 _atom_site_label
 _atom_site_symmetry_multiplicity
 _atom_site_fract_x
 _atom_site_fract_y
 _atom_site_fract_z
 _atom_site_occupancy
  Ni  Ni0  1  0.12818575  0.62501821  0.24989647  1
  Ni  Ni1  1  0.87500734  0.87179885  0.75000895  1
  Ni  Ni2  1  0.77300756  0.77304942  0.45382199  1
  Ni  Ni3  1  0.37501821  0.37818575  0.74989647  1
  Ni  Ni4  1  0.22689040  0.22695010  0.54615710  1
  Ni  Ni5  1  0.62179885  0.12500734  0.25000895  1
  Ni  Ni6  1  0.97695010  0.47689040  0.04615710  1
  Ni  Ni7  1  0.52304942  0.02300756  0.95382199  1
  P  P8  1  0.37497635  0.77501336  0.74994382  1
  P  P9  1  0.22500881  0.12509373  0.24989510  1
  P  P10  1  -0.00007920  0.00001148  0.00006380  1
  P  P11  1  0.87509373  0.47500881  0.74989510  1
  P  P12  1  0.75001148  0.24992080  0.50006380  1
  P  P13  1  0.52501336  0.62497635  0.24994382  1
  O  O14  1  0.84834555  0.98600247  0.91400643  1
  O  O15  1  0.44033724  0.14386599  0.12224287  1
  O  O16  1  0.51240118  0.26402080  0.58594973  1
  O  O17  1  0.30947169  0.51620657  0.37784778  1
  O  O18  1  0.31278925  0.10621219  0.37772299  1
  O  O19  1  0.62960027  0.79333236  0.29167730  1
  O  O20  1  0.43746291  0.73393235  0.12217168  1
  O  O21  1  0.01402080  0.76240118  0.08594973  1
  O  O22  1  0.48393235  0.68746291  0.62217168  1
  O  O23  1  0.85621219  0.56278925  0.87772299  1
  O  O24  1  0.90161789  0.14979349  0.58603936  1
  O  O25  1  0.08473939  0.37048154  0.70835275  1
  O  O26  1  0.07873157  0.91501112  0.29164673  1
  O  O27  1  0.26620657  0.55947169  0.87784778  1
  O  O28  1  0.89979349  0.15161789  0.08603936  1
  O  O29  1  0.54333236  0.87960027  0.79167730  1
  O  O30  1  0.23750848  0.10021558  0.91415065  1
  O  O31  1  0.12048154  0.33473939  0.20835275  1
  O  O32  1  0.73600247  0.09834555  0.41400643  1
  O  O33  1  0.66501112  0.32873157  0.79164673  1
  O  O34  1  0.67112277  0.45686622  0.20840452  1
  O  O35  1  0.89386599  0.69033724  0.62224287  1
  O  O36  1  0.20686622  0.92112277  0.70840452  1
  O  O37  1  0.85021558  0.48750848  0.41415065  1
