# generated using pymatgen
data_CrPO5
_symmetry_space_group_name_H-M   'P 1'
_cell_length_a   7.05232949
_cell_length_b   8.18766554
_cell_length_c   7.30058087
_cell_angle_alpha   91.46275885
_cell_angle_beta   90.30709808
_cell_angle_gamma   122.62661338
_symmetry_Int_Tables_number   1
_chemical_formula_structural   CrPO5
_chemical_formula_sum   'Cr4 P4 O20'
_cell_volume   354.82384337
_cell_formula_units_Z   4
loop_
 _symmetry_equiv_pos_site_id
 _symmetry_equiv_pos_as_xyz
  1  'x, y, z'
loop_
 _atom_site_type_symbol
 _atom_site_label
 _atom_site_symmetry_multiplicity
 _atom_site_fract_x
 _atom_site_fract_y
 _atom_site_fract_z
 _atom_site_occupancy
  O  O0  1  0.44791104  0.34078770  0.26424358  1
  O  O1  1  0.93617802  0.33318576  0.75562134  1
  O  O2  1  0.78921049  0.29567524  0.36678601  1
  O  O3  1  0.74893098  0.39366225  0.02669391  1
  O  O4  1  0.14539548  0.85841581  0.96277093  1
  O  O5  1  0.06382098  0.66681324  0.24437866  1
  O  O6  1  0.21078951  0.70432576  0.63321399  1
  O  O7  1  0.25106902  0.60633875  0.97330609  1
  O  O8  1  0.04720150  0.08800425  0.31159194  1
  O  O9  1  0.23063820  0.39290986  0.51286194  1
  O  O10  1  0.46162089  0.90982937  0.17852728  1
  O  O11  1  0.95279850  0.91199475  0.68840806  1
  O  O12  1  0.65260928  0.85099132  0.45212397  1
  O  O13  1  0.55208896  0.65921230  0.73575642  1
  O  O14  1  0.85460452  0.14158319  0.03722907  1
  O  O15  1  0.34739272  0.14900968  0.54787603  1
  O  O16  1  0.72619278  0.76623588  0.11336845  1
  O  O17  1  0.53837811  0.09016963  0.82147272  1
  O  O18  1  0.76936380  0.60709114  0.48713806  1
  O  O19  1  0.27380822  0.23376412  0.88663155  1
  P  P20  1  0.23153062  0.75959897  0.08625358  1
  P  P21  1  0.26437074  0.24327693  0.41279957  1
  P  P22  1  0.73562826  0.75672307  0.58720043  1
  P  P23  1  0.76846938  0.24040103  0.91374642  1
  Cr  Cr24  1  0.76314139  0.45703258  0.27993081  1
  Cr  Cr25  1  0.74804544  0.94753620  0.21609934  1
  Cr  Cr26  1  0.25195356  0.05246280  0.78390066  1
  Cr  Cr27  1  0.23685961  0.54296842  0.72006919  1
