# generated using pymatgen
data_Fe3(P2O7)2
_symmetry_space_group_name_H-M   'P 1'
_cell_length_a   7.29396626
_cell_length_b   7.90905821
_cell_length_c   9.48129540
_cell_angle_alpha   90.00000000
_cell_angle_beta   110.67169069
_cell_angle_gamma   90.00000000
_symmetry_Int_Tables_number   1
_chemical_formula_structural   Fe3(P2O7)2
_chemical_formula_sum   'Fe6 P8 O28'
_cell_volume   511.74667642
_cell_formula_units_Z   2
loop_
 _symmetry_equiv_pos_site_id
 _symmetry_equiv_pos_as_xyz
  1  'x, y, z'
loop_
 _atom_site_type_symbol
 _atom_site_label
 _atom_site_symmetry_multiplicity
 _atom_site_fract_x
 _atom_site_fract_y
 _atom_site_fract_z
 _atom_site_occupancy
  O  O0  1  0.72171079  0.36630306  0.85849296  1
  O  O1  1  0.98673852  0.28373121  0.13420609  1
  O  O2  1  0.96469804  0.92277401  0.10800841  1
  O  O3  1  0.85094928  0.62366474  0.11584306  1
  O  O4  1  0.98673752  0.21626779  0.63420609  1
  O  O5  1  0.96469704  0.57722499  0.60800841  1
  O  O6  1  0.01326148  0.71626779  0.86579391  1
  O  O7  1  0.03530196  0.07722499  0.89199159  1
  O  O8  1  0.14905072  0.37633526  0.88415694  1
  O  O9  1  0.01326248  0.78373321  0.36579391  1
  O  O10  1  0.03530196  0.42277501  0.39199159  1
  O  O11  1  0.31517221  0.13527911  0.79801137  1
  O  O12  1  0.37808668  0.84840826  0.92409155  1
  O  O13  1  0.14905172  0.12366474  0.38415694  1
  O  O14  1  0.27828921  0.86630306  0.64150604  1
  O  O15  1  0.38406314  0.48413833  0.68574971  1
  O  O16  1  0.31517321  0.36472089  0.29801137  1
  O  O17  1  0.62191332  0.15159174  0.07590845  1
  O  O18  1  0.27828921  0.63369794  0.14150604  1
  O  O19  1  0.61593586  0.98413733  0.81425029  1
  O  O20  1  0.38406414  0.01586167  0.18574971  1
  O  O21  1  0.68482679  0.86472089  0.20198863  1
  O  O22  1  0.62191232  0.34840826  0.57590745  1
  O  O23  1  0.68482679  0.63528011  0.70198963  1
  O  O24  1  0.61593686  0.51586267  0.31425029  1
  O  O25  1  0.72170979  0.13369694  0.35849296  1
  O  O26  1  0.85094828  0.87633626  0.61584206  1
  O  O27  1  0.37808768  0.65159174  0.42409155  1
  P  P28  1  0.11381335  0.28988047  0.30349113  1
  P  P29  1  0.40266056  0.94794989  0.79429908  1
  P  P30  1  0.40266056  0.55204911  0.29429908  1
  P  P31  1  0.59733844  0.44794989  0.70570192  1
  P  P32  1  0.59733944  0.05204911  0.20570192  1
  P  P33  1  0.88618665  0.71011953  0.69650887  1
  P  P34  1  0.11381335  0.21011953  0.80349113  1
  P  P35  1  0.88618765  0.78988047  0.19650987  1
  Fe  Fe36  1  0.80359653  0.36763787  0.46864410  1
  Fe  Fe37  1  0.80359753  0.13236313  0.96864410  1
  Fe  Fe38  1  0.19640247  0.86763787  0.03135590  1
  Fe  Fe39  1  0.00000000  0.50000000  0.00000000  1
  Fe  Fe40  1  0.19640347  0.63236313  0.53135590  1
  Fe  Fe41  1  0.00000100  0.00000000  0.50000000  1
