# generated using pymatgen
data_Sr(ReO3)3
_symmetry_space_group_name_H-M   'P 1'
_cell_length_a   16.17092814
_cell_length_b   9.30350166
_cell_length_c   9.37132444
_cell_angle_alpha   90.00000000
_cell_angle_beta   54.58343628
_cell_angle_gamma   54.87776429
_symmetry_Int_Tables_number   1
_chemical_formula_structural   Sr(ReO3)3
_chemical_formula_sum   'Sr4 Re12 O36'
_cell_volume   813.78827356
_cell_formula_units_Z   4
loop_
 _symmetry_equiv_pos_site_id
 _symmetry_equiv_pos_as_xyz
  1  'x, y, z'
loop_
 _atom_site_type_symbol
 _atom_site_label
 _atom_site_symmetry_multiplicity
 _atom_site_fract_x
 _atom_site_fract_y
 _atom_site_fract_z
 _atom_site_occupancy
  Sr  Sr0  1  0.17935257  0.64407358  0.99897344  1
  Sr  Sr1  1  0.32064743  0.00277873  0.35767859  1
  Sr  Sr2  1  0.82064743  0.00277873  0.00102656  1
  Sr  Sr3  1  0.67935257  0.64407358  0.64232141  1
  Re  Re4  1  1.00000000  0.13683615  0.50000000  1
  Re  Re5  1  0.99476769  0.50295256  0.64496907  1
  Re  Re6  1  0.13758613  0.36001059  0.86110041  1
  Re  Re7  1  0.36241387  0.63518286  0.13627267  1
  Re  Re8  1  0.50000000  0.13683615  0.50000000  1
  Re  Re9  1  0.49476769  0.50295256  0.36549555  1
  Re  Re10  1  0.50523231  0.49248794  0.63450445  1
  Re  Re11  1  0.50000000  0.86078322  0.50000000  1
  Re  Re12  1  0.63758613  0.36001059  0.86372733  1
  Re  Re13  1  0.86241387  0.63518286  0.13889959  1
  Re  Re14  1  0.00523231  0.49248794  0.35503093  1
  Re  Re15  1  0.00000000  0.86078322  0.50000000  1
  O  O16  1  1.00000000  0.33863264  0.00000000  1
  O  O17  1  0.13756195  0.36859853  0.06498395  1
  O  O18  1  0.00557146  0.69864220  0.35506590  1
  O  O19  1  0.16161537  0.33100285  0.34310287  1
  O  O20  1  0.00461575  0.99358100  0.33218157  1
  O  O21  1  0.99442854  0.70978513  0.64493410  1
  O  O22  1  0.13775305  0.36005413  0.65601676  1
  O  O23  1  0.20372729  0.65851451  0.29168042  1
  O  O24  1  0.29627271  0.06596909  0.69913500  1
  O  O25  1  0.50000000  0.33863264  0.00000000  1
  O  O26  1  0.20541073  0.93445132  0.29837197  1
  O  O27  1  0.29458927  0.34527277  0.70919342  1
  O  O28  1  0.36243805  0.64372243  0.34010784  1
  O  O29  1  0.50227201  0.29234331  0.35997044  1
  O  O30  1  0.50461575  0.99358100  0.65858693  1
  O  O31  1  0.50000000  0.66843083  1.00000000  1
  O  O32  1  0.33838463  0.65423360  0.66633362  1
  O  O33  1  0.63775305  0.36005413  0.06847713  1
  O  O34  1  0.49772799  0.29688733  0.64002956  1
  O  O35  1  0.49442854  0.70978513  0.36620883  1
  O  O36  1  0.36224695  0.63556023  0.93152287  1
  O  O37  1  0.66161537  0.33100285  0.33366638  1
  O  O38  1  0.49538425  0.00281249  0.34141307  1
  O  O39  1  0.50557146  0.69864220  0.63379117  1
  O  O40  1  0.63756195  0.36859853  0.65989216  1
  O  O41  1  0.70372729  0.65851451  0.30086500  1
  O  O42  1  0.79627271  0.06596909  0.70831958  1
  O  O43  1  0.70541073  0.93445132  0.29080658  1
  O  O44  1  0.79458927  0.34527277  0.70162803  1
  O  O45  1  0.86224695  0.63556023  0.34398324  1
  O  O46  1  0.99772799  0.29688733  0.36451446  1
  O  O47  1  0.00000000  0.66843083  1.00000000  1
  O  O48  1  0.99538425  0.00281249  0.66781843  1
  O  O49  1  0.83838463  0.65423360  0.65689713  1
  O  O50  1  0.00227201  0.29234331  0.63548554  1
  O  O51  1  0.86243805  0.64372243  0.93501605  1
