# generated using pymatgen
data_Ti(PO3)4
_symmetry_space_group_name_H-M   'P 1'
_cell_length_a   7.45035093
_cell_length_b   7.45261050
_cell_length_c   9.97314171
_cell_angle_alpha   86.00539405
_cell_angle_beta   67.39669069
_cell_angle_gamma   113.06887449
_symmetry_Int_Tables_number   1
_chemical_formula_structural   Ti(PO3)4
_chemical_formula_sum   'Ti2 P8 O24'
_cell_volume   454.24872489
_cell_formula_units_Z   2
loop_
 _symmetry_equiv_pos_site_id
 _symmetry_equiv_pos_as_xyz
  1  'x, y, z'
loop_
 _atom_site_type_symbol
 _atom_site_label
 _atom_site_symmetry_multiplicity
 _atom_site_fract_x
 _atom_site_fract_y
 _atom_site_fract_z
 _atom_site_occupancy
  Ti  Ti0  1  0.00000096  0.00000400  0.49999745  1
  Ti  Ti1  1  0.00000443  0.50000092  0.99999984  1
  P  P2  1  0.28178446  0.25891782  0.96652737  1
  P  P3  1  0.72545040  0.24834270  0.53318857  1
  P  P4  1  0.99322569  0.65800494  0.31431481  1
  P  P5  1  0.27454127  0.75165767  0.46681389  1
  P  P6  1  0.71822141  0.74108242  0.03347100  1
  P  P7  1  0.47243761  0.30750926  0.18568072  1
  P  P8  1  0.52757055  0.69248939  0.81431493  1
  P  P9  1  0.00676710  0.34199354  0.68568885  1
  O  O10  1  0.49683594  0.46768061  0.84392700  1
  O  O11  1  0.96217376  0.35511192  0.84480707  1
  O  O12  1  0.03781966  0.64488026  0.15519692  1
  O  O13  1  0.11744519  0.33434545  0.05707037  1
  O  O14  1  0.10875167  0.82573427  0.55717718  1
  O  O15  1  0.18814489  0.65891928  0.34431841  1
  O  O16  1  0.04335732  0.16187277  0.64561690  1
  O  O17  1  0.21630644  0.54386161  0.57533503  1
  O  O18  1  0.38149967  0.20879755  0.07485642  1
  O  O19  1  0.50897344  0.88063259  0.39477541  1
  O  O20  1  0.50317214  0.53231674  0.15606805  1
  O  O21  1  0.29998257  0.19268737  0.34463305  1
  O  O22  1  0.30732958  0.68893820  0.85422080  1
  O  O23  1  0.77542295  0.90346035  0.10548270  1
  O  O24  1  0.22457381  0.09653854  0.89451818  1
  O  O25  1  0.89124289  0.17427116  0.44282268  1
  O  O26  1  0.70001934  0.80731451  0.65536216  1
  O  O27  1  0.88256640  0.66565948  0.94293068  1
  O  O28  1  0.49101768  0.11936605  0.60522419  1
  O  O29  1  0.61851334  0.79120039  0.92513609  1
  O  O30  1  0.78368092  0.45614150  0.42467304  1
  O  O31  1  0.95664428  0.83813179  0.35437948  1
  O  O32  1  0.81184393  0.34107313  0.65568733  1
  O  O33  1  0.69267633  0.31105980  0.14577943  1
