# generated using pymatgen
data_Ni(SbO2)2
_symmetry_space_group_name_H-M   'P 1'
_cell_length_a   6.05662956
_cell_length_b   8.47757709
_cell_length_c   8.47757709
_cell_angle_alpha   90.00000000
_cell_angle_beta   90.00000000
_cell_angle_gamma   90.00000000
_symmetry_Int_Tables_number   1
_chemical_formula_structural   Ni(SbO2)2
_chemical_formula_sum   'Ni4 Sb8 O16'
_cell_volume   435.28580749
_cell_formula_units_Z   4
loop_
 _symmetry_equiv_pos_site_id
 _symmetry_equiv_pos_as_xyz
  1  'x, y, z'
loop_
 _atom_site_type_symbol
 _atom_site_label
 _atom_site_symmetry_multiplicity
 _atom_site_fract_x
 _atom_site_fract_y
 _atom_site_fract_z
 _atom_site_occupancy
  O  O0  1  0.50000000  0.86275240  0.40255341  1
  O  O1  1  0.50000000  0.13724760  0.59744659  1
  O  O2  1  0.00000000  0.40255341  0.13724760  1
  O  O3  1  0.00000000  0.59744659  0.86275240  1
  O  O4  1  0.00000000  0.90255341  0.36275240  1
  O  O5  1  0.50000000  0.63724760  0.90255341  1
  O  O6  1  0.50000000  0.36275240  0.09744659  1
  O  O7  1  0.00000000  0.09744659  0.63724760  1
  O  O8  1  0.75000000  0.67649960  0.17649960  1
  O  O9  1  0.25000000  0.82350040  0.67649960  1
  O  O10  1  0.25000000  0.17649960  0.32350040  1
  O  O11  1  0.75000000  0.32350040  0.82350040  1
  O  O12  1  0.25000000  0.67649960  0.17649960  1
  O  O13  1  0.75000000  0.82350040  0.67649960  1
  O  O14  1  0.75000000  0.17649960  0.32350040  1
  O  O15  1  0.25000000  0.32350040  0.82350040  1
  Ni  Ni16  1  0.25000000  0.00000000  0.50000000  1
  Ni  Ni17  1  0.75000000  0.50000000  0.00000000  1
  Ni  Ni18  1  0.75000000  0.00000000  0.50000000  1
  Ni  Ni19  1  0.25000000  0.50000000  0.00000000  1
  Sb  Sb20  1  0.00000000  0.82786366  0.83514835  1
  Sb  Sb21  1  0.50000000  0.16485165  0.82786366  1
  Sb  Sb22  1  0.50000000  0.83514835  0.17213634  1
  Sb  Sb23  1  0.00000000  0.17213634  0.16485165  1
  Sb  Sb24  1  0.00000000  0.67213634  0.33514835  1
  Sb  Sb25  1  0.00000000  0.32786366  0.66485165  1
  Sb  Sb26  1  0.50000000  0.66485165  0.67213634  1
  Sb  Sb27  1  0.50000000  0.33514835  0.32786366  1
