# generated using pymatgen
data_U(BiO3)2
_symmetry_space_group_name_H-M   'P 1'
_cell_length_a   3.89662167
_cell_length_b   3.89662186
_cell_length_c   9.76011880
_cell_angle_alpha   90.00000000
_cell_angle_beta   90.00000000
_cell_angle_gamma   119.99999848
_symmetry_Int_Tables_number   1
_chemical_formula_structural   U(BiO3)2
_chemical_formula_sum   'U1 Bi2 O6'
_cell_volume   128.34006239
_cell_formula_units_Z   1
loop_
 _symmetry_equiv_pos_site_id
 _symmetry_equiv_pos_as_xyz
  1  'x, y, z'
loop_
 _atom_site_type_symbol
 _atom_site_label
 _atom_site_symmetry_multiplicity
 _atom_site_fract_x
 _atom_site_fract_y
 _atom_site_fract_z
 _atom_site_occupancy
  O  O0  1  0.66666700  0.33333300  0.58069020  1
  Bi  Bi1  1  0.66666700  0.33333300  0.34274089  1
  Bi  Bi2  1  0.33333300  0.66666700  0.65726096  1
  O  O3  1  0.33333300  0.66666700  0.41932259  1
  O  O4  1  0.66666700  0.33333300  0.95538323  1
  U  U5  1  0.00000000  0.00000000  1.00000810  1
  O  O6  1  0.33333300  0.66666700  0.04461808  1
  O  O7  1  0.00000000  0.00000000  0.20970829  1
  O  O8  1  0.00000000  0.00000000  0.79026767  1
