# generated using pymatgen
data_Fe2P3O10
_symmetry_space_group_name_H-M   'P 1'
_cell_length_a   4.74310109
_cell_length_b   8.51319066
_cell_length_c   8.98009307
_cell_angle_alpha   90.00000000
_cell_angle_beta   97.72750270
_cell_angle_gamma   90.00000000
_symmetry_Int_Tables_number   1
_chemical_formula_structural   Fe2P3O10
_chemical_formula_sum   'Fe4 P6 O20'
_cell_volume   359.31358143
_cell_formula_units_Z   2
loop_
 _symmetry_equiv_pos_site_id
 _symmetry_equiv_pos_as_xyz
  1  'x, y, z'
loop_
 _atom_site_type_symbol
 _atom_site_label
 _atom_site_symmetry_multiplicity
 _atom_site_fract_x
 _atom_site_fract_y
 _atom_site_fract_z
 _atom_site_occupancy
  Fe  Fe0  1  0.96083967  0.57233444  0.67370472  1
  Fe  Fe1  1  0.03916033  0.07233444  0.32629528  1
  Fe  Fe2  1  0.03916033  0.42766556  0.32629528  1
  Fe  Fe3  1  0.96083967  0.92766556  0.67370472  1
  P  P4  1  0.33119175  0.25000000  0.81492458  1
  P  P5  1  0.38817037  0.75000000  0.46201321  1
  P  P6  1  0.46136803  0.25000000  0.14610716  1
  P  P7  1  0.53863197  0.75000000  0.85389284  1
  P  P8  1  0.61182963  0.25000000  0.53798679  1
  P  P9  1  0.66880825  0.75000000  0.18507442  1
  O  O10  1  0.41298887  0.75000000  0.28648826  1
  O  O11  1  0.52439357  0.25000000  0.97407564  1
  O  O12  1  0.69039940  0.75000000  0.54859786  1
  O  O13  1  0.16846764  0.40050019  0.79198174  1
  O  O14  1  0.69715463  0.59960787  0.82660011  1
  O  O15  1  0.47560643  0.75000000  0.02592436  1
  O  O16  1  0.16846764  0.09949981  0.79198174  1
  O  O17  1  0.78063850  0.09937149  0.51131008  1
  O  O18  1  0.58701113  0.25000000  0.71351174  1
  O  O19  1  0.83153236  0.90050019  0.20801826  1
  O  O20  1  0.30284537  0.09960787  0.17339989  1
  O  O21  1  0.76866418  0.25000000  0.23380064  1
  O  O22  1  0.21936150  0.90062851  0.48868992  1
  O  O23  1  0.83153236  0.59949981  0.20801826  1
  O  O24  1  0.30284537  0.40039213  0.17339989  1
  O  O25  1  0.69715463  0.90039213  0.82660011  1
  O  O26  1  0.30960060  0.25000000  0.45140214  1
  O  O27  1  0.78063850  0.40062851  0.51131008  1
  O  O28  1  0.21936150  0.59937149  0.48868992  1
  O  O29  1  0.23133582  0.75000000  0.76619936  1
