# generated using pymatgen
data_GdCu(WO4)2
_symmetry_space_group_name_H-M   'P 1'
_cell_length_a   7.21233024
_cell_length_b   7.35630573
_cell_length_c   7.46473007
_cell_angle_alpha   113.69850382
_cell_angle_beta   116.47421727
_cell_angle_gamma   90.89439526
_symmetry_Int_Tables_number   1
_chemical_formula_structural   GdCu(WO4)2
_chemical_formula_sum   'Gd2 Cu2 W4 O16'
_cell_volume   315.32273082
_cell_formula_units_Z   2
loop_
 _symmetry_equiv_pos_site_id
 _symmetry_equiv_pos_as_xyz
  1  'x, y, z'
loop_
 _atom_site_type_symbol
 _atom_site_label
 _atom_site_symmetry_multiplicity
 _atom_site_fract_x
 _atom_site_fract_y
 _atom_site_fract_z
 _atom_site_occupancy
  W  W0  1  0.34837940  0.88669066  0.70664545  1
  W  W1  1  0.65162060  0.11330934  0.29335455  1
  W  W2  1  0.74485195  0.70618123  0.98122273  1
  W  W3  1  0.25514805  0.29381877  0.01877727  1
  Gd  Gd4  1  0.81493861  0.71847499  0.54706284  1
  Gd  Gd5  1  0.18506139  0.28152501  0.45293716  1
  Cu  Cu6  1  0.26706905  0.68983631  0.05691896  1
  Cu  Cu7  1  0.73293095  0.31016369  0.94308104  1
  O  O8  1  0.61540997  0.81534688  0.73844112  1
  O  O9  1  0.38459003  0.18465312  0.26155888  1
  O  O10  1  0.48271958  0.82820303  0.01297949  1
  O  O11  1  0.51728042  0.17179697  0.98702051  1
  O  O12  1  0.13434625  0.97986723  0.79628067  1
  O  O13  1  0.86565375  0.02013277  0.20371933  1
  O  O14  1  0.28811130  0.98256263  0.50508251  1
  O  O15  1  0.71188870  0.01743737  0.49491749  1
  O  O16  1  0.18250499  0.62537278  0.55038744  1
  O  O17  1  0.81749501  0.37462722  0.44961256  1
  O  O18  1  0.82478534  0.66824790  0.23055019  1
  O  O19  1  0.17521466  0.33175210  0.76944981  1
  O  O20  1  0.96898013  0.69579763  0.92341753  1
  O  O21  1  0.03101987  0.30420237  0.07658247  1
  O  O22  1  0.44547134  0.54846440  0.23955119  1
  O  O23  1  0.55452866  0.45153560  0.76044881  1
