# generated using pymatgen
data_SiO2
_symmetry_space_group_name_H-M   'P 1'
_cell_length_a   10.13857625
_cell_length_b   10.13858089
_cell_length_c   12.63518774
_cell_angle_alpha   113.65695676
_cell_angle_beta   113.65696981
_cell_angle_gamma   89.99813623
_symmetry_Int_Tables_number   1
_chemical_formula_structural   SiO2
_chemical_formula_sum   'Si16 O32'
_cell_volume   1069.41916740
_cell_formula_units_Z   16
loop_
 _symmetry_equiv_pos_site_id
 _symmetry_equiv_pos_as_xyz
  1  'x, y, z'
loop_
 _atom_site_type_symbol
 _atom_site_label
 _atom_site_symmetry_multiplicity
 _atom_site_fract_x
 _atom_site_fract_y
 _atom_site_fract_z
 _atom_site_occupancy
  Si  Si0  1  0.04803274  0.10665531  0.39368079  1
  Si  Si1  1  0.89333601  0.65435666  0.10629059  1
  Si  Si2  1  0.04799555  0.78704651  0.39366832  1
  Si  Si3  1  0.78706105  0.34563819  0.89368295  1
  Si  Si4  1  0.21293895  0.65436181  0.10631705  1
  Si  Si5  1  0.78704654  0.04799598  0.89366865  1
  Si  Si6  1  0.10666399  0.34564334  0.89370941  1
  Si  Si7  1  0.10665530  0.04803330  0.89367993  1
  Si  Si8  1  0.34563737  0.78706074  0.39368214  1
  Si  Si9  1  0.34564315  0.10666400  0.39370958  1
  Si  Si10  1  0.95196726  0.89334469  0.60631921  1
  Si  Si11  1  0.65436263  0.21293926  0.60631786  1
  Si  Si12  1  0.21295346  0.95200402  0.10633135  1
  Si  Si13  1  0.89334470  0.95196670  0.10632007  1
  Si  Si14  1  0.65435685  0.89333600  0.60629042  1
  Si  Si15  1  0.95200445  0.21295349  0.60633168  1
  O  O16  1  0.74285891  0.20944657  0.91894460  1
  O  O17  1  0.34706346  0.95230625  0.40456086  1
  O  O18  1  0.05742902  0.95226145  0.40455149  1
  O  O19  1  0.65293654  0.04769375  0.59543914  1
  O  O20  1  0.04773905  0.94257084  0.09544845  1
  O  O21  1  0.79051839  0.82386376  0.58101110  1
  O  O22  1  0.95226095  0.05742916  0.90455155  1
  O  O23  1  0.21968809  0.50002635  1.00002147  1
  O  O24  1  0.50002557  0.21968805  0.50002096  1
  O  O25  1  0.92477890  0.67480944  0.24998354  1
  O  O26  1  0.79055285  0.25714095  0.58105536  1
  O  O27  1  0.94257098  0.04773855  0.59544851  1
  O  O28  1  0.95230587  0.34706344  0.90456084  1
  O  O29  1  0.04769413  0.65293656  0.09543916  1
  O  O30  1  0.32519078  0.07522131  0.25001651  1
  O  O31  1  0.07522110  0.32519056  0.75001646  1
  O  O32  1  0.00000009  0.21970613  0.50001506  1
  O  O33  1  0.25714109  0.79055343  0.08105540  1
  O  O34  1  0.67482711  0.32517244  0.74999956  1
  O  O35  1  0.99999991  0.78029387  0.49998494  1
  O  O36  1  0.20944715  0.74285905  0.41894464  1
  O  O37  1  0.82386391  0.79051925  0.08101122  1
  O  O38  1  0.32517289  0.67482756  0.25000044  1
  O  O39  1  0.07518785  0.92481278  0.75000047  1
  O  O40  1  0.17613609  0.20948075  0.91898878  1
  O  O41  1  0.78029322  1.00000018  -0.00001576  1
  O  O42  1  0.92481215  0.07518722  0.24999953  1
  O  O43  1  0.67480922  0.92477869  0.74998349  1
  O  O44  1  0.20948161  0.17613624  0.41898890  1
  O  O45  1  0.21970678  -0.00000018  1.00001576  1
  O  O46  1  0.49997443  0.78031195  0.49997904  1
  O  O47  1  0.78031191  0.49997365  -0.00002147  1
