# generated using pymatgen
data_BaYFe2O5
_symmetry_space_group_name_H-M   'P 1'
_cell_length_a   3.98350603
_cell_length_b   7.75044610
_cell_length_c   7.94366008
_cell_angle_alpha   90.00000000
_cell_angle_beta   90.00000000
_cell_angle_gamma   90.00000000
_symmetry_Int_Tables_number   1
_chemical_formula_structural   BaYFe2O5
_chemical_formula_sum   'Ba2 Y2 Fe4 O10'
_cell_volume   245.25215439
_cell_formula_units_Z   2
loop_
 _symmetry_equiv_pos_site_id
 _symmetry_equiv_pos_as_xyz
  1  'x, y, z'
loop_
 _atom_site_type_symbol
 _atom_site_label
 _atom_site_symmetry_multiplicity
 _atom_site_fract_x
 _atom_site_fract_y
 _atom_site_fract_z
 _atom_site_occupancy
  O  O0  1  0.49999900  0.68226620  0.49410680  1
  O  O1  1  0.49999900  0.31773280  0.50589320  1
  O  O2  1  0.49999900  0.68226620  0.00589220  1
  O  O3  1  0.49999900  0.31773280  0.99410680  1
  O  O4  1  0.00000000  0.68379979  0.75000000  1
  O  O5  1  0.00000000  0.31620121  0.25000000  1
  O  O6  1  0.00000000  0.68384016  0.25000000  1
  O  O7  1  0.00000000  0.31616084  0.75000000  1
  O  O8  1  0.49999900  0.98489517  0.25000000  1
  O  O9  1  0.49999900  0.01510583  0.75000000  1
  Fe  Fe10  1  0.49999900  0.73740968  0.25000000  1
  Fe  Fe11  1  0.49999900  0.26258932  0.75000000  1
  Fe  Fe12  1  0.49999900  0.27862501  0.25000000  1
  Fe  Fe13  1  0.49999900  0.72137399  0.75000000  1
  Y  Y14  1  0.00000000  0.50000000  0.00000000  1
  Y  Y15  1  0.00000000  0.50000000  0.50000000  1
  Ba  Ba16  1  0.00000000  0.00000000  0.50000000  1
  Ba  Ba17  1  0.00000000  0.00000000  0.00000000  1
