# generated using pymatgen
data_Sr2VO4
_symmetry_space_group_name_H-M   'P 1'
_cell_length_a   5.96892088
_cell_length_b   10.66544619
_cell_length_c   14.69336130
_cell_angle_alpha   90.00000000
_cell_angle_beta   90.00000000
_cell_angle_gamma   90.00000000
_symmetry_Int_Tables_number   1
_chemical_formula_structural   Sr2VO4
_chemical_formula_sum   'Sr16 V8 O32'
_cell_volume   935.39707789
_cell_formula_units_Z   8
loop_
 _symmetry_equiv_pos_site_id
 _symmetry_equiv_pos_as_xyz
  1  'x, y, z'
loop_
 _atom_site_type_symbol
 _atom_site_label
 _atom_site_symmetry_multiplicity
 _atom_site_fract_x
 _atom_site_fract_y
 _atom_site_fract_z
 _atom_site_occupancy
  Sr  Sr0  1  0.20350498  0.02550869  0.14816337  1
  Sr  Sr1  1  0.79649502  0.52550869  0.85183663  1
  Sr  Sr2  1  0.29649502  0.02550869  0.64816337  1
  Sr  Sr3  1  0.70350498  0.52550869  0.35183663  1
  Sr  Sr4  1  0.18953705  0.67206222  0.20718801  1
  Sr  Sr5  1  0.81046295  0.17206222  0.79281199  1
  Sr  Sr6  1  0.31046295  0.67206222  0.70718801  1
  Sr  Sr7  1  0.68953705  0.17206222  0.29281199  1
  Sr  Sr8  1  0.22977708  0.90926186  0.40422834  1
  Sr  Sr9  1  0.77022292  0.40926186  0.59577166  1
  Sr  Sr10  1  0.27022292  0.90926186  0.90422834  1
  Sr  Sr11  1  0.72977708  0.40926186  0.09577166  1
  Sr  Sr12  1  0.22252446  0.27635234  0.47440491  1
  Sr  Sr13  1  0.77747554  0.77635234  0.52559509  1
  Sr  Sr14  1  0.27747554  0.27635234  0.97440491  1
  Sr  Sr15  1  0.72252446  0.77635234  0.02559509  1
  V  V16  1  0.76194467  0.11391227  0.02793317  1
  V  V17  1  0.23805533  0.61391227  0.97206683  1
  V  V18  1  0.73805533  0.11391227  0.52793317  1
  V  V19  1  0.26194467  0.61391227  0.47206683  1
  V  V20  1  0.77709308  0.87803039  0.27265265  1
  V  V21  1  0.22290692  0.37802939  0.72734735  1
  V  V22  1  0.72290692  0.87803039  0.77265265  1
  V  V23  1  0.27709308  0.37802939  0.22734735  1
  O  O24  1  0.35781433  0.25817761  0.14670145  1
  O  O25  1  0.64218567  0.75817761  0.85329855  1
  O  O26  1  0.14218567  0.25817761  0.64670145  1
  O  O27  1  0.85781433  0.75817761  0.35329855  1
  O  O28  1  1.00500008  0.45473419  0.23411713  1
  O  O29  1  -0.00500008  0.95473419  0.76588287  1
  O  O30  1  0.49499992  0.45473419  0.73411713  1
  O  O31  1  0.50500008  0.95473419  0.26588287  1
  O  O32  1  0.85314274  0.18330785  0.13405129  1
  O  O33  1  0.14685726  0.68330785  0.86594871  1
  O  O34  1  0.64685726  0.18330785  0.63405129  1
  O  O35  1  0.35314274  0.68330785  0.36594871  1
  O  O36  1  0.97382058  0.00806508  0.29696326  1
  O  O37  1  0.02617942  0.50806508  0.70303674  1
  O  O38  1  0.52617942  0.00806508  0.79696326  1
  O  O39  1  0.47382058  0.50806508  0.20303674  1
  O  O40  1  0.82261913  0.24619341  0.45323896  1
  O  O41  1  0.17738087  0.74619341  0.54676104  1
  O  O42  1  0.67738087  0.24619341  0.95323896  1
  O  O43  1  0.32261913  0.74619341  0.04676104  1
  O  O44  1  0.40615137  0.32942809  0.33576049  1
  O  O45  1  0.59384863  0.82942809  0.66423951  1
  O  O46  1  0.09384863  0.32942809  0.83576049  1
  O  O47  1  0.90615137  0.82942809  0.16423951  1
  O  O48  1  0.03512362  0.05848918  0.98440076  1
  O  O49  1  0.96487638  0.55848918  0.01559924  1
  O  O50  1  0.46487638  0.05848918  0.48440076  1
  O  O51  1  0.53512362  0.55848918  0.51559924  1
  O  O52  1  0.53946973  -0.00052119  0.02587567  1
  O  O53  1  0.46053027  0.49947881  0.97412433  1
  O  O54  1  0.96053027  -0.00052119  0.52587567  1
  O  O55  1  0.03946973  0.49947881  0.47412433  1
