# generated using pymatgen
data_Na8PtO6
_symmetry_space_group_name_H-M   'P 1'
_cell_length_a   4.50332193
_cell_length_b   10.77765583
_cell_length_c   8.24141331
_cell_angle_alpha   40.06044540
_cell_angle_beta   57.47188988
_cell_angle_gamma   65.71634252
_symmetry_Int_Tables_number   1
_chemical_formula_structural   Na8PtO6
_chemical_formula_sum   'Na8 Pt1 O6'
_cell_volume   217.05272855
_cell_formula_units_Z   1
loop_
 _symmetry_equiv_pos_site_id
 _symmetry_equiv_pos_as_xyz
  1  'x, y, z'
loop_
 _atom_site_type_symbol
 _atom_site_label
 _atom_site_symmetry_multiplicity
 _atom_site_fract_x
 _atom_site_fract_y
 _atom_site_fract_z
 _atom_site_occupancy
  Na  Na0  1  0.29322613  0.32565777  0.45578433  1
  Na  Na1  1  0.73836399  0.22533145  0.10716644  1
  Na  Na2  1  0.25283429  0.91993552  0.36853837  1
  Na  Na3  1  0.46408437  0.28880823  0.79076214  1
  Na  Na4  1  0.62814849  0.71082993  0.20823874  1
  Na  Na5  1  0.83620521  0.07989625  0.62979152  1
  Na  Na6  1  0.40141745  0.78055776  0.89039552  1
  Na  Na7  1  0.84748760  0.66747438  0.55578185  1
  Pt  Pt8  1  0.07671153  0.49992396  0.00080776  1
  O  O9  1  0.16975554  0.21810989  0.18735138  1
  O  O10  1  0.22748093  0.00189635  0.98896675  1
  O  O11  1  0.57070490  0.50048937  0.00381312  1
  O  O12  1  0.35554695  0.59422154  0.62323621  1
  O  O13  1  0.79622628  0.40550144  0.37755822  1
  O  O14  1  0.98180634  0.78136618  0.81180764  1
