# generated using pymatgen
data_Rb3NbH4(C2O5)3
_symmetry_space_group_name_H-M   'P 1'
_cell_length_a   8.09320875
_cell_length_b   9.16038488
_cell_length_c   11.69911196
_cell_angle_alpha   78.93749366
_cell_angle_beta   86.99723985
_cell_angle_gamma   86.42038621
_symmetry_Int_Tables_number   1
_chemical_formula_structural   Rb3NbH4(C2O5)3
_chemical_formula_sum   'Rb6 Nb2 H8 C12 O30'
_cell_volume   848.83571767
_cell_formula_units_Z   2
loop_
 _symmetry_equiv_pos_site_id
 _symmetry_equiv_pos_as_xyz
  1  'x, y, z'
loop_
 _atom_site_type_symbol
 _atom_site_label
 _atom_site_symmetry_multiplicity
 _atom_site_fract_x
 _atom_site_fract_y
 _atom_site_fract_z
 _atom_site_occupancy
  Rb  Rb0  1  0.37912866  0.03490972  0.14971528  1
  Rb  Rb1  1  0.85444388  0.67063412  0.57195489  1
  Rb  Rb2  1  0.98533669  0.75937787  0.13121353  1
  Rb  Rb3  1  0.62087134  0.96509028  0.85028472  1
  Rb  Rb4  1  0.01466331  0.24062213  0.86878647  1
  Rb  Rb5  1  0.14555612  0.32936588  0.42804511  1
  Nb  Nb6  1  0.67771967  0.37417460  0.33234594  1
  Nb  Nb7  1  0.32228033  0.62582540  0.66765406  1
  H  H8  1  0.83378474  0.58830386  0.90737365  1
  H  H9  1  0.03683630  0.05575366  0.63133879  1
  H  H10  1  0.74239353  0.49919791  0.01404424  1
  H  H11  1  0.16621526  0.41169614  0.09262635  1
  H  H12  1  0.96316370  0.94424634  0.36866121  1
  H  H13  1  0.22114434  0.09635429  0.64670288  1
  H  H14  1  0.77885566  0.90364571  0.35329712  1
  H  H15  1  0.25760647  0.50080209  0.98595576  1
  C  C16  1  0.54944652  0.15186426  0.54018449  1
  C  C17  1  0.73467118  0.10328579  0.52807997  1
  C  C18  1  0.57697748  0.37822261  0.75378046  1
  C  C19  1  0.26532882  0.89671421  0.47192003  1
  C  C20  1  0.45055348  0.84813574  0.45981551  1
  C  C21  1  0.57202994  0.65377987  0.15884314  1
  C  C22  1  0.07055055  0.75226820  0.83117549  1
  C  C23  1  0.42797006  0.34622013  0.84115686  1
  C  C24  1  0.76505476  0.17998071  0.14634142  1
  C  C25  1  0.23494524  0.82001929  0.85365858  1
  C  C26  1  0.42302252  0.62177739  0.24621954  1
  C  C27  1  0.92944945  0.24773180  0.16882451  1
  O  O28  1  0.10374306  0.12658756  0.65914635  1
  O  O29  1  0.41923500  0.22875097  0.91304656  1
  O  O30  1  0.35995289  0.77716730  0.79180895  1
  O  O31  1  0.78842636  0.49034191  0.93631999  1
  O  O32  1  0.54374065  0.91135440  0.38090847  1
  O  O33  1  0.08544432  0.66125429  0.75888187  1
  O  O34  1  0.23758487  0.90378605  0.92522860  1
  O  O35  1  0.30189235  0.70999223  0.24815655  1
  O  O36  1  0.69810765  0.29000777  0.75184345  1
  O  O37  1  0.21965940  0.51273619  0.59111694  1
  O  O38  1  0.58076500  0.77124903  0.08695344  1
  O  O39  1  0.31425138  0.45537658  0.82876044  1
  O  O40  1  0.91455568  0.33874571  0.24111813  1
  O  O41  1  0.93706254  0.78281541  0.88184393  1
  O  O42  1  0.49532402  0.73672774  0.54133824  1
  O  O43  1  0.55731700  0.50665271  0.68311940  1
  O  O44  1  0.80744684  0.17863306  0.43598643  1
  O  O45  1  0.50467598  0.26327226  0.45866176  1
  O  O46  1  0.19255316  0.82136694  0.56401357  1
  O  O47  1  0.45625935  0.08864560  0.61909153  1
  O  O48  1  0.78034060  0.48726381  0.40888306  1
  O  O49  1  0.19939400  -0.00172057  0.40005684  1
  O  O50  1  0.21157364  0.50965809  0.06368001  1
  O  O51  1  0.76241513  0.09621395  0.07477140  1
  O  O52  1  0.89625694  0.87341244  0.34085365  1
  O  O53  1  0.68574862  0.54462342  0.17123956  1
  O  O54  1  0.44268300  0.49334729  0.31688060  1
  O  O55  1  0.06293746  0.21718459  0.11815607  1
  O  O56  1  0.80060600  1.00172057  0.59994316  1
  O  O57  1  0.64004711  0.22283270  0.20819105  1
