# generated using pymatgen
data_Na2S
_symmetry_space_group_name_H-M   'P 1'
_cell_length_a   4.34440972
_cell_length_b   7.14429872
_cell_length_c   8.39237484
_cell_angle_alpha   90.00000000
_cell_angle_beta   90.00000000
_cell_angle_gamma   90.00000000
_symmetry_Int_Tables_number   1
_chemical_formula_structural   Na2S
_chemical_formula_sum   'Na8 S4'
_cell_volume   260.48052284
_cell_formula_units_Z   4
loop_
 _symmetry_equiv_pos_site_id
 _symmetry_equiv_pos_as_xyz
  1  'x, y, z'
loop_
 _atom_site_type_symbol
 _atom_site_label
 _atom_site_symmetry_multiplicity
 _atom_site_fract_x
 _atom_site_fract_y
 _atom_site_fract_z
 _atom_site_occupancy
  Na  Na0  1  0.25000000  0.14862731  0.57275255  1
  Na  Na1  1  0.75000000  0.47787598  0.67107927  1
  Na  Na2  1  0.75000000  0.97787598  0.82892073  1
  Na  Na3  1  0.75000000  0.35137269  0.07275255  1
  Na  Na4  1  0.25000000  0.52212402  0.32892073  1
  Na  Na5  1  0.75000000  0.85137269  0.42724745  1
  Na  Na6  1  0.25000000  0.64862731  0.92724745  1
  Na  Na7  1  0.25000000  0.02212402  0.17107927  1
  S  S8  1  0.25000000  0.75401730  0.61183836  1
  S  S9  1  0.25000000  0.25401730  0.88816164  1
  S  S10  1  0.75000000  0.74598270  0.11183836  1
  S  S11  1  0.75000000  0.24598270  0.38816164  1
