# generated using pymatgen
data_LuSeO3F
_symmetry_space_group_name_H-M   'P 1'
_cell_length_a   6.54534282
_cell_length_b   6.89828971
_cell_length_c   7.10315079
_cell_angle_alpha   90.00000000
_cell_angle_beta   98.07105494
_cell_angle_gamma   90.00000000
_symmetry_Int_Tables_number   1
_chemical_formula_structural   LuSeO3F
_chemical_formula_sum   'Lu4 Se4 O12 F4'
_cell_volume   317.54231282
_cell_formula_units_Z   4
loop_
 _symmetry_equiv_pos_site_id
 _symmetry_equiv_pos_as_xyz
  1  'x, y, z'
loop_
 _atom_site_type_symbol
 _atom_site_label
 _atom_site_symmetry_multiplicity
 _atom_site_fract_x
 _atom_site_fract_y
 _atom_site_fract_z
 _atom_site_occupancy
  Lu  Lu0  1  0.13703846  0.35834163  0.32558796  1
  Lu  Lu1  1  0.13703846  0.14165837  0.82558796  1
  Lu  Lu2  1  0.86296154  0.85834163  0.17441204  1
  Lu  Lu3  1  0.86296154  0.64165837  0.67441204  1
  Se  Se4  1  0.64778230  0.37949110  0.21002311  1
  Se  Se5  1  0.35221770  0.62050890  0.78997689  1
  Se  Se6  1  0.35221770  0.87949110  0.28997689  1
  Se  Se7  1  0.64778230  0.12050890  0.71002311  1
  O  O8  1  0.52094683  0.81315228  0.13772276  1
  O  O9  1  0.82842702  0.97053892  0.85358412  1
  O  O10  1  0.17157298  0.47053892  0.64641588  1
  O  O11  1  0.52094683  0.68684772  0.63772276  1
  O  O12  1  0.17350105  0.80938950  0.77853464  1
  O  O13  1  0.17157298  0.02946108  0.14641588  1
  O  O14  1  0.17350105  0.69061050  0.27853464  1
  O  O15  1  0.82649895  0.19061050  0.22146536  1
  O  O16  1  0.47905317  0.18684772  0.86227724  1
  O  O17  1  0.82649895  0.30938950  0.72146536  1
  O  O18  1  0.82842702  0.52946108  0.35358412  1
  O  O19  1  0.47905317  0.31315228  0.36227724  1
  F  F20  1  0.16396213  0.37864025  0.02732302  1
  F  F21  1  0.83603787  0.87864025  0.47267698  1
  F  F22  1  0.16396213  0.12135975  0.52732302  1
  F  F23  1  0.83603787  0.62135975  0.97267698  1
