# generated using pymatgen
data_CdAs2S2(OF3)4
_symmetry_space_group_name_H-M   'P 1'
_cell_length_a   9.12283526
_cell_length_b   9.12283569
_cell_length_c   10.35402595
_cell_angle_alpha   102.86522472
_cell_angle_beta   102.86522528
_cell_angle_gamma   119.64235983
_symmetry_Int_Tables_number   1
_chemical_formula_structural   CdAs2S2(OF3)4
_chemical_formula_sum   'Cd2 As4 S4 O8 F24'
_cell_volume   671.47864722
_cell_formula_units_Z   2
loop_
 _symmetry_equiv_pos_site_id
 _symmetry_equiv_pos_as_xyz
  1  'x, y, z'
loop_
 _atom_site_type_symbol
 _atom_site_label
 _atom_site_symmetry_multiplicity
 _atom_site_fract_x
 _atom_site_fract_y
 _atom_site_fract_z
 _atom_site_occupancy
  Cd  Cd0  1  0.63020376  0.13020376  0.50000000  1
  Cd  Cd1  1  0.38020376  0.38020376  0.00000000  1
  As  As2  1  0.60466047  0.92555320  0.11194001  1
  As  As3  1  0.81361319  0.49272046  0.88805999  1
  As  As4  1  0.17555320  0.35466047  0.61194001  1
  As  As5  1  0.74272046  0.56361319  0.38805999  1
  S  S6  1  0.70697008  0.88478788  0.70566288  1
  S  S7  1  0.25130719  0.92912500  0.79433712  1
  S  S8  1  0.17912500  0.00130719  0.29433712  1
  S  S9  1  0.13478788  0.45697008  0.20566288  1
  O  O10  1  0.26218070  0.07465830  0.90138236  1
  O  O11  1  0.23144537  0.09529648  0.20100468  1
  O  O12  1  0.32465830  0.01218070  0.40138236  1
  O  O13  1  0.61079834  0.92327594  0.59861764  1
  O  O14  1  0.17327594  0.36079834  0.09861764  1
  O  O15  1  0.34529648  0.98144537  0.70100468  1
  O  O16  1  0.89429180  0.03044070  0.79899532  1
  O  O17  1  0.28044070  0.64429180  0.29899532  1
  F  F18  1  0.23633453  0.41106647  0.80516680  1
  F  F19  1  0.54142829  0.85422496  0.92370747  1
  F  F20  1  0.94289985  0.27252229  0.59672762  1
  F  F21  1  0.83114305  0.68218216  0.86072074  1
  F  F22  1  0.66106647  0.98633453  0.30516680  1
  F  F23  1  0.93218216  0.58114305  0.36072074  1
  F  F24  1  0.93051749  0.61772083  0.07629253  1
  F  F25  1  0.59617223  0.42579467  0.90327238  1
  F  F26  1  0.54297584  0.52859206  0.40863382  1
  F  F27  1  0.01655757  0.55078639  0.86498332  1
  F  F28  1  0.60589967  0.43116773  0.19483320  1
  F  F29  1  0.52252229  0.69289985  0.09672762  1
  F  F30  1  0.68116773  0.35589967  0.69483320  1
  F  F31  1  0.40157425  0.43580306  0.63501668  1
  F  F32  1  0.22042231  0.57146141  0.63927926  1
  F  F33  1  0.38434202  0.86995824  0.09136618  1
  F  F34  1  0.10422496  0.29142829  0.42370747  1
  F  F35  1  0.86772083  0.68051749  0.57629253  1
  F  F36  1  0.82146141  0.97042231  0.13927926  1
  F  F37  1  0.67579467  0.34617223  0.40327238  1
  F  F38  1  0.68580306  0.15157425  0.13501668  1
  F  F39  1  0.77859206  0.29297584  0.90863382  1
  F  F40  1  0.80078639  0.76655758  0.36498332  1
  F  F41  1  0.11995824  0.13434202  0.59136618  1
