# generated using pymatgen
data_CuMoF6
_symmetry_space_group_name_H-M   'P 1'
_cell_length_a   5.21111068
_cell_length_b   5.23739290
_cell_length_c   5.56018415
_cell_angle_alpha   62.09040956
_cell_angle_beta   89.79367513
_cell_angle_gamma   60.49498969
_symmetry_Int_Tables_number   1
_chemical_formula_structural   CuMoF6
_chemical_formula_sum   'Cu1 Mo1 F6'
_cell_volume   111.51398773
_cell_formula_units_Z   1
loop_
 _symmetry_equiv_pos_site_id
 _symmetry_equiv_pos_as_xyz
  1  'x, y, z'
loop_
 _atom_site_type_symbol
 _atom_site_label
 _atom_site_symmetry_multiplicity
 _atom_site_fract_x
 _atom_site_fract_y
 _atom_site_fract_z
 _atom_site_occupancy
  Cu  Cu0  1  0.00000000  0.00000000  0.00000000  1
  Mo  Mo1  1  0.50000000  0.00000000  0.50000000  1
  F  F2  1  0.74660067  0.86768219  0.25779851  1
  F  F3  1  0.25339933  0.13231781  0.74220149  1
  F  F4  1  0.60730300  0.52355810  0.73551813  1
  F  F5  1  0.39269700  0.47644190  0.26448187  1
  F  F6  1  0.12940578  0.12407751  0.25652729  1
  F  F7  1  0.87059422  0.87592249  0.74347271  1
