# generated using pymatgen
data_Sm2Ti3(BiO6)2
_symmetry_space_group_name_H-M   'P 1'
_cell_length_a   3.82300917
_cell_length_b   3.82300882
_cell_length_c   16.76930685
_cell_angle_alpha   96.54435773
_cell_angle_beta   96.54433636
_cell_angle_gamma   90.00418269
_symmetry_Int_Tables_number   1
_chemical_formula_structural   Sm2Ti3(BiO6)2
_chemical_formula_sum   'Sm2 Ti3 Bi2 O12'
_cell_volume   241.88526518
_cell_formula_units_Z   1
loop_
 _symmetry_equiv_pos_site_id
 _symmetry_equiv_pos_as_xyz
  1  'x, y, z'
loop_
 _atom_site_type_symbol
 _atom_site_label
 _atom_site_symmetry_multiplicity
 _atom_site_fract_x
 _atom_site_fract_y
 _atom_site_fract_z
 _atom_site_occupancy
  Sm  Sm0  1  0.06582396  0.06582421  0.13178032  1
  Sm  Sm1  1  0.93417604  0.93417579  0.86821968  1
  Ti  Ti2  1  0.37309281  0.37309292  0.74611353  1
  Ti  Ti3  1  0.50000000  0.50000000  0.00000000  1
  Ti  Ti4  1  0.62690719  0.62690708  0.25388647  1
  Bi  Bi5  1  0.21111046  0.21111001  0.42206435  1
  Bi  Bi6  1  0.78888954  0.78888999  0.57793565  1
  O  O7  1  0.68112686  0.68112699  0.36243170  1
  O  O8  1  0.11352761  0.61350119  0.22711664  1
  O  O9  1  0.24998879  0.75001088  0.49999996  1
  O  O10  1  0.75001121  0.24998912  0.50000004  1
  O  O11  1  0.00000000  0.50000000  0.00000000  1
  O  O12  1  0.61350150  0.11352744  0.22711669  1
  O  O13  1  0.88647239  0.38649881  0.77288336  1
  O  O14  1  0.38649850  0.88647256  0.77288331  1
  O  O15  1  0.31887314  0.31887301  0.63756830  1
  O  O16  1  0.55879176  0.55879123  0.11739991  1
  O  O17  1  0.44120824  0.44120877  0.88260009  1
  O  O18  1  0.50000000  0.00000000  0.00000000  1
