# generated using pymatgen
data_Li4MnCo2O7
_symmetry_space_group_name_H-M   'P 1'
_cell_length_a   2.88078968
_cell_length_b   5.90052092
_cell_length_c   15.10160841
_cell_angle_alpha   84.15876967
_cell_angle_beta   84.52679779
_cell_angle_gamma   89.99999501
_symmetry_Int_Tables_number   1
_chemical_formula_structural   Li4MnCo2O7
_chemical_formula_sum   'Li8 Mn2 Co4 O14'
_cell_volume   254.19024877
_cell_formula_units_Z   2
loop_
 _symmetry_equiv_pos_site_id
 _symmetry_equiv_pos_as_xyz
  1  'x, y, z'
loop_
 _atom_site_type_symbol
 _atom_site_label
 _atom_site_symmetry_multiplicity
 _atom_site_fract_x
 _atom_site_fract_y
 _atom_site_fract_z
 _atom_site_occupancy
  Li  Li0  1  0.42341653  0.21752638  0.15316594  1
  Li  Li1  1  0.28928364  0.64042674  0.42143173  1
  Li  Li2  1  0.14738833  0.07546775  0.70522335  1
  Li  Li3  1  0.85461808  0.92760391  0.29076383  1
  Li  Li4  1  0.71674590  0.35382133  0.56650920  1
  Li  Li5  1  0.57297737  0.78322845  0.85404626  1
  Li  Li6  1  0.99541883  0.50087839  0.00916234  1
  Li  Li7  1  0.85662387  0.42628636  0.28675225  1
  Mn  Mn8  1  0.99766821  0.99377139  0.00466358  1
  Mn  Mn9  1  0.57207494  0.29129710  0.85585113  1
  Co  Co10  1  0.71609270  0.86690166  0.56781560  1
  Co  Co11  1  0.41922574  0.69561113  0.16154751  1
  Co  Co12  1  0.29293279  0.15354377  0.41413342  1
  Co  Co13  1  0.14655791  0.57273612  0.70688419  1
  O  O14  1  0.49709846  0.21589735  0.00580307  1
  O  O15  1  0.36009889  0.68544627  0.27980223  1
  O  O16  1  0.21480552  0.09608926  0.57038895  1
  O  O17  1  0.93428315  0.94177717  0.13143471  1
  O  O18  1  0.78563370  0.36718742  0.42873161  1
  O  O19  1  0.64321901  0.80633153  0.71356099  1
  O  O20  1  0.07159606  0.51635713  0.85680889  1
  O  O21  1  0.35334123  0.17306211  0.29331853  1
  O  O22  1  0.21369786  0.62180608  0.57260529  1
  O  O23  1  0.06614516  0.05891767  0.86770867  1
  O  O24  1  0.78377316  0.91720357  0.43245368  1
  O  O25  1  0.64402876  0.33920604  0.71194248  1
  O  O26  1  0.50208281  0.77803498  0.99583437  1
  O  O27  1  0.92917140  0.48358294  0.14165620  1
