# generated using pymatgen
data_Ca19Ag8N7
_symmetry_space_group_name_H-M   'P 1'
_cell_length_a   10.31511614
_cell_length_b   10.31511614
_cell_length_c   10.31511614
_cell_angle_alpha   60.00000000
_cell_angle_beta   60.00000000
_cell_angle_gamma   60.00000000
_symmetry_Int_Tables_number   1
_chemical_formula_structural   Ca19Ag8N7
_chemical_formula_sum   'Ca19 Ag8 N7'
_cell_volume   776.08156721
_cell_formula_units_Z   1
loop_
 _symmetry_equiv_pos_site_id
 _symmetry_equiv_pos_as_xyz
  1  'x, y, z'
loop_
 _atom_site_type_symbol
 _atom_site_label
 _atom_site_symmetry_multiplicity
 _atom_site_fract_x
 _atom_site_fract_y
 _atom_site_fract_z
 _atom_site_occupancy
  N  N0  1  0.00000000  0.00000000  0.00000000  1
  N  N1  1  0.67409382  0.32590618  0.32590618  1
  N  N2  1  0.67409382  0.32590618  0.67409382  1
  N  N3  1  0.32590618  0.67409382  0.32590618  1
  N  N4  1  0.67409382  0.67409382  0.32590618  1
  N  N5  1  0.32590618  0.32590618  0.67409382  1
  N  N6  1  0.32590618  0.67409382  0.67409382  1
  Ca  Ca7  1  0.17073805  0.82926195  0.50000000  1
  Ca  Ca8  1  0.50000000  0.50000000  0.50000000  1
  Ca  Ca9  1  0.16513942  0.83486058  0.83486058  1
  Ca  Ca10  1  0.16513942  0.16513942  0.83486058  1
  Ca  Ca11  1  0.83486058  0.83486058  0.16513942  1
  Ca  Ca12  1  0.16513942  0.83486058  0.16513942  1
  Ca  Ca13  1  0.83486058  0.16513942  0.83486058  1
  Ca  Ca14  1  0.83486058  0.16513942  0.16513942  1
  Ca  Ca15  1  0.82926195  0.17073805  0.50000000  1
  Ca  Ca16  1  0.82926195  0.50000000  0.50000000  1
  Ca  Ca17  1  0.50000000  0.17073805  0.82926195  1
  Ca  Ca18  1  0.82926195  0.50000000  0.17073805  1
  Ca  Ca19  1  0.50000000  0.17073805  0.50000000  1
  Ca  Ca20  1  0.50000000  0.50000000  0.82926195  1
  Ca  Ca21  1  0.50000000  0.50000000  0.17073805  1
  Ca  Ca22  1  0.50000000  0.82926195  0.17073805  1
  Ca  Ca23  1  0.17073805  0.50000000  0.82926195  1
  Ca  Ca24  1  0.50000000  0.82926195  0.50000000  1
  Ca  Ca25  1  0.17073805  0.50000000  0.50000000  1
  Ag  Ag26  1  0.82382208  0.82382208  0.82382208  1
  Ag  Ag27  1  0.17617792  0.17617792  0.47146624  1
  Ag  Ag28  1  0.17617792  0.47146624  0.17617792  1
  Ag  Ag29  1  0.47146624  0.17617792  0.17617792  1
  Ag  Ag30  1  0.82382208  0.52853376  0.82382208  1
  Ag  Ag31  1  0.52853376  0.82382208  0.82382208  1
  Ag  Ag32  1  0.82382208  0.82382208  0.52853376  1
  Ag  Ag33  1  0.17617792  0.17617792  0.17617792  1
