# generated using pymatgen
data_Sr4Cr3O9
_symmetry_space_group_name_H-M   'P 1'
_cell_length_a   9.74735370
_cell_length_b   9.74735411
_cell_length_c   7.94132111
_cell_angle_alpha   90.00000000
_cell_angle_beta   90.00000000
_cell_angle_gamma   119.99999862
_symmetry_Int_Tables_number   1
_chemical_formula_structural   Sr4Cr3O9
_chemical_formula_sum   'Sr12 Cr9 O27'
_cell_volume   653.42668190
_cell_formula_units_Z   3
loop_
 _symmetry_equiv_pos_site_id
 _symmetry_equiv_pos_as_xyz
  1  'x, y, z'
loop_
 _atom_site_type_symbol
 _atom_site_label
 _atom_site_symmetry_multiplicity
 _atom_site_fract_x
 _atom_site_fract_y
 _atom_site_fract_z
 _atom_site_occupancy
  Sr  Sr0  1  0.69419153  0.66430861  0.00299041  1
  Sr  Sr1  1  0.02613408  0.69358641  0.75610654  1
  Sr  Sr2  1  0.34045330  0.34756803  0.25054181  1
  Sr  Sr3  1  0.65243197  0.99288527  0.25054181  1
  Sr  Sr4  1  0.66745233  0.97386592  0.75610654  1
  Sr  Sr5  1  0.00711473  0.65954670  0.25054181  1
  Sr  Sr6  1  0.33569139  0.02988292  0.00299041  1
  Sr  Sr7  1  0.97011708  0.30580847  0.00299041  1
  Sr  Sr8  1  0.35511377  0.99903696  0.51036687  1
  Sr  Sr9  1  0.30641359  0.33254767  0.75610654  1
  Sr  Sr10  1  0.00096304  0.35607681  0.51036687  1
  Sr  Sr11  1  0.64392319  0.64488623  0.51036687  1
  Cr  Cr12  1  0.00000000  0.00000000  0.86603375  1
  Cr  Cr13  1  0.66666700  0.33333300  0.42155865  1
  Cr  Cr14  1  0.33333300  0.66666700  0.33431331  1
  Cr  Cr15  1  0.66666700  0.33333300  0.76188783  1
  Cr  Cr16  1  0.00000000  0.00000000  0.19396065  1
  Cr  Cr17  1  0.33333300  0.66666700  0.65681451  1
  Cr  Cr18  1  0.00000000  0.00000000  0.52636989  1
  Cr  Cr19  1  0.66666700  0.33333300  0.09841275  1
  Cr  Cr20  1  0.33333300  0.66666700  0.99778290  1
  O  O21  1  0.67461408  0.49560102  0.26439190  1
  O  O22  1  0.17429453  0.67335342  0.49701407  1
  O  O23  1  0.82988128  0.87640026  0.34681054  1
  O  O24  1  0.04651898  0.17011872  0.34681054  1
  O  O25  1  0.83506044  0.47711171  0.93908833  1
  O  O26  1  0.15785845  0.16073502  0.02983709  1
  O  O27  1  0.34118180  0.82471751  0.82245830  1
  O  O28  1  0.33530395  0.82018904  0.16732878  1
  O  O29  1  0.00287657  0.84214155  0.02983709  1
  O  O30  1  0.50439898  0.17901306  0.26439190  1
  O  O31  1  0.52288829  0.35794873  0.93908833  1
  O  O32  1  0.12359974  0.95348102  0.34681054  1
  O  O33  1  0.64205127  0.16493956  0.93908833  1
  O  O34  1  0.17981096  0.51511490  0.16732878  1
  O  O35  1  0.83926498  0.99712343  0.02983709  1
  O  O36  1  0.49905889  0.82570547  0.49701407  1
  O  O37  1  0.48488510  0.66469605  0.16732878  1
  O  O38  1  0.85402394  0.83166367  0.70573866  1
  O  O39  1  0.50541965  0.31740069  0.57594862  1
  O  O40  1  0.97763973  0.14597606  0.70573866  1
  O  O41  1  0.81198104  0.49458035  0.57594862  1
  O  O42  1  0.82098694  0.32538592  0.26439190  1
  O  O43  1  0.17528249  0.51646428  0.82245830  1
  O  O44  1  0.48353572  0.65881820  0.82245830  1
  O  O45  1  0.68259931  0.18801896  0.57594862  1
  O  O46  1  0.32664658  0.50094111  0.49701407  1
  O  O47  1  0.16833633  0.02236027  0.70573866  1
