# generated using pymatgen
data_K5Yb(MoO4)4
_symmetry_space_group_name_H-M   'P 1'
_cell_length_a   9.82234994
_cell_length_b   9.82235008
_cell_length_c   10.79294279
_cell_angle_alpha   70.65357451
_cell_angle_beta   70.65357425
_cell_angle_gamma   77.64528737
_symmetry_Int_Tables_number   1
_chemical_formula_structural   K5Yb(MoO4)4
_chemical_formula_sum   'K10 Yb2 Mo8 O32'
_cell_volume   920.63677005
_cell_formula_units_Z   2
loop_
 _symmetry_equiv_pos_site_id
 _symmetry_equiv_pos_as_xyz
  1  'x, y, z'
loop_
 _atom_site_type_symbol
 _atom_site_label
 _atom_site_symmetry_multiplicity
 _atom_site_fract_x
 _atom_site_fract_y
 _atom_site_fract_z
 _atom_site_occupancy
  Yb  Yb0  1  0.88533713  0.11466287  0.25000000  1
  Yb  Yb1  1  0.11466287  0.88533713  0.75000000  1
  K  K2  1  0.33006250  0.07754272  0.93587665  1
  K  K3  1  0.66993750  0.92245728  0.06412335  1
  K  K4  1  0.07754272  0.33006250  0.43587665  1
  K  K5  1  0.38766384  0.17420047  0.56347292  1
  K  K6  1  0.92245728  0.66993750  0.56412335  1
  K  K7  1  0.61233616  0.82579953  0.43652708  1
  K  K8  1  0.82579953  0.61233616  0.93652708  1
  K  K9  1  0.61258702  0.38741298  0.75000000  1
  K  K10  1  0.38741298  0.61258702  0.25000000  1
  K  K11  1  0.17420047  0.38766384  0.06347292  1
  Mo  Mo12  1  0.77260743  0.04383299  0.63796612  1
  Mo  Mo13  1  0.26509394  0.52927478  0.65518893  1
  Mo  Mo14  1  0.47072522  0.73490606  0.84481107  1
  Mo  Mo15  1  0.52927478  0.26509394  0.15518893  1
  Mo  Mo16  1  0.95616701  0.22739257  0.86203388  1
  Mo  Mo17  1  0.04383299  0.77260743  0.13796612  1
  Mo  Mo18  1  0.73490606  0.47072522  0.34481107  1
  Mo  Mo19  1  0.22739257  0.95616701  0.36203388  1
  O  O20  1  0.07020066  0.58512160  0.23245339  1
  O  O21  1  0.84433372  0.21071009  0.59247781  1
  O  O22  1  0.57432173  0.38143693  0.42818807  1
  O  O23  1  0.12295484  0.64980841  0.73623704  1
  O  O24  1  0.92979934  0.41487840  0.76754661  1
  O  O25  1  0.41487840  0.92979934  0.26754661  1
  O  O26  1  0.99773839  0.21380736  0.01749756  1
  O  O27  1  0.64980841  0.12295484  0.23623704  1
  O  O28  1  0.35019159  0.87704516  0.76376296  1
  O  O29  1  0.61856307  0.42567827  0.07181193  1
  O  O30  1  0.47637468  0.21518173  0.03219594  1
  O  O31  1  0.21380736  0.99773839  0.51749756  1
  O  O32  1  0.78619264  0.00226161  0.48250244  1
  O  O33  1  0.21071009  0.84433372  0.09247781  1
  O  O34  1  0.90000942  0.87795643  0.23558446  1
  O  O35  1  0.21518173  0.47637468  0.53219594  1
  O  O36  1  0.15566628  0.78928991  0.40752219  1
  O  O37  1  0.00226161  0.78619264  0.98250244  1
  O  O38  1  0.58512160  0.07020066  0.73245339  1
  O  O39  1  0.87795643  0.90000942  0.73558446  1
  O  O40  1  0.69442482  0.63500563  0.21917551  1
  O  O41  1  0.42567827  0.61856307  0.57181193  1
  O  O42  1  0.78481827  0.52362532  0.46780406  1
  O  O43  1  0.36499437  0.30557518  0.28082449  1
  O  O44  1  0.52362532  0.78481827  0.96780406  1
  O  O45  1  0.78928991  0.15566628  0.90752219  1
  O  O46  1  0.63500563  0.69442482  0.71917551  1
  O  O47  1  0.12204357  0.09999058  0.26441554  1
  O  O48  1  0.30557518  0.36499437  0.78082449  1
  O  O49  1  0.09999058  0.12204357  0.76441554  1
  O  O50  1  0.38143693  0.57432173  0.92818807  1
  O  O51  1  0.87704516  0.35019159  0.26376296  1
