# generated using pymatgen
data_Nb15MoO40F
_symmetry_space_group_name_H-M   'P 1'
_cell_length_a   3.91397085
_cell_length_b   11.50608286
_cell_length_c   19.07769363
_cell_angle_alpha   80.68724825
_cell_angle_beta   84.11226404
_cell_angle_gamma   80.20738009
_symmetry_Int_Tables_number   1
_chemical_formula_structural   Nb15MoO40F
_chemical_formula_sum   'Nb15 Mo1 O40 F1'
_cell_volume   832.98465666
_cell_formula_units_Z   1
loop_
 _symmetry_equiv_pos_site_id
 _symmetry_equiv_pos_as_xyz
  1  'x, y, z'
loop_
 _atom_site_type_symbol
 _atom_site_label
 _atom_site_symmetry_multiplicity
 _atom_site_fract_x
 _atom_site_fract_y
 _atom_site_fract_z
 _atom_site_occupancy
  Nb  Nb0  1  0.23167906  0.65057485  0.88991937  1
  Nb  Nb1  1  0.77217328  0.34942515  0.11008063  1
  Nb  Nb2  1  0.63461770  0.16050755  0.57353259  1
  Nb  Nb3  1  0.63062043  0.68545519  0.03669943  1
  Nb  Nb4  1  0.59967666  0.42733112  0.30512903  1
  Nb  Nb5  1  0.50649028  0.76498892  0.23250777  1
  Nb  Nb6  1  0.76969627  0.08853818  0.37973722  1
  Nb  Nb7  1  0.36865784  0.83949245  0.42646741  1
  Nb  Nb8  1  0.50398697  0.23501108  0.76749223  1
  Nb  Nb9  1  0.35277505  0.31454481  0.96330057  1
  Nb  Nb10  1  0.10601437  0.98858968  0.81360802  1
  Nb  Nb11  1  0.90821307  0.01141032  0.18639198  1
  Nb  Nb12  1  0.23797067  0.91146182  0.62026278  1
  Nb  Nb13  1  0.50380158  0.50000000  0.50000000  1
  Nb  Nb14  1  0.33213681  0.57266888  0.69487097  1
  Mo  Mo15  1  0.75059747  0.00000000  0.00000000  1
  O  O16  1  0.70261453  0.11462061  0.47736824  1
  O  O17  1  0.29627292  0.61576347  0.79867047  1
  O  O18  1  0.43552094  0.53720527  0.59647316  1
  O  O19  1  0.42453912  0.26884686  0.87464190  1
  O  O20  1  0.84095696  0.03578760  0.28054952  1
  O  O21  1  0.42838274  0.96174909  0.18626785  1
  O  O22  1  0.98925643  0.80782774  0.21746564  1
  O  O23  1  0.43216763  0.80883712  0.32548756  1
  O  O24  1  0.28930470  0.33753172  0.08443831  1
  O  O25  1  0.43678580  0.39925308  0.73715681  1
  O  O26  1  0.71136454  0.24697768  0.34053001  1
  O  O27  1  0.70941734  0.51831234  0.06489616  1
  O  O28  1  0.15729307  0.96421240  0.71945048  1
  O  O29  1  0.71070686  0.38423653  0.20132953  1
  O  O30  1  0.28918023  0.03736586  0.38579035  1
  O  O31  1  0.57639969  0.03825091  0.81373215  1
  O  O32  1  0.56802788  0.73115314  0.12535810  1
  O  O33  1  0.84809700  0.30893289  0.99283227  1
  O  O34  1  0.13662505  0.42288588  0.30180299  1
  O  O35  1  0.98115942  0.96297657  0.07883692  1
  O  O36  1  0.14920753  0.11959060  0.58212248  1
  O  O37  1  0.02297191  0.03702343  0.92116308  1
  O  O38  1  0.56649232  0.19116288  0.67451244  1
  O  O39  1  0.43302340  0.67332832  0.46206168  1
  O  O40  1  0.57052677  0.87082120  0.98953229  1
  O  O41  1  0.29460338  0.88537939  0.52263176  1
  O  O42  1  0.56919937  0.46279473  0.40352684  1
  O  O43  1  0.56841340  0.32667168  0.53793832  1
  O  O44  1  0.15794598  0.83051969  0.85689290  1
  O  O45  1  0.14986216  0.69106711  0.00716773  1
  O  O46  1  0.86131393  0.57711412  0.69819701  1
  O  O47  1  0.29887323  0.75302232  0.65946999  1
  O  O48  1  0.84535956  0.16948031  0.14310710  1
  O  O49  1  0.57319569  0.60074692  0.26284319  1
  O  O50  1  0.01455081  0.19217226  0.78253436  1
  O  O51  1  0.85092161  0.88040940  0.41787752  1
  O  O52  1  0.43088026  0.12917880  0.01046771  1
  O  O53  1  0.71233644  0.96263414  0.61420965  1
  O  O54  1  0.29262584  0.48168766  0.93510384  1
  O  O55  1  0.71127474  0.66246828  0.91556169  1
  F  F56  1  0.00324232  0.50000000  0.50000000  1
