# generated using pymatgen
data_Li4MnCo2O7
_symmetry_space_group_name_H-M   'P 1'
_cell_length_a   3.01813402
_cell_length_b   9.81412022
_cell_length_c   9.76869831
_cell_angle_alpha   63.61010563
_cell_angle_beta   82.96712687
_cell_angle_gamma   92.73348571
_symmetry_Int_Tables_number   1
_chemical_formula_structural   Li4MnCo2O7
_chemical_formula_sum   'Li8 Mn2 Co4 O14'
_cell_volume   255.54615523
_cell_formula_units_Z   2
loop_
 _symmetry_equiv_pos_site_id
 _symmetry_equiv_pos_as_xyz
  1  'x, y, z'
loop_
 _atom_site_type_symbol
 _atom_site_label
 _atom_site_symmetry_multiplicity
 _atom_site_fract_x
 _atom_site_fract_y
 _atom_site_fract_z
 _atom_site_occupancy
  Li  Li0  1  0.92918203  0.21791053  0.13746365  1
  Li  Li1  1  0.20821014  0.35498599  0.57569036  1
  Li  Li2  1  0.50394370  0.49883630  0.99419511  1
  Li  Li3  1  0.78182514  0.64402889  0.43438766  1
  Li  Li4  1  0.07749384  0.78784080  0.85287019  1
  Li  Li5  1  0.35657518  0.92493318  0.29112270  1
  Li  Li6  1  0.64284944  0.07142948  0.71428085  1
  Li  Li7  1  0.14279825  0.57144453  0.71428478  1
  Mn  Mn8  1  0.00732691  0.00413917  0.99846772  1
  Mn  Mn9  1  0.27831717  0.13872135  0.43011789  1
  Co  Co10  1  0.56571735  0.29907999  0.85127452  1
  Co  Co11  1  0.85062432  0.42888196  0.28572674  1
  Co  Co12  1  0.43509556  0.71399142  0.14284293  1
  Co  Co13  1  0.72000870  0.84380296  0.57726091  1
  O  O14  1  0.44816528  0.11991375  0.05331771  1
  O  O15  1  0.71486879  0.25271147  0.48971950  1
  O  O16  1  0.00622424  0.38589849  0.92174519  1
  O  O17  1  0.33411300  0.53893303  0.34547732  1
  O  O18  1  0.61491631  0.69736512  0.76669900  1
  O  O19  1  0.92143011  0.82476083  0.20138203  1
  O  O20  1  0.16122058  0.96363315  0.63220646  1
  O  O21  1  0.36426754  0.31809393  0.22720078  1
  O  O22  1  0.67080749  0.44550602  0.66187654  1
  O  O23  1  0.95160514  0.60389045  0.08310676  1
  O  O24  1  0.27946400  0.75695419  0.50680429  1
  O  O25  1  0.57082029  0.89012692  0.93887931  1
  O  O26  1  0.83758266  0.02294508  0.37523603  1
  O  O27  1  0.12454686  0.17924102  0.79636306  1
