# generated using pymatgen
data_U5Re5Si9
_symmetry_space_group_name_H-M   'P 1'
_cell_length_a   16.28337704
_cell_length_b   16.28337704
_cell_length_c   5.63054364
_cell_angle_alpha   90.00000000
_cell_angle_beta   90.00000000
_cell_angle_gamma   120.00000000
_symmetry_Int_Tables_number   1
_chemical_formula_structural   U5Re5Si9
_chemical_formula_sum   'U20 Si36 Re20'
_cell_volume   1292.91483497
_cell_formula_units_Z   4
loop_
 _symmetry_equiv_pos_site_id
 _symmetry_equiv_pos_as_xyz
  1  'x, y, z'
loop_
 _atom_site_type_symbol
 _atom_site_label
 _atom_site_symmetry_multiplicity
 _atom_site_fract_x
 _atom_site_fract_y
 _atom_site_fract_z
 _atom_site_occupancy
  Si  Si0  1  0.12316327  0.29068801  0.02782874  1
  Si  Si1  1  0.83247526  0.12316327  0.52782874  1
  Si  Si2  1  0.29068801  0.16752474  0.52782874  1
  Si  Si3  1  0.70931199  0.83247526  0.02782874  1
  Si  Si4  1  0.16752474  0.87683673  0.02782874  1
  Si  Si5  1  0.87683673  0.70931199  0.52782874  1
  Si  Si6  1  0.87683673  0.70931199  0.97217126  1
  Si  Si7  1  0.16752474  0.87683673  0.47217126  1
  Si  Si8  1  0.70931199  0.83247526  0.47217126  1
  Si  Si9  1  0.29068801  0.16752474  0.97217126  1
  Si  Si10  1  0.83247526  0.12316327  0.97217126  1
  Si  Si11  1  0.12316327  0.29068801  0.47217126  1
  Si  Si12  1  0.17793070  0.64949876  0.03094077  1
  Si  Si13  1  0.52843194  0.17793070  0.53094077  1
  Si  Si14  1  0.64949876  0.47156806  0.53094077  1
  Si  Si15  1  0.35050124  0.52843194  0.03094077  1
  Si  Si16  1  0.47156806  0.82206930  0.03094077  1
  Si  Si17  1  0.82206930  0.35050124  0.53094077  1
  Si  Si18  1  0.82206930  0.35050124  0.96905923  1
  Si  Si19  1  0.47156806  0.82206930  0.46905923  1
  Si  Si20  1  0.35050124  0.52843194  0.46905923  1
  Si  Si21  1  0.64949876  0.47156806  0.96905923  1
  Si  Si22  1  0.52843194  0.17793070  0.96905923  1
  Si  Si23  1  0.17793070  0.64949876  0.46905923  1
  Si  Si24  1  0.37700094  0.86669253  0.75000000  1
  Si  Si25  1  0.51030841  0.37700094  0.25000000  1
  Si  Si26  1  0.86669253  0.48969159  0.25000000  1
  Si  Si27  1  0.13330747  0.51030841  0.75000000  1
  Si  Si28  1  0.48969159  0.62299906  0.75000000  1
  Si  Si29  1  0.62299906  0.13330747  0.25000000  1
  Si  Si30  1  0.04181323  0.64348020  0.75000000  1
  Si  Si31  1  0.39833303  0.04181323  0.25000000  1
  Si  Si32  1  0.64348020  0.60166697  0.25000000  1
  Si  Si33  1  0.35651980  0.39833303  0.75000000  1
  Si  Si34  1  0.60166697  0.95818677  0.75000000  1
  Si  Si35  1  0.95818677  0.35651980  0.25000000  1
  Re  Re36  1  0.57631991  0.79470114  0.75000000  1
  Re  Re37  1  0.78161877  0.57631991  0.25000000  1
  Re  Re38  1  0.79470114  0.21838123  0.25000000  1
  Re  Re39  1  0.20529886  0.78161877  0.75000000  1
  Re  Re40  1  0.21838123  0.42368009  0.75000000  1
  Re  Re41  1  0.42368009  0.20529886  0.25000000  1
  Re  Re42  1  0.76163893  0.97122952  0.75000000  1
  Re  Re43  1  0.79040941  0.76163893  0.25000000  1
  Re  Re44  1  0.97122952  0.20959059  0.25000000  1
  Re  Re45  1  0.02877048  0.79040941  0.75000000  1
  Re  Re46  1  0.20959059  0.23836107  0.75000000  1
  Re  Re47  1  0.23836107  0.02877048  0.25000000  1
  Re  Re48  1  0.50000000  0.00000000  0.00000000  1
  Re  Re49  1  0.50000000  0.50000000  0.50000000  1
  Re  Re50  1  0.00000000  0.50000000  0.50000000  1
  Re  Re51  1  0.00000000  0.50000000  0.00000000  1
  Re  Re52  1  0.50000000  0.50000000  0.00000000  1
  Re  Re53  1  0.50000000  0.00000000  0.50000000  1
  Re  Re54  1  0.66666667  0.33333333  0.75000000  1
  Re  Re55  1  0.33333333  0.66666667  0.25000000  1
  U  U56  1  0.33333333  0.66666667  0.75000000  1
  U  U57  1  0.66666667  0.33333333  0.25000000  1
  U  U58  1  0.83941844  0.52710429  0.75000000  1
  U  U59  1  0.31231415  0.83941844  0.25000000  1
  U  U60  1  0.52710429  0.68768585  0.25000000  1
  U  U61  1  0.47289571  0.31231415  0.75000000  1
  U  U62  1  0.68768585  0.16058156  0.75000000  1
  U  U63  1  0.16058156  0.47289571  0.25000000  1
  U  U64  1  0.68482664  0.65080293  0.75000000  1
  U  U65  1  0.03402371  0.68482664  0.25000000  1
  U  U66  1  0.65080293  0.96597629  0.25000000  1
  U  U67  1  0.34919707  0.03402371  0.75000000  1
  U  U68  1  0.96597629  0.31517336  0.75000000  1
  U  U69  1  0.31517336  0.34919707  0.25000000  1
  U  U70  1  0.99302155  0.11808698  0.75000000  1
  U  U71  1  0.87493457  0.99302155  0.25000000  1
  U  U72  1  0.11808698  0.12506543  0.25000000  1
  U  U73  1  0.88191302  0.87493457  0.75000000  1
  U  U74  1  0.12506543  0.00697845  0.75000000  1
  U  U75  1  0.00697845  0.88191302  0.25000000  1
