# generated using pymatgen
data_MnAs2S2(OF3)4
_symmetry_space_group_name_H-M   'P 1'
_cell_length_a   9.09321871
_cell_length_b   9.09321915
_cell_length_c   10.30352620
_cell_angle_alpha   103.88451051
_cell_angle_beta   103.88451121
_cell_angle_gamma   117.14152535
_symmetry_Int_Tables_number   1
_chemical_formula_structural   MnAs2S2(OF3)4
_chemical_formula_sum   'Mn2 As4 S4 O8 F24'
_cell_volume   673.09765684
_cell_formula_units_Z   2
loop_
 _symmetry_equiv_pos_site_id
 _symmetry_equiv_pos_as_xyz
  1  'x, y, z'
loop_
 _atom_site_type_symbol
 _atom_site_label
 _atom_site_symmetry_multiplicity
 _atom_site_fract_x
 _atom_site_fract_y
 _atom_site_fract_z
 _atom_site_occupancy
  Mn  Mn0  1  0.78860241  0.28860241  0.50000000  1
  Mn  Mn1  1  0.53860241  0.53860241  1.00000000  1
  As  As2  1  0.44914262  0.13412979  0.11261552  1
  As  As3  1  0.02151427  0.33652710  0.88738448  1
  As  As4  1  0.38412979  0.19914262  0.61261552  1
  As  As5  1  0.58652710  0.77151427  0.38738448  1
  S  S6  1  0.94378772  0.74510144  0.69067039  1
  S  S7  1  0.05443105  0.25311733  0.30932961  1
  S  S8  1  0.99510144  0.69378772  0.19067039  1
  S  S9  1  0.50311733  0.80443105  0.80932961  1
  O  O10  1  0.91459435  0.58124822  0.58783341  1
  O  O11  1  0.99341480  0.32676093  0.41216659  1
  O  O12  1  0.83124822  0.66459435  0.08783341  1
  O  O13  1  0.57676093  0.74341480  0.91216659  1
  O  O14  1  0.85311824  0.72103413  0.78790605  1
  O  O15  1  0.93312807  0.06521219  0.21209395  1
  O  O16  1  0.97103413  0.60311824  0.28790605  1
  O  O17  1  0.31521219  0.68312807  0.71209395  1
  F  F18  1  0.59644718  0.26184265  0.30841418  1
  F  F19  1  0.95342848  0.28803300  0.69158582  1
  F  F20  1  0.51184265  0.34644718  0.80841418  1
  F  F21  1  0.53803300  0.70342848  0.19158582  1
  F  F22  1  0.52232468  0.35335577  0.10117699  1
  F  F23  1  0.25217878  0.42114869  0.89882301  1
  F  F24  1  0.60335577  0.27232468  0.60117699  1
  F  F25  1  0.67114869  0.00217878  0.39882301  1
  F  F26  1  0.38691951  0.93073689  0.13117115  1
  F  F27  1  0.79956574  0.25574836  0.86882885  1
  F  F28  1  0.18073689  0.13691951  0.63117115  1
  F  F29  1  0.50574836  0.54956574  0.36882885  1
  F  F30  1  0.27426557  0.13838292  0.15109249  1
  F  F31  1  0.98729043  0.12317308  0.84890751  1
  F  F32  1  0.38838292  0.02426557  0.65109249  1
  F  F33  1  0.37317308  0.73729043  0.34890751  1
  F  F34  1  0.63842018  0.15145643  0.08361280  1
  F  F35  1  0.06784362  0.55480737  0.91638720  1
  F  F36  1  0.40145643  0.38842018  0.58361280  1
  F  F37  1  0.80480737  0.81784362  0.41638720  1
  F  F38  1  0.31712268  0.02432220  0.92331257  1
  F  F39  1  0.10100863  0.39380911  0.07668743  1
  F  F40  1  0.27432220  0.06712268  0.42331257  1
  F  F41  1  0.64380911  0.85100863  0.57668743  1
