# generated using pymatgen
data_Sn2WO5
_symmetry_space_group_name_H-M   'P 1'
_cell_length_a   8.21719198
_cell_length_b   10.68973030
_cell_length_c   14.10663529
_cell_angle_alpha   90.00000000
_cell_angle_beta   90.00000000
_cell_angle_gamma   111.10423720
_symmetry_Int_Tables_number   1
_chemical_formula_structural   Sn2WO5
_chemical_formula_sum   'Sn16 W8 O40'
_cell_volume   1156.00906623
_cell_formula_units_Z   8
loop_
 _symmetry_equiv_pos_site_id
 _symmetry_equiv_pos_as_xyz
  1  'x, y, z'
loop_
 _atom_site_type_symbol
 _atom_site_label
 _atom_site_symmetry_multiplicity
 _atom_site_fract_x
 _atom_site_fract_y
 _atom_site_fract_z
 _atom_site_occupancy
  Sn  Sn0  1  0.81715280  0.72944216  0.89718365  1
  Sn  Sn1  1  0.18284720  0.27055784  0.10281635  1
  Sn  Sn2  1  0.06407115  0.61675574  0.15622850  1
  Sn  Sn3  1  0.22091259  0.45368570  0.34780533  1
  Sn  Sn4  1  0.56407115  0.11675574  0.34377150  1
  Sn  Sn5  1  0.10837856  0.80318123  0.39984125  1
  Sn  Sn6  1  0.89162144  0.19681877  0.60015875  1
  Sn  Sn7  1  0.77908741  0.54631430  0.65219467  1
  Sn  Sn8  1  0.31715280  0.22944216  0.60281635  1
  Sn  Sn9  1  0.72091259  0.95368570  0.15219467  1
  Sn  Sn10  1  0.68284720  0.77055784  0.39718365  1
  Sn  Sn11  1  0.93592885  0.38324426  0.84377150  1
  Sn  Sn12  1  0.27908741  0.04631430  0.84780533  1
  Sn  Sn13  1  0.60837856  0.30318123  0.10015875  1
  Sn  Sn14  1  0.39162144  0.69681877  0.89984125  1
  Sn  Sn15  1  0.43592885  0.88324426  0.65622850  1
  W  W16  1  0.75363249  0.03020183  0.82920622  1
  W  W17  1  0.24636751  0.96979817  0.17079378  1
  W  W18  1  0.74636751  0.46979817  0.32920622  1
  W  W19  1  0.25363249  0.53020183  0.67079378  1
  W  W20  1  0.45744221  0.39862313  0.82354714  1
  W  W21  1  0.54255779  0.60137687  0.17645286  1
  W  W22  1  0.04255779  0.10137687  0.32354714  1
  W  W23  1  0.95744221  0.89862313  0.67645286  1
  O  O24  1  0.15262002  0.34609327  0.61562147  1
  O  O25  1  0.24325618  0.43793719  0.81624448  1
  O  O26  1  0.69092539  0.42190747  0.78281529  1
  O  O27  1  0.15273779  0.27501599  0.25630396  1
  O  O28  1  0.65273779  0.77501599  0.24369604  1
  O  O29  1  0.03567917  0.01524580  0.17993609  1
  O  O30  1  0.55624066  0.58069601  0.87812635  1
  O  O31  1  0.36499852  0.70116128  0.74042737  1
  O  O32  1  0.34737998  0.15390673  0.11562147  1
  O  O33  1  0.94375934  0.91930399  0.37812635  1
  O  O34  1  0.63500148  0.29883872  0.25957263  1
  O  O35  1  0.84726221  0.72498401  0.74369604  1
  O  O36  1  0.34726221  0.22498401  0.75630396  1
  O  O37  1  0.05624066  0.08069601  0.62187365  1
  O  O38  1  0.80907461  0.07809253  0.28281529  1
  O  O39  1  0.84737998  0.65390673  0.38437853  1
  O  O40  1  0.01920409  0.50455526  0.71246754  1
  O  O41  1  0.05904690  0.19091539  0.43316178  1
  O  O42  1  0.55904690  0.69091539  0.06683822  1
  O  O43  1  0.22741356  0.88172415  0.06237677  1
  O  O44  1  0.75674382  0.56206281  0.18375552  1
  O  O45  1  0.46432083  0.48475420  0.67993609  1
  O  O46  1  0.44095310  0.30908461  0.93316178  1
  O  O47  1  0.51920409  0.00455526  0.78753246  1
  O  O48  1  0.44375934  0.41930399  0.12187365  1
  O  O49  1  0.25674382  0.06206281  0.31624448  1
  O  O50  1  0.27258644  0.61827585  0.56237677  1
  O  O51  1  0.53567917  0.51524580  0.32006391  1
  O  O52  1  0.98079591  0.49544474  0.28753246  1
  O  O53  1  0.19092539  0.92190647  0.71718471  1
  O  O54  1  0.74325618  0.93793719  0.68375552  1
  O  O55  1  0.48079591  0.99544474  0.21246754  1
  O  O56  1  0.94095310  0.80908461  0.56683822  1
  O  O57  1  0.30907461  0.57809353  0.21718471  1
  O  O58  1  0.86499852  0.20116128  0.75957263  1
  O  O59  1  0.13500148  0.79883872  0.24042737  1
  O  O60  1  0.72741356  0.38172415  0.43762323  1
  O  O61  1  0.65262002  0.84609327  0.88437853  1
  O  O62  1  0.77258644  0.11827585  0.93762323  1
  O  O63  1  0.96432083  0.98475420  0.82006391  1
