# generated using pymatgen
data_Cs2Na(C2N3)3
_symmetry_space_group_name_H-M   'P 1'
_cell_length_a   7.24003318
_cell_length_b   7.24003278
_cell_length_c   14.84982774
_cell_angle_alpha   90.00000000
_cell_angle_beta   90.00000000
_cell_angle_gamma   120.00000190
_symmetry_Int_Tables_number   1
_chemical_formula_structural   Cs2Na(C2N3)3
_chemical_formula_sum   'Cs4 Na2 C12 N18'
_cell_volume   674.11366075
_cell_formula_units_Z   2
loop_
 _symmetry_equiv_pos_site_id
 _symmetry_equiv_pos_as_xyz
  1  'x, y, z'
loop_
 _atom_site_type_symbol
 _atom_site_label
 _atom_site_symmetry_multiplicity
 _atom_site_fract_x
 _atom_site_fract_y
 _atom_site_fract_z
 _atom_site_occupancy
  Cs  Cs0  1  0.33333300  0.66666700  0.06954563  1
  Cs  Cs1  1  0.66666700  0.33333300  0.93045437  1
  Cs  Cs2  1  0.33333300  0.66666700  0.43045437  1
  Cs  Cs3  1  0.66666700  0.33333300  0.56954563  1
  Na  Na4  1  0.00000000  0.00000000  0.00000000  1
  Na  Na5  1  0.00000000  0.00000000  0.50000000  1
  C  C6  1  0.85772199  0.19770584  0.32756803  1
  C  C7  1  0.85772199  0.19770584  0.17243197  1
  C  C8  1  0.66001615  0.85772199  0.82756803  1
  C  C9  1  0.33998385  0.14227801  0.32756803  1
  C  C10  1  0.14227801  0.80229416  0.67243197  1
  C  C11  1  0.14227801  0.80229416  0.82756803  1
  C  C12  1  0.66001615  0.85772199  0.67243197  1
  C  C13  1  0.80229416  0.66001615  0.32756803  1
  C  C14  1  0.80229416  0.66001615  0.17243197  1
  C  C15  1  0.19770584  0.33998385  0.67243197  1
  C  C16  1  0.33998385  0.14227801  0.17243197  1
  C  C17  1  0.19770584  0.33998385  0.82756803  1
  N  N18  1  0.86574460  0.67260877  0.40208812  1
  N  N19  1  0.32739123  0.19313583  0.40208812  1
  N  N20  1  0.71281386  0.64401459  0.25000000  1
  N  N21  1  0.80686417  0.13425540  0.40208812  1
  N  N22  1  0.67260877  0.80686417  0.59791188  1
  N  N23  1  0.67260877  0.80686417  0.90208812  1
  N  N24  1  0.28718614  0.35598541  0.75000000  1
  N  N25  1  0.13425540  0.32739123  0.90208812  1
  N  N26  1  0.19313583  0.86574460  0.90208812  1
  N  N27  1  0.19313583  0.86574460  0.59791188  1
  N  N28  1  0.06879927  0.71281386  0.75000000  1
  N  N29  1  0.13425540  0.32739123  0.59791188  1
  N  N30  1  0.64401459  0.93120073  0.75000000  1
  N  N31  1  0.80686417  0.13425540  0.09791188  1
  N  N32  1  0.35598541  0.06879927  0.25000000  1
  N  N33  1  0.32739123  0.19313583  0.09791188  1
  N  N34  1  0.93120073  0.28718614  0.25000000  1
  N  N35  1  0.86574460  0.67260877  0.09791188  1
