# generated using pymatgen
data_Nb5Si3
_symmetry_space_group_name_H-M   'P 1'
_cell_length_a   5.12115760
_cell_length_b   7.56770499
_cell_length_c   7.56770508
_cell_angle_alpha   83.42608841
_cell_angle_beta   70.22325092
_cell_angle_gamma   70.22325242
_symmetry_Int_Tables_number   1
_chemical_formula_structural   Nb5Si3
_chemical_formula_sum   'Nb10 Si6'
_cell_volume   259.71231333
_cell_formula_units_Z   2
loop_
 _symmetry_equiv_pos_site_id
 _symmetry_equiv_pos_as_xyz
  1  'x, y, z'
loop_
 _atom_site_type_symbol
 _atom_site_label
 _atom_site_symmetry_multiplicity
 _atom_site_fract_x
 _atom_site_fract_y
 _atom_site_fract_z
 _atom_site_occupancy
  Nb  Nb0  1  0.57560839  0.70506269  0.14372053  1
  Nb  Nb1  1  0.71932892  0.85627947  0.70506269  1
  Nb  Nb2  1  0.42439161  0.29493731  0.85627947  1
  Nb  Nb3  1  0.25000000  0.50000000  0.50000000  1
  Nb  Nb4  1  0.92439161  0.85627947  0.29493731  1
  Nb  Nb5  1  0.78067108  0.29493731  0.14372053  1
  Nb  Nb6  1  0.28067108  0.14372053  0.29493731  1
  Nb  Nb7  1  0.07560839  0.14372053  0.70506269  1
  Nb  Nb8  1  0.21932892  0.70506269  0.85627947  1
  Nb  Nb9  1  0.75000000  0.50000000  0.50000000  1
  Si  Si10  1  0.16490154  0.50000000  0.17019692  1
  Si  Si11  1  0.25000000  -0.00000000  -0.00000000  1
  Si  Si12  1  0.75000000  -0.00000000  -0.00000000  1
  Si  Si13  1  0.66490154  0.17019692  0.50000000  1
  Si  Si14  1  0.33509846  0.82980308  0.50000000  1
  Si  Si15  1  0.83509846  0.50000000  0.82980308  1
