# generated using pymatgen
data_La2AlNi9H
_symmetry_space_group_name_H-M   'P 1'
_cell_length_a   4.97689502
_cell_length_b   5.00964673
_cell_length_c   8.08988201
_cell_angle_alpha   89.99781362
_cell_angle_beta   90.00323390
_cell_angle_gamma   119.39359644
_symmetry_Int_Tables_number   1
_chemical_formula_structural   La2AlNi9H
_chemical_formula_sum   'La2 Al1 Ni9 H1'
_cell_volume   175.73564784
_cell_formula_units_Z   1
loop_
 _symmetry_equiv_pos_site_id
 _symmetry_equiv_pos_as_xyz
  1  'x, y, z'
loop_
 _atom_site_type_symbol
 _atom_site_label
 _atom_site_symmetry_multiplicity
 _atom_site_fract_x
 _atom_site_fract_y
 _atom_site_fract_z
 _atom_site_occupancy
  La  La0  1  0.00494427  0.00406120  0.01604022  1
  La  La1  1  0.00498486  0.00402168  0.48395440  1
  Al  Al2  1  0.50833962  0.50705526  0.74998416  1
  Ni  Ni3  1  0.66923680  0.33326947  0.00195089  1
  Ni  Ni4  1  0.66922833  0.33316545  0.49802176  1
  Ni  Ni5  1  0.50270811  0.50388144  0.24999655  1
  Ni  Ni6  1  0.34032849  0.68253823  0.00287330  1
  Ni  Ni7  1  0.50330989  0.00207173  0.74999924  1
  Ni  Ni8  1  0.00351929  0.50324263  0.24999729  1
  Ni  Ni9  1  0.50542366  0.00562267  0.24998589  1
  Ni  Ni10  1  0.34043041  0.68252213  0.49711987  1
  Ni  Ni11  1  0.00331355  0.49528948  0.74998360  1
  H  H12  1  0.07963272  0.21585862  0.74999283  1
