# generated using pymatgen
data_BaV2(CuO4)2
_symmetry_space_group_name_H-M   'P 1'
_cell_length_a   8.20727511
_cell_length_b   10.13256949
_cell_length_c   10.13256993
_cell_angle_alpha   80.55964859
_cell_angle_beta   66.10920518
_cell_angle_gamma   66.10920691
_symmetry_Int_Tables_number   1
_chemical_formula_structural   BaV2(CuO4)2
_chemical_formula_sum   'Ba4 V8 Cu8 O32'
_cell_volume   704.42331086
_cell_formula_units_Z   4
loop_
 _symmetry_equiv_pos_site_id
 _symmetry_equiv_pos_as_xyz
  1  'x, y, z'
loop_
 _atom_site_type_symbol
 _atom_site_label
 _atom_site_symmetry_multiplicity
 _atom_site_fract_x
 _atom_site_fract_y
 _atom_site_fract_z
 _atom_site_occupancy
  Ba  Ba0  1  0.75000000  0.50000000  0.50000000  1
  Ba  Ba1  1  0.25000000  0.50000000  0.50000000  1
  Ba  Ba2  1  0.50000000  0.00000000  0.00000000  1
  Ba  Ba3  1  0.00000000  0.00000000  0.00000000  1
  V  V4  1  0.02491032  0.35008968  0.85008968  1
  V  V5  1  0.62500000  0.14991032  0.35008968  1
  V  V6  1  0.12500000  0.29855336  0.20144664  1
  V  V7  1  0.67355336  0.20144664  0.70144664  1
  V  V8  1  0.62500000  0.70144664  0.79855336  1
  V  V9  1  0.57644664  0.79855336  0.29855336  1
  V  V10  1  0.12500000  0.85008968  0.64991032  1
  V  V11  1  0.22508968  0.64991032  0.14991032  1
  Cu  Cu12  1  0.56591457  0.33334532  0.02015458  1
  Cu  Cu13  1  0.83606915  0.83334532  0.47984542  1
  Cu  Cu14  1  0.41393085  0.02015458  0.66665468  1
  Cu  Cu15  1  0.68408543  0.47984542  0.16665468  1
  Cu  Cu16  1  0.33058554  0.52015458  0.83334532  1
  Cu  Cu17  1  0.10074012  0.97984542  0.33334532  1
  Cu  Cu18  1  0.14925988  0.16665468  0.52015458  1
  Cu  Cu19  1  0.91941446  0.66665468  0.97984542  1
  O  O20  1  0.75181102  0.81483126  0.13102831  1
  O  O21  1  0.23804394  0.81548726  0.13860049  1
  O  O22  1  0.11716067  0.13102831  0.18516874  1
  O  O23  1  0.30353120  0.68451274  0.63860049  1
  O  O24  1  0.69766958  0.18516874  0.86897169  1
  O  O25  1  0.55380930  0.55872852  0.80819908  1
  O  O26  1  0.43335872  0.86897169  0.81483126  1
  O  O27  1  0.32926310  0.30819908  0.05872852  1
  O  O28  1  0.40683479  0.14795674  0.49671769  1
  O  O29  1  0.09644851  0.49671769  0.85204326  1
  O  O30  1  0.36253782  0.94127148  0.30819908  1
  O  O31  1  0.19213169  0.18451274  0.86139951  1
  O  O32  1  0.61200838  0.05872852  0.69180092  1
  O  O33  1  0.19849078  0.99671769  0.64795674  1
  O  O34  1  0.01195606  0.36139951  0.68451274  1
  O  O35  1  0.88746218  0.19180092  0.55872852  1
  O  O36  1  0.15355149  0.64795674  0.00328231  1
  O  O37  1  0.05786831  0.63860049  0.31548726  1
  O  O38  1  0.63799162  0.80819908  0.44127148  1
  O  O39  1  0.84316521  0.00328231  0.35204326  1
  O  O40  1  0.44520847  0.50328231  0.14795674  1
  O  O41  1  0.69619070  0.69180092  0.94127148  1
  O  O42  1  0.92073690  0.44127148  0.19180092  1
  O  O43  1  0.05150922  0.85204326  0.50328231  1
  O  O44  1  0.62664443  0.31548726  0.36139951  1
  O  O45  1  0.62335557  0.13860049  0.18451274  1
  O  O46  1  0.13283933  0.31483126  0.36897169  1
  O  O47  1  0.80479153  0.35204326  0.99671769  1
  O  O48  1  0.94646880  0.86139951  0.81548726  1
  O  O49  1  0.81664128  0.68516874  0.63102831  1
  O  O50  1  0.55233042  0.63102831  0.31483126  1
  O  O51  1  0.49818898  0.36897169  0.68516874  1
