# generated using pymatgen
data_Mn2Nb9Ge8
_symmetry_space_group_name_H-M   'P 1'
_cell_length_a   5.33645737
_cell_length_b   14.00256122
_cell_length_c   16.84898690
_cell_angle_alpha   90.00000000
_cell_angle_beta   90.00000000
_cell_angle_gamma   90.00000000
_symmetry_Int_Tables_number   1
_chemical_formula_structural   Mn2Nb9Ge8
_chemical_formula_sum   'Mn8 Nb36 Ge32'
_cell_volume   1259.02489375
_cell_formula_units_Z   4
loop_
 _symmetry_equiv_pos_site_id
 _symmetry_equiv_pos_as_xyz
  1  'x, y, z'
loop_
 _atom_site_type_symbol
 _atom_site_label
 _atom_site_symmetry_multiplicity
 _atom_site_fract_x
 _atom_site_fract_y
 _atom_site_fract_z
 _atom_site_occupancy
  Mn  Mn0  1  0.25000000  0.69352138  0.74940723  1
  Mn  Mn1  1  0.75000000  0.30647862  0.25059277  1
  Mn  Mn2  1  0.75000000  0.80647862  0.24940723  1
  Mn  Mn3  1  0.25000000  0.19352138  0.75059277  1
  Mn  Mn4  1  0.25000000  0.36383083  0.83935658  1
  Mn  Mn5  1  0.75000000  0.13616917  0.33935658  1
  Mn  Mn6  1  0.75000000  0.63616917  0.16064342  1
  Mn  Mn7  1  0.25000000  0.86383083  0.66064342  1
  Nb  Nb8  1  0.25000000  0.24709029  0.02731706  1
  Nb  Nb9  1  0.25000000  0.87434595  0.99728824  1
  Nb  Nb10  1  0.75000000  0.06684236  0.80460246  1
  Nb  Nb11  1  0.49642948  0.86444856  0.82393372  1
  Nb  Nb12  1  0.25000000  0.74709029  0.47268294  1
  Nb  Nb13  1  0.50044635  0.55883430  0.87982054  1
  Nb  Nb14  1  0.75000000  0.75290971  0.97268294  1
  Nb  Nb15  1  0.25000000  0.54947223  0.59486750  1
  Nb  Nb16  1  0.25000000  0.37434595  0.50271176  1
  Nb  Nb17  1  0.99955365  0.05883430  0.62017946  1
  Nb  Nb18  1  0.50044635  0.05883430  0.62017946  1
  Nb  Nb19  1  0.75000000  0.87090302  0.54173759  1
  Nb  Nb20  1  0.75000000  0.25290971  0.52731706  1
  Nb  Nb21  1  0.99955365  0.55883430  0.87982054  1
  Nb  Nb22  1  0.75000000  0.62565405  0.49728824  1
  Nb  Nb23  1  0.25000000  0.43315764  0.30460246  1
  Nb  Nb24  1  0.00357052  0.36444856  0.67606628  1
  Nb  Nb25  1  0.75000000  0.95052777  0.09486750  1
  Nb  Nb26  1  0.25000000  0.12909698  0.45826241  1
  Nb  Nb27  1  0.49955365  0.44116570  0.12017946  1
  Nb  Nb28  1  0.00044635  0.94116570  0.37982054  1
  Nb  Nb29  1  0.25000000  0.04947223  0.90513250  1
  Nb  Nb30  1  0.25000000  0.62909698  0.04173759  1
  Nb  Nb31  1  0.49642948  0.36444856  0.67606628  1
  Nb  Nb32  1  0.99642948  0.13555144  0.17606628  1
  Nb  Nb33  1  0.00357052  0.86444856  0.82393372  1
  Nb  Nb34  1  0.50357052  0.63555144  0.32393372  1
  Nb  Nb35  1  0.99642948  0.63555144  0.32393372  1
  Nb  Nb36  1  0.49955365  0.94116570  0.37982054  1
  Nb  Nb37  1  0.75000000  0.45052777  0.40513250  1
  Nb  Nb38  1  0.25000000  0.93315764  0.19539754  1
  Nb  Nb39  1  0.75000000  0.12565405  0.00271176  1
  Nb  Nb40  1  0.75000000  0.37090302  0.95826241  1
  Nb  Nb41  1  0.00044635  0.44116570  0.12017946  1
  Nb  Nb42  1  0.75000000  0.56684236  0.69539754  1
  Nb  Nb43  1  0.50357052  0.13555144  0.17606628  1
  Ge  Ge44  1  0.75000000  0.45139460  0.56033810  1
  Ge  Ge45  1  0.25000000  0.04860540  0.06033810  1
  Ge  Ge46  1  0.75000000  0.06135486  0.47974970  1
  Ge  Ge47  1  0.25000000  0.08691360  0.30557058  1
  Ge  Ge48  1  0.00255699  0.78084323  0.11930600  1
  Ge  Ge49  1  0.49744301  0.28084323  0.38069400  1
  Ge  Ge50  1  0.25000000  0.43864514  0.97974970  1
  Ge  Ge51  1  0.50255699  0.21915677  0.88069400  1
  Ge  Ge52  1  0.99744301  0.21915677  0.88069400  1
  Ge  Ge53  1  0.25000000  0.54860540  0.43966190  1
  Ge  Ge54  1  0.75000000  0.98921346  0.24704050  1
  Ge  Ge55  1  0.25000000  0.93864514  0.52025030  1
  Ge  Ge56  1  0.25000000  0.29676994  0.19470127  1
  Ge  Ge57  1  0.25000000  0.01078654  0.75295950  1
  Ge  Ge58  1  0.75000000  0.91308640  0.69442942  1
  Ge  Ge59  1  0.25000000  0.79676994  0.30529873  1
  Ge  Ge60  1  0.75000000  0.48921346  0.25295950  1
  Ge  Ge61  1  0.25000000  0.22446504  0.59737384  1
  Ge  Ge62  1  0.49744301  0.78084323  0.11930600  1
  Ge  Ge63  1  0.25000000  0.51078654  0.74704050  1
  Ge  Ge64  1  0.75000000  0.95139460  0.93966190  1
  Ge  Ge65  1  0.75000000  0.41308640  0.80557058  1
  Ge  Ge66  1  0.75000000  0.20323006  0.69470127  1
  Ge  Ge67  1  0.75000000  0.70323006  0.80529873  1
  Ge  Ge68  1  0.75000000  0.77553496  0.40262616  1
  Ge  Ge69  1  0.25000000  0.72446504  0.90262616  1
  Ge  Ge70  1  0.75000000  0.56135486  0.02025030  1
  Ge  Ge71  1  0.00255699  0.28084323  0.38069400  1
  Ge  Ge72  1  0.25000000  0.58691360  0.19442942  1
  Ge  Ge73  1  0.50255699  0.71915677  0.61930600  1
  Ge  Ge74  1  0.99744301  0.71915677  0.61930600  1
  Ge  Ge75  1  0.75000000  0.27553496  0.09737384  1
