# generated using pymatgen
data_Sc4Si7Ni12
_symmetry_space_group_name_H-M   'P 1'
_cell_length_a   8.00166483
_cell_length_b   11.56454634
_cell_length_c   11.56454621
_cell_angle_alpha   63.86550483
_cell_angle_beta   69.75979150
_cell_angle_gamma   69.75979115
_symmetry_Int_Tables_number   1
_chemical_formula_structural   Sc4Si7Ni12
_chemical_formula_sum   'Sc12 Si21 Ni36'
_cell_volume   877.27634929
_cell_formula_units_Z   3
loop_
 _symmetry_equiv_pos_site_id
 _symmetry_equiv_pos_as_xyz
  1  'x, y, z'
loop_
 _atom_site_type_symbol
 _atom_site_label
 _atom_site_symmetry_multiplicity
 _atom_site_fract_x
 _atom_site_fract_y
 _atom_site_fract_z
 _atom_site_occupancy
  Sc  Sc0  1  0.69096643  0.80903357  0.80903357  1
  Sc  Sc1  1  0.30903357  0.19096643  0.19096643  1
  Sc  Sc2  1  0.71449772  0.46945151  0.10155305  1
  Sc  Sc3  1  0.12918153  0.37081847  0.37081847  1
  Sc  Sc4  1  0.28550228  0.53054849  0.89844695  1
  Sc  Sc5  1  0.87081847  0.62918153  0.62918153  1
  Sc  Sc6  1  0.79583318  0.18140325  0.81859675  1
  Sc  Sc7  1  0.28550228  0.89844695  0.53054849  1
  Sc  Sc8  1  0.20416682  0.81859675  0.18140325  1
  Sc  Sc9  1  0.71449772  0.10155305  0.46945151  1
  Sc  Sc10  1  0.20416682  0.18140325  0.81859675  1
  Sc  Sc11  1  0.79583318  0.81859675  0.18140325  1
  Si  Si12  1  0.84599351  0.33152412  0.33152412  1
  Si  Si13  1  0.76761664  0.50000000  0.50000000  1
  Si  Si14  1  0.41508750  0.67679315  0.01033515  1
  Si  Si15  1  0.50000000  0.67410178  0.32589822  1
  Si  Si16  1  0.11658372  0.16630343  0.60052913  1
  Si  Si17  1  0.49095826  0.33152412  0.33152412  1
  Si  Si18  1  0.41508750  0.01033515  0.67679315  1
  Si  Si19  1  0.11658372  0.60052913  0.16630343  1
  Si  Si20  1  0.10221579  0.32320685  0.98966485  1
  Si  Si21  1  0.88341628  0.39947087  0.83369657  1
  Si  Si22  1  0.15400649  0.66847588  0.66847588  1
  Si  Si23  1  0.23238336  0.50000000  0.50000000  1
  Si  Si24  1  0.89778421  0.67679315  0.01033515  1
  Si  Si25  1  0.00000000  0.00000000  0.00000000  1
  Si  Si26  1  0.58491250  0.32320685  0.98966485  1
  Si  Si27  1  0.10221579  0.98966485  0.32320685  1
  Si  Si28  1  0.88341628  0.83369657  0.39947087  1
  Si  Si29  1  0.50904174  0.66847588  0.66847588  1
  Si  Si30  1  0.58491250  0.98966485  0.32320685  1
  Si  Si31  1  0.89778421  0.01033515  0.67679315  1
  Si  Si32  1  0.50000000  0.32589822  0.67410178  1
  Ni  Ni33  1  0.80762491  0.26840418  0.56355546  1
  Ni  Ni34  1  0.63958455  0.43644454  0.73159582  1
  Ni  Ni35  1  0.11277323  0.98682888  0.78762465  1
  Ni  Ni36  1  0.88722677  0.21237535  0.01317112  1
  Ni  Ni37  1  0.63958455  0.73159582  0.43644454  1
  Ni  Ni38  1  0.19237509  0.43644454  0.73159582  1
  Ni  Ni39  1  0.95775016  0.20980363  0.20980363  1
  Ni  Ni40  1  0.80762491  0.56355546  0.26840418  1
  Ni  Ni41  1  0.62264258  0.20980363  0.20980363  1
  Ni  Ni42  1  1.00000000  0.61834071  0.38165929  1
  Ni  Ni43  1  0.88722677  0.01317112  0.21237535  1
  Ni  Ni44  1  0.58046882  0.09530206  0.74376029  1
  Ni  Ni45  1  0.64545130  0.07468485  0.07468485  1
  Ni  Ni46  1  0.43121120  0.56878880  0.56878880  1
  Ni  Ni47  1  0.04774645  0.12608088  0.43824678  1
  Ni  Ni48  1  0.36041545  0.26840418  0.56355546  1
  Ni  Ni49  1  0.00000000  0.38165929  0.61834071  1
  Ni  Ni50  1  0.41953118  0.90469794  0.25623971  1
  Ni  Ni51  1  0.04224984  0.79019637  0.79019637  1
  Ni  Ni52  1  0.11277323  0.78762465  0.98682888  1
  Ni  Ni53  1  0.04774645  0.43824678  0.12608088  1
  Ni  Ni54  1  0.41953118  0.25623971  0.90469794  1
  Ni  Ni55  1  0.38792589  0.43824678  0.12608088  1
  Ni  Ni56  1  0.37735742  0.79019637  0.79019637  1
  Ni  Ni57  1  0.56878880  0.43121120  0.43121120  1
  Ni  Ni58  1  0.61207411  0.87391912  0.56175322  1
  Ni  Ni59  1  0.35454870  0.92531515  0.92531515  1
  Ni  Ni60  1  0.36041545  0.56355546  0.26840418  1
  Ni  Ni61  1  0.61207411  0.56175322  0.87391912  1
  Ni  Ni62  1  0.95225355  0.56175322  0.87391912  1
  Ni  Ni63  1  0.19237509  0.73159582  0.43644454  1
  Ni  Ni64  1  0.38792589  0.12608088  0.43824678  1
  Ni  Ni65  1  0.20517900  0.07468485  0.07468485  1
  Ni  Ni66  1  0.95225355  0.87391912  0.56175322  1
  Ni  Ni67  1  0.58046882  0.74376029  0.09530206  1
  Ni  Ni68  1  0.79482100  0.92531515  0.92531515  1
