# generated using pymatgen
data_Li4Mn3O7
_symmetry_space_group_name_H-M   'P 1'
_cell_length_a   2.87780444
_cell_length_b   34.51663937
_cell_length_c   3.07965495
_cell_angle_alpha   88.79303642
_cell_angle_beta   117.85453649
_cell_angle_gamma   89.99999981
_symmetry_Int_Tables_number   1
_chemical_formula_structural   Li4Mn3O7
_chemical_formula_sum   'Li8 Mn6 O14'
_cell_volume   270.38833372
_cell_formula_units_Z   2
loop_
 _symmetry_equiv_pos_site_id
 _symmetry_equiv_pos_as_xyz
  1  'x, y, z'
loop_
 _atom_site_type_symbol
 _atom_site_label
 _atom_site_symmetry_multiplicity
 _atom_site_fract_x
 _atom_site_fract_y
 _atom_site_fract_z
 _atom_site_occupancy
  Li  Li0  1  0.27093817  0.07585248  0.54187733  1
  Li  Li1  1  0.87191883  0.20986252  0.74383767  1
  Li  Li2  1  0.42936594  0.35689637  0.85873289  1
  Li  Li3  1  0.00031353  0.49996867  0.00062706  1
  Li  Li4  1  0.57142900  0.64285700  0.14285700  1
  Li  Li5  1  0.14254347  0.78574533  0.28508694  1
  Li  Li6  1  0.71349106  0.92881763  0.42698111  1
  Li  Li7  1  0.57142900  0.14285700  0.14285700  1
  Mn  Mn8  1  0.99613963  -0.00009016  0.99227926  1
  Mn  Mn9  1  0.14671737  0.28580416  0.29343474  1
  Mn  Mn10  1  0.71434860  0.42854652  0.42869621  1
  Mn  Mn11  1  0.28581029  0.57144253  0.57162158  1
  Mn  Mn12  1  0.85704671  0.71427247  0.71409342  1
  Mn  Mn13  1  0.42850840  0.85716748  0.85701779  1
  O  O14  1  0.63734985  0.03038577  0.27469869  1
  O  O15  1  0.21119464  0.17921923  0.42239028  1
  O  O16  1  0.77313767  0.31911355  0.54627535  1
  O  O17  1  0.33872086  0.46172333  0.67744271  1
  O  O18  1  0.91015679  0.60453501  0.82031358  1
  O  O19  1  0.48172222  0.74735583  0.96344344  1
  O  O20  1  0.05368723  0.89002040  0.10737447  1
  O  O21  1  0.93166236  0.10649577  0.86332472  1
  O  O22  1  0.50550715  0.25532823  0.01101531  1
  O  O23  1  0.08916977  0.39569360  0.17833953  1
  O  O24  1  0.66113578  0.53835817  0.32227056  1
  O  O25  1  0.23270021  0.68117899  0.46540042  1
  O  O26  1  0.80413614  0.82399067  0.60827129  1
  O  O27  1  0.36971933  0.96660145  0.73943965  1
