# generated using pymatgen
data_Li4MnCo2O7
_symmetry_space_group_name_H-M   'P 1'
_cell_length_a   3.02205319
_cell_length_b   13.61020229
_cell_length_c   6.42927602
_cell_angle_alpha   83.35003124
_cell_angle_beta   76.59048218
_cell_angle_gamma   86.91845446
_symmetry_Int_Tables_number   1
_chemical_formula_structural   Li4MnCo2O7
_chemical_formula_sum   'Li8 Mn2 Co4 O14'
_cell_volume   255.40195326
_cell_formula_units_Z   2
loop_
 _symmetry_equiv_pos_site_id
 _symmetry_equiv_pos_as_xyz
  1  'x, y, z'
loop_
 _atom_site_type_symbol
 _atom_site_label
 _atom_site_symmetry_multiplicity
 _atom_site_fract_x
 _atom_site_fract_y
 _atom_site_fract_z
 _atom_site_occupancy
  Li  Li0  1  0.84571393  0.21785505  0.07452216  1
  Li  Li1  1  0.01288144  0.49900410  0.48879118  1
  Li  Li2  1  0.14285700  0.78571400  0.92857100  1
  Li  Li3  1  0.44000007  0.35357395  0.78262084  1
  Li  Li4  1  0.57195046  0.64142478  0.21746723  1
  Li  Li5  1  0.71376454  0.93000322  0.63967577  1
  Li  Li6  1  0.27283256  0.07242490  0.36835182  1
  Li  Li7  1  0.14285700  0.28571400  0.42857100  1
  Mn  Mn8  1  0.01018430  0.00211279  0.99817104  1
  Mn  Mn9  1  0.27552970  0.56931621  0.85897196  1
  Co  Co10  1  0.43451432  0.85688750  0.28704893  1
  Co  Co11  1  0.56286205  0.15038606  0.70245701  1
  Co  Co12  1  0.72285295  0.42104194  0.15468599  1
  Co  Co13  1  0.85119968  0.71454150  0.57009407  1
  O  O14  1  0.41362488  0.10824193  0.01267361  1
  O  O15  1  0.58252196  0.39823886  0.43520567  1
  O  O16  1  0.67761150  0.67689059  0.87900535  1
  O  O17  1  0.96930608  0.24154962  0.74708758  1
  O  O18  1  0.12407224  0.53070338  0.16625727  1
  O  O19  1  0.30030899  0.81832374  0.59112440  1
  O  O20  1  0.88984233  0.95982134  0.30769669  1
  O  O21  1  0.31640792  0.32987938  0.11005542  1
  O  O22  1  0.39587167  0.61160766  0.54944631  1
  O  O23  1  0.60810350  0.89453741  0.97813765  1
  O  O24  1  0.87208912  0.46318707  0.84446939  1
  O  O25  1  -0.01459499  0.75310526  0.26601860  1
  O  O26  1  0.16164176  0.04072462  0.69088473  1
  O  O27  1  0.70319304  0.17318914  0.42193733  1
