# generated using pymatgen
data_MnH12C2(NCl2)2
_symmetry_space_group_name_H-M   'P 1'
_cell_length_a   7.31860937
_cell_length_b   7.27227291
_cell_length_c   19.45317593
_cell_angle_alpha   90.00000000
_cell_angle_beta   90.00000000
_cell_angle_gamma   90.00000000
_symmetry_Int_Tables_number   1
_chemical_formula_structural   MnH12C2(NCl2)2
_chemical_formula_sum   'Mn4 H48 C8 N8 Cl16'
_cell_volume   1035.35491693
_cell_formula_units_Z   4
loop_
 _symmetry_equiv_pos_site_id
 _symmetry_equiv_pos_as_xyz
  1  'x, y, z'
loop_
 _atom_site_type_symbol
 _atom_site_label
 _atom_site_symmetry_multiplicity
 _atom_site_fract_x
 _atom_site_fract_y
 _atom_site_fract_z
 _atom_site_occupancy
  Mn  Mn0  1  0.50000000  0.50000000  0.00000000  1
  Mn  Mn1  1  0.00000000  0.00000000  0.00000000  1
  Mn  Mn2  1  0.50000000  0.00000000  0.50000000  1
  Mn  Mn3  1  0.00000000  0.50000000  0.50000000  1
  H  H4  1  0.84179446  0.98971367  0.39087618  1
  H  H5  1  0.04666680  0.44225192  0.22334736  1
  H  H6  1  0.54751301  0.56744009  0.58149759  1
  H  H7  1  0.34179446  0.48971367  0.60912382  1
  H  H8  1  0.95333320  0.55774808  0.77665264  1
  H  H9  1  0.48127139  0.65390294  0.39413884  1
  H  H10  1  0.45333320  0.44225192  0.72334736  1
  H  H11  1  0.49902706  0.82583141  0.19766374  1
  H  H12  1  0.82185723  0.50585760  0.19537528  1
  H  H13  1  0.04666680  0.05774808  0.72334736  1
  H  H14  1  0.01872861  0.84609706  0.39413884  1
  H  H15  1  0.95333320  0.94225192  0.27665264  1
  H  H16  1  0.45333320  0.05774808  0.22334736  1
  H  H17  1  0.99902706  0.32583141  0.80233626  1
  H  H18  1  0.48127139  0.84609706  0.89413884  1
  H  H19  1  0.04751301  0.43255991  0.91850241  1
  H  H20  1  0.00097294  0.67416859  0.19766374  1
  H  H21  1  0.51872861  0.15390294  0.10586116  1
  H  H22  1  0.32185723  0.00585760  0.80462472  1
  H  H23  1  0.82185723  0.99414240  0.69537528  1
  H  H24  1  0.54751301  0.93255991  0.08149759  1
  H  H25  1  0.54666680  0.94225192  0.77665264  1
  H  H26  1  0.98127139  0.15390294  0.60586116  1
  H  H27  1  0.45248699  0.43255991  0.41850241  1
  H  H28  1  0.45248699  0.06744009  0.91850241  1
  H  H29  1  0.54666680  0.55774808  0.27665264  1
  H  H30  1  0.50097294  0.17416859  0.80233626  1
  H  H31  1  0.95248699  0.56744009  0.08149759  1
  H  H32  1  0.15820554  0.01028633  0.60912382  1
  H  H33  1  0.32185723  0.49414240  0.30462472  1
  H  H34  1  0.67814277  0.99414240  0.19537528  1
  H  H35  1  0.17814277  0.00585760  0.30462472  1
  H  H36  1  0.65820554  0.98971367  0.89087618  1
  H  H37  1  0.49902706  0.67416859  0.69766374  1
  H  H38  1  0.98127139  0.34609706  0.10586116  1
  H  H39  1  0.34179446  0.01028633  0.10912382  1
  H  H40  1  0.95248699  0.93255991  0.58149759  1
  H  H41  1  0.50097294  0.32583141  0.30233626  1
  H  H42  1  0.84179446  0.51028633  0.89087618  1
  H  H43  1  0.65820554  0.51028633  0.39087618  1
  H  H44  1  0.01872861  0.65390294  0.89413884  1
  H  H45  1  0.00097294  0.82583141  0.69766374  1
  H  H46  1  0.99902706  0.17416859  0.30233626  1
  H  H47  1  0.04751301  0.06744009  0.41850241  1
  H  H48  1  0.51872861  0.34609706  0.60586116  1
  H  H49  1  0.15820554  0.48971367  0.10912382  1
  H  H50  1  0.67814277  0.50585760  0.69537528  1
  H  H51  1  0.17814277  0.49414240  0.80462472  1
  C  C52  1  0.53169507  0.52933882  0.68835327  1
  C  C53  1  0.96830493  0.97066118  0.68835327  1
  C  C54  1  0.46830493  0.47066118  0.31164673  1
  C  C55  1  0.96830493  0.52933882  0.18835327  1
  C  C56  1  0.03169507  0.47066118  0.81164673  1
  C  C57  1  0.03169507  0.02933882  0.31164673  1
  C  C58  1  0.46830493  0.02933882  0.81164673  1
  C  C59  1  0.53169507  0.97066118  0.18835327  1
  N  N60  1  0.98285621  0.98138418  0.38353900  1
  N  N61  1  0.48285621  0.01861582  0.11646100  1
  N  N62  1  0.01714379  0.01861582  0.61646100  1
  N  N63  1  0.98285621  0.51861582  0.88353900  1
  N  N64  1  0.48285621  0.48138418  0.61646100  1
  N  N65  1  0.51714379  0.51861582  0.38353900  1
  N  N66  1  0.01714379  0.48138418  0.11646100  1
  N  N67  1  0.51714379  0.98138418  0.88353900  1
  Cl  Cl68  1  0.46951951  0.46947138  0.12697219  1
  Cl  Cl69  1  0.25000000  0.75000000  0.49926053  1
  Cl  Cl70  1  0.75000000  0.25000000  0.00073947  1
  Cl  Cl71  1  0.96951951  0.53052862  0.37302781  1
  Cl  Cl72  1  0.25000000  0.25000000  0.48128702  1
  Cl  Cl73  1  0.25000000  0.25000000  0.98128702  1
  Cl  Cl74  1  0.75000000  0.25000000  0.50073947  1
  Cl  Cl75  1  0.53048049  0.96947138  0.37302781  1
  Cl  Cl76  1  0.03048049  0.46947138  0.62697219  1
  Cl  Cl77  1  0.75000000  0.75000000  0.01871298  1
  Cl  Cl78  1  0.03048049  0.03052862  0.12697219  1
  Cl  Cl79  1  0.25000000  0.75000000  0.99926053  1
  Cl  Cl80  1  0.53048049  0.53052862  0.87302781  1
  Cl  Cl81  1  0.75000000  0.75000000  0.51871298  1
  Cl  Cl82  1  0.96951951  0.96947138  0.87302781  1
  Cl  Cl83  1  0.46951951  0.03052862  0.62697219  1
