# generated using pymatgen
data_Nb2O5
_symmetry_space_group_name_H-M   'P 1'
_cell_length_a   3.87190580
_cell_length_b   19.78875672
_cell_length_c   20.81448104
_cell_angle_alpha   115.70923508
_cell_angle_beta   90.00000000
_cell_angle_gamma   90.00000000
_symmetry_Int_Tables_number   1
_chemical_formula_structural   Nb2O5
_chemical_formula_sum   'Nb28 O70'
_cell_volume   1436.93491722
_cell_formula_units_Z   14
loop_
 _symmetry_equiv_pos_site_id
 _symmetry_equiv_pos_as_xyz
  1  'x, y, z'
loop_
 _atom_site_type_symbol
 _atom_site_label
 _atom_site_symmetry_multiplicity
 _atom_site_fract_x
 _atom_site_fract_y
 _atom_site_fract_z
 _atom_site_occupancy
  Nb  Nb0  1  0.01130452  0.84014851  0.83412668  1
  Nb  Nb1  1  0.49961661  0.57851282  0.70358245  1
  Nb  Nb2  1  0.99289846  0.99594396  0.76314890  1
  Nb  Nb3  1  0.02046289  0.84429324  0.56655506  1
  Nb  Nb4  1  0.99803816  0.30680053  0.62887942  1
  Nb  Nb5  1  0.99289846  0.00405604  0.23685110  1
  Nb  Nb6  1  1.00348329  0.84843983  0.30343508  1
  Nb  Nb7  1  0.50372087  0.26572065  0.84158064  1
  Nb  Nb8  1  0.99903252  0.68490155  0.63909121  1
  Nb  Nb9  1  0.99903252  0.31509845  0.36090879  1
  Nb  Nb10  1  1.00348329  0.15156017  0.69656492  1
  Nb  Nb11  1  0.99982513  0.46822193  0.56216202  1
  Nb  Nb12  1  0.48565692  0.88964157  0.09260318  1
  Nb  Nb13  1  0.50145767  0.41882228  0.77084015  1
  Nb  Nb14  1  0.50642814  0.73473242  0.89804424  1
  Nb  Nb15  1  0.47536531  0.57493896  0.96406126  1
  Nb  Nb16  1  0.49961661  0.42148718  0.29641755  1
  Nb  Nb17  1  -0.02746697  0.00000000  0.50000000  1
  Nb  Nb18  1  0.76621046  0.00000000  0.00000000  1
  Nb  Nb19  1  0.48565692  0.11035843  0.90739682  1
  Nb  Nb20  1  0.99982513  0.53177807  0.43783798  1
  Nb  Nb21  1  0.02046289  0.15570676  0.43344494  1
  Nb  Nb22  1  0.50145767  0.58117772  0.22915985  1
  Nb  Nb23  1  0.50372087  0.73427935  0.15841936  1
  Nb  Nb24  1  0.01130452  0.15985149  0.16587332  1
  Nb  Nb25  1  0.99803816  0.69319947  0.37112058  1
  Nb  Nb26  1  0.47536531  0.42506104  0.03593874  1
  Nb  Nb27  1  0.50642814  0.26526758  0.10195576  1
  O  O28  1  0.49981333  0.81813737  0.13181338  1
  O  O29  1  0.50498718  0.66058999  0.06638158  1
  O  O30  1  1.00155138  0.24542993  0.81305548  1
  O  O31  1  0.99976558  0.42276887  0.46171208  1
  O  O32  1  0.00688719  0.91327756  0.93891309  1
  O  O33  1  0.49548037  0.98630025  0.20631462  1
  O  O34  1  1.00020751  0.59500331  0.25911457  1
  O  O35  1  0.00703078  0.92047272  0.53612100  1
  O  O36  1  0.99976558  0.57723113  0.53828792  1
  O  O37  1  0.49943779  0.83454141  0.57383744  1
  O  O38  1  0.49959864  0.65866169  0.20097388  1
  O  O39  1  0.50356686  0.49907197  0.86192949  1
  O  O40  1  -0.00035345  0.57366681  0.67072140  1
  O  O41  1  0.49943779  0.16545859  0.42616256  1
  O  O42  1  1.00020751  0.40499669  0.74088543  1
  O  O43  1  0.49996238  0.65953111  0.79161321  1
  O  O44  1  0.49928113  0.33570371  0.65336144  1
  O  O45  1  0.49981681  0.49642630  0.58582210  1
  O  O46  1  1.00029531  0.58500410  0.96337587  1
  O  O47  1  0.49959864  0.34133831  0.79902612  1
  O  O48  1  0.99180793  0.08182253  0.32675494  1
  O  O49  1  1.00006598  0.75369853  0.73722156  1
  O  O50  1  0.49944502  0.65675380  0.64545930  1
  O  O51  1  0.99886812  0.92359705  0.26441754  1
  O  O52  1  0.50536080  0.17988024  0.15315359  1
  O  O53  1  0.99511771  0.76169135  0.46602538  1
  O  O54  1  0.49981681  0.50357370  0.41417790  1
  O  O55  1  0.99973972  0.23783701  0.66822095  1
  O  O56  1  1.00003154  0.39267860  0.58889629  1
  O  O57  1  0.50136831  0.17406815  0.72321581  1
  O  O58  1  0.49981333  0.18186263  0.86818662  1
  O  O59  1  0.49907508  0.00000000  0.50000000  1
  O  O60  1  0.49459402  0.97370079  0.05953392  1
  O  O61  1  -0.00035345  0.42633319  0.32927860  1
  O  O62  1  0.00688719  0.08672244  0.06108691  1
  O  O63  1  0.49511135  0.81853694  0.99688131  1
  O  O64  1  0.99180793  0.91817747  0.67324506  1
  O  O65  1  0.50356686  0.50092803  0.13807051  1
  O  O66  1  1.00029531  0.41499590  0.03662413  1
  O  O67  1  0.00362545  0.08111041  0.60267656  1
  O  O68  1  0.49996238  0.34046889  0.20838679  1
  O  O69  1  0.00458647  0.08578645  0.19556905  1
  O  O70  1  0.00458647  0.91421355  0.80443095  1
  O  O71  1  0.49945218  0.49876018  0.27169973  1
  O  O72  1  0.99973972  0.76216299  0.33177905  1
  O  O73  1  1.00155138  0.75457007  0.18694452  1
  O  O74  1  -0.00132887  0.74690780  0.59721022  1
  O  O75  1  0.49548037  0.01369975  0.79368538  1
  O  O76  1  0.50136831  0.82593185  0.27678419  1
  O  O77  1  0.50536080  0.82011976  0.84684641  1
  O  O78  1  0.00362545  0.91888959  0.39732344  1
  O  O79  1  0.49944502  0.34324620  0.35454070  1
  O  O80  1  -0.00132887  0.25309220  0.40278978  1
  O  O81  1  0.99387857  0.08496366  0.88210778  1
  O  O82  1  0.50618110  0.66093084  0.92721233  1
  O  O83  1  0.49928113  0.66429629  0.34663856  1
  O  O84  1  0.49511135  0.18146306  0.00311869  1
  O  O85  1  0.49945218  0.50123982  0.72830027  1
  O  O86  1  0.49459402  0.02629921  0.94046608  1
  O  O87  1  1.00003154  0.60732140  0.41110371  1
  O  O88  1  0.00703078  0.07952728  0.46387900  1
  O  O89  1  0.99511771  0.23830865  0.53397462  1
  O  O90  1  0.50010396  0.50000000  0.00000000  1
  O  O91  1  0.99387857  0.91503634  0.11789222  1
  O  O92  1  0.99886812  0.07640295  0.73558246  1
  O  O93  1  0.50498718  0.33941001  0.93361842  1
  O  O94  1  0.00351404  0.75256322  0.88533511  1
  O  O95  1  0.50618110  0.33906916  0.07278767  1
  O  O96  1  0.00351404  0.24743678  0.11466489  1
  O  O97  1  1.00006598  0.24630147  0.26277844  1
