# generated using pymatgen
data_Mg3Al2(SiO4)3
_symmetry_space_group_name_H-M   'P 1'
_cell_length_a   10.02097870
_cell_length_b   10.02097870
_cell_length_c   10.02097870
_cell_angle_alpha   109.47122061
_cell_angle_beta   109.47122060
_cell_angle_gamma   109.47122064
_symmetry_Int_Tables_number   1
_chemical_formula_structural   Mg3Al2(SiO4)3
_chemical_formula_sum   'Mg12 Al8 Si12 O48'
_cell_volume   774.65535395
_cell_formula_units_Z   4
loop_
 _symmetry_equiv_pos_site_id
 _symmetry_equiv_pos_as_xyz
  1  'x, y, z'
loop_
 _atom_site_type_symbol
 _atom_site_label
 _atom_site_symmetry_multiplicity
 _atom_site_fract_x
 _atom_site_fract_y
 _atom_site_fract_z
 _atom_site_occupancy
  O  O0  1  0.70350144  0.68595330  0.08281273  1
  O  O1  1  0.68595330  0.10314057  0.98245186  1
  O  O2  1  0.62068871  0.70350144  0.51754814  1
  O  O3  1  0.51754814  0.62068871  0.70350144  1
  O  O4  1  0.08281273  0.87931129  0.39685943  1
  O  O5  1  0.39685943  0.08281273  0.87931129  1
  O  O6  1  0.10314057  0.98245186  0.68595330  1
  O  O7  1  0.62068871  0.41718727  0.10314057  1
  O  O8  1  0.51754814  0.39685943  0.81404670  1
  O  O9  1  0.87931129  0.98245186  0.79649856  1
  O  O10  1  0.41718727  0.10314057  0.62068871  1
  O  O11  1  0.81404670  0.51754814  0.39685943  1
  O  O12  1  0.98245186  0.79649856  0.87931129  1
  O  O13  1  0.08281273  0.70350144  0.68595330  1
  O  O14  1  0.68595330  0.08281273  0.70350144  1
  O  O15  1  0.10314057  0.62068871  0.41718727  1
  O  O16  1  0.81404670  0.79649856  0.41718727  1
  O  O17  1  0.39685943  0.81404670  0.51754814  1
  O  O18  1  0.41718727  0.81404670  0.79649856  1
  O  O19  1  0.79649856  0.87931129  0.98245186  1
  O  O20  1  0.79649856  0.41718727  0.81404670  1
  O  O21  1  0.87931129  0.39685943  0.08281273  1
  O  O22  1  0.98245186  0.68595330  0.10314057  1
  O  O23  1  0.70350144  0.51754814  0.62068871  1
  O  O24  1  0.29649856  0.31404670  0.91718727  1
  O  O25  1  0.31404670  0.89685943  0.01754814  1
  O  O26  1  0.37931129  0.29649856  0.48245186  1
  O  O27  1  0.48245186  0.37931129  0.29649856  1
  O  O28  1  0.91718727  0.12068871  0.60314057  1
  O  O29  1  0.60314057  0.91718727  0.12068871  1
  O  O30  1  0.89685943  0.01754814  0.31404670  1
  O  O31  1  0.37931129  0.58281273  0.89685943  1
  O  O32  1  0.48245186  0.60314057  0.18595330  1
  O  O33  1  0.12068871  0.01754814  0.20350144  1
  O  O34  1  0.58281273  0.89685943  0.37931129  1
  O  O35  1  0.18595330  0.48245186  0.60314057  1
  O  O36  1  0.01754814  0.20350144  0.12068871  1
  O  O37  1  0.91718727  0.29649856  0.31404670  1
  O  O38  1  0.31404670  0.91718727  0.29649856  1
  O  O39  1  0.89685943  0.37931129  0.58281273  1
  O  O40  1  0.18595330  0.20350144  0.58281273  1
  O  O41  1  0.60314057  0.18595330  0.48245186  1
  O  O42  1  0.58281273  0.18595330  0.20350144  1
  O  O43  1  0.20350144  0.12068871  0.01754814  1
  O  O44  1  0.20350144  0.58281273  0.18595330  1
  O  O45  1  0.12068871  0.60314057  0.91718727  1
  O  O46  1  0.01754814  0.31404670  0.89685943  1
  O  O47  1  0.29649856  0.48245186  0.37931129  1
  Mg  Mg48  1  0.25000000  0.37500000  0.12500000  1
  Mg  Mg49  1  0.37500000  0.75000000  0.12500000  1
  Mg  Mg50  1  0.12500000  0.25000000  0.37500000  1
  Mg  Mg51  1  0.37500000  0.12500000  0.25000000  1
  Mg  Mg52  1  0.12500000  0.37500000  0.75000000  1
  Mg  Mg53  1  0.75000000  0.12500000  0.37500000  1
  Mg  Mg54  1  0.75000000  0.62500000  0.87500000  1
  Mg  Mg55  1  0.62500000  0.25000000  0.87500000  1
  Mg  Mg56  1  0.87500000  0.75000000  0.62500000  1
  Mg  Mg57  1  0.62500000  0.87500000  0.75000000  1
  Mg  Mg58  1  0.87500000  0.62500000  0.25000000  1
  Mg  Mg59  1  0.25000000  0.87500000  0.62500000  1
  Al  Al60  1  0.00000000  0.00000000  0.00000000  1
  Al  Al61  1  0.00000000  0.50000000  0.00000000  1
  Al  Al62  1  0.00000000  0.00000000  0.50000000  1
  Al  Al63  1  0.50000000  0.00000000  0.00000000  1
  Al  Al64  1  0.00000000  0.50000000  0.50000000  1
  Al  Al65  1  0.50000000  0.00000000  0.50000000  1
  Al  Al66  1  0.50000000  0.50000000  0.00000000  1
  Al  Al67  1  0.50000000  0.50000000  0.50000000  1
  Si  Si68  1  0.25000000  0.62500000  0.37500000  1
  Si  Si69  1  0.62500000  0.75000000  0.37500000  1
  Si  Si70  1  0.87500000  0.25000000  0.12500000  1
  Si  Si71  1  0.12500000  0.87500000  0.25000000  1
  Si  Si72  1  0.37500000  0.62500000  0.75000000  1
  Si  Si73  1  0.75000000  0.37500000  0.62500000  1
  Si  Si74  1  0.87500000  0.12500000  0.75000000  1
  Si  Si75  1  0.12500000  0.75000000  0.87500000  1
  Si  Si76  1  0.62500000  0.37500000  0.25000000  1
  Si  Si77  1  0.37500000  0.25000000  0.62500000  1
  Si  Si78  1  0.75000000  0.87500000  0.12500000  1
  Si  Si79  1  0.25000000  0.12500000  0.87500000  1
