# generated using pymatgen
data_Ti(AlCl4)2
_symmetry_space_group_name_H-M   'P 1'
_cell_length_a   8.05239954
_cell_length_b   9.80367544
_cell_length_c   10.19662456
_cell_angle_alpha   72.71266580
_cell_angle_beta   66.74300111
_cell_angle_gamma   65.75227445
_symmetry_Int_Tables_number   1
_chemical_formula_structural   Ti(AlCl4)2
_chemical_formula_sum   'Ti2 Al4 Cl16'
_cell_volume   665.48685251
_cell_formula_units_Z   2
loop_
 _symmetry_equiv_pos_site_id
 _symmetry_equiv_pos_as_xyz
  1  'x, y, z'
loop_
 _atom_site_type_symbol
 _atom_site_label
 _atom_site_symmetry_multiplicity
 _atom_site_fract_x
 _atom_site_fract_y
 _atom_site_fract_z
 _atom_site_occupancy
  Ti  Ti0  1  0.00252969  0.75000000  0.25000000  1
  Ti  Ti1  1  0.99747031  0.25000000  0.75000000  1
  Al  Al2  1  0.33228834  0.35649443  0.46802098  1
  Al  Al3  1  0.15680375  0.14350557  0.03197902  1
  Al  Al4  1  0.66771166  0.64350557  0.53197902  1
  Al  Al5  1  0.84319625  0.85649443  0.96802098  1
  Cl  Cl6  1  0.62284981  0.23329172  0.44774780  1
  Cl  Cl7  1  0.85443093  0.04564816  0.78681135  1
  Cl  Cl8  1  0.30388933  0.26670828  0.05225220  1
  Cl  Cl9  1  0.69611067  0.73329172  0.94774780  1
  Cl  Cl10  1  0.71417133  0.94300346  0.17368457  1
  Cl  Cl11  1  0.68689043  0.45435184  0.71318865  1
  Cl  Cl12  1  0.14556907  0.95435184  0.21318865  1
  Cl  Cl13  1  0.31310957  0.54564816  0.28681135  1
  Cl  Cl14  1  0.86925336  0.28081022  0.01665479  1
  Cl  Cl15  1  0.83085936  0.55699654  0.32631543  1
  Cl  Cl16  1  0.13074664  0.71918978  0.98334521  1
  Cl  Cl17  1  0.37715019  0.76670828  0.55225220  1
  Cl  Cl18  1  0.83328162  0.78081022  0.51665479  1
  Cl  Cl19  1  0.16671838  0.21918978  0.48334521  1
  Cl  Cl20  1  0.16914064  0.44300346  0.67368457  1
  Cl  Cl21  1  0.28582867  0.05699654  0.82631543  1
