# generated using pymatgen
data_LiCo3P3O11
_symmetry_space_group_name_H-M   'P 1'
_cell_length_a   9.84734106
_cell_length_b   9.66646908
_cell_length_c   10.10833279
_cell_angle_alpha   90.00000000
_cell_angle_beta   62.24384265
_cell_angle_gamma   90.00000000
_symmetry_Int_Tables_number   1
_chemical_formula_structural   LiCo3P3O11
_chemical_formula_sum   'Li4 Co12 P12 O44'
_cell_volume   851.48896340
_cell_formula_units_Z   4
loop_
 _symmetry_equiv_pos_site_id
 _symmetry_equiv_pos_as_xyz
  1  'x, y, z'
loop_
 _atom_site_type_symbol
 _atom_site_label
 _atom_site_symmetry_multiplicity
 _atom_site_fract_x
 _atom_site_fract_y
 _atom_site_fract_z
 _atom_site_occupancy
  Li  Li0  1  0.00726276  0.32867161  0.29625138  1
  Li  Li1  1  0.49273724  0.82867161  0.20374862  1
  Li  Li2  1  0.99273724  0.67132839  0.70374862  1
  Li  Li3  1  0.50726276  0.17132839  0.79625138  1
  Co  Co4  1  0.64408389  0.86836144  0.62865698  1
  Co  Co5  1  0.18275525  0.13126178  0.73211606  1
  Co  Co6  1  0.00314162  0.87484169  0.89667185  1
  Co  Co7  1  0.35591611  0.13163856  0.37134302  1
  Co  Co8  1  0.81724475  0.86873822  0.26788394  1
  Co  Co9  1  0.31724475  0.63126178  0.76788394  1
  Co  Co10  1  0.99685838  0.12515831  0.10332815  1
  Co  Co11  1  0.49685838  0.37484169  0.60332815  1
  Co  Co12  1  0.14408389  0.63163856  0.12865698  1
  Co  Co13  1  0.50314162  0.62515831  0.39667185  1
  Co  Co14  1  0.85591611  0.36836144  0.87134302  1
  Co  Co15  1  0.68275525  0.36873822  0.23211606  1
  P  P16  1  0.84931175  0.06630974  0.74499677  1
  P  P17  1  0.32697796  0.83794410  0.56550702  1
  P  P18  1  0.80746579  0.57840169  0.42932736  1
  P  P19  1  0.15068825  0.93369026  0.25500323  1
  P  P20  1  0.19253421  0.42159831  0.57067264  1
  P  P21  1  0.69253421  0.07840169  0.07067264  1
  P  P22  1  0.82697796  0.66205590  0.06550702  1
  P  P23  1  0.30746579  0.92159831  0.92932736  1
  P  P24  1  0.67302204  0.16205590  0.43449298  1
  P  P25  1  0.65068825  0.56630974  0.75500323  1
  P  P26  1  0.17302204  0.33794410  0.93449298  1
  P  P27  1  0.34931175  0.43369026  0.24499677  1
  O  O28  1  0.36177101  0.77958416  0.41033085  1
  O  O29  1  0.16897117  0.99283577  0.91631970  1
  O  O30  1  0.86177101  0.72041584  0.91033085  1
  O  O31  1  0.45907067  0.97696032  0.80933235  1
  O  O32  1  0.54092933  0.02303968  0.19066765  1
  O  O33  1  0.31376028  0.51883653  0.14065837  1
  O  O34  1  0.50437463  0.51595532  0.74548840  1
  O  O35  1  0.71182228  0.23648097  0.06437028  1
  O  O36  1  0.04092933  0.47696032  0.69066765  1
  O  O37  1  0.99562537  0.01595532  0.75451160  1
  O  O38  1  0.32326480  0.99698809  0.56530402  1
  O  O39  1  0.63822899  0.22041584  0.58966915  1
  O  O40  1  0.54043969  0.22658542  0.40522708  1
  O  O41  1  0.21182228  0.26351903  0.56437028  1
  O  O42  1  0.29373262  0.97054940  0.08578272  1
  O  O43  1  0.35143263  0.27791580  0.22866528  1
  O  O44  1  0.17874391  0.77132293  0.69514491  1
  O  O45  1  0.13822899  0.27958416  0.08966915  1
  O  O46  1  0.18623972  0.01883653  0.35934163  1
  O  O47  1  0.81376028  0.98116347  0.64065837  1
  O  O48  1  0.70626738  0.02945060  0.91421728  1
  O  O49  1  0.82125609  0.22867707  0.30485509  1
  O  O50  1  0.32125609  0.27132293  0.80485509  1
  O  O51  1  0.95956031  0.72658542  0.09477292  1
  O  O52  1  0.64856737  0.72208420  0.77133472  1
  O  O53  1  0.68623972  0.48116347  0.85934163  1
  O  O54  1  0.33102883  0.49283577  0.58368030  1
  O  O55  1  0.95907067  0.52303968  0.30933235  1
  O  O56  1  0.66897117  0.50716423  0.41631970  1
  O  O57  1  0.14856737  0.77791580  0.27133472  1
  O  O58  1  0.04043969  0.27341458  0.90522708  1
  O  O59  1  0.85143263  0.22208420  0.72866528  1
  O  O60  1  0.28817772  0.76351903  0.93562972  1
  O  O61  1  0.78817772  0.73648097  0.43562972  1
  O  O62  1  0.83102883  0.00716423  0.08368030  1
  O  O63  1  0.17673520  0.49698809  0.93469598  1
  O  O64  1  0.20626738  0.47054940  0.41421728  1
  O  O65  1  0.67874391  0.72867707  0.19514491  1
  O  O66  1  0.67673520  0.00301191  0.43469598  1
  O  O67  1  0.45956031  0.77341458  0.59477292  1
  O  O68  1  0.79373262  0.52945060  0.58578272  1
  O  O69  1  0.49562537  0.48404468  0.25451160  1
  O  O70  1  0.82326480  0.50301191  0.06530402  1
  O  O71  1  0.00437463  0.98404468  0.24548840  1
