# generated using pymatgen
data_LiEuTiO4
_symmetry_space_group_name_H-M   'P 1'
_cell_length_a   5.30601044
_cell_length_b   5.35771642
_cell_length_c   11.99035961
_cell_angle_alpha   89.98282071
_cell_angle_beta   90.00003378
_cell_angle_gamma   89.99988768
_symmetry_Int_Tables_number   1
_chemical_formula_structural   LiEuTiO4
_chemical_formula_sum   'Li4 Eu4 Ti4 O16'
_cell_volume   340.86311797
_cell_formula_units_Z   4
loop_
 _symmetry_equiv_pos_site_id
 _symmetry_equiv_pos_as_xyz
  1  'x, y, z'
loop_
 _atom_site_type_symbol
 _atom_site_label
 _atom_site_symmetry_multiplicity
 _atom_site_fract_x
 _atom_site_fract_y
 _atom_site_fract_z
 _atom_site_occupancy
  Eu  Eu0  1  0.24999805  0.51874971  0.11540551  1
  Eu  Eu1  1  0.75000286  0.48140777  0.88463070  1
  Eu  Eu2  1  0.75000089  0.98176883  0.11541469  1
  Eu  Eu3  1  0.25000433  0.01839410  0.88462745  1
  Li  Li4  1  0.50001666  0.74998456  0.49059663  1
  Li  Li5  1  0.99998343  0.74998455  0.49059710  1
  Li  Li6  1  -0.00000844  0.24997467  0.50939529  1
  Li  Li7  1  0.50000831  0.24997465  0.50939540  1
  Ti  Ti8  1  0.24999900  0.50582976  0.71026099  1
  Ti  Ti9  1  0.75000101  0.99417381  0.71030103  1
  Ti  Ti10  1  0.74999885  0.49419021  0.28972316  1
  Ti  Ti11  1  0.24999993  0.00582617  0.28973282  1
  O  O12  1  0.00003882  0.25002098  0.74162764  1
  O  O13  1  0.49998039  0.24999405  0.24209650  1
  O  O14  1  0.00001823  0.24999189  0.24209579  1
  O  O15  1  0.25000017  0.95435530  0.07280253  1
  O  O16  1  0.74999868  0.54541525  0.07284672  1
  O  O17  1  0.25000007  0.51110784  0.56083552  1
  O  O18  1  0.49995947  0.25001983  0.74162720  1
  O  O19  1  0.49996962  0.74995350  0.25839543  1
  O  O20  1  0.74999825  0.04564313  0.92699323  1
  O  O21  1  0.24999934  0.01110121  0.43911584  1
  O  O22  1  0.49997927  0.74999201  0.75792757  1
  O  O23  1  0.74999992  0.48885745  0.43910963  1
  O  O24  1  0.00002262  0.74999230  0.75792837  1
  O  O25  1  0.24999896  0.45447462  0.92723794  1
  O  O26  1  0.00003138  0.74995272  0.25839507  1
  O  O27  1  0.74999992  0.98886912  0.56088424  1
