# generated using pymatgen
data_CuBi(WO4)2
_symmetry_space_group_name_H-M   'P 1'
_cell_length_a   5.16372334
_cell_length_b   6.25666485
_cell_length_c   6.11930691
_cell_angle_alpha   108.68584834
_cell_angle_beta   113.44018632
_cell_angle_gamma   91.77830108
_symmetry_Int_Tables_number   1
_chemical_formula_structural   CuBi(WO4)2
_chemical_formula_sum   'Cu1 Bi1 W2 O8'
_cell_volume   168.94402042
_cell_formula_units_Z   1
loop_
 _symmetry_equiv_pos_site_id
 _symmetry_equiv_pos_as_xyz
  1  'x, y, z'
loop_
 _atom_site_type_symbol
 _atom_site_label
 _atom_site_symmetry_multiplicity
 _atom_site_fract_x
 _atom_site_fract_y
 _atom_site_fract_z
 _atom_site_occupancy
  Cu  Cu0  1  0.14416074  0.21521266  0.10183909  1
  Bi  Bi1  1  0.63700161  0.71027844  0.09808530  1
  W  W2  1  0.88786188  0.37366689  0.58307412  1
  W  W3  1  0.38931358  0.04840446  0.61404564  1
  O  O4  1  0.66846560  0.37453137  0.78801366  1
  O  O5  1  0.17424201  0.18907320  0.80144616  1
  O  O6  1  0.64853056  0.48377408  0.35035636  1
  O  O7  1  0.13508946  0.79036253  0.36901556  1
  O  O8  1  0.13750752  0.63418547  0.82637500  1
  O  O9  1  0.61019034  0.04584822  0.41007167  1
  O  O10  1  0.10530171  0.23601309  0.39717424  1
  O  O11  1  0.62353697  0.93454958  0.84470220  1
