# generated using pymatgen
data_Li4MnCo2O7
_symmetry_space_group_name_H-M   'P 1'
_cell_length_a   3.02797345
_cell_length_b   11.17700171
_cell_length_c   7.82366597
_cell_angle_alpha   100.41552443
_cell_angle_beta   97.80658242
_cell_angle_gamma   83.02131501
_symmetry_Int_Tables_number   1
_chemical_formula_structural   Li4MnCo2O7
_chemical_formula_sum   'Li8 Mn2 Co4 O14'
_cell_volume   256.72501361
_cell_formula_units_Z   2
loop_
 _symmetry_equiv_pos_site_id
 _symmetry_equiv_pos_as_xyz
  1  'x, y, z'
loop_
 _atom_site_type_symbol
 _atom_site_label
 _atom_site_symmetry_multiplicity
 _atom_site_fract_x
 _atom_site_fract_y
 _atom_site_fract_z
 _atom_site_occupancy
  Li  Li0  1  0.77978246  0.07562908  0.63877743  1
  Li  Li1  1  0.93303819  0.35242075  0.21336832  1
  Li  Li2  1  0.06962258  0.64153937  0.78556659  1
  Li  Li3  1  0.21617930  0.92989436  0.35727509  1
  Li  Li4  1  0.35263748  0.21901426  0.92945367  1
  Li  Li5  1  0.50598298  0.49580273  0.50412615  1
  Li  Li6  1  0.64282446  0.78573003  0.07143295  1
  Li  Li7  1  0.14281153  0.28570876  0.57143696  1
  Mn  Mn8  1  0.99396002  0.00245811  0.00275433  1
  Mn  Mn9  1  0.29171181  0.56899022  0.14010541  1
  Co  Co10  1  0.42175327  0.85751989  0.71364688  1
  Co  Co11  1  0.58341864  0.14859190  0.29965288  1
  Co  Co12  1  0.70224494  0.42282495  0.84318576  1
  Co  Co13  1  0.86397847  0.71390215  0.42922854  1
  O  O14  1  0.35682890  0.02928931  0.82138163  1
  O  O15  1  0.53404573  0.30460685  0.37892135  1
  O  O16  1  0.65757754  0.59215469  0.96037712  1
  O  O17  1  0.83430283  0.88332593  0.53941987  1
  O  O18  1  0.94848622  0.17079812  0.11561114  1
  O  O19  1  0.08265234  0.46090943  0.69220533  1
  O  O20  1  0.27143068  0.74051478  0.25188639  1
  O  O21  1  0.20304797  0.11050509  0.45065026  1
  O  O22  1  0.33717502  0.40063794  0.02722264  1
  O  O23  1  0.45135367  0.68809587  0.60347164  1
  O  O24  1  0.62819219  0.97925847  0.18246078  1
  O  O25  1  0.75165299  0.26682032  0.76387764  1
  O  O26  1  0.92893648  0.54214770  0.32153555  1
  O  O27  1  0.01437130  0.83090893  0.89096773  1
