# generated using pymatgen
data_Zn(HO)2
_symmetry_space_group_name_H-M   'P 1'
_cell_length_a   12.66008234
_cell_length_b   12.64234134
_cell_length_c   12.44343784
_cell_angle_alpha   41.06952470
_cell_angle_beta   142.11948743
_cell_angle_gamma   164.91104516
_symmetry_Int_Tables_number   1
_chemical_formula_structural   Zn(HO)2
_chemical_formula_sum   'Zn6 H12 O12'
_cell_volume   317.92289253
_cell_formula_units_Z   6
loop_
 _symmetry_equiv_pos_site_id
 _symmetry_equiv_pos_as_xyz
  1  'x, y, z'
loop_
 _atom_site_type_symbol
 _atom_site_label
 _atom_site_symmetry_multiplicity
 _atom_site_fract_x
 _atom_site_fract_y
 _atom_site_fract_z
 _atom_site_occupancy
  Zn  Zn0  1  0.79878472  0.10374404  0.86609937  1
  Zn  Zn1  1  0.23665168  0.91534305  0.13868246  1
  Zn  Zn2  1  0.78779628  0.92761379  0.67773332  1
  Zn  Zn3  1  0.23785714  0.10621994  0.31241336  1
  Zn  Zn4  1  0.04416637  0.24854444  0.23264678  1
  Zn  Zn5  1  0.01435171  0.80856141  0.76496770  1
  H  H6  1  0.45188470  0.84864778  0.95616635  1
  H  H7  1  0.92197731  0.51036593  0.04236918  1
  H  H8  1  0.69465722  0.80766763  0.49795508  1
  H  H9  1  0.31174016  0.19572015  0.50193116  1
  H  H10  1  0.05269397  0.57235363  0.60897487  1
  H  H11  1  0.95484489  0.43439384  0.38989149  1
  H  H12  1  0.18371729  0.49490352  0.65489954  1
  H  H13  1  0.83436026  0.52681203  0.34786277  1
  H  H14  1  0.44797743  0.82555013  0.20253338  1
  H  H15  1  0.61474139  0.22819238  0.80423678  1
  H  H16  1  0.99215926  0.00545715  0.01795833  1
  H  H17  1  0.64602514  0.59465952  0.94665920  1
  O  O18  1  0.76034742  0.13598459  0.96979125  1
  O  O19  1  0.19378813  0.80593566  0.03324176  1
  O  O20  1  0.77125296  0.80131404  0.62493967  1
  O  O21  1  0.17360155  0.14262697  0.37518131  1
  O  O22  1  0.17819337  0.57052968  0.72599759  1
  O  O23  1  0.83520221  0.43857240  0.26919162  1
  O  O24  1  0.18152678  0.45257079  0.60961589  1
  O  O25  1  0.84672438  0.57163445  0.39915782  1
  O  O26  1  0.53499359  0.79070294  0.27552796  1
  O  O27  1  0.51914097  0.25397965  0.73186697  1
  O  O28  1  0.97253599  0.02950339  0.05765964  1
  O  O29  1  0.93848172  0.87311407  0.94248940  1
