# generated using pymatgen
data_Ti3(BiO3)4
_symmetry_space_group_name_H-M   'P 1'
_cell_length_a   3.86938750
_cell_length_b   3.86938663
_cell_length_c   33.50798927
_cell_angle_alpha   90.00000000
_cell_angle_beta   90.00000000
_cell_angle_gamma   89.08522894
_symmetry_Int_Tables_number   1
_chemical_formula_structural   Ti3(BiO3)4
_chemical_formula_sum   'Ti6 Bi8 O24'
_cell_volume   501.62291153
_cell_formula_units_Z   2
loop_
 _symmetry_equiv_pos_site_id
 _symmetry_equiv_pos_as_xyz
  1  'x, y, z'
loop_
 _atom_site_type_symbol
 _atom_site_label
 _atom_site_symmetry_multiplicity
 _atom_site_fract_x
 _atom_site_fract_y
 _atom_site_fract_z
 _atom_site_occupancy
  Ti  Ti0  1  0.98961624  0.01038376  0.50000000  1
  Ti  Ti1  1  0.51493112  0.51097185  0.12899678  1
  Ti  Ti2  1  0.48961624  0.51038376  0.00000000  1
  Ti  Ti3  1  0.01493112  0.01097185  0.37100322  1
  Ti  Ti4  1  0.48902815  0.48506888  0.87100322  1
  Ti  Ti5  1  0.98902815  0.98506888  0.62899678  1
  Bi  Bi6  1  0.02012594  0.01385596  0.78819972  1
  Bi  Bi7  1  0.52012594  0.51385596  0.71180028  1
  Bi  Bi8  1  0.91721029  0.92961608  0.93357528  1
  Bi  Bi9  1  0.41721029  0.42961608  0.56642472  1
  Bi  Bi10  1  0.07038392  0.08278971  0.06642472  1
  Bi  Bi11  1  0.48614404  0.47987406  0.28819972  1
  Bi  Bi12  1  0.57038392  0.58278971  0.43357528  1
  Bi  Bi13  1  0.98614404  0.97987406  0.21180028  1
  O  O14  1  0.50759772  0.98216135  0.50045023  1
  O  O15  1  0.99101530  0.97522007  0.68248585  1
  O  O16  1  0.52477993  0.50898470  0.18248585  1
  O  O17  1  0.01137970  0.50105615  0.74999687  1
  O  O18  1  0.48129308  0.99456459  0.11705508  1
  O  O19  1  0.48653489  0.47227927  0.05954252  1
  O  O20  1  0.52315219  0.99913113  0.88309889  1
  O  O21  1  0.52772073  0.51346511  0.94045748  1
  O  O22  1  0.49101530  0.47522007  0.81751415  1
  O  O23  1  0.02772073  0.01346511  0.55954252  1
  O  O24  1  0.00086887  0.47684781  0.11690111  1
  O  O25  1  0.51783865  0.99240228  0.00045023  1
  O  O26  1  0.00759772  0.48216135  0.99954977  1
  O  O27  1  0.01783865  0.49240228  0.49954977  1
  O  O28  1  0.02315219  0.49913113  0.61690111  1
  O  O29  1  0.99894385  0.48862030  0.24999687  1
  O  O30  1  0.50543541  0.01870692  0.61705508  1
  O  O31  1  0.50086887  0.97684781  0.38309889  1
  O  O32  1  0.98653489  0.97227927  0.44045748  1
  O  O33  1  0.00543541  0.51870692  0.88294492  1
  O  O34  1  0.49894385  0.98862030  0.25000313  1
  O  O35  1  0.02477993  0.00898470  0.31751415  1
  O  O36  1  0.51137970  0.00105615  0.75000313  1
  O  O37  1  0.98129308  0.49456459  0.38294492  1
