# generated using pymatgen
data_Cu6Mo5O18
_symmetry_space_group_name_H-M   'P 1'
_cell_length_a   6.31847479
_cell_length_b   10.01742355
_cell_length_c   12.22345765
_cell_angle_alpha   83.97924710
_cell_angle_beta   75.02147818
_cell_angle_gamma   71.61659189
_symmetry_Int_Tables_number   1
_chemical_formula_structural   Cu6Mo5O18
_chemical_formula_sum   'Cu12 Mo10 O36'
_cell_volume   709.02206766
_cell_formula_units_Z   2
loop_
 _symmetry_equiv_pos_site_id
 _symmetry_equiv_pos_as_xyz
  1  'x, y, z'
loop_
 _atom_site_type_symbol
 _atom_site_label
 _atom_site_symmetry_multiplicity
 _atom_site_fract_x
 _atom_site_fract_y
 _atom_site_fract_z
 _atom_site_occupancy
  O  O0  1  0.16028590  0.08935163  0.25164177  1
  O  O1  1  0.00127930  0.41064837  0.24835823  1
  O  O2  1  0.83971410  0.91064837  0.74835823  1
  O  O3  1  0.99872070  0.58935163  0.75164177  1
  O  O4  1  0.58109465  0.71884426  0.90888876  1
  O  O5  1  0.70882767  0.78115574  0.59111124  1
  O  O6  1  0.41890535  0.28115574  0.09111124  1
  O  O7  1  0.29117233  0.21884426  0.40888876  1
  O  O8  1  0.56088614  0.39827343  0.26499221  1
  O  O9  1  0.72415178  0.10172657  0.23500779  1
  O  O10  1  0.43911386  0.60172657  0.73500779  1
  O  O11  1  0.27584822  0.89827343  0.76499221  1
  O  O12  1  0.00780296  0.08851789  0.57232781  1
  O  O13  1  0.16864866  0.41148211  0.92767219  1
  O  O14  1  0.99219704  0.91148211  0.42767219  1
  O  O15  1  0.83135134  0.58851789  0.07232781  1
  O  O16  1  0.85294401  0.39556142  0.57689029  1
  O  O17  1  0.32539572  0.10443858  0.92310971  1
  O  O18  1  0.14705599  0.60443858  0.42310971  1
  O  O19  1  0.67460428  0.89556142  0.07689029  1
  O  O20  1  0.85758858  0.12534014  0.93751362  1
  O  O21  1  0.42044234  0.37465986  0.56248638  1
  O  O22  1  0.11545405  0.25023084  0.75510966  1
  O  O23  1  0.62079455  0.24976916  0.74489034  1
  O  O24  1  0.88454595  0.74976916  0.24489034  1
  O  O25  1  0.37920545  0.75023084  0.25510966  1
  O  O26  1  0.41904229  0.92169767  0.40616911  1
  O  O27  1  0.24690907  0.57830233  0.09383089  1
  O  O28  1  0.58095771  0.07830233  0.59383089  1
  O  O29  1  0.75309093  0.42169767  0.90616911  1
  O  O30  1  0.96235376  0.28016155  0.08967741  1
  O  O31  1  0.83219272  0.21983845  0.41032259  1
  O  O32  1  0.03764624  0.71983845  0.91032259  1
  O  O33  1  0.16780728  0.78016155  0.58967741  1
  O  O34  1  0.57955766  0.62534014  0.43751362  1
  O  O35  1  0.14241142  0.87465986  0.06248638  1
  Cu  Cu36  1  0.24993200  0.07685656  0.66067214  1
  Cu  Cu37  1  0.48746070  0.42314344  0.83932786  1
  Cu  Cu38  1  0.75006800  0.92314344  0.33932786  1
  Cu  Cu39  1  0.51253930  0.57685656  0.16067214  1
  Cu  Cu40  1  0.28965154  0.40559018  0.41219465  1
  Cu  Cu41  1  0.60743638  0.09440982  0.08780535  1
  Cu  Cu42  1  0.71034846  0.59440982  0.58780535  1
  Cu  Cu43  1  0.39256362  0.90559018  0.91219465  1
  Cu  Cu44  1  0.09135400  0.42443181  0.64944933  1
  Cu  Cu45  1  0.66523514  0.07556819  0.85055067  1
  Cu  Cu46  1  0.33476486  0.92443181  0.14944933  1
  Cu  Cu47  1  0.90864600  0.57556819  0.35055067  1
  Mo  Mo48  1  0.84122843  0.58411796  0.90444769  1
  Mo  Mo49  1  0.82979408  0.91588204  0.59555231  1
  Mo  Mo50  1  0.15877157  0.41588204  0.09555231  1
  Mo  Mo51  1  0.17020592  0.08411796  0.40444769  1
  Mo  Mo52  1  0.04942105  0.23270577  0.90923475  1
  Mo  Mo53  1  0.69136157  0.26729423  0.59076525  1
  Mo  Mo54  1  0.95057895  0.76729423  0.09076525  1
  Mo  Mo55  1  0.30863843  0.73270577  0.40923475  1
  Mo  Mo56  1  0.81848914  0.25000000  0.25000000  1
  Mo  Mo57  1  0.18151086  0.75000000  0.75000000  1
