# generated using pymatgen
data_In2Te3
_symmetry_space_group_name_H-M   'P 1'
_cell_length_a   13.41605459
_cell_length_b   13.41689216
_cell_length_c   13.41625136
_cell_angle_alpha   60.00856753
_cell_angle_beta   60.00024454
_cell_angle_gamma   60.00695460
_symmetry_Int_Tables_number   1
_chemical_formula_structural   In2Te3
_chemical_formula_sum   'In18 Te27'
_cell_volume   1707.83013775
_cell_formula_units_Z   9
loop_
 _symmetry_equiv_pos_site_id
 _symmetry_equiv_pos_as_xyz
  1  'x, y, z'
loop_
 _atom_site_type_symbol
 _atom_site_label
 _atom_site_symmetry_multiplicity
 _atom_site_fract_x
 _atom_site_fract_y
 _atom_site_fract_z
 _atom_site_occupancy
  In  In0  1  0.99657000  0.99656762  0.34498532  1
  In  In1  1  0.66868516  0.33132176  0.66859352  1
  In  In2  1  0.99660231  0.99647240  0.66204668  1
  In  In3  1  0.99645016  0.34498564  0.99645712  1
  In  In4  1  0.34491520  0.99659041  0.66199941  1
  In  In5  1  0.99657641  0.66212711  0.34500743  1
  In  In6  1  0.66204171  0.34497284  0.99648732  1
  In  In7  1  0.33136163  0.66863937  0.33141136  1
  In  In8  1  0.66211551  0.99654357  0.34489252  1
  In  In9  1  0.33127583  0.66865126  0.66873629  1
  In  In10  1  0.33121907  0.33146292  0.66867600  1
  In  In11  1  0.34487203  0.99657546  0.99655271  1
  In  In12  1  0.99636160  0.66208732  0.99663898  1
  In  In13  1  0.99647145  0.34491593  0.66197508  1
  In  In14  1  0.34490210  0.66196709  0.99652163  1
  In  In15  1  0.66864181  0.33134037  0.33140183  1
  In  In16  1  0.66881699  0.66850024  0.33139590  1
  In  In17  1  0.66188466  0.99659959  0.99655852  1
  Te  Te18  1  0.59785327  0.59785061  0.90212329  1
  Te  Te19  1  0.59779822  0.90217837  0.90216487  1
  Te  Te20  1  0.90214314  0.59786825  0.90209437  1
  Te  Te21  1  0.93067137  0.25832532  0.55246582  1
  Te  Te22  1  0.92416350  0.92425734  0.92423393  1
  Te  Te23  1  0.22080028  0.59307449  0.59308986  1
  Te  Te24  1  0.93079840  0.55251951  0.25848252  1
  Te  Te25  1  0.55262479  0.25844195  0.93049758  1
  Te  Te26  1  0.25849056  0.93052979  0.55260542  1
  Te  Te27  1  0.93062764  0.25844608  0.25830454  1
  Te  Te28  1  0.92431507  0.92422297  0.22732707  1
  Te  Te29  1  0.55267256  0.25839174  0.25835208  1
  Te  Te30  1  0.92428664  0.22725198  0.92414180  1
  Te  Te31  1  0.59284326  0.22110360  0.59296565  1
  Te  Te32  1  0.24997975  0.25000482  0.24999490  1
  Te  Te33  1  0.25831106  0.55256385  0.93060853  1
  Te  Te34  1  0.90214911  0.90219652  0.59783905  1
  Te  Te35  1  0.90209322  0.59779211  0.59791276  1
  Te  Te36  1  0.59305428  0.59294500  0.22104488  1
  Te  Te37  1  0.22733681  0.92418692  0.92418456  1
  Te  Te38  1  0.25840233  0.25844468  0.55251791  1
  Te  Te39  1  0.55272050  0.93039968  0.25847087  1
  Te  Te40  1  0.25834864  0.25845516  0.93062189  1
  Te  Te41  1  0.59785772  0.90218525  0.59776961  1
  Te  Te42  1  0.59295627  0.59290531  0.59300307  1
  Te  Te43  1  0.25846697  0.93050321  0.25842610  1
  Te  Te44  1  0.25847101  0.55263459  0.25841942  1
