# generated using pymatgen
data_Ba(H8O5)2
_symmetry_space_group_name_H-M   'P 1'
_cell_length_a   6.46244515
_cell_length_b   6.44083914
_cell_length_c   11.93314646
_cell_angle_alpha   89.39183046
_cell_angle_beta   91.61648407
_cell_angle_gamma   88.37311248
_symmetry_Int_Tables_number   1
_chemical_formula_structural   Ba(H8O5)2
_chemical_formula_sum   'Ba2 H32 O20'
_cell_volume   496.26995895
_cell_formula_units_Z   2
loop_
 _symmetry_equiv_pos_site_id
 _symmetry_equiv_pos_as_xyz
  1  'x, y, z'
loop_
 _atom_site_type_symbol
 _atom_site_label
 _atom_site_symmetry_multiplicity
 _atom_site_fract_x
 _atom_site_fract_y
 _atom_site_fract_z
 _atom_site_occupancy
  Ba  Ba0  1  0.01213809  0.00202537  0.49220074  1
  Ba  Ba1  1  0.99249933  0.98778442  0.99395493  1
  H  H2  1  0.27720975  0.40243762  0.39526921  1
  H  H3  1  0.04131617  0.46151478  0.36587422  1
  H  H4  1  0.78192219  0.72670225  0.29404202  1
  H  H5  1  0.71246108  0.60099296  0.40198856  1
  H  H6  1  0.60776771  0.28835318  0.40180148  1
  H  H7  1  0.71284544  0.19355701  0.29185039  1
  H  H8  1  0.40349038  0.73165700  0.39777850  1
  H  H9  1  0.46708197  0.96290452  0.37115318  1
  H  H10  1  0.80620006  0.28681432  0.79129998  1
  H  H11  1  0.70841140  0.39240981  0.90048352  1
  H  H12  1  0.26663008  0.59719970  0.89465896  1
  H  H13  1  0.03517144  0.53449917  0.87010169  1
  H  H14  1  0.26602454  0.19483617  0.79855533  1
  H  H15  1  0.39350838  0.27574712  0.90450541  1
  H  H16  1  0.59665723  0.71448830  0.89492719  1
  H  H17  1  0.53431555  0.94922541  0.86738253  1
  H  H18  1  0.72911115  0.59805811  0.60818754  1
  H  H19  1  0.88144159  0.68450213  0.70502751  1
  H  H20  1  0.29185031  0.38994489  0.60590440  1
  H  H21  1  0.05736100  0.43441840  0.63192489  1
  H  H22  1  0.38600757  0.92749459  0.68342465  1
  H  H23  1  0.40142258  0.71588431  0.61257386  1
  H  H24  1  0.64408158  0.04795759  0.66356315  1
  H  H25  1  0.62319110  0.28602539  0.61429898  1
  H  H26  1  0.07746184  0.62216858  0.18383618  1
  H  H27  1  0.28260288  0.59773551  0.10991077  1
  H  H28  1  0.94853299  0.36355454  0.16624337  1
  H  H29  1  0.71338115  0.37785652  0.11200820  1
  H  H30  1  0.56700940  0.93970175  0.13535087  1
  H  H31  1  0.60901432  0.70395835  0.10715440  1
  H  H32  1  0.40415094  0.27032046  0.10856809  1
  H  H33  1  0.31956206  0.12714706  0.20728940  1
  O  O34  1  0.51081781  0.49551980  0.44552915  1
  O  O35  1  0.49770545  0.48091012  0.94389848  1
  O  O36  1  0.51478469  0.49421366  0.57088861  1
  O  O37  1  0.50332022  0.48348608  0.06919026  1
  O  O38  1  0.14497026  0.34591483  0.36238159  1
  O  O39  1  0.83823841  0.66741980  0.36536728  1
  O  O40  1  0.66773313  0.15372704  0.36738320  1
  O  O41  1  0.34637042  0.87178010  0.37275193  1
  O  O42  1  0.84406805  0.33447242  0.86736174  1
  O  O43  1  0.12657720  0.65509252  0.86960402  1
  O  O44  1  0.32773208  0.14444415  0.87100851  1
  O  O45  1  0.65155010  0.84737452  0.86373802  1
  O  O46  1  0.87145434  0.65955978  0.62492328  1
  O  O47  1  0.16309632  0.31975812  0.63142498  1
  O  O48  1  0.31545848  0.84593055  0.62730137  1
  O  O49  1  0.72273752  0.17162453  0.64798759  1
  O  O50  1  0.15399792  0.68531314  0.12462799  1
  O  O51  1  0.82857076  0.28062463  0.14639844  1
  O  O52  1  0.68024929  0.83213580  0.13548974  1
  O  O53  1  0.34539926  0.12805613  0.12756371  1
