# generated using pymatgen
data_InH5NOF4
_symmetry_space_group_name_H-M   'P 1'
_cell_length_a   6.85355588
_cell_length_b   6.33989783
_cell_length_c   5.88776780
_cell_angle_alpha   79.37259039
_cell_angle_beta   88.69673191
_cell_angle_gamma   69.39960285
_symmetry_Int_Tables_number   1
_chemical_formula_structural   InH5NOF4
_chemical_formula_sum   'In2 H10 N2 O2 F8'
_cell_volume   235.11541537
_cell_formula_units_Z   2
loop_
 _symmetry_equiv_pos_site_id
 _symmetry_equiv_pos_as_xyz
  1  'x, y, z'
loop_
 _atom_site_type_symbol
 _atom_site_label
 _atom_site_symmetry_multiplicity
 _atom_site_fract_x
 _atom_site_fract_y
 _atom_site_fract_z
 _atom_site_occupancy
  In  In0  1  0.27698753  0.41382887  0.56576885  1
  In  In1  1  0.72301247  0.58617113  0.43423115  1
  H  H2  1  0.43974929  0.13525225  0.24357411  1
  H  H3  1  0.56025071  0.86474775  0.75642589  1
  H  H4  1  0.28285305  0.38321267  0.10572234  1
  H  H5  1  0.71714695  0.61678733  0.89427766  1
  H  H6  1  0.81534412  0.93520409  0.04041895  1
  H  H7  1  0.18465588  0.06479591  0.95958105  1
  H  H8  1  0.02907383  0.81192709  0.87978904  1
  H  H9  1  0.97092617  0.18807291  0.12021096  1
  H  H10  1  0.86673298  0.09548927  0.79175641  1
  H  H11  1  0.13326702  0.90451073  0.20824359  1
  N  N12  1  0.93409210  0.96391581  0.93354460  1
  N  N13  1  0.06590790  0.03608419  0.06645540  1
  O  O14  1  0.30633007  0.26802518  0.25313220  1
  O  O15  1  0.69366993  0.73197482  0.74686780  1
  F  F16  1  0.21527982  0.56753815  0.86210127  1
  F  F17  1  0.78472018  0.43246185  0.13789873  1
  F  F18  1  0.00890527  0.68067774  0.37687690  1
  F  F19  1  0.99109473  0.31932226  0.62312310  1
  F  F20  1  0.36511015  0.07948561  0.78271367  1
  F  F21  1  0.63488985  0.92051439  0.21728633  1
  F  F22  1  0.61693145  0.30985386  0.61536307  1
  F  F23  1  0.38306855  0.69014614  0.38463693  1
