# generated using pymatgen
data_Li4MnCo2O7
_symmetry_space_group_name_H-M   'P 1'
_cell_length_a   3.02064807
_cell_length_b   16.73312656
_cell_length_c   5.05893467
_cell_angle_alpha   89.98824704
_cell_angle_beta   91.56079259
_cell_angle_gamma   87.70020214
_symmetry_Int_Tables_number   1
_chemical_formula_structural   Li4MnCo2O7
_chemical_formula_sum   'Li8 Mn2 Co4 O14'
_cell_volume   255.40231038
_cell_formula_units_Z   2
loop_
 _symmetry_equiv_pos_site_id
 _symmetry_equiv_pos_as_xyz
  1  'x, y, z'
loop_
 _atom_site_type_symbol
 _atom_site_label
 _atom_site_symmetry_multiplicity
 _atom_site_fract_x
 _atom_site_fract_y
 _atom_site_fract_z
 _atom_site_occupancy
  Li  Li0  1  0.92893606  0.14352245  0.35770271  1
  Li  Li1  1  0.35384983  0.28658131  0.21598961  1
  Li  Li2  1  0.77895954  0.42861382  0.07423352  1
  Li  Li3  1  0.21428600  0.57142900  0.92857100  1
  Li  Li4  1  0.64961146  0.71424318  0.78290948  1
  Li  Li5  1  0.07472217  0.85627569  0.64115339  1
  Li  Li6  1  0.49963494  0.99933455  0.49944029  1
  Li  Li7  1  0.71428600  0.57142900  0.42857100  1
  Mn  Mn8  1  0.00804689  0.99838627  0.00095102  1
  Mn  Mn9  1  0.42052411  0.14447073  0.85619198  1
  Co  Co10  1  0.85087776  0.28896072  0.70785660  1
  Co  Co11  1  0.28166293  0.43547071  0.57015070  1
  Co  Co12  1  0.14690807  0.70738629  0.28699230  1
  Co  Co13  1  0.57769424  0.85389628  0.14928640  1
  O  O14  1  0.43418199  0.07196102  0.16100203  1
  O  O15  1  0.85558677  0.21785847  0.01559006  1
  O  O16  1  0.32782268  0.35977425  0.85802825  1
  O  O17  1  0.72829958  0.49469775  0.73923588  1
  O  O18  1  0.17253716  0.65130769  0.57571680  1
  O  O19  1  0.57418291  0.78412914  0.44335643  1
  O  O20  1  0.04381500  0.92689463  0.30384988  1
  O  O21  1  0.38475700  0.21596237  0.55329312  1
  O  O22  1  0.85438809  0.35872786  0.41378657  1
  O  O23  1  0.25603384  0.49154931  0.28142620  1
  O  O24  1  0.70027242  0.64815925  0.11790712  1
  O  O25  1  0.10074832  0.78308275  -0.00088525  1
  O  O26  1  0.57298523  0.92499953  0.84155194  1
  O  O27  1  0.99438901  0.07089598  0.69614097  1
