# generated using pymatgen
data_Al(HO)3
_symmetry_space_group_name_H-M   'P 1'
_cell_length_a   8.86436578
_cell_length_b   5.13598775
_cell_length_c   9.55577990
_cell_angle_alpha   90.92136693
_cell_angle_beta   96.94152395
_cell_angle_gamma   89.31791579
_symmetry_Int_Tables_number   1
_chemical_formula_structural   Al(HO)3
_chemical_formula_sum   'Al8 H24 O24'
_cell_volume   431.78212755
_cell_formula_units_Z   8
loop_
 _symmetry_equiv_pos_site_id
 _symmetry_equiv_pos_as_xyz
  1  'x, y, z'
loop_
 _atom_site_type_symbol
 _atom_site_label
 _atom_site_symmetry_multiplicity
 _atom_site_fract_x
 _atom_site_fract_y
 _atom_site_fract_z
 _atom_site_occupancy
  Al  Al0  1  0.33677728  0.99823346  0.50074917  1
  Al  Al1  1  0.66833638  0.00186143  0.50129123  1
  Al  Al2  1  0.83600900  0.50201450  0.50057983  1
  Al  Al3  1  0.17385161  0.49934114  0.49712892  1
  Al  Al4  1  0.83064095  0.98254121  0.00519217  1
  Al  Al5  1  0.16640558  0.97731360  0.00185957  1
  Al  Al6  1  0.33268262  0.47629730  0.00314498  1
  Al  Al7  1  0.66487379  0.48936282  0.00126720  1
  H  H8  1  0.01110800  0.82592109  0.60563518  1
  H  H9  1  0.97083171  0.36468928  0.29560220  1
  H  H10  1  0.48877730  0.67590540  0.39392270  1
  H  H11  1  0.51437285  0.32776958  0.61375708  1
  H  H12  1  0.12447397  0.15289948  0.66301651  1
  H  H13  1  0.89779342  0.91444393  0.38274056  1
  H  H14  1  0.60195202  0.35185976  0.31319846  1
  H  H15  1  0.37861114  0.66105326  0.70006520  1
  H  H16  1  0.79431343  0.24151133  0.70400705  1
  H  H17  1  0.22280067  0.76275344  0.29439035  1
  H  H18  1  0.27457984  0.28629321  0.29165862  1
  H  H19  1  0.72591633  0.69577951  0.70961628  1
  H  H20  1  0.96040186  0.07363175  0.79654997  1
  H  H21  1  0.03159206  0.86373095  0.21146851  1
  H  H22  1  0.52459958  0.16578395  0.11220459  1
  H  H23  1  0.47507126  0.80626515  0.89937459  1
  H  H24  1  0.60780211  0.13305753  0.80791655  1
  H  H25  1  0.40286812  0.84274345  0.18461579  1
  H  H26  1  0.10248363  0.39395081  0.10950957  1
  H  H27  1  0.89606285  0.57409347  0.88785522  1
  H  H28  1  0.78092627  0.26425988  0.20518401  1
  H  H29  1  0.13100318  0.63396476  0.79991213  1
  H  H30  1  0.30658107  0.16137653  0.80045090  1
  H  H31  1  0.72138966  0.79534158  0.20967068  1
  O  O32  1  0.01972153  0.63689587  0.61002273  1
  O  O33  1  0.98982926  0.36122938  0.39829285  1
  O  O34  1  0.49167155  0.86586278  0.38963871  1
  O  O35  1  0.51751894  0.13704729  0.61349885  1
  O  O36  1  0.20914311  0.20286747  0.61440583  1
  O  O37  1  0.80579064  0.81569885  0.39054751  1
  O  O38  1  0.67980372  0.30673297  0.39146276  1
  O  O39  1  0.33025716  0.69353269  0.60410161  1
  O  O40  1  0.83248470  0.19388086  0.61472495  1
  O  O41  1  0.18012519  0.80229048  0.38341316  1
  O  O42  1  0.30789064  0.30495181  0.39492492  1
  O  O43  1  0.70162933  0.69144629  0.60573670  1
  O  O44  1  0.98577066  0.10659773  0.89709201  1
  O  O45  1  0.01057243  0.85663663  0.10906229  1
  O  O46  1  0.51540259  0.35582332  0.11627947  1
  O  O47  1  0.48344956  0.61612326  0.89264405  1
  O  O48  1  0.67782037  0.17779174  0.89228663  1
  O  O49  1  0.31786620  0.78324510  0.11735041  1
  O  O50  1  0.19721619  0.29345338  0.11263531  1
  O  O51  1  0.80006190  0.66827163  0.89151900  1
  O  O52  1  0.82282028  0.29859904  0.11702968  1
  O  O53  1  0.17269242  0.66226006  0.89867727  1
  O  O54  1  0.31331725  0.15460133  0.90356600  1
  O  O55  1  0.68946887  0.80774048  0.10712349  1
