# generated using pymatgen
data_Gd2O3
_symmetry_space_group_name_H-M   'P 1'
_cell_length_a   3.58113519
_cell_length_b   7.44238990
_cell_length_c   8.82555285
_cell_angle_alpha   100.45719425
_cell_angle_beta   90.00000000
_cell_angle_gamma   103.92138908
_symmetry_Int_Tables_number   1
_chemical_formula_structural   Gd2O3
_chemical_formula_sum   'Gd6 O9'
_cell_volume   224.28409841
_cell_formula_units_Z   3
loop_
 _symmetry_equiv_pos_site_id
 _symmetry_equiv_pos_as_xyz
  1  'x, y, z'
loop_
 _atom_site_type_symbol
 _atom_site_label
 _atom_site_symmetry_multiplicity
 _atom_site_fract_x
 _atom_site_fract_y
 _atom_site_fract_z
 _atom_site_occupancy
  Gd  Gd0  1  0.96910713  0.93821427  0.18593245  1
  Gd  Gd1  1  0.30818252  0.61636503  0.86305007  1
  Gd  Gd2  1  0.69181748  0.38363497  0.13694993  1
  Gd  Gd3  1  0.36523071  0.73046141  0.50881858  1
  Gd  Gd4  1  0.03089287  0.06178573  0.81406755  1
  Gd  Gd5  1  0.63476929  0.26953859  0.49118142  1
  O  O6  1  0.87354475  0.74708949  0.71582820  1
  O  O7  1  0.82466789  0.64933578  0.02977926  1
  O  O8  1  0.47038508  0.94077016  0.34215346  1
  O  O9  1  0.20577969  0.41155938  0.62414354  1
  O  O10  1  0.52961492  0.05922984  0.65784654  1
  O  O11  1  0.12645525  0.25291051  0.28417180  1
  O  O12  1  0.50000000  0.00000000  0.00000000  1
  O  O13  1  0.17533211  0.35066422  0.97022074  1
  O  O14  1  0.79422031  0.58844062  0.37585646  1
