# generated using pymatgen
data_Sr(H8O5)2
_symmetry_space_group_name_H-M   'P 1'
_cell_length_a   6.40791604
_cell_length_b   6.13050050
_cell_length_c   11.55117319
_cell_angle_alpha   90.33978099
_cell_angle_beta   92.06798830
_cell_angle_gamma   89.99870831
_symmetry_Int_Tables_number   1
_chemical_formula_structural   Sr(H8O5)2
_chemical_formula_sum   'Sr2 H32 O20'
_cell_volume   453.46967784
_cell_formula_units_Z   2
loop_
 _symmetry_equiv_pos_site_id
 _symmetry_equiv_pos_as_xyz
  1  'x, y, z'
loop_
 _atom_site_type_symbol
 _atom_site_label
 _atom_site_symmetry_multiplicity
 _atom_site_fract_x
 _atom_site_fract_y
 _atom_site_fract_z
 _atom_site_occupancy
  Sr  Sr0  1  0.00234289  0.00431727  0.49825367  1
  Sr  Sr1  1  0.00107895  0.99524511  0.00143178  1
  H  H2  1  0.03830113  0.45929143  0.37098709  1
  H  H3  1  0.27172116  0.38828742  0.39853819  1
  H  H4  1  0.80899747  0.73008723  0.29214161  1
  H  H5  1  0.71952136  0.61468616  0.40535058  1
  H  H6  1  0.60901962  0.28386122  0.39981963  1
  H  H7  1  0.55304138  0.03940918  0.36876041  1
  H  H8  1  0.25619033  0.78982287  0.29408023  1
  H  H9  1  0.39059739  0.72378118  0.40696315  1
  H  H10  1  0.88139889  0.29408737  0.79054443  1
  H  H11  1  0.73219632  0.39074903  0.88938906  1
  H  H12  1  0.04193436  0.55559494  0.87821394  1
  H  H13  1  0.27998941  0.61389250  0.89359156  1
  H  H14  1  0.40153811  0.03206468  0.93400260  1
  H  H15  1  0.38886147  0.27353181  0.89337780  1
  H  H16  1  0.61246673  0.96497698  0.83334391  1
  H  H17  1  0.61286938  0.72525055  0.89198403  1
  H  H18  1  0.89975030  0.69980597  0.70543516  1
  H  H19  1  0.72947443  0.60266015  0.61023089  1
  H  H20  1  0.04989865  0.44104315  0.62335583  1
  H  H21  1  0.27907314  0.35663394  0.62417325  1
  H  H22  1  0.39224695  0.72271762  0.61605035  1
  H  H23  1  0.30324524  0.90157517  0.70703620  1
  H  H24  1  0.59901942  0.02446400  0.63902785  1
  H  H25  1  0.62598132  0.27181892  0.61320091  1
  H  H26  1  0.05105366  0.56341896  0.13099807  1
  H  H27  1  0.28544576  0.61685628  0.10511975  1
  H  H28  1  0.73053350  0.39446812  0.10833472  1
  H  H29  1  0.88987999  0.30753828  0.21007469  1
  H  H30  1  0.61617957  0.96684014  0.15695664  1
  H  H31  1  0.62346808  0.72439823  0.11038227  1
  H  H32  1  0.31860784  0.11561204  0.20622972  1
  H  H33  1  0.39496761  0.27570423  0.10584309  1
  O  O34  1  0.50672774  0.51257032  0.45011706  1
  O  O35  1  0.50875913  0.49810575  0.93377460  1
  O  O36  1  0.51484994  0.50363659  0.57970676  1
  O  O37  1  0.50876022  0.49914059  0.06387601  1
  O  O38  1  0.13236170  0.33071076  0.37005932  1
  O  O39  1  0.85240640  0.67456863  0.36962351  1
  O  O40  1  0.66950102  0.14406864  0.36785172  1
  O  O41  1  0.31448180  0.85354729  0.36707655  1
  O  O42  1  0.87647935  0.33148668  0.87339930  1
  O  O43  1  0.13957793  0.68100809  0.87374088  1
  O  O44  1  0.32827609  0.12220902  0.87591597  1
  O  O45  1  0.70289541  0.85345466  0.86860995  1
  O  O46  1  0.88056746  0.66471702  0.62278316  1
  O  O47  1  0.13459777  0.30698815  0.63620498  1
  O  O48  1  0.33464828  0.87700004  0.62538483  1
  O  O49  1  0.70797976  0.13748258  0.63854733  1
  O  O50  1  0.15432100  0.68399558  0.13596557  1
  O  O51  1  0.87712667  0.33451267  0.12638589  1
  O  O52  1  0.71439971  0.84750267  0.14348330  1
  O  O53  1  0.33694779  0.12464614  0.12252423  1
