# generated using pymatgen
data_H7NO6
_symmetry_space_group_name_H-M   'P 1'
_cell_length_a   9.57036211
_cell_length_b   15.08709663
_cell_length_c   4.01205627
_cell_angle_alpha   89.99699978
_cell_angle_beta   89.96859463
_cell_angle_gamma   89.98049773
_symmetry_Int_Tables_number   1
_chemical_formula_structural   H7NO6
_chemical_formula_sum   'H28 N4 O24'
_cell_volume   579.29658350
_cell_formula_units_Z   4
loop_
 _symmetry_equiv_pos_site_id
 _symmetry_equiv_pos_as_xyz
  1  'x, y, z'
loop_
 _atom_site_type_symbol
 _atom_site_label
 _atom_site_symmetry_multiplicity
 _atom_site_fract_x
 _atom_site_fract_y
 _atom_site_fract_z
 _atom_site_occupancy
  H  H0  1  0.72268218  0.66555300  0.90079700  1
  H  H1  1  0.80465850  0.60080455  0.15468420  1
  H  H2  1  0.77737351  0.33438953  0.40066288  1
  H  H3  1  0.69535387  0.39913401  0.65469361  1
  H  H4  1  0.30471037  0.89910620  0.84512620  1
  H  H5  1  0.22271049  0.83442214  0.09934942  1
  H  H6  1  0.27754617  0.16568699  0.60034053  1
  H  H7  1  0.19665281  0.10037503  0.34705448  1
  H  H8  1  0.79951004  0.93037557  0.12630158  1
  H  H9  1  0.68716720  0.00554192  0.11958001  1
  H  H10  1  0.70055368  0.06958735  0.62659340  1
  H  H11  1  0.81302328  0.99450218  0.61893452  1
  H  H12  1  0.29950170  0.56960168  0.87352084  1
  H  H13  1  0.18710674  0.49451348  0.88080545  1
  H  H14  1  0.20045770  0.43041007  0.37348298  1
  H  H15  1  0.31281442  0.50553036  0.38073191  1
  H  H16  1  0.54485216  0.80621061  0.52534928  1
  H  H17  1  0.43280034  0.85894941  0.25963482  1
  H  H18  1  0.59975081  0.89473269  0.29136455  1
  H  H19  1  0.95542142  0.19365191  0.02520332  1
  H  H20  1  0.06756356  0.14084488  0.75959622  1
  H  H21  1  0.90043422  0.10527660  0.79104818  1
  H  H22  1  0.04482576  0.69374854  0.47450171  1
  H  H23  1  0.09971867  0.60528616  0.70857454  1
  H  H24  1  0.93272484  0.64105058  0.74039998  1
  H  H25  1  0.45534000  0.30630712  0.97466134  1
  H  H26  1  0.40035889  0.39477527  0.20866145  1
  H  H27  1  0.56735275  0.35900235  0.24044097  1
  N  N28  1  0.97663564  0.83886859  0.33196728  1
  N  N29  1  0.52340600  0.16113921  0.83219873  1
  N  N30  1  0.47668005  0.66107971  0.66799377  1
  N  N31  1  0.02344909  0.33883723  0.16797097  1
  O  O32  1  0.87579902  0.81672981  0.50868793  1
  O  O33  1  0.62426854  0.18319425  0.00869090  1
  O  O34  1  0.37586148  0.68324768  0.49143847  1
  O  O35  1  0.12436253  0.31669618  0.99142267  1
  O  O36  1  0.08377647  0.78690098  0.30415670  1
  O  O37  1  0.41637850  0.21319890  0.80456037  1
  O  O38  1  0.58376721  0.71303940  0.69574087  1
  O  O39  1  0.91638160  0.28685984  0.19574998  1
  O  O40  1  0.97862933  0.91216983  0.17463768  1
  O  O41  1  0.52127238  0.08783464  0.67492998  1
  O  O42  1  0.47869630  0.58776297  0.82519785  1
  O  O43  1  0.02132588  0.41216307  0.32513292  1
  O  O44  1  0.81603530  0.64542886  0.98229576  1
  O  O45  1  0.68400645  0.35457356  0.48211280  1
  O  O46  1  0.31606384  0.85465126  0.01810803  1
  O  O47  1  0.18446827  0.14526179  0.51816685  1
  O  O48  1  0.69920296  0.94231070  0.07208407  1
  O  O49  1  0.80084570  0.05774107  0.57183467  1
  O  O50  1  0.19918691  0.55774958  0.92800035  1
  O  O51  1  0.30074174  0.44229386  0.42797040  1
  O  O52  1  0.51694757  0.86601967  0.42413927  1
  O  O53  1  0.98323442  0.13384576  0.92387683  1
  O  O54  1  0.01692932  0.63395130  0.57578424  1
  O  O55  1  0.48320941  0.36611311  0.07587628  1
