# generated using pymatgen
data_LaTiNbBi2O9
_symmetry_space_group_name_H-M   'P 1'
_cell_length_a   5.46697137
_cell_length_b   5.46544243
_cell_length_c   25.38179968
_cell_angle_alpha   90.00000000
_cell_angle_beta   90.00000000
_cell_angle_gamma   90.00000000
_symmetry_Int_Tables_number   1
_chemical_formula_structural   LaTiNbBi2O9
_chemical_formula_sum   'La4 Ti4 Nb4 Bi8 O36'
_cell_volume   758.39338419
_cell_formula_units_Z   4
loop_
 _symmetry_equiv_pos_site_id
 _symmetry_equiv_pos_as_xyz
  1  'x, y, z'
loop_
 _atom_site_type_symbol
 _atom_site_label
 _atom_site_symmetry_multiplicity
 _atom_site_fract_x
 _atom_site_fract_y
 _atom_site_fract_z
 _atom_site_occupancy
  La  La0  1  0.50000000  0.50000000  0.00000000  1
  La  La1  1  0.00000000  0.50000000  0.50000000  1
  La  La2  1  0.00000000  0.00000000  0.00000000  1
  La  La3  1  0.50000000  0.00000000  0.50000000  1
  Ti  Ti4  1  0.50000000  0.99645994  0.91242114  1
  Ti  Ti5  1  0.50000000  0.50354006  0.41242114  1
  Ti  Ti6  1  0.50000000  0.00354006  0.08757886  1
  Ti  Ti7  1  0.50000000  0.49645994  0.58757886  1
  Nb  Nb8  1  0.00000000  0.00123552  0.41130300  1
  Nb  Nb9  1  0.00000000  0.50123552  0.08869700  1
  Nb  Nb10  1  0.00000000  0.99876448  0.58869700  1
  Nb  Nb11  1  0.00000000  0.49876448  0.91130300  1
  Bi  Bi12  1  0.50000000  0.49823315  0.80018082  1
  Bi  Bi13  1  0.00000000  0.51337639  0.30008256  1
  Bi  Bi14  1  0.00000000  0.48662361  0.69991744  1
  Bi  Bi15  1  0.00000000  0.98662361  0.80008256  1
  Bi  Bi16  1  0.50000000  0.00176685  0.30018082  1
  Bi  Bi17  1  0.50000000  0.50176685  0.19981918  1
  Bi  Bi18  1  0.50000000  0.99823315  0.69981918  1
  Bi  Bi19  1  0.00000000  0.01337639  0.19991744  1
  O  O20  1  0.74653535  0.25095959  0.92519208  1
  O  O21  1  0.25033400  0.24272288  0.75044641  1
  O  O22  1  0.00000000  0.00000000  0.50000000  1
  O  O23  1  0.74966600  0.74272288  0.74955359  1
  O  O24  1  0.25346465  0.74904041  0.07480792  1
  O  O25  1  0.24923820  0.25361351  0.57344297  1
  O  O26  1  0.74653535  0.24904041  0.42519208  1
  O  O27  1  0.25033400  0.74272288  0.74955359  1
  O  O28  1  0.75076180  0.74638649  0.42655703  1
  O  O29  1  0.00000000  0.99556153  0.33679964  1
  O  O30  1  0.00000000  0.50443847  0.83679964  1
  O  O31  1  0.24923820  0.74638649  0.42655703  1
  O  O32  1  0.50000000  0.50000000  0.50000000  1
  O  O33  1  0.75076180  0.24638649  0.07344297  1
  O  O34  1  0.74653535  0.75095959  0.57480792  1
  O  O35  1  0.74966600  0.24272288  0.75044641  1
  O  O36  1  0.50000000  0.98223773  0.84071530  1
  O  O37  1  0.25346465  0.75095959  0.57480792  1
  O  O38  1  0.25346465  0.24904041  0.42519208  1
  O  O39  1  0.50000000  0.51776227  0.34071530  1
  O  O40  1  0.25033400  0.75727712  0.24955359  1
  O  O41  1  0.74966600  0.25727712  0.25044641  1
  O  O42  1  0.75076180  0.75361351  0.92655703  1
  O  O43  1  0.00000000  0.00443847  0.66320036  1
  O  O44  1  0.00000000  0.49556153  0.16320036  1
  O  O45  1  0.50000000  0.00000000  0.00000000  1
  O  O46  1  0.50000000  0.48223773  0.65928470  1
  O  O47  1  0.24923820  0.75361351  0.92655703  1
  O  O48  1  0.50000000  0.01776227  0.15928470  1
  O  O49  1  0.74653535  0.74904041  0.07480792  1
  O  O50  1  0.00000000  0.50000000  0.00000000  1
  O  O51  1  0.24923820  0.24638649  0.07344297  1
  O  O52  1  0.75076180  0.25361351  0.57344297  1
  O  O53  1  0.25346465  0.25095959  0.92519208  1
  O  O54  1  0.25033400  0.25727712  0.25044641  1
  O  O55  1  0.74966600  0.75727712  0.24955359  1
