# generated using pymatgen
data_MnGa
_symmetry_space_group_name_H-M   'P 1'
_cell_length_a   7.85374393
_cell_length_b   7.85718013
_cell_length_c   7.85582481
_cell_angle_alpha   108.77751729
_cell_angle_beta   108.83147385
_cell_angle_gamma   108.90352542
_symmetry_Int_Tables_number   1
_chemical_formula_structural   MnGa
_chemical_formula_sum   'Mn13 Ga13'
_cell_volume   381.67993631
_cell_formula_units_Z   13
loop_
 _symmetry_equiv_pos_site_id
 _symmetry_equiv_pos_as_xyz
  1  'x, y, z'
loop_
 _atom_site_type_symbol
 _atom_site_label
 _atom_site_symmetry_multiplicity
 _atom_site_fract_x
 _atom_site_fract_y
 _atom_site_fract_z
 _atom_site_occupancy
  Mn  Mn0  1  0.18768528  0.18767111  0.83298567  1
  Mn  Mn1  1  0.82332907  0.60382078  0.82331854  1
  Mn  Mn2  1  0.82335409  0.82326006  0.60387972  1
  Mn  Mn3  1  0.81222759  0.16691010  0.81227754  1
  Mn  Mn4  1  0.17666936  0.39630700  0.17669200  1
  Mn  Mn5  1  0.17683229  0.17680242  0.39617332  1
  Mn  Mn6  1  0.83318774  0.18770647  0.18778719  1
  Mn  Mn7  1  0.16695177  0.81227115  0.81214955  1
  Mn  Mn8  1  0.18763338  0.83315444  0.18774692  1
  Mn  Mn9  1  0.81228835  0.81229046  0.16685693  1
  Mn  Mn10  1  0.60378031  0.82314931  0.82340248  1
  Mn  Mn11  1  0.39603777  0.17675822  0.17666136  1
  Mn  Mn12  1  0.50012816  0.50007435  0.50000205  1
  Ga  Ga13  1  0.54031608  0.19175980  0.54033108  1
  Ga  Ga14  1  0.12105998  0.87900069  0.49997228  1
  Ga  Ga15  1  0.12108013  0.50006918  0.87909615  1
  Ga  Ga16  1  0.87889418  0.12097486  0.49999075  1
  Ga  Ga17  1  0.54033996  0.54039885  0.19180422  1
  Ga  Ga18  1  0.45963392  0.80821473  0.45965877  1
  Ga  Ga19  1  0.49993019  0.87886246  0.12099830  1
  Ga  Ga20  1  0.19172291  0.54032920  0.54023049  1
  Ga  Ga21  1  0.50006242  0.12093917  0.87902678  1
  Ga  Ga22  1  0.45961754  0.45969020  0.80827757  1
  Ga  Ga23  1  0.80830130  0.45965617  0.45972369  1
  Ga  Ga24  1  0.99998748  0.00003478  0.99995114  1
  Ga  Ga25  1  0.87894875  0.49989401  0.12100552  1
