# generated using pymatgen
data_Ti9S10
_symmetry_space_group_name_H-M   'P 1'
_cell_length_a   9.11860041
_cell_length_b   45.59533608
_cell_length_c   35.83040113
_cell_angle_alpha   10.79042091
_cell_angle_beta   18.80541802
_cell_angle_gamma   21.58428515
_symmetry_Int_Tables_number   1
_chemical_formula_structural   Ti9S10
_chemical_formula_sum   'Ti27 S30'
_cell_volume   899.04297814
_cell_formula_units_Z   3
loop_
 _symmetry_equiv_pos_site_id
 _symmetry_equiv_pos_as_xyz
  1  'x, y, z'
loop_
 _atom_site_type_symbol
 _atom_site_label
 _atom_site_symmetry_multiplicity
 _atom_site_fract_x
 _atom_site_fract_y
 _atom_site_fract_z
 _atom_site_occupancy
  Ti  Ti0  1  0.00648075  0.99931470  0.99996742  1
  Ti  Ti1  1  0.09082972  0.00077496  0.06561079  1
  Ti  Ti2  1  0.99244435  0.20077362  0.00078851  1
  Ti  Ti3  1  0.11702668  0.19934851  0.05917236  1
  Ti  Ti4  1  0.00589510  0.39817338  0.00136389  1
  Ti  Ti5  1  0.99658200  0.00185676  0.49709241  1
  Ti  Ti6  1  0.13173303  0.39177601  0.06680018  1
  Ti  Ti7  1  0.11554078  0.99671910  0.56254438  1
  Ti  Ti8  1  0.00433472  0.19858318  0.50198320  1
  Ti  Ti9  1  0.99384465  0.60012448  0.00141887  1
  Ti  Ti10  1  0.13603414  0.60840694  0.04472067  1
  Ti  Ti11  1  0.88411712  0.20179108  0.43940436  1
  Ti  Ti12  1  0.00177682  0.40272610  0.49701603  1
  Ti  Ti13  1  0.99894439  0.79888352  0.00194901  1
  Ti  Ti14  1  0.11701122  0.80068247  0.05827085  1
  Ti  Ti15  1  0.11882682  0.39923008  0.55996203  1
  Ti  Ti16  1  0.86406290  0.99195716  0.95555098  1
  Ti  Ti17  1  0.88257796  0.39870532  0.44332670  1
  Ti  Ti18  1  0.00546351  0.59975506  0.50061383  1
  Ti  Ti19  1  0.89252985  0.20753048  0.92751803  1
  Ti  Ti20  1  0.88711670  0.60227562  0.43815165  1
  Ti  Ti21  1  0.11771470  0.80297086  0.55452714  1
  Ti  Ti22  1  0.88037224  0.79872273  0.44384558  1
  Ti  Ti23  1  0.88598893  0.39955299  0.94160396  1
  Ti  Ti24  1  0.00127101  0.79990966  0.49970449  1
  Ti  Ti25  1  0.89152349  0.59205087  0.94706953  1
  Ti  Ti26  1  0.86757577  0.80817264  0.93363832  1
  S  S27  1  0.46539034  0.00214714  0.25926612  1
  S  S28  1  0.27907794  0.20105863  0.13571137  1
  S  S29  1  0.71993917  0.00038579  0.36165390  1
  S  S30  1  0.52421859  0.18659105  0.26351074  1
  S  S31  1  0.27531221  0.40140915  0.13686839  1
  S  S32  1  0.72976284  0.19875333  0.36184556  1
  S  S33  1  0.47835512  0.38840237  0.26701298  1
  S  S34  1  0.27778680  0.19972875  0.63896900  1
  S  S35  1  0.27664847  0.59882104  0.13932862  1
  S  S36  1  0.72426802  0.40064786  0.36096790  1
  S  S37  1  0.72379296  0.99994090  0.86215492  1
  S  S38  1  0.53557264  0.19808681  0.74094796  1
  S  S39  1  0.50585086  0.60092250  0.24755610  1
  S  S40  1  0.27377148  0.39998874  0.63880428  1
  S  S41  1  0.27441323  0.80077625  0.13780409  1
  S  S42  1  0.71968680  0.19812690  0.86511853  1
  S  S43  1  0.72469287  0.60035775  0.36147536  1
  S  S44  1  0.47807423  0.41244620  0.73739892  1
  S  S45  1  0.47102530  0.78816643  0.26933146  1
  S  S46  1  0.28123091  0.59960832  0.63820604  1
  S  S47  1  0.27989335  0.00115290  0.13560969  1
  S  S48  1  0.72369874  0.39881925  0.86367755  1
  S  S49  1  0.72297936  0.80081540  0.36143806  1
  S  S50  1  0.53211476  0.59834202  0.74123070  1
  S  S51  1  0.27740910  0.79808433  0.64005524  1
  S  S52  1  0.72251978  0.60098278  0.86095587  1
  S  S53  1  0.52809677  0.81131581  0.73215287  1
  S  S54  1  0.26919832  0.00041659  0.63961670  1
  S  S55  1  0.72751032  0.79960268  0.86116410  1
  S  S56  1  0.47258936  0.01333407  0.73780183  1
