# generated using pymatgen
data_In4(SnO4)3
_symmetry_space_group_name_H-M   'P 1'
_cell_length_a   6.33863223
_cell_length_b   6.30976151
_cell_length_c   12.62128088
_cell_angle_alpha   99.37345427
_cell_angle_beta   99.44980337
_cell_angle_gamma   99.26330257
_symmetry_Int_Tables_number   1
_chemical_formula_structural   In4(SnO4)3
_chemical_formula_sum   'In8 Sn6 O24'
_cell_volume   482.06830174
_cell_formula_units_Z   2
loop_
 _symmetry_equiv_pos_site_id
 _symmetry_equiv_pos_as_xyz
  1  'x, y, z'
loop_
 _atom_site_type_symbol
 _atom_site_label
 _atom_site_symmetry_multiplicity
 _atom_site_fract_x
 _atom_site_fract_y
 _atom_site_fract_z
 _atom_site_occupancy
  In  In0  1  0.13618982  0.60295701  0.15352322  1
  In  In1  1  0.39844371  0.69060468  0.93346356  1
  In  In2  1  0.31209255  0.14017588  0.80240519  1
  In  In3  1  0.39495231  0.68670040  0.43070134  1
  In  In4  1  0.60382148  0.30938198  0.56684018  1
  In  In5  1  0.68929497  0.86211163  0.19825669  1
  In  In6  1  0.86579035  0.39762439  0.84665812  1
  In  In7  1  0.86517022  0.39673373  0.34342549  1
  Sn  Sn8  1  0.13562892  0.60378781  0.65512893  1
  Sn  Sn9  1  0.00056358  0.99810118  0.49930903  1
  Sn  Sn10  1  0.99910407  0.99899015  0.00102662  1
  Sn  Sn11  1  0.31479507  0.13834743  0.30116459  1
  Sn  Sn12  1  0.68382036  0.86703511  0.69958335  1
  Sn  Sn13  1  0.60159813  0.31408034  0.06819602  1
  O  O14  1  0.06220181  0.68795457  0.95757867  1
  O  O15  1  0.09777513  0.93217637  0.65651050  1
  O  O16  1  0.05728963  0.68274534  0.45789457  1
  O  O17  1  0.17415587  0.42479200  0.78384459  1
  O  O18  1  0.09664623  0.95169105  0.16109085  1
  O  O19  1  0.31526711  0.09948484  0.97378731  1
  O  O20  1  0.18305083  0.41205698  0.29028019  1
  O  O21  1  0.42434698  0.82001941  0.78777474  1
  O  O22  1  0.41721158  0.58949546  0.59376321  1
  O  O23  1  0.30937618  0.09347476  0.46594155  1
  O  O24  1  0.41714407  0.83410470  0.29211537  1
  O  O25  1  0.58009366  0.41400248  0.91357751  1
  O  O26  1  0.42153616  0.57008266  0.09013287  1
  O  O27  1  0.58758898  0.17483662  0.70903169  1
  O  O28  1  0.68977976  0.90600090  0.53562254  1
  O  O29  1  0.57565675  0.40643706  0.40831126  1
  O  O30  1  0.56755256  0.17980731  0.20474198  1
  O  O31  1  0.82392662  0.59455454  0.70655284  1
  O  O32  1  0.68563391  0.91446916  0.03005143  1
  O  O33  1  0.90792986  0.04954649  0.83917096  1
  O  O34  1  0.81920338  0.57120844  0.20354352  1
  O  O35  1  0.95176258  0.31722448  0.55199104  1
  O  O36  1  0.90494641  0.05770297  0.34419538  1
  O  O37  1  0.92865842  0.30949969  0.04281312  1
