# generated using pymatgen
data_TeWCl9
_symmetry_space_group_name_H-M   'P 1'
_cell_length_a   6.57834666
_cell_length_b   9.52103321
_cell_length_c   11.56403585
_cell_angle_alpha   72.90927028
_cell_angle_beta   74.14105564
_cell_angle_gamma   88.85262495
_symmetry_Int_Tables_number   1
_chemical_formula_structural   TeWCl9
_chemical_formula_sum   'Te2 W2 Cl18'
_cell_volume   664.51837496
_cell_formula_units_Z   2
loop_
 _symmetry_equiv_pos_site_id
 _symmetry_equiv_pos_as_xyz
  1  'x, y, z'
loop_
 _atom_site_type_symbol
 _atom_site_label
 _atom_site_symmetry_multiplicity
 _atom_site_fract_x
 _atom_site_fract_y
 _atom_site_fract_z
 _atom_site_occupancy
  Te  Te0  1  0.12828130  0.66470104  0.16511149  1
  Te  Te1  1  0.87171870  0.33529896  0.83488851  1
  W  W2  1  0.56778989  0.26235318  0.29141135  1
  W  W3  1  0.43221011  0.73764682  0.70858865  1
  Cl  Cl4  1  0.90874138  0.39347508  0.17240930  1
  Cl  Cl5  1  0.56942291  0.49995058  0.70390952  1
  Cl  Cl6  1  0.65140838  0.24723243  0.47386456  1
  Cl  Cl7  1  0.23633862  0.15084423  0.39122305  1
  Cl  Cl8  1  0.09113937  0.36508429  0.63181008  1
  Cl  Cl9  1  0.90886063  0.63491571  0.36818992  1
  Cl  Cl10  1  0.50096557  0.30495074  0.09125755  1
  Cl  Cl11  1  0.43057709  0.50004942  0.29609048  1
  Cl  Cl12  1  0.89203983  0.80045315  0.06346240  1
  Cl  Cl13  1  0.68907081  0.12366267  0.83688796  1
  Cl  Cl14  1  0.10796017  0.19954685  0.93653760  1
  Cl  Cl15  1  0.71411047  0.04631213  0.27933209  1
  Cl  Cl16  1  0.49903443  0.69504926  0.90874245  1
  Cl  Cl17  1  0.31092919  0.87633733  0.16311204  1
  Cl  Cl18  1  0.09125862  0.60652492  0.82759070  1
  Cl  Cl19  1  0.28588953  0.95368787  0.72066791  1
  Cl  Cl20  1  0.34859162  0.75276757  0.52613544  1
  Cl  Cl21  1  0.76366138  0.84915577  0.60877695  1
