# generated using pymatgen
data_LiSn4(PO4)3
_symmetry_space_group_name_H-M   'P 1'
_cell_length_a   9.69479843
_cell_length_b   9.69492776
_cell_length_c   7.10562694
_cell_angle_alpha   90.00099491
_cell_angle_beta   89.99876550
_cell_angle_gamma   120.00039851
_symmetry_Int_Tables_number   1
_chemical_formula_structural   LiSn4(PO4)3
_chemical_formula_sum   'Li2 Sn8 P6 O24'
_cell_volume   578.38184390
_cell_formula_units_Z   2
loop_
 _symmetry_equiv_pos_site_id
 _symmetry_equiv_pos_as_xyz
  1  'x, y, z'
loop_
 _atom_site_type_symbol
 _atom_site_label
 _atom_site_symmetry_multiplicity
 _atom_site_fract_x
 _atom_site_fract_y
 _atom_site_fract_z
 _atom_site_occupancy
  Li  Li0  1  0.66671691  0.33328957  0.53692730  1
  Li  Li1  1  0.33341766  0.66671192  0.03692650  1
  Sn  Sn2  1  0.25915113  0.24165968  0.24680255  1
  Sn  Sn3  1  0.74084920  0.75832779  0.74677509  1
  Sn  Sn4  1  0.33333845  0.66666270  0.47087856  1
  Sn  Sn5  1  0.01749761  0.25915795  0.74681298  1
  Sn  Sn6  1  0.66665386  0.33334875  0.97088676  1
  Sn  Sn7  1  0.24165670  0.98249973  0.74678556  1
  Sn  Sn8  1  0.98252747  0.74084944  0.24678028  1
  Sn  Sn9  1  0.75834229  0.01750620  0.24679686  1
  P  P10  1  0.38542997  0.40243173  0.75098538  1
  P  P11  1  0.98299793  0.38542908  0.25099275  1
  P  P12  1  0.61455227  0.59756556  0.25097767  1
  P  P13  1  0.59756274  0.98299524  0.75098035  1
  P  P14  1  0.01701046  0.61456971  0.75098513  1
  P  P15  1  0.40243286  0.01699891  0.25098336  1
  O  O16  1  0.50774884  0.67385875  0.23644219  1
  O  O17  1  0.34404400  0.07182011  0.42471766  1
  O  O18  1  0.27157383  0.35742285  0.57681938  1
  O  O19  1  0.65593243  0.92816851  0.92471351  1
  O  O20  1  0.72844061  0.64257624  0.07681150  1
  O  O21  1  0.50986090  0.41140986  0.26161917  1
  O  O22  1  0.92815081  0.27222004  0.42470806  1
  O  O23  1  0.08585690  0.72843674  0.57682170  1
  O  O24  1  0.91415845  0.27157223  0.07682001  1
  O  O25  1  0.16612702  0.49225032  0.23646942  1
  O  O26  1  0.32614605  0.83388536  0.23644294  1
  O  O27  1  0.58859029  0.09847269  0.26164733  1
  O  O28  1  0.90155114  0.49013712  0.26164261  1
  O  O29  1  0.07182886  0.72777301  0.92471071  1
  O  O30  1  0.72777087  0.65594812  0.42471152  1
  O  O31  1  0.83387248  0.50774699  0.73644705  1
  O  O32  1  0.35741143  0.08584835  0.07682779  1
  O  O33  1  0.49013392  0.58858990  0.76164632  1
  O  O34  1  0.67385845  0.16611757  0.73645124  1
  O  O35  1  0.09845107  0.50986636  0.76162740  1
  O  O36  1  0.49225400  0.32613512  0.73646684  1
  O  O37  1  0.64258642  0.91414869  0.57681980  1
  O  O38  1  0.41140111  0.90153596  0.76163053  1
  O  O39  1  0.27221261  0.34405416  0.92470824  1
