# generated using pymatgen
data_Li4MnCo2O7
_symmetry_space_group_name_H-M   'P 1'
_cell_length_a   3.02615254
_cell_length_b   17.12644319
_cell_length_c   5.12124271
_cell_angle_alpha   94.37447023
_cell_angle_beta   75.66046765
_cell_angle_gamma   91.49514982
_symmetry_Int_Tables_number   1
_chemical_formula_structural   Li4MnCo2O7
_chemical_formula_sum   'Li8 Mn2 Co4 O14'
_cell_volume   256.39444153
_cell_formula_units_Z   2
loop_
 _symmetry_equiv_pos_site_id
 _symmetry_equiv_pos_as_xyz
  1  'x, y, z'
loop_
 _atom_site_type_symbol
 _atom_site_label
 _atom_site_symmetry_multiplicity
 _atom_site_fract_x
 _atom_site_fract_y
 _atom_site_fract_z
 _atom_site_occupancy
  Li  Li0  1  0.71556982  0.07269047  0.57103374  1
  Li  Li1  1  0.13771314  0.21541236  0.71187936  1
  Li  Li2  1  0.57126946  0.35657140  0.85036454  1
  Li  Li3  1  0.00015954  0.50057160  0.00677846  1
  Li  Li4  1  0.43371486  0.64173064  0.14526364  1
  Li  Li5  1  0.85585918  0.78445253  0.28610926  1
  Li  Li6  1  0.28571400  0.92857100  0.42857100  1
  Li  Li7  1  0.28571400  0.42857100  0.42857100  1
  Mn  Mn8  1  0.99206638  0.00182446  0.00098783  1
  Mn  Mn9  1  0.57936262  0.85531854  0.85615517  1
  Co  Co10  1  0.42302733  0.14685605  0.14307827  1
  Co  Co11  1  0.85433497  0.29227367  0.29264371  1
  Co  Co12  1  0.71709403  0.56486933  0.56449929  1
  Co  Co13  1  0.14840067  0.71028695  0.71406473  1
  O  O14  1  0.32447067  0.04192790  0.27331900  1
  O  O15  1  0.80603623  0.18653487  0.40486476  1
  O  O16  1  0.20429347  0.31909470  0.54513004  1
  O  O17  1  0.64235014  0.47525200  0.70992277  1
  O  O18  1  0.04918402  0.60844352  0.83536466  1
  O  O19  1  0.52064694  0.75036565  0.98314881  1
  O  O20  1  0.90451005  0.89595671  0.12966576  1
  O  O21  1  0.05078106  0.10677735  0.87399419  1
  O  O22  1  0.52224498  0.24869948  0.02177834  1
  O  O23  1  0.92907786  0.38189000  0.14721923  1
  O  O24  1  0.36713553  0.53804830  0.31201296  1
  O  O25  1  0.76539177  0.67060813  0.45227824  1
  O  O26  1  0.24695833  0.81521510  0.58382400  1
  O  O27  1  0.66691895  0.96118629  0.72747724  1
