# generated using pymatgen
data_Bi(PO3)4
_symmetry_space_group_name_H-M   'P 1'
_cell_length_a   10.58704972
_cell_length_b   9.01106044
_cell_length_c   10.50262823
_cell_angle_alpha   90.00000000
_cell_angle_beta   104.10257122
_cell_angle_gamma   90.00000000
_symmetry_Int_Tables_number   1
_chemical_formula_structural   Bi(PO3)4
_chemical_formula_sum   'Bi4 P16 O48'
_cell_volume   971.75857268
_cell_formula_units_Z   4
loop_
 _symmetry_equiv_pos_site_id
 _symmetry_equiv_pos_as_xyz
  1  'x, y, z'
loop_
 _atom_site_type_symbol
 _atom_site_label
 _atom_site_symmetry_multiplicity
 _atom_site_fract_x
 _atom_site_fract_y
 _atom_site_fract_z
 _atom_site_occupancy
  Bi  Bi0  1  0.99912612  0.26460746  0.81034687  1
  Bi  Bi1  1  0.49912612  0.23539254  0.31034687  1
  Bi  Bi2  1  0.00087388  0.73539254  0.18965313  1
  Bi  Bi3  1  0.50087388  0.76460746  0.68965313  1
  P  P4  1  0.23984402  0.51010974  0.74728923  1
  P  P5  1  0.31555788  0.39689144  0.01376743  1
  P  P6  1  0.68444212  0.60310856  0.98623257  1
  P  P7  1  0.81555788  0.10310856  0.51376743  1
  P  P8  1  0.76015598  0.48989026  0.25271077  1
  P  P9  1  0.34678136  0.60147978  0.23866554  1
  P  P10  1  0.65321864  0.39852022  0.76133446  1
  P  P11  1  0.84678136  0.89852022  0.73866554  1
  P  P12  1  0.15321864  0.10147978  0.26133446  1
  P  P13  1  0.03465473  0.66160917  0.85111483  1
  P  P14  1  0.73984402  0.98989026  0.24728923  1
  P  P15  1  0.96534527  0.33839083  0.14888517  1
  P  P16  1  0.46534527  0.16160917  0.64888517  1
  P  P17  1  0.18444212  0.89689144  0.48623257  1
  P  P18  1  0.26015598  0.01010974  0.75271077  1
  P  P19  1  0.53465473  0.83839083  0.35111483  1
  O  O20  1  0.85679935  0.61038389  0.30838325  1
  O  O21  1  0.64320065  0.11038389  0.19161675  1
  O  O22  1  0.60873099  0.52940143  0.67229821  1
  O  O23  1  0.89126901  0.02940143  0.82770179  1
  O  O24  1  0.17700957  0.34352410  0.98789914  1
  O  O25  1  0.66713478  0.85580480  0.30362037  1
  O  O26  1  0.14320065  0.38961611  0.69161675  1
  O  O27  1  0.35679935  0.88961611  0.80838325  1
  O  O28  1  0.17502492  0.05517503  0.41202611  1
  O  O29  1  0.93097720  0.27082457  0.01390237  1
  O  O30  1  0.32067945  0.57660502  0.66313595  1
  O  O31  1  0.45653800  0.98016952  0.32613223  1
  O  O32  1  0.03655104  0.21779822  0.25500506  1
  O  O33  1  0.33286522  0.14419520  0.69637963  1
  O  O34  1  0.65590349  0.54906656  0.12230640  1
  O  O35  1  0.57385165  0.70145298  0.91840279  1
  O  O36  1  0.43097720  0.22917543  0.51390237  1
  O  O37  1  0.10873099  0.97059857  0.17229821  1
  O  O38  1  0.54346200  0.01983048  0.67386777  1
  O  O39  1  0.34409651  0.45093344  0.87769360  1
  O  O40  1  0.73148913  0.81340837  0.76013685  1
  O  O41  1  0.96344896  0.78220178  0.74499494  1
  O  O42  1  0.32299043  0.84352410  0.51210086  1
  O  O43  1  0.04346200  0.48016952  0.17386777  1
  O  O44  1  0.67700957  0.15647590  0.48789914  1
  O  O45  1  0.17932055  0.07660502  0.83686405  1
  O  O46  1  0.32497508  0.55517503  0.08797389  1
  O  O47  1  0.15590349  0.95093344  0.62230640  1
  O  O48  1  0.82067945  0.92339498  0.16313595  1
  O  O49  1  0.39126901  0.47059857  0.32770179  1
  O  O50  1  0.76851087  0.31340837  0.73986315  1
  O  O51  1  0.07385165  0.79854702  0.41840279  1
  O  O52  1  0.92614835  0.20145298  0.58159721  1
  O  O53  1  0.82497508  0.94482497  0.58797389  1
  O  O54  1  0.67932055  0.42339498  0.33686405  1
  O  O55  1  0.53655104  0.28220178  0.75500506  1
  O  O56  1  0.16713478  0.64419520  0.80362037  1
  O  O57  1  0.42614835  0.29854702  0.08159721  1
  O  O58  1  0.83286522  0.35580480  0.19637963  1
  O  O59  1  0.95653800  0.51983048  0.82613223  1
  O  O60  1  0.26851087  0.18659163  0.23986315  1
  O  O61  1  0.06902280  0.72917543  0.98609763  1
  O  O62  1  0.67502492  0.44482497  0.91202611  1
  O  O63  1  0.84409651  0.04906656  0.37769360  1
  O  O64  1  0.82299043  0.65647590  0.01210086  1
  O  O65  1  0.23148913  0.68659163  0.26013685  1
  O  O66  1  0.56902280  0.77082457  0.48609763  1
  O  O67  1  0.46344896  0.71779822  0.24499494  1
