# generated using pymatgen
data_Sb(PO3)4
_symmetry_space_group_name_H-M   'P 1'
_cell_length_a   13.14319398
_cell_length_b   8.35696782
_cell_length_c   9.67042119
_cell_angle_alpha   90.00000000
_cell_angle_beta   90.00000000
_cell_angle_gamma   90.00000000
_symmetry_Int_Tables_number   1
_chemical_formula_structural   Sb(PO3)4
_chemical_formula_sum   'Sb4 P16 O48'
_cell_volume   1062.17246156
_cell_formula_units_Z   4
loop_
 _symmetry_equiv_pos_site_id
 _symmetry_equiv_pos_as_xyz
  1  'x, y, z'
loop_
 _atom_site_type_symbol
 _atom_site_label
 _atom_site_symmetry_multiplicity
 _atom_site_fract_x
 _atom_site_fract_y
 _atom_site_fract_z
 _atom_site_occupancy
  Sb  Sb0  1  0.00000000  0.64001034  0.25000000  1
  Sb  Sb1  1  0.50000000  0.85998966  0.75000000  1
  Sb  Sb2  1  0.00000000  0.35998966  0.75000000  1
  Sb  Sb3  1  0.50000000  0.14001034  0.25000000  1
  P  P4  1  0.13756717  0.82632435  0.00252588  1
  P  P5  1  0.15634101  0.53466247  0.51158624  1
  P  P6  1  0.34365899  0.96533753  0.01158624  1
  P  P7  1  0.65634101  0.96533753  0.48841376  1
  P  P8  1  0.63756717  0.67367565  0.99747412  1
  P  P9  1  0.13756717  0.17367565  0.50252588  1
  P  P10  1  0.63756717  0.32632435  0.49747412  1
  P  P11  1  0.15634101  0.46533753  0.01158624  1
  P  P12  1  0.36243283  0.67367565  0.50252588  1
  P  P13  1  0.86243283  0.82632435  0.49747412  1
  P  P14  1  0.84365899  0.53466247  0.98841376  1
  P  P15  1  0.86243283  0.17367565  0.99747412  1
  P  P16  1  0.36243283  0.32632435  0.00252588  1
  P  P17  1  0.84365899  0.46533753  0.48841376  1
  P  P18  1  0.34365899  0.03466247  0.51158624  1
  P  P19  1  0.65634101  0.03466247  0.98841376  1
  O  O20  1  0.43599973  0.31553158  0.12591027  1
  O  O21  1  0.39304178  0.40896981  0.87575567  1
  O  O22  1  0.67890397  0.14540482  0.52876196  1
  O  O23  1  0.07482895  0.54654630  0.62294640  1
  O  O24  1  0.82109603  0.64540482  0.52876196  1
  O  O25  1  0.56400027  0.31553158  0.37408973  1
  O  O26  1  0.42517105  0.95345370  0.12294640  1
  O  O27  1  0.39304178  0.59103019  0.37575567  1
  O  O28  1  0.13311920  0.62911283  0.38019756  1
  O  O29  1  0.92517105  0.45345370  0.37705360  1
  O  O30  1  0.92517105  0.54654630  0.87705360  1
  O  O31  1  0.75988165  0.09868465  0.92571720  1
  O  O32  1  0.74011835  0.40131535  0.42571720  1
  O  O33  1  0.32109603  0.14540482  0.97123804  1
  O  O34  1  0.93599973  0.18446742  0.87408973  1
  O  O35  1  0.75988165  0.90131535  0.42571720  1
  O  O36  1  0.10695822  0.90896981  0.87575567  1
  O  O37  1  0.10695822  0.09103019  0.37575567  1
  O  O38  1  0.25988165  0.40131535  0.07428280  1
  O  O39  1  0.93599973  0.81553258  0.37408973  1
  O  O40  1  0.60695822  0.59103019  0.12424433  1
  O  O41  1  0.86688080  0.62911283  0.11980244  1
  O  O42  1  0.36688080  0.87088717  0.88019756  1
  O  O43  1  0.17890397  0.64540482  0.97123804  1
  O  O44  1  0.25988165  0.59868465  0.57428280  1
  O  O45  1  0.82109603  0.35459518  0.02876196  1
  O  O46  1  0.42517105  0.04654630  0.62294640  1
  O  O47  1  0.13311920  0.37088717  0.88019756  1
  O  O48  1  0.60695822  0.40896981  0.62424433  1
  O  O49  1  0.57482895  0.95345370  0.37705360  1
  O  O50  1  0.67890397  0.85459518  0.02876196  1
  O  O51  1  0.74011835  0.59868465  0.92571720  1
  O  O52  1  0.56400027  0.68446742  0.87408973  1
  O  O53  1  0.89304178  0.09103019  0.12424433  1
  O  O54  1  0.57482895  0.04654630  0.87705360  1
  O  O55  1  0.06400027  0.81553258  0.12591027  1
  O  O56  1  0.63311920  0.12911283  0.11980244  1
  O  O57  1  0.07482895  0.45345370  0.12294640  1
  O  O58  1  0.24011835  0.09868465  0.57428280  1
  O  O59  1  0.32109603  0.85459518  0.47123804  1
  O  O60  1  0.06400027  0.18446742  0.62591027  1
  O  O61  1  0.63311920  0.87088717  0.61980244  1
  O  O62  1  0.17890397  0.35459518  0.47123804  1
  O  O63  1  0.24011835  0.90131535  0.07428280  1
  O  O64  1  0.89304178  0.90896981  0.62424433  1
  O  O65  1  0.36688080  0.12911283  0.38019756  1
  O  O66  1  0.43599973  0.68446742  0.62591027  1
  O  O67  1  0.86688080  0.37088717  0.61980244  1
