# generated using pymatgen
data_Li4Sn(PO3)6
_symmetry_space_group_name_H-M   'P 1'
_cell_length_a   7.30371730
_cell_length_b   7.49377233
_cell_length_c   7.58588196
_cell_angle_alpha   66.23029613
_cell_angle_beta   104.85416621
_cell_angle_gamma   82.05364716
_symmetry_Int_Tables_number   1
_chemical_formula_structural   Li4Sn(PO3)6
_chemical_formula_sum   'Li4 Sn1 P6 O18'
_cell_volume   353.31471824
_cell_formula_units_Z   1
loop_
 _symmetry_equiv_pos_site_id
 _symmetry_equiv_pos_as_xyz
  1  'x, y, z'
loop_
 _atom_site_type_symbol
 _atom_site_label
 _atom_site_symmetry_multiplicity
 _atom_site_fract_x
 _atom_site_fract_y
 _atom_site_fract_z
 _atom_site_occupancy
  Li  Li0  1  0.49843472  0.50232754  0.01167938  1
  Li  Li1  1  0.85290795  0.36271485  0.40961203  1
  Li  Li2  1  0.14289174  0.63047867  0.55654783  1
  Li  Li3  1  0.85286880  0.72381553  0.11895759  1
  Sn  Sn4  1  0.07918023  0.19956571  0.94612766  1
  P  P5  1  0.24238534  0.35021721  0.32850236  1
  P  P6  1  0.76909708  0.01174321  0.31204129  1
  P  P7  1  0.49465940  0.22838919  0.74228217  1
  P  P8  1  0.23881050  0.98884344  0.66294995  1
  P  P9  1  0.77067637  0.67526917  0.67336025  1
  P  P10  1  0.50601462  0.76834399  0.27108626  1
  O  O11  1  0.44434522  0.01154212  0.78586668  1
  O  O12  1  0.71054227  0.18981165  0.83844286  1
  O  O13  1  0.34796011  0.34929668  0.78997329  1
  O  O14  1  0.27716768  0.39729985  0.13139943  1
  O  O15  1  0.07055869  0.48021292  0.33752193  1
  O  O16  1  0.93344472  0.52729027  0.66758254  1
  O  O17  1  0.55754815  0.98574870  0.20684659  1
  O  O18  1  0.28889632  0.81305192  0.17642504  1
  O  O19  1  0.06799618  0.10874328  0.68773748  1
  O  O20  1  0.22692887  0.11525234  0.42622969  1
  O  O21  1  0.74448925  0.23320366  0.24745629  1
  O  O22  1  0.44444656  0.33008121  0.49469032  1
  O  O23  1  0.75360684  0.63952567  0.87541118  1
  O  O24  1  0.78860882  0.90258090  0.55452500  1
  O  O25  1  0.26174695  0.77113608  0.71778566  1
  O  O26  1  0.64135982  0.63272486  0.22652749  1
  O  O27  1  0.92773211  0.88671921  0.28353407  1
  O  O28  1  0.56469669  0.68407219  0.51889667  1
