# generated using pymatgen
data_Yb4Zr3O12
_symmetry_space_group_name_H-M   'P 1'
_cell_length_a   6.47651914
_cell_length_b   6.39033862
_cell_length_c   12.87563003
_cell_angle_alpha   98.54294754
_cell_angle_beta   99.16110528
_cell_angle_gamma   100.29842924
_symmetry_Int_Tables_number   1
_chemical_formula_structural   Yb4Zr3O12
_chemical_formula_sum   'Yb8 Zr6 O24'
_cell_volume   508.94555160
_cell_formula_units_Z   2
loop_
 _symmetry_equiv_pos_site_id
 _symmetry_equiv_pos_as_xyz
  1  'x, y, z'
loop_
 _atom_site_type_symbol
 _atom_site_label
 _atom_site_symmetry_multiplicity
 _atom_site_fract_x
 _atom_site_fract_y
 _atom_site_fract_z
 _atom_site_occupancy
  Yb  Yb0  1  0.14108900  0.60949543  0.64961338  1
  Yb  Yb1  1  0.39463948  0.70500231  0.93233846  1
  Yb  Yb2  1  0.39282651  0.71222390  0.43207904  1
  Yb  Yb3  1  0.28544425  0.13862399  0.30298824  1
  Yb  Yb4  1  0.60536052  0.29499769  0.56766154  1
  Yb  Yb5  1  0.71455575  0.86137601  0.19701176  1
  Yb  Yb6  1  0.85891100  0.39050457  0.85038662  1
  Yb  Yb7  1  0.60717349  0.28777610  0.06792096  1
  Zr  Zr8  1  0.01072684  0.00329261  0.50045224  1
  Zr  Zr9  1  0.13964548  0.62206605  0.14338617  1
  Zr  Zr10  1  0.98927316  0.99670739  0.99954776  1
  Zr  Zr11  1  0.29119319  0.14361460  0.80784715  1
  Zr  Zr12  1  0.70880681  0.85638540  0.69215285  1
  Zr  Zr13  1  0.86035452  0.37793395  0.35661383  1
  O  O14  1  0.05735900  0.67772954  0.97565745  1
  O  O15  1  0.07924912  0.96427355  0.66262687  1
  O  O16  1  0.03182625  0.67687672  0.45970705  1
  O  O17  1  0.18710069  0.42260292  0.79027848  1
  O  O18  1  0.07040343  0.92972328  0.15565293  1
  O  O19  1  0.30263554  0.06145095  0.95926814  1
  O  O20  1  0.15219450  0.44651136  0.28034751  1
  O  O21  1  0.44141401  0.84421756  0.77724395  1
  O  O22  1  0.45910214  0.60137902  0.59305166  1
  O  O23  1  0.31337286  0.05928708  0.47189298  1
  O  O24  1  0.40356962  0.80994811  0.26800171  1
  O  O25  1  0.54089786  0.39862098  0.90694834  1
  O  O26  1  0.42680772  0.57877382  0.09936230  1
  O  O27  1  0.55858599  0.15578244  0.72275605  1
  O  O28  1  0.69736446  0.93854905  0.54073186  1
  O  O29  1  0.57319228  0.42122618  0.40063770  1
  O  O30  1  0.59643038  0.19005189  0.23199829  1
  O  O31  1  0.81289931  0.57739708  0.70972152  1
  O  O32  1  0.68662714  0.94071292  0.02810702  1
  O  O33  1  0.92075088  0.03572645  0.83737313  1
  O  O34  1  0.84780550  0.55348864  0.21965249  1
  O  O35  1  0.94264100  0.32227046  0.52434255  1
  O  O36  1  0.92959657  0.07027672  0.34434707  1
  O  O37  1  0.96817375  0.32312328  0.04029295  1
