# generated using pymatgen
data_Nb15IrS32
_symmetry_space_group_name_H-M   'P 1'
_cell_length_a   13.68198016
_cell_length_b   9.01881845
_cell_length_c   14.27706903
_cell_angle_alpha   68.46734461
_cell_angle_beta   61.04902104
_cell_angle_gamma   40.74942673
_symmetry_Int_Tables_number   1
_chemical_formula_structural   Nb15IrS32
_chemical_formula_sum   'Nb15 Ir1 S32'
_cell_volume   1006.26168218
_cell_formula_units_Z   1
loop_
 _symmetry_equiv_pos_site_id
 _symmetry_equiv_pos_as_xyz
  1  'x, y, z'
loop_
 _atom_site_type_symbol
 _atom_site_label
 _atom_site_symmetry_multiplicity
 _atom_site_fract_x
 _atom_site_fract_y
 _atom_site_fract_z
 _atom_site_occupancy
  Nb  Nb0  1  0.02149409  0.96197631  0.00279172  1
  Nb  Nb1  1  0.25319983  0.01524660  0.99850286  1
  Nb  Nb2  1  0.96913707  0.03382703  0.50230516  1
  Nb  Nb3  1  0.13367290  0.49152323  0.99891544  1
  Nb  Nb4  1  0.25592457  0.02066763  0.49846001  1
  Nb  Nb5  1  0.49110074  0.01053863  0.00013040  1
  Nb  Nb6  1  0.37057809  0.48882473  0.00058454  1
  Nb  Nb7  1  0.72227123  0.03452852  0.99878848  1
  Nb  Nb8  1  0.53194734  0.96904924  0.49855202  1
  Nb  Nb9  1  0.60296608  0.53888076  0.99675284  1
  Nb  Nb10  1  0.35945599  0.52983174  0.50451446  1
  Nb  Nb11  1  0.75713535  0.98715516  0.49839136  1
  Nb  Nb12  1  0.60949707  0.50454304  0.50090087  1
  Nb  Nb13  1  0.90064592  0.46973692  0.00051508  1
  Nb  Nb14  1  0.89753702  0.48975495  0.49914387  1
  Ir  Ir15  1  0.11287891  0.48980079  0.49949723  1
  S  S16  1  0.02260865  0.33427523  0.12889703  1
  S  S17  1  0.10504952  0.15986207  0.38138881  1
  S  S18  1  0.26717356  0.33457605  0.12870594  1
  S  S19  1  0.01995948  0.33010842  0.63281274  1
  S  S20  1  0.10897421  0.15792554  0.87649797  1
  S  S21  1  0.15164623  0.83132039  0.12198793  1
  S  S22  1  0.35492380  0.17556578  0.37834457  1
  S  S23  1  0.21399376  0.65766719  0.39199741  1
  S  S24  1  0.51466699  0.34498515  0.12330680  1
  S  S25  1  0.26902759  0.33763070  0.60519168  1
  S  S26  1  0.60396909  0.16939101  0.37913666  1
  S  S27  1  0.35750292  0.16783851  0.86988005  1
  S  S28  1  0.39088231  0.84265140  0.12902657  1
  S  S29  1  0.14314707  0.84601543  0.61968926  1
  S  S30  1  0.77755751  0.33263203  0.11231844  1
  S  S31  1  0.23391865  0.65963736  0.86963847  1
  S  S32  1  0.51755415  0.32846635  0.62251447  1
  S  S33  1  0.47074384  0.67817447  0.37472525  1
  S  S34  1  0.65008586  0.83233567  0.11777630  1
  S  S35  1  0.84981737  0.17417493  0.37266291  1
  S  S36  1  0.60182922  0.16850255  0.86975904  1
  S  S37  1  0.40094974  0.83360033  0.62350934  1
  S  S38  1  0.76552163  0.33998138  0.62322877  1
  S  S39  1  0.73368909  0.65622055  0.38003961  1
  S  S40  1  0.47269296  0.67174588  0.87701024  1
  S  S41  1  0.84657462  0.16976433  0.88705050  1
  S  S42  1  0.89508184  0.83749387  0.11825854  1
  S  S43  1  0.65326993  0.82281472  0.62774023  1
  S  S44  1  0.98502699  0.66044201  0.36976260  1
  S  S45  1  0.72864609  0.66495378  0.88162641  1
  S  S46  1  0.90675349  0.81776539  0.61895003  1
  S  S47  1  0.97328863  0.67134923  0.88209807  1
