# generated using pymatgen
data_Y6O5F8
_symmetry_space_group_name_H-M   'P 1'
_cell_length_a   11.51479316
_cell_length_b   8.72576451
_cell_length_c   5.51677930
_cell_angle_alpha   91.53458572
_cell_angle_beta   91.52801788
_cell_angle_gamma   27.88521738
_symmetry_Int_Tables_number   1
_chemical_formula_structural   Y6O5F8
_chemical_formula_sum   'Y6 O5 F8'
_cell_volume   259.14901502
_cell_formula_units_Z   1
loop_
 _symmetry_equiv_pos_site_id
 _symmetry_equiv_pos_as_xyz
  1  'x, y, z'
loop_
 _atom_site_type_symbol
 _atom_site_label
 _atom_site_symmetry_multiplicity
 _atom_site_fract_x
 _atom_site_fract_y
 _atom_site_fract_z
 _atom_site_occupancy
  Y  Y0  1  0.06710747  0.28013776  0.21473653  1
  Y  Y1  1  0.41862534  0.24233851  0.19245590  1
  Y  Y2  1  0.26955531  0.72765586  0.79211811  1
  Y  Y3  1  0.80007108  0.17723186  0.21854233  1
  Y  Y4  1  0.60213027  0.71135175  0.78185883  1
  Y  Y5  1  0.90721949  0.74748522  0.78586253  1
  O  O6  1  0.26146585  0.22043413  0.97041089  1
  O  O7  1  0.09133965  0.72951970  0.97583784  1
  O  O8  1  0.58138986  0.25219525  0.98643201  1
  O  O9  1  0.94700384  0.21086374  0.98227562  1
  O  O10  1  0.75152670  0.74322702  0.01126057  1
  F  F11  1  0.84618725  0.36401069  0.44233619  1
  F  F12  1  0.13407911  0.43325828  0.44067728  1
  F  F13  1  0.16758869  0.72140030  0.44713583  1
  F  F14  1  0.69863655  0.07633034  0.44332058  1
  F  F15  1  0.25886096  0.00213823  0.58139460  1
  F  F16  1  0.44014715  0.72207803  0.08277140  1
  F  F17  1  0.62818038  0.41293346  0.63539382  1
  F  F18  1  0.63739804  0.86748689  0.52311214  1
