# generated using pymatgen
data_Pr10US16
_symmetry_space_group_name_H-M   'P 1'
_cell_length_a   14.92886568
_cell_length_b   8.63694857
_cell_length_c   8.58354496
_cell_angle_alpha   90.00000000
_cell_angle_beta   54.90296096
_cell_angle_gamma   54.65206483
_symmetry_Int_Tables_number   1
_chemical_formula_structural   Pr10US16
_chemical_formula_sum   'Pr10 U1 S16'
_cell_volume   640.30573249
_cell_formula_units_Z   1
loop_
 _symmetry_equiv_pos_site_id
 _symmetry_equiv_pos_as_xyz
  1  'x, y, z'
loop_
 _atom_site_type_symbol
 _atom_site_label
 _atom_site_symmetry_multiplicity
 _atom_site_fract_x
 _atom_site_fract_y
 _atom_site_fract_z
 _atom_site_occupancy
  Pr  Pr0  1  0.12569848  0.63072622  0.35998551  1
  Pr  Pr1  1  0.25000000  0.25000000  0.62402060  1
  Pr  Pr2  1  0.49357529  0.38212319  0.27074072  1
  Pr  Pr3  1  0.37430152  0.86927378  0.11138248  1
  Pr  Pr4  1  0.49427966  0.13903580  0.75202133  1
  Pr  Pr5  1  0.61668455  0.62759511  0.38701447  1
  Pr  Pr6  1  0.75000000  0.25000000  0.62597940  1
  Pr  Pr7  1  0.00572034  0.36096420  0.24058064  1
  Pr  Pr8  1  0.88331545  0.87240489  0.12038356  1
  Pr  Pr9  1  0.00642471  0.11787681  0.75789130  1
  U  U10  1  0.75000000  0.75000000  0.87500000  1
  S  S11  1  0.17007461  0.49642454  -0.00200051  1
  S  S12  1  0.06873554  0.36302145  0.50474010  1
  S  S13  1  0.06755595  0.01076712  0.37231790  1
  S  S14  1  0.43126446  0.13697855  0.14221118  1
  S  S15  1  0.43244405  0.48923288  0.00742980  1
  S  S16  1  0.17167693  0.64587902  0.63844922  1
  S  S17  1  0.32992539  0.00357546  0.83814871  1
  S  S18  1  0.32832307  0.85412098  0.48180308  1
  S  S19  1  0.68175699  0.49950747  0.99476736  1
  S  S20  1  0.58350086  0.33657375  0.49842504  1
  S  S21  1  0.57808085  0.99590256  0.34286637  1
  S  S22  1  0.91649914  0.16342625  0.16542675  1
  S  S23  1  0.92191915  0.50409744  -0.00097194  1
  S  S24  1  0.67601659  0.65206425  0.65303619  1
  S  S25  1  0.81824301  0.00049253  0.85828135  1
  S  S26  1  0.82398341  0.84793575  0.50506937  1
