# generated using pymatgen
data_Ga2HgTe4
_symmetry_space_group_name_H-M   'P 1'
_cell_length_a   24.87232589
_cell_length_b   19.60934475
_cell_length_c   7.53208533
_cell_angle_alpha   121.60084953
_cell_angle_beta   114.44305490
_cell_angle_gamma   18.47000129
_symmetry_Int_Tables_number   1
_chemical_formula_structural   Ga2HgTe4
_chemical_formula_sum   'Ga8 Hg4 Te16'
_cell_volume   942.93940990
_cell_formula_units_Z   4
loop_
 _symmetry_equiv_pos_site_id
 _symmetry_equiv_pos_as_xyz
  1  'x, y, z'
loop_
 _atom_site_type_symbol
 _atom_site_label
 _atom_site_symmetry_multiplicity
 _atom_site_fract_x
 _atom_site_fract_y
 _atom_site_fract_z
 _atom_site_occupancy
  Ga  Ga0  1  0.24327201  0.25817899  0.49231830  1
  Ga  Ga1  1  0.47906168  0.27550180  0.52329947  1
  Ga  Ga2  1  0.25523063  0.73733193  0.49291008  1
  Ga  Ga3  1  0.75810216  0.23850494  0.50608938  1
  Ga  Ga4  1  0.73889214  0.50875983  0.00234404  1
  Ga  Ga5  1  0.01080978  0.23730462  0.47493018  1
  Ga  Ga6  1  0.01005737  0.48421126  0.99054737  1
  Ga  Ga7  1  0.01593935  0.73224994  0.50165754  1
  Hg  Hg8  1  0.00408142  0.99599481  0.99286660  1
  Hg  Hg9  1  0.26488734  0.98946059  0.03545140  1
  Hg  Hg10  1  0.49548034  0.00563628  0.00834527  1
  Hg  Hg11  1  0.74380435  0.00532743  0.96491778  1
  Te  Te12  1  0.05262409  0.13423932  0.74350439  1
  Te  Te13  1  0.02846797  0.42523406  0.27829869  1
  Te  Te14  1  0.31294057  0.11249173  0.71821348  1
  Te  Te15  1  0.09524601  0.59405860  0.75829788  1
  Te  Te16  1  0.30062745  0.40084386  0.23708445  1
  Te  Te17  1  0.53623647  0.14856038  0.74221751  1
  Te  Te18  1  0.08024721  0.83841138  0.23786341  1
  Te  Te19  1  0.34255339  0.59874434  0.76250823  1
  Te  Te20  1  0.54882785  0.40517783  0.25384870  1
  Te  Te21  1  0.78552938  0.15089476  0.76091993  1
  Te  Te22  1  0.33111864  0.84031549  0.25363862  1
  Te  Te23  1  0.57444040  0.61062417  0.71973419  1
  Te  Te24  1  0.78212028  0.41978083  0.28241995  1
  Te  Te25  1  0.57306014  0.86325564  0.27804058  1
  Te  Te26  1  0.82284460  0.61585489  0.73035876  1
  Te  Te27  1  0.81349700  0.87305029  0.25737380  1
