# generated using pymatgen
data_Li4MnCo2O7
_symmetry_space_group_name_H-M   'P 1'
_cell_length_a   3.02143720
_cell_length_b   9.82088241
_cell_length_c   9.74026139
_cell_angle_alpha   63.54723086
_cell_angle_beta   83.76319661
_cell_angle_gamma   93.96948569
_symmetry_Int_Tables_number   1
_chemical_formula_structural   Li4MnCo2O7
_chemical_formula_sum   'Li8 Mn2 Co4 O14'
_cell_volume   254.97647501
_cell_formula_units_Z   2
loop_
 _symmetry_equiv_pos_site_id
 _symmetry_equiv_pos_as_xyz
  1  'x, y, z'
loop_
 _atom_site_type_symbol
 _atom_site_label
 _atom_site_symmetry_multiplicity
 _atom_site_fract_x
 _atom_site_fract_y
 _atom_site_fract_z
 _atom_site_occupancy
  Li  Li0  1  0.92513450  0.21565222  0.14745691  1
  Li  Li1  1  0.22098158  0.35874234  0.56871582  1
  Li  Li2  1  0.50342255  0.49760972  0.00225081  1
  Li  Li3  1  0.78475540  0.64272060  0.42990118  1
  Li  Li4  1  0.07239469  0.78751425  0.85221624  1
  Li  Li5  1  0.34790119  0.92555628  0.29206560  1
  Li  Li6  1  0.64564177  0.07148605  0.70641735  1
  Li  Li7  1  0.28551031  0.14181472  0.42842377  1
  Mn  Mn8  1  0.99873519  0.00274001  0.99943792  1
  Mn  Mn9  1  0.42992995  0.71009373  0.14494389  1
  Co  Co10  1  0.56702859  0.28873362  0.85487966  1
  Co  Co11  1  0.86122137  0.41396243  0.29231598  1
  Co  Co12  1  0.14516857  0.57284565  0.71202105  1
  Co  Co13  1  0.71680366  0.86843366  0.56736987  1
  O  O14  1  0.44401239  0.11461719  0.05877548  1
  O  O15  1  0.75545880  0.26775470  0.48125624  1
  O  O16  1  0.00143296  0.39722226  0.91527050  1
  O  O17  1  0.30200645  0.53495501  0.34737856  1
  O  O18  1  0.62896446  0.68869275  0.76701029  1
  O  O19  1  0.86962617  0.82367795  0.20483516  1
  O  O20  1  0.16289520  0.95705864  0.63593415  1
  O  O21  1  0.41384982  0.32814359  0.22147833  1
  O  O22  1  0.64964881  0.46340424  0.65610012  1
  O  O23  1  0.98131418  0.59475325  0.08987235  1
  O  O24  1  0.27264048  0.74763259  0.51290446  1
  O  O25  1  0.56112992  0.88861005  0.93914550  1
  O  O26  1  0.81434998  0.01537891  0.37731833  1
  O  O27  1  0.13804107  0.18019361  0.79430447  1
