# generated using pymatgen
data_NdPb4F11
_symmetry_space_group_name_H-M   'P 1'
_cell_length_a   4.13800519
_cell_length_b   4.22473839
_cell_length_c   21.26290922
_cell_angle_alpha   60.21635119
_cell_angle_beta   60.60934557
_cell_angle_gamma   59.30418505
_symmetry_Int_Tables_number   1
_chemical_formula_structural   NdPb4F11
_chemical_formula_sum   'Nd1 Pb4 F11'
_cell_volume   263.03079329
_cell_formula_units_Z   1
loop_
 _symmetry_equiv_pos_site_id
 _symmetry_equiv_pos_as_xyz
  1  'x, y, z'
loop_
 _atom_site_type_symbol
 _atom_site_label
 _atom_site_symmetry_multiplicity
 _atom_site_fract_x
 _atom_site_fract_y
 _atom_site_fract_z
 _atom_site_occupancy
  Nd  Nd0  1  0.97887450  0.98566426  0.80995939  1
  Pb  Pb1  1  0.90763752  0.04507208  0.00044367  1
  Pb  Pb2  1  0.92195519  0.03741305  0.20064374  1
  Pb  Pb3  1  0.96082427  0.01380270  0.40231406  1
  Pb  Pb4  1  0.97721761  0.99612352  0.60610707  1
  F  F5  1  0.16023557  0.28180196  0.05523210  1
  F  F6  1  0.68000537  0.79508554  0.14596471  1
  F  F7  1  0.20997885  0.26489990  0.45204427  1
  F  F8  1  0.17060093  0.28588203  0.25152700  1
  F  F9  1  0.71006761  0.76904087  0.35037013  1
  F  F10  1  0.20686397  0.22741333  0.66766187  1
  F  F11  1  0.73207393  0.74509205  0.55554839  1
  F  F12  1  0.29049716  0.32181203  0.81317576  1
  F  F13  1  0.74958483  0.76846282  0.74269790  1
  F  F14  1  0.47200283  0.55987553  0.88164922  1
  F  F15  1  0.68357986  0.78655832  0.94866070  1
