# generated using pymatgen
data_In4(SnO4)3
_symmetry_space_group_name_H-M   'P 1'
_cell_length_a   6.33794193
_cell_length_b   6.29463520
_cell_length_c   12.67568138
_cell_angle_alpha   99.73676103
_cell_angle_beta   99.30582013
_cell_angle_gamma   99.39571878
_symmetry_Int_Tables_number   1
_chemical_formula_structural   In4(SnO4)3
_chemical_formula_sum   'In8 Sn6 O24'
_cell_volume   482.31623203
_cell_formula_units_Z   2
loop_
 _symmetry_equiv_pos_site_id
 _symmetry_equiv_pos_as_xyz
  1  'x, y, z'
loop_
 _atom_site_type_symbol
 _atom_site_label
 _atom_site_symmetry_multiplicity
 _atom_site_fract_x
 _atom_site_fract_y
 _atom_site_fract_z
 _atom_site_occupancy
  In  In0  1  0.13446407  0.60274850  0.65513341  1
  In  In1  1  0.39536011  0.68669997  0.93234218  1
  In  In2  1  0.39703063  0.69406397  0.43349859  1
  In  In3  1  0.31350334  0.13611061  0.30231398  1
  In  In4  1  0.60463989  0.31330003  0.56765782  1
  In  In5  1  0.68649666  0.86388939  0.19768602  1
  In  In6  1  0.86553593  0.39725150  0.84486659  1
  In  In7  1  0.60296937  0.30593603  0.06650141  1
  Sn  Sn8  1  0.00371713  0.00413434  0.50184603  1
  Sn  Sn9  1  0.13989162  0.60383092  0.15818747  1
  Sn  Sn10  1  0.99628287  0.99586566  0.99815397  1
  Sn  Sn11  1  0.31840987  0.13900366  0.80175972  1
  Sn  Sn12  1  0.68159013  0.86099634  0.69824028  1
  Sn  Sn13  1  0.86010838  0.39616908  0.34181253  1
  O  O14  1  0.05868384  0.68406563  0.95491351  1
  O  O15  1  0.10141180  0.95065713  0.66106021  1
  O  O16  1  0.04763331  0.68089350  0.45060448  1
  O  O17  1  0.18070835  0.41035536  0.78958014  1
  O  O18  1  0.09619827  0.93111763  0.15463104  1
  O  O19  1  0.30436135  0.09251829  0.96285981  1
  O  O20  1  0.16610015  0.41482410  0.28730482  1
  O  O21  1  0.42482473  0.83056831  0.79157340  1
  O  O22  1  0.42497620  0.59424857  0.59192560  1
  O  O23  1  0.31474056  0.08927886  0.47125559  1
  O  O24  1  0.40855400  0.81288690  0.28780351  1
  O  O25  1  0.57502380  0.40575143  0.90807440  1
  O  O26  1  0.41300438  0.57902258  0.09140067  1
  O  O27  1  0.57517527  0.16943169  0.70842660  1
  O  O28  1  0.69563865  0.90748171  0.53714019  1
  O  O29  1  0.58699562  0.42097742  0.40859933  1
  O  O30  1  0.59144600  0.18711310  0.21219649  1
  O  O31  1  0.81929165  0.58964464  0.71041986  1
  O  O32  1  0.68525944  0.91072114  0.02874441  1
  O  O33  1  0.89858820  0.04934287  0.83893979  1
  O  O34  1  0.83389985  0.58517590  0.21269518  1
  O  O35  1  0.94131616  0.31593437  0.54508649  1
  O  O36  1  0.90380173  0.06888237  0.34536896  1
  O  O37  1  0.95236669  0.31910650  0.04939552  1
