# generated using pymatgen
data_Ta4Cu2O11
_symmetry_space_group_name_H-M   'P 1'
_cell_length_a   13.08021010
_cell_length_b   13.10808553
_cell_length_c   13.10808539
_cell_angle_alpha   27.81840253
_cell_angle_beta   27.69179938
_cell_angle_gamma   27.69179683
_symmetry_Int_Tables_number   1
_chemical_formula_structural   Ta4Cu2O11
_chemical_formula_sum   'Ta8 Cu4 O22'
_cell_volume   429.73308808
_cell_formula_units_Z   2
loop_
 _symmetry_equiv_pos_site_id
 _symmetry_equiv_pos_as_xyz
  1  'x, y, z'
loop_
 _atom_site_type_symbol
 _atom_site_label
 _atom_site_symmetry_multiplicity
 _atom_site_fract_x
 _atom_site_fract_y
 _atom_site_fract_z
 _atom_site_occupancy
  Ta  Ta0  1  0.00000000  0.00000000  0.00000000  1
  Ta  Ta1  1  0.11181814  0.75368275  0.38172290  1
  Ta  Ta2  1  0.38818186  0.11827710  0.74631725  1
  Ta  Ta3  1  0.75000000  0.39516810  0.10483190  1
  Ta  Ta4  1  0.50000000  0.50000000  0.50000000  1
  Ta  Ta5  1  0.25000000  0.60483190  0.89516810  1
  Ta  Ta6  1  0.61181814  0.88172290  0.25368275  1
  Ta  Ta7  1  0.88818186  0.24631725  0.61827710  1
  Cu  Cu8  1  0.50000000  0.00000000  0.50000000  1
  Cu  Cu9  1  0.50000000  0.50000000  0.00000000  1
  Cu  Cu10  1  0.00000000  0.00000000  0.50000000  1
  Cu  Cu11  1  0.00000000  0.50000000  0.00000000  1
  O  O12  1  0.09037483  0.09851587  0.08824012  1
  O  O13  1  0.00165213  0.49481558  0.25509408  1
  O  O14  1  0.25000000  0.00197727  0.49802273  1
  O  O15  1  0.06617534  0.77361650  0.25839502  1
  O  O16  1  0.27592007  0.06848916  0.74664765  1
  O  O17  1  0.75386474  0.28354859  0.05501147  1
  O  O18  1  0.99834787  0.50518442  0.74490592  1
  O  O19  1  0.40962517  0.41175988  0.40148413  1
  O  O20  1  0.50165213  0.75509408  0.99481558  1
  O  O21  1  0.75000000  0.99802273  0.50197727  1
  O  O22  1  0.22407993  0.75335235  0.43151084  1
  O  O23  1  0.43382466  0.24160498  0.72638350  1
  O  O24  1  0.74613526  0.44498853  0.21645141  1
  O  O25  1  0.25386474  0.55501147  0.78354859  1
  O  O26  1  0.56617534  0.75839502  0.27361650  1
  O  O27  1  0.77592007  0.24664765  0.56848916  1
  O  O28  1  0.49834787  0.24490592  0.00518442  1
  O  O29  1  0.59037483  0.58824012  0.59851587  1
  O  O30  1  0.24613526  0.71645141  0.94498853  1
  O  O31  1  0.72407993  0.93151084  0.25335235  1
  O  O32  1  0.93382466  0.22638350  0.74160498  1
  O  O33  1  0.90962517  0.90148413  0.91175988  1
