# generated using pymatgen
data_Nd10US16
_symmetry_space_group_name_H-M   'P 1'
_cell_length_a   14.82737885
_cell_length_b   8.57217336
_cell_length_c   8.53738111
_cell_angle_alpha   90.00000000
_cell_angle_beta   54.84538100
_cell_angle_gamma   54.68078084
_symmetry_Int_Tables_number   1
_chemical_formula_structural   Nd10US16
_chemical_formula_sum   'Nd10 U1 S16'
_cell_volume   627.34511877
_cell_formula_units_Z   1
loop_
 _symmetry_equiv_pos_site_id
 _symmetry_equiv_pos_as_xyz
  1  'x, y, z'
loop_
 _atom_site_type_symbol
 _atom_site_label
 _atom_site_symmetry_multiplicity
 _atom_site_fract_x
 _atom_site_fract_y
 _atom_site_fract_z
 _atom_site_occupancy
  Nd  Nd0  1  0.00666028  0.11705883  0.76054790  1
  Nd  Nd1  1  0.12628090  0.63037938  0.35651092  1
  Nd  Nd2  1  0.25000000  0.25000000  0.62180251  1
  Nd  Nd3  1  0.49333972  0.38294117  0.27386846  1
  Nd  Nd4  1  0.37371910  0.86962062  0.10907272  1
  Nd  Nd5  1  0.49406194  0.13931775  0.75161563  1
  Nd  Nd6  1  0.61662031  0.62744163  0.38770212  1
  Nd  Nd7  1  0.75000000  0.25000000  0.62819749  1
  Nd  Nd8  1  0.00593806  0.36068225  0.23973950  1
  Nd  Nd9  1  0.88337969  0.87255837  0.12094275  1
  U  U10  1  0.75000000  0.75000000  0.87500000  1
  S  S11  1  0.06631900  0.01208542  0.37654756  1
  S  S12  1  0.17150343  0.49688550  0.99532887  1
  S  S13  1  0.06885212  0.36477094  0.50238916  1
  S  S14  1  0.43114788  0.13522906  0.14009339  1
  S  S15  1  0.43368100  0.48791458  0.00918557  1
  S  S16  1  0.17159558  0.64472342  0.63553786  1
  S  S17  1  0.32849657  0.00311450  0.83833572  1
  S  S18  1  0.57688166  0.99647424  0.34547095  1
  S  S19  1  0.32840442  0.85527658  0.47872901  1
  S  S20  1  0.68362306  0.49752482  0.99513566  1
  S  S21  1  0.58161107  0.33989235  0.50155663  1
  S  S22  1  0.91838893  0.16010765  0.16477878  1
  S  S23  1  0.92311834  0.50352576  0.99923427  1
  S  S24  1  0.67664410  0.65023756  0.65100330  1
  S  S25  1  0.81637694  0.00247518  0.86238178  1
  S  S26  1  0.82335590  0.84976244  0.50429149  1
