# generated using pymatgen
data_Ba3In4(CuO4)3
_symmetry_space_group_name_H-M   'P 1'
_cell_length_a   8.62752067
_cell_length_b   9.73062065
_cell_length_c   9.73001031
_cell_angle_alpha   78.66142663
_cell_angle_beta   63.67694051
_cell_angle_gamma   63.68011838
_symmetry_Int_Tables_number   1
_chemical_formula_structural   Ba3In4(CuO4)3
_chemical_formula_sum   'Ba6 In8 Cu6 O24'
_cell_volume   656.24551519
_cell_formula_units_Z   2
loop_
 _symmetry_equiv_pos_site_id
 _symmetry_equiv_pos_as_xyz
  1  'x, y, z'
loop_
 _atom_site_type_symbol
 _atom_site_label
 _atom_site_symmetry_multiplicity
 _atom_site_fract_x
 _atom_site_fract_y
 _atom_site_fract_z
 _atom_site_occupancy
  Ba  Ba0  1  0.72041349  0.49999984  0.05915452  1
  Ba  Ba1  1  0.77960136  0.94081418  0.50000538  1
  Ba  Ba2  1  0.27956929  0.50000922  0.94082681  1
  Ba  Ba3  1  0.99999539  0.99999551  -0.00000128  1
  Ba  Ba4  1  0.22042282  0.05918071  0.49999516  1
  Ba  Ba5  1  0.50000128  0.00000207  0.99999767  1
  In  In6  1  0.49290265  0.75710546  0.75709607  1
  In  In7  1  0.50710421  0.24288929  0.24289747  1
  In  In8  1  0.25000270  0.75711124  0.24288925  1
  In  In9  1  0.75000013  0.24289289  0.75710626  1
  In  In10  1  0.99289110  0.75711421  0.75710863  1
  In  In11  1  0.74999934  0.75710536  0.24290103  1
  In  In12  1  0.00709868  0.24289522  0.24290029  1
  In  In13  1  0.25000620  0.24289104  0.75710225  1
  Cu  Cu14  1  0.60498055  0.29027835  0.49999288  1
  Cu  Cu15  1  0.89506489  0.49999947  0.70963744  1
  Cu  Cu16  1  0.39524322  0.70971358  0.50000998  1
  Cu  Cu17  1  0.24994667  0.50000269  0.49999932  1
  Cu  Cu18  1  0.10471416  0.50000658  0.29035936  1
  Cu  Cu19  1  0.75003564  0.50000060  0.50000383  1
  O  O20  1  0.23085647  0.27089088  0.26740281  1
  O  O21  1  0.87981552  0.00000441  0.74039144  1
  O  O22  1  0.00174626  0.72911565  0.26739812  1
  O  O23  1  0.88477301  0.49999829  0.27515618  1
  O  O24  1  0.12020879  -0.00000429  0.25960745  1
  O  O25  1  0.11524116  0.50000262  0.72459343  1
  O  O26  1  0.37978916  0.00000509  0.74039423  1
  O  O27  1  0.73084987  0.26740188  0.27088949  1
  O  O28  1  0.99825938  0.27089277  0.73259815  1
  O  O29  1  0.16016525  0.72457602  0.50000490  1
  O  O30  1  0.62020750  -0.00000500  0.25960509  1
  O  O31  1  0.50173768  0.26741318  0.72910770  1
  O  O32  1  0.49825814  0.73258568  0.27090045  1
  O  O33  1  0.38473781  0.27543618  0.50000446  1
  O  O34  1  0.87980467  0.74038603  0.00000552  1
  O  O35  1  0.37978546  0.74039167  0.00000163  1
  O  O36  1  0.12018075  0.25959538  -0.00000189  1
  O  O37  1  0.33984938  0.49999371  0.27540871  1
  O  O38  1  0.84008186  0.27517098  0.49999199  1
  O  O39  1  0.65993477  0.49999567  0.72484505  1
  O  O40  1  0.61522560  0.72482550  0.50000365  1
  O  O41  1  0.26914024  0.73260335  0.72911295  1
  O  O42  1  0.62020652  0.25960680  -0.00000385  1
  O  O43  1  0.76915098  0.72911000  0.73260004  1
