# generated using pymatgen
data_Pr16Si16N27Cl3O14
_symmetry_space_group_name_H-M   'P 1'
_cell_length_a   10.52040636
_cell_length_b   10.52770654
_cell_length_c   20.98953337
_cell_angle_alpha   90.26402062
_cell_angle_beta   90.37072527
_cell_angle_gamma   90.20741535
_symmetry_Int_Tables_number   1
_chemical_formula_structural   Pr16Si16N27Cl3O14
_chemical_formula_sum   'Pr32 Si32 N54 Cl6 O28'
_cell_volume   2324.62269821
_cell_formula_units_Z   2
loop_
 _symmetry_equiv_pos_site_id
 _symmetry_equiv_pos_as_xyz
  1  'x, y, z'
loop_
 _atom_site_type_symbol
 _atom_site_label
 _atom_site_symmetry_multiplicity
 _atom_site_fract_x
 _atom_site_fract_y
 _atom_site_fract_z
 _atom_site_occupancy
  Pr  Pr0  1  0.04307604  0.81678712  0.34527772  1
  Pr  Pr1  1  0.03929232  0.82279005  0.84496406  1
  Pr  Pr2  1  0.10141480  0.10348176  0.55213604  1
  Pr  Pr3  1  0.17800537  0.18862058  0.22450629  1
  Pr  Pr4  1  0.18729443  0.19891690  0.73168933  1
  Pr  Pr5  1  0.19231458  0.44096788  0.08745933  1
  Pr  Pr6  1  0.21714771  0.47070477  0.58518191  1
  Pr  Pr7  1  0.31112601  0.54004271  0.34200810  1
  Pr  Pr8  1  0.30149801  0.53012978  0.84390696  1
  Pr  Pr9  1  0.32099538  0.78458854  0.48516438  1
  Pr  Pr10  1  0.31142284  0.81773223  0.98018122  1
  Pr  Pr11  1  0.39842684  0.90316806  0.30233713  1
  Pr  Pr12  1  0.40922925  0.89372959  0.80139018  1
  Pr  Pr13  1  0.44932549  0.17624588  0.09421423  1
  Pr  Pr14  1  0.45767470  0.18080480  0.59418441  1
  Pr  Pr15  1  0.54318836  0.68395563  0.15379143  1
  Pr  Pr16  1  0.52834910  0.67803182  0.63849107  1
  Pr  Pr17  1  0.61056880  0.39230705  0.94965899  1
  Pr  Pr18  1  0.61833976  0.39601700  0.44553763  1
  Pr  Pr19  1  0.68471758  0.30972857  0.27196095  1
  Pr  Pr20  1  0.67360091  0.30371166  0.77195263  1
  Pr  Pr21  1  0.69343525  0.04823625  0.91324266  1
  Pr  Pr22  1  0.69283800  0.05230727  0.41072373  1
  Pr  Pr23  1  0.81983713  0.95819038  0.15379564  1
  Pr  Pr24  1  0.79706846  0.96247420  0.65591891  1
  Pr  Pr25  1  0.82522913  0.68897237  0.02544861  1
  Pr  Pr26  1  0.81535741  0.69776148  0.51728790  1
  Pr  Pr27  1  0.88813563  0.60516952  0.19880826  1
  Pr  Pr28  1  0.96145165  0.46847061  0.77124790  1
  Pr  Pr29  1  0.94601564  0.32035430  0.40314931  1
  Pr  Pr30  1  0.95923416  0.30112074  0.91410870  1
  Pr  Pr31  1  0.85087037  0.64539998  0.67829535  1
  Si  Si32  1  0.07256451  0.57116382  0.46337019  1
  Si  Si33  1  0.07554201  0.57078324  0.96455941  1
  Si  Si34  1  0.08002991  0.74112215  0.09849479  1
  Si  Si35  1  0.07411459  0.75461440  0.59359953  1
  Si  Si36  1  0.19650147  0.07521324  0.37289559  1
  Si  Si37  1  0.20090944  0.07876717  0.86974639  1
  Si  Si38  1  0.24258292  0.30206048  0.45837880  1
  Si  Si39  1  0.24908070  0.30110181  0.95810712  1
  Si  Si40  1  0.25392441  0.69691209  0.71080306  1
  Si  Si41  1  0.26236734  0.69563705  0.21173615  1
  Si  Si42  1  0.30628662  0.91735389  0.12439777  1
  Si  Si43  1  0.30280600  0.92226903  0.62302994  1
  Si  Si44  1  0.41798816  0.25468308  0.34732324  1
  Si  Si45  1  0.42068995  0.25303918  0.84680404  1
  Si  Si46  1  0.42799423  0.42719431  0.21408840  1
  Si  Si47  1  0.42822892  0.42825392  0.71328202  1
  Si  Si48  1  0.57051270  0.92602929  0.03655611  1
  Si  Si49  1  0.57037080  0.92816302  0.53458005  1
  Si  Si50  1  0.58003570  0.75419646  0.90222252  1
  Si  Si51  1  0.58015402  0.75855977  0.40020420  1
  Si  Si52  1  0.68986010  0.41896418  0.12865838  1
  Si  Si53  1  0.69363461  0.42344755  0.62749334  1
  Si  Si54  1  0.73821575  0.19903119  0.04160004  1
  Si  Si55  1  0.74696819  0.19804963  0.53983209  1
  Si  Si56  1  0.75473637  0.80712369  0.28928708  1
  Si  Si57  1  0.74970325  0.80807669  0.78561901  1
  Si  Si58  1  0.80337238  0.57989548  0.37543764  1
  Si  Si59  1  0.80751558  0.58165154  0.87641275  1
  Si  Si60  1  0.91618493  0.24832992  0.15338259  1
  Si  Si61  1  0.92558273  0.25232304  0.65207222  1
  Si  Si62  1  0.92862480  0.07055350  0.28555462  1
  Si  Si63  1  0.92977758  0.07203176  0.78492590  1
  N  N64  1  0.05961178  0.62365226  0.04173176  1
  N  N65  1  0.06310354  0.63462768  0.53851392  1
  N  N66  1  0.07776991  0.04836705  0.31751011  1
  N  N67  1  0.08041580  0.04782029  0.81546732  1
  N  N68  1  0.13613614  0.42194078  0.47169976  1
  N  N69  1  0.14189082  0.42312205  0.97043690  1
  N  N70  1  0.15430743  0.16836717  0.43695974  1
  N  N71  1  0.16089884  0.17835806  0.92891842  1
  N  N72  1  0.18979300  0.84914664  0.07929864  1
  N  N73  1  0.17836854  0.87325472  0.57429268  1
  N  N74  1  0.32374760  0.12746134  0.32639627  1
  N  N75  1  0.33273499  0.12212430  0.82341552  1
  N  N76  1  0.35356609  0.82169062  0.18821630  1
  N  N77  1  0.33754208  0.83048949  0.68912602  1
  N  N78  1  0.36301863  0.57442195  0.22447883  1
  N  N79  1  0.35247100  0.57175225  0.71916480  1
  N  N80  1  0.36826818  0.34725039  0.41127414  1
  N  N81  1  0.37624335  0.34602994  0.91088396  1
  N  N82  1  0.42382945  0.94312320  0.06959859  1
  N  N83  1  0.42536206  0.94452360  0.57017213  1
  N  N84  1  0.44374654  0.36362788  0.28843498  1
  N  N85  1  0.44542519  0.36408459  0.78791839  1
  N  N86  1  0.54959933  0.86737140  0.45944739  1
  N  N87  1  0.54914406  0.86315910  0.96148530  1
  N  N88  1  0.57524847  0.45440909  0.18404504  1
  N  N89  1  0.57739137  0.44722995  0.68404080  1
  N  N90  1  0.62684097  0.85082966  0.33547503  1
  N  N91  1  0.63338374  0.84987454  0.83999917  1
  N  N92  1  0.63017080  0.07561420  0.02853931  1
  N  N93  1  0.63872335  0.07432053  0.52939983  1
  N  N94  1  0.63936980  0.32577171  0.06654680  1
  N  N95  1  0.64761345  0.31233849  0.57200486  1
  N  N96  1  0.67539703  0.62575820  0.92123968  1
  N  N97  1  0.67609217  0.63607445  0.42174989  1
  N  N98  1  0.68867118  0.77300030  0.71092340  1
  N  N99  1  0.72420809  0.56987795  0.59454120  1
  N  N100  1  0.79631055  0.42990375  0.84210004  1
  N  N101  1  0.76054900  0.42848276  0.35448160  1
  N  N102  1  0.78481120  0.24279430  0.46418724  1
  N  N103  1  0.77889316  0.24244741  0.96552314  1
  N  N104  1  0.81874427  0.37422581  0.17571381  1
  N  N105  1  0.82970859  0.37886298  0.67678963  1
  N  N106  1  0.84854395  0.68118149  0.31480091  1
  N  N107  1  0.85205414  0.68098883  0.81284592  1
  N  N108  1  0.86619250  0.92230381  0.27528008  1
  N  N109  1  0.86391314  0.92541565  0.77317427  1
  N  N110  1  0.85144316  0.15673424  0.09493971  1
  N  N111  1  0.87678815  0.15975613  0.58772432  1
  N  N112  1  0.92400052  0.56261304  0.43145665  1
  N  N113  1  0.92643131  0.56152638  0.93269299  1
  N  N114  1  0.93122589  0.77527285  0.12430229  1
  N  N115  1  0.92726510  0.80516790  0.61414232  1
  N  N116  1  0.94819785  0.13988863  0.21323833  1
  N  N117  1  0.95111957  0.14840978  0.71373781  1
  Cl  Cl118  1  0.08136611  0.43130800  0.28621382  1
  Cl  Cl119  1  0.42318387  0.58404110  0.03712560  1
  Cl  Cl120  1  0.57572430  0.06853903  0.21410030  1
  Cl  Cl121  1  0.56040497  0.07633703  0.71307725  1
  Cl  Cl122  1  0.93124201  0.93252071  0.45959365  1
  Cl  Cl123  1  0.91921701  0.91550377  0.96045350  1
  O  O124  1  0.06113909  0.30921182  0.14065673  1
  O  O125  1  0.07469127  0.29957489  0.63455323  1
  O  O126  1  0.13388206  0.38117093  0.80469795  1
  O  O127  1  0.14045754  0.64997391  0.16377007  1
  O  O128  1  0.13202855  0.66449106  0.65962552  1
  O  O129  1  0.16720052  0.66008207  0.41709588  1
  O  O130  1  0.16506167  0.66605085  0.91949351  1
  O  O131  1  0.20812398  0.73631495  0.28327462  1
  O  O132  1  0.19257449  0.71969865  0.78272486  1
  O  O133  1  0.24104482  0.92632196  0.39267218  1
  O  O134  1  0.24269552  0.92862406  0.88974468  1
  O  O135  1  0.27936038  0.06069895  0.15497952  1
  O  O136  1  0.25890853  0.07132687  0.64243349  1
  O  O137  1  0.30655571  0.27944631  0.03159606  1
  O  O138  1  0.28968452  0.26572466  0.53363469  1
  O  O139  1  0.33796126  0.33562142  0.16707432  1
  O  O140  1  0.34070191  0.33323116  0.66632494  1
  O  O141  1  0.37444530  0.61783797  0.55455109  1
  O  O142  1  0.43151276  0.71106498  0.87797963  1
  O  O143  1  0.43157041  0.71098191  0.37909196  1
  O  O144  1  0.57006316  0.21038211  0.86645783  1
  O  O145  1  0.56577490  0.20987091  0.36818063  1
  O  O146  1  0.66347272  0.83277783  0.08088618  1
  O  O147  1  0.66122788  0.83487748  0.57762442  1
  O  O148  1  0.70913521  0.75860628  0.21584892  1
  O  O149  1  0.73252234  0.56716957  0.10561100  1
  O  O150  1  0.83606492  0.15893758  0.33190280  1
  O  O151  1  0.83841169  0.15837256  0.83252027  1
