# generated using pymatgen
data_LiSn(PO3)3
_symmetry_space_group_name_H-M   'P 1'
_cell_length_a   8.78432855
_cell_length_b   9.23716836
_cell_length_c   9.39507018
_cell_angle_alpha   90.00000000
_cell_angle_beta   90.00000000
_cell_angle_gamma   90.00000000
_symmetry_Int_Tables_number   1
_chemical_formula_structural   LiSn(PO3)3
_chemical_formula_sum   'Li4 Sn4 P12 O36'
_cell_volume   762.33780737
_cell_formula_units_Z   4
loop_
 _symmetry_equiv_pos_site_id
 _symmetry_equiv_pos_as_xyz
  1  'x, y, z'
loop_
 _atom_site_type_symbol
 _atom_site_label
 _atom_site_symmetry_multiplicity
 _atom_site_fract_x
 _atom_site_fract_y
 _atom_site_fract_z
 _atom_site_occupancy
  Li  Li0  1  0.15600847  0.13713468  0.37626993  1
  Li  Li1  1  0.34399153  0.86286532  0.87626993  1
  Li  Li2  1  0.65600847  0.36286532  0.62373007  1
  Li  Li3  1  0.84399153  0.63713468  0.12373007  1
  Sn  Sn4  1  0.62843271  0.64303827  0.83559230  1
  Sn  Sn5  1  0.12843271  0.85696173  0.16440770  1
  Sn  Sn6  1  0.37156729  0.14303827  0.66440770  1
  Sn  Sn7  1  0.87156729  0.35696173  0.33559230  1
  P  P8  1  0.69483967  0.69886343  0.42489780  1
  P  P9  1  0.29614201  0.52696215  0.69054828  1
  P  P10  1  0.79614201  0.97303785  0.30945172  1
  P  P11  1  0.30516033  0.19886343  0.07510220  1
  P  P12  1  0.20385799  0.47303785  0.19054828  1
  P  P13  1  0.02200908  0.32495099  0.68190719  1
  P  P14  1  0.19483967  0.80113657  0.57510220  1
  P  P15  1  0.80516033  0.30113657  0.92489780  1
  P  P16  1  0.97799092  0.82495099  0.81809281  1
  P  P17  1  0.52200908  0.17504901  0.31809281  1
  P  P18  1  0.70385799  0.02696215  0.80945172  1
  P  P19  1  0.47799092  0.67504901  0.18190719  1
  O  O20  1  0.33931244  0.14185657  0.93019058  1
  O  O21  1  0.63354093  0.04538053  0.27203955  1
  O  O22  1  0.39041637  0.11806629  0.40577039  1
  O  O23  1  0.16068756  0.85814343  0.43019058  1
  O  O24  1  0.46412012  0.22153265  0.16237311  1
  O  O25  1  0.53587988  0.72153265  0.33762689  1
  O  O26  1  0.96412012  0.27846735  0.83762689  1
  O  O27  1  0.66068756  0.64185657  0.56980942  1
  O  O28  1  0.15911198  0.38351242  0.31802811  1
  O  O29  1  0.88818707  0.70238754  0.88393495  1
  O  O30  1  0.13354093  0.45461947  0.72796045  1
  O  O31  1  0.24907458  0.36527569  0.06009634  1
  O  O32  1  0.83931244  0.35814343  0.06980942  1
  O  O33  1  0.89041637  0.38193371  0.59422961  1
  O  O34  1  0.03587988  0.77846735  0.66237311  1
  O  O35  1  0.90646242  0.08505158  0.36416327  1
  O  O36  1  0.11181293  0.20238754  0.61606505  1
  O  O37  1  0.86645907  0.95461947  0.77203955  1
  O  O38  1  0.61181293  0.29761246  0.38393495  1
  O  O39  1  0.40646242  0.41494842  0.63583673  1
  O  O40  1  0.34088802  0.61648758  0.81802811  1
  O  O41  1  0.38818707  0.79761246  0.11606505  1
  O  O42  1  0.75092542  0.86527569  0.43990366  1
  O  O43  1  0.10958363  0.88193371  0.90577039  1
  O  O44  1  0.65911198  0.11648758  0.68197189  1
  O  O45  1  0.69432214  0.38624291  0.83367983  1
  O  O46  1  0.60958363  0.61806629  0.09422961  1
  O  O47  1  0.84088802  0.88351242  0.18197189  1
  O  O48  1  0.09353758  0.58505158  0.13583673  1
  O  O49  1  0.30567786  0.88624291  0.66632017  1
  O  O50  1  0.74907458  0.13472431  0.93990366  1
  O  O51  1  0.19432214  0.11375709  0.16632017  1
  O  O52  1  0.25092542  0.63472431  0.56009634  1
  O  O53  1  0.36645907  0.54538053  0.22796045  1
  O  O54  1  0.80567786  0.61375709  0.33367983  1
  O  O55  1  0.59353758  0.91494842  0.86416327  1
