# generated using pymatgen
data_Ce10US16
_symmetry_space_group_name_H-M   'P 1'
_cell_length_a   14.68902218
_cell_length_b   8.48755860
_cell_length_c   8.46699756
_cell_angle_alpha   90.00000000
_cell_angle_beta   54.80109558
_cell_angle_gamma   54.70288755
_symmetry_Int_Tables_number   1
_chemical_formula_structural   Ce10US16
_chemical_formula_sum   'Ce10 U1 S16'
_cell_volume   609.95113107
_cell_formula_units_Z   1
loop_
 _symmetry_equiv_pos_site_id
 _symmetry_equiv_pos_as_xyz
  1  'x, y, z'
loop_
 _atom_site_type_symbol
 _atom_site_label
 _atom_site_symmetry_multiplicity
 _atom_site_fract_x
 _atom_site_fract_y
 _atom_site_fract_z
 _atom_site_occupancy
  Ce  Ce0  1  0.00532928  0.11949288  0.75736512  1
  Ce  Ce1  1  0.12517784  0.63015144  0.36212776  1
  Ce  Ce2  1  0.25000000  0.25000000  0.62162770  1
  Ce  Ce3  1  0.49467072  0.38050712  0.26802368  1
  Ce  Ce4  1  0.37482216  0.86984856  0.11248344  1
  Ce  Ce5  1  0.49552308  0.13800021  0.74913616  1
  Ce  Ce6  1  0.61647670  0.62904638  0.38886405  1
  Ce  Ce7  1  0.75000000  0.25000000  0.62837230  1
  Ce  Ce8  1  0.88352330  0.87095362  0.12181745  1
  Ce  Ce9  1  0.00447692  0.36199979  0.24018233  1
  U  U10  1  0.75000000  0.75000000  0.87500000  1
  S  S11  1  0.17149722  0.49585007  -0.00217659  1
  S  S12  1  0.06960604  0.36117005  0.50350382  1
  S  S13  1  0.06850345  0.01043378  0.36971331  1
  S  S14  1  0.43039396  0.13882995  0.14271589  1
  S  S15  1  0.43149655  0.48956622  0.00672020  1
  S  S16  1  0.17106277  0.64744067  0.64072047  1
  S  S17  1  0.32850278  0.00414993  0.84081786  1
  S  S18  1  0.32893723  0.85255933  0.48284602  1
  S  S19  1  0.68077608  0.49961788  0.99611406  1
  S  S20  1  0.58265270  0.33884452  0.49802666  1
  S  S21  1  0.57817163  0.99578013  0.34224863  1
  S  S22  1  0.91734730  0.16115548  0.16333207  1
  S  S23  1  0.92182837  0.50421987  -0.00140810  1
  S  S24  1  0.81922392  0.00038212  0.85766623  1
  S  S25  1  0.67604823  0.65212340  0.65353150  1
  S  S26  1  0.82395177  0.84787660  0.50562797  1
