# generated using pymatgen
data_Li4MnCo2O7
_symmetry_space_group_name_H-M   'P 1'
_cell_length_a   3.02146525
_cell_length_b   13.57241908
_cell_length_c   6.39538310
_cell_angle_alpha   83.81456588
_cell_angle_beta   76.59449931
_cell_angle_gamma   88.87100381
_symmetry_Int_Tables_number   1
_chemical_formula_structural   Li4MnCo2O7
_chemical_formula_sum   'Li8 Mn2 Co4 O14'
_cell_volume   253.63088757
_cell_formula_units_Z   2
loop_
 _symmetry_equiv_pos_site_id
 _symmetry_equiv_pos_as_xyz
  1  'x, y, z'
loop_
 _atom_site_type_symbol
 _atom_site_label
 _atom_site_symmetry_multiplicity
 _atom_site_fract_x
 _atom_site_fract_y
 _atom_site_fract_z
 _atom_site_occupancy
  Li  Li0  1  0.85656363  0.21460000  0.06757562  1
  Li  Li1  1  0.99628315  0.50249768  0.50272318  1
  Li  Li2  1  0.14761323  0.78509774  0.92629138  1
  Li  Li3  1  0.42237032  0.35805411  0.79225734  1
  Li  Li4  1  0.57396967  0.64101074  0.21107045  1
  Li  Li5  1  0.71686723  0.92739200  0.63946391  1
  Li  Li6  1  0.28477300  0.07144733  0.36069535  1
  Li  Li7  1  0.28612894  0.57177604  0.85633270  1
  Mn  Mn8  1  0.99979408  0.99960047  0.00167473  1
  Mn  Mn9  1  0.14244988  0.28678128  0.42604421  1
  Co  Co10  1  0.42727468  0.85489778  0.28945240  1
  Co  Co11  1  0.57140053  0.14299555  0.71378863  1
  Co  Co12  1  0.71232442  0.43612661  0.13050128  1
  Co  Co13  1  0.85552957  0.70810866  0.58198196  1
  O  O14  1  0.41244951  0.10616232  0.02145269  1
  O  O15  1  0.56281603  0.39321401  0.44136603  1
  O  O16  1  0.72177804  0.68453575  0.86370547  1
  O  O17  1  0.98533423  0.24574567  0.73660016  1
  O  O18  1  0.13072545  0.52773008  0.17478297  1
  O  O19  1  0.27514588  0.81687147  0.58959868  1
  O  O20  1  0.83768335  0.95899384  0.31186980  1
  O  O21  1  0.29992434  0.32655006  0.11910009  1
  O  O22  1  0.44518571  0.61627273  0.53744817  1
  O  O23  1  0.58476983  0.89272649  0.98177877  1
  O  O24  1  0.85298607  0.45876996  0.84933232  1
  O  O25  1  0.01028011  0.75265098  0.27556568  1
  O  O26  1  0.15840295  0.03964286  0.69092798  1
  O  O27  1  0.72917619  0.17974780  0.40661801  1
