# generated using pymatgen
data_Li7Mn11O24
_symmetry_space_group_name_H-M   'P 1'
_cell_length_a   5.79102823
_cell_length_b   17.60818021
_cell_length_c   10.33766930
_cell_angle_alpha   29.75527137
_cell_angle_beta   55.93234671
_cell_angle_gamma   60.42893187
_symmetry_Int_Tables_number   1
_chemical_formula_structural   Li7Mn11O24
_chemical_formula_sum   'Li7 Mn11 O24'
_cell_volume   433.30668348
_cell_formula_units_Z   1
loop_
 _symmetry_equiv_pos_site_id
 _symmetry_equiv_pos_as_xyz
  1  'x, y, z'
loop_
 _atom_site_type_symbol
 _atom_site_label
 _atom_site_symmetry_multiplicity
 _atom_site_fract_x
 _atom_site_fract_y
 _atom_site_fract_z
 _atom_site_occupancy
  Li  Li0  1  0.13185249  0.03544854  0.06249122  1
  Li  Li1  1  0.13001290  0.33876564  0.11157680  1
  Li  Li2  1  0.12185914  0.67534171  0.11519379  1
  Li  Li3  1  0.87819270  0.99027530  0.88619954  1
  Li  Li4  1  0.86957364  0.32683963  0.88995110  1
  Li  Li5  1  0.86348632  0.63029208  0.93907020  1
  Li  Li6  1  0.00886235  0.83267756  0.50086346  1
  Mn  Mn7  1  0.49443135  0.16007430  0.01489816  1
  Mn  Mn8  1  0.50511240  0.99643739  0.49578506  1
  Mn  Mn9  1  -0.00019812  0.33292513  0.50048625  1
  Mn  Mn10  1  0.51305727  0.17103869  0.47984323  1
  Mn  Mn11  1  0.50516957  0.50566407  0.98637020  1
  Mn  Mn12  1  0.01285575  0.99679653  0.49565616  1
  Mn  Mn13  1  0.49983339  0.33274368  0.50091417  1
  Mn  Mn14  1  0.98670240  0.66913582  0.50563231  1
  Mn  Mn15  1  0.48661716  0.49466279  0.52139526  1
  Mn  Mn16  1  0.50009929  0.83293411  0.00052808  1
  Mn  Mn17  1  0.49529707  0.66900516  0.50548587  1
  O  O18  1  0.23010298  0.01695341  0.24685261  1
  O  O19  1  0.26498290  0.14876217  0.26153379  1
  O  O20  1  0.72372949  0.01673012  0.24704858  1
  O  O21  1  0.28400038  0.33384667  0.24450570  1
  O  O22  1  0.73505118  0.14845661  0.29160574  1
  O  O23  1  0.28234605  0.18635012  0.68738400  1
  O  O24  1  0.27663595  0.48975420  0.23986561  1
  O  O25  1  0.72514344  0.33355636  0.24428802  1
  O  O26  1  0.27436815  0.33223632  0.75692116  1
  O  O27  1  0.25246744  0.66376747  0.27793215  1
  O  O28  1  0.71718119  0.47926323  0.31406770  1
  O  O29  1  0.72340281  0.17588720  0.76152136  1
  O  O30  1  0.26474040  0.51719573  0.70974918  1
  O  O31  1  0.23492598  0.81566081  0.29178065  1
  O  O32  1  0.71552075  0.33173680  0.75698278  1
  O  O33  1  0.70075540  0.66363741  0.27796952  1
  O  O34  1  0.27540311  0.64899040  0.75414168  1
  O  O35  1  0.75262496  0.80589868  0.28855916  1
  O  O36  1  0.24707175  0.85975240  0.71281506  1
  O  O37  1  0.73491902  0.51693348  0.73976168  1
  O  O38  1  0.76899314  0.64867303  0.75458927  1
  O  O39  1  0.29937890  0.00197867  0.72334447  1
  O  O40  1  0.76538836  0.85003644  0.70952998  1
  O  O41  1  0.74758919  0.00221815  0.72301930  1
