# generated using pymatgen
data_Na20Zr11Si10(PO9)8
_symmetry_space_group_name_H-M   'P 1'
_cell_length_a   9.19518967
_cell_length_b   9.18183605
_cell_length_c   28.15274814
_cell_angle_alpha   60.77436850
_cell_angle_beta   60.70281074
_cell_angle_gamma   60.12350414
_symmetry_Int_Tables_number   1
_chemical_formula_structural   Na20Zr11Si10(PO9)8
_chemical_formula_sum   'Na20 Zr11 Si10 P8 O72'
_cell_volume   1700.85554289
_cell_formula_units_Z   1
loop_
 _symmetry_equiv_pos_site_id
 _symmetry_equiv_pos_as_xyz
  1  'x, y, z'
loop_
 _atom_site_type_symbol
 _atom_site_label
 _atom_site_symmetry_multiplicity
 _atom_site_fract_x
 _atom_site_fract_y
 _atom_site_fract_z
 _atom_site_occupancy
  Na  Na0  1  0.21287254  0.06505330  0.10778229  1
  Na  Na1  1  0.13883557  0.34134381  0.21998772  1
  Na  Na2  1  0.01572008  0.48379262  0.31896442  1
  Na  Na3  1  0.59609851  0.39406589  0.09497490  1
  Na  Na4  1  0.24417574  0.09723658  0.43264843  1
  Na  Na5  1  0.32579889  0.62540626  0.23036368  1
  Na  Na6  1  0.51568092  0.01618755  0.16883911  1
  Na  Na7  1  0.92441992  0.75469788  0.06183684  1
  Na  Na8  1  0.59851315  0.39968289  0.41869453  1
  Na  Na9  1  0.24609262  0.10486863  0.76148764  1
  Na  Na10  1  0.83992825  0.84281146  0.22999319  1
  Na  Na11  1  0.38573330  0.61091802  0.58458939  1
  Na  Na12  1  0.04824516  0.29211553  0.96234869  1
  Na  Na13  1  0.52415345  0.01459433  0.50638340  1
  Na  Na14  1  0.94229874  0.74116805  0.37617457  1
  Na  Na15  1  0.60162464  0.39087992  0.74927760  1
  Na  Na16  1  0.33855373  0.57243111  0.94142367  1
  Na  Na17  1  0.49900170  0.00407088  0.83927588  1
  Na  Na18  1  0.00136903  0.51979275  0.66616390  1
  Na  Na19  1  0.76327555  0.88181360  0.91652848  1
  Zr  Zr20  1  0.64621835  0.16066456  0.01173925  1
  Zr  Zr21  1  0.14274301  0.63952721  0.52448896  1
  Zr  Zr22  1  0.34896310  0.85288658  0.31230245  1
  Zr  Zr23  1  0.64083479  0.15158515  0.35615178  1
  Zr  Zr24  1  0.84797637  0.34367675  0.15163592  1
  Zr  Zr25  1  0.15673197  0.64623729  0.84854679  1
  Zr  Zr26  1  0.34267242  0.85845828  0.64471251  1
  Zr  Zr27  1  0.65415655  0.14573216  0.68354338  1
  Zr  Zr28  1  0.85029898  0.34312106  0.48528616  1
  Zr  Zr29  1  0.33547616  0.85272364  0.98587347  1
  Zr  Zr30  1  0.85573352  0.35446966  0.81232295  1
  Si  Si31  1  0.25832486  0.43509314  0.08336463  1
  Si  Si32  1  0.03778367  0.96793067  0.25735849  1
  Si  Si33  1  0.47050139  0.22480572  0.25314115  1
  Si  Si34  1  0.24442915  0.45877268  0.41950437  1
  Si  Si35  1  0.93063852  0.05091579  0.08575550  1
  Si  Si36  1  0.04806419  0.95396989  0.58293296  1
  Si  Si37  1  0.46046466  0.24945509  0.58138169  1
  Si  Si38  1  0.25122993  0.46388307  0.74275460  1
  Si  Si39  1  0.05977455  0.96197417  0.91159573  1
  Si  Si40  1  0.47790775  0.25132311  0.90455231  1
  P  P41  1  0.54597947  0.75813747  0.08345038  1
  P  P42  1  0.72209683  0.52903260  0.26140723  1
  P  P43  1  0.53632992  0.74500024  0.42198522  1
  P  P44  1  0.96085945  0.04027287  0.41958034  1
  P  P45  1  0.74511149  0.53666408  0.58850114  1
  P  P46  1  0.54197596  0.75048470  0.74775361  1
  P  P47  1  0.95365044  0.04397408  0.75079111  1
  P  P48  1  0.74842937  0.55126396  0.91233369  1
  O  O49  1  0.11002381  0.01151912  0.02649396  1
  O  O50  1  0.99826523  0.10985951  0.19666053  1
  O  O51  1  0.05087820  0.45161365  0.10360147  1
  O  O52  1  0.27637784  0.62284364  0.02596537  1
  O  O53  1  0.11733607  0.00397680  0.36523014  1
  O  O54  1  0.38673756  0.26276046  0.05900740  1
  O  O55  1  0.32161416  0.40142638  0.13231124  1
  O  O56  1  0.03261090  0.77403327  0.27548270  1
  O  O57  1  0.01240933  0.11578413  0.52404961  1
  O  O58  1  0.27648466  0.36955063  0.26173978  1
  O  O59  1  0.48120711  0.03224075  0.25898837  1
  O  O60  1  0.06147975  0.43909946  0.42979498  1
  O  O61  1  0.48758252  0.76359671  0.03830363  1
  O  O62  1  0.74753471  0.12089866  0.07051397  1
  O  O63  1  0.39361175  0.78606277  0.13760080  1
  O  O64  1  0.61986818  0.28407502  0.19079538  1
  O  O65  1  0.23013599  0.96080844  0.25124650  1
  O  O66  1  0.53569231  0.18467461  0.30510399  1
  O  O67  1  0.27041541  0.62929012  0.36101000  1
  O  O68  1  0.62194464  0.91142246  0.05357872  1
  O  O69  1  0.11341831  0.98744866  0.69967583  1
  O  O70  1  0.70335216  0.58375542  0.09412586  1
  O  O71  1  0.40571927  0.26549806  0.41944906  1
  O  O72  1  0.93484916  0.22444788  0.08912325  1
  O  O73  1  0.23130538  0.50541745  0.47114546  1
  O  O74  1  0.75468678  0.45913474  0.21576386  1
  O  O75  1  0.06920651  0.76560371  0.58337518  1
  O  O76  1  0.56705914  0.71004580  0.25577992  1
  O  O77  1  0.01976090  0.13320361  0.85375787  1
  O  O78  1  0.27916698  0.42547196  0.58020415  1
  O  O79  1  0.42959471  0.07289342  0.59363644  1
  O  O80  1  0.65716550  0.40156247  0.32378683  1
  O  O81  1  0.07588686  0.43155901  0.75256599  1
  O  O82  1  0.48937949  0.76453919  0.37317726  1
  O  O83  1  0.77947419  0.06252792  0.42128273  1
  O  O84  1  0.38019266  0.71993153  0.47961787  1
  O  O85  1  0.61974488  0.28689398  0.51962120  1
  O  O86  1  0.23770778  0.92910242  0.58346964  1
  O  O87  1  0.51476637  0.22865581  0.63293784  1
  O  O88  1  0.88556626  0.54501651  0.25658905  1
  O  O89  1  0.29681371  0.61782127  0.68112402  1
  O  O90  1  0.56971454  0.90906094  0.41260472  1
  O  O91  1  0.71139900  0.58323695  0.42530737  1
  O  O92  1  0.93984896  0.87567084  0.13900489  1
  O  O93  1  0.41733529  0.27081448  0.74573087  1
  O  O94  1  0.94251929  0.21904547  0.42031475  1
  O  O95  1  0.22628002  0.52761931  0.79259313  1
  O  O96  1  0.76427023  0.47866890  0.54156241  1
  O  O97  1  0.07689634  0.78303889  0.90548918  1
  O  O98  1  0.58642028  0.71360305  0.58792279  1
  O  O99  1  0.28595437  0.41435169  0.90193033  1
  O  O100  1  0.89078000  0.04262874  0.31166510  1
  O  O101  1  0.45451626  0.06086678  0.92587936  1
  O  O102  1  0.70745160  0.38998521  0.64771904  1
  O  O103  1  0.49372418  0.77135858  0.69900765  1
  O  O104  1  0.77417922  0.07790091  0.74824814  1
  O  O105  1  0.38348507  0.72517064  0.80474140  1
  O  O106  1  0.63694719  0.27711650  0.84150208  1
  O  O107  1  0.24574693  0.92626435  0.91693085  1
  O  O108  1  0.54018173  0.26332729  0.94700160  1
  O  O109  1  0.91378885  0.56333317  0.57666340  1
  O  O110  1  0.56263621  0.92062522  0.73901396  1
  O  O111  1  0.71307872  0.58697815  0.75181211  1
  O  O112  1  0.00611073  0.88563085  0.47309926  1
  O  O113  1  0.95255114  0.21955311  0.74785935  1
  O  O114  1  0.76483120  0.51046625  0.86205379  1
  O  O115  1  0.59093450  0.72275862  0.91939246  1
  O  O116  1  0.88331458  0.00854125  0.63835388  1
  O  O117  1  0.73019437  0.39269308  0.96825185  1
  O  O118  1  0.92061957  0.57729346  0.89968906  1
  O  O119  1  0.98113355  0.89716471  0.80776410  1
  O  O120  1  0.89328269  0.00550146  0.96741317  1
