# generated using pymatgen
data_Li7Nb8O24
_symmetry_space_group_name_H-M   'P 1'
_cell_length_a   11.19812961
_cell_length_b   9.88556468
_cell_length_c   11.18490313
_cell_angle_alpha   50.72339207
_cell_angle_beta   55.99605101
_cell_angle_gamma   28.01173614
_symmetry_Int_Tables_number   1
_chemical_formula_structural   Li7Nb8O24
_chemical_formula_sum   'Li7 Nb8 O24'
_cell_volume   450.14446430
_cell_formula_units_Z   1
loop_
 _symmetry_equiv_pos_site_id
 _symmetry_equiv_pos_as_xyz
  1  'x, y, z'
loop_
 _atom_site_type_symbol
 _atom_site_label
 _atom_site_symmetry_multiplicity
 _atom_site_fract_x
 _atom_site_fract_y
 _atom_site_fract_z
 _atom_site_occupancy
  Li  Li0  1  0.99865384  0.29133435  0.14496936  1
  Li  Li1  1  0.99724539  0.29445233  0.64776158  1
  Li  Li2  1  0.00053106  0.72703997  0.36077310  1
  Li  Li3  1  0.50146003  0.29270360  0.64645914  1
  Li  Li4  1  0.99705448  0.79862954  0.89417618  1
  Li  Li5  1  0.50182067  0.78733622  0.39821714  1
  Li  Li6  1  0.50070051  0.79280079  0.89718185  1
  Nb  Nb7  1  0.00085889  0.01229660  0.50585116  1
  Nb  Nb8  1  0.50159640  0.01238949  0.00746815  1
  Nb  Nb9  1  0.49986404  0.01622536  0.50843338  1
  Nb  Nb10  1  0.00168821  0.51721546  0.75560386  1
  Nb  Nb11  1  0.99876576  0.02070377  0.00753416  1
  Nb  Nb12  1  0.49978475  0.51305256  0.25965813  1
  Nb  Nb13  1  0.50112935  0.51028900  0.75904781  1
  Nb  Nb14  1  0.00404554  0.50523213  0.25634988  1
  O  O15  1  0.30882722  0.12338907  0.18805308  1
  O  O16  1  0.19738277  0.24321423  0.43325310  1
  O  O17  1  0.08818658  0.66162108  0.12470210  1
  O  O18  1  0.30612606  0.12554082  0.68868370  1
  O  O19  1  0.37701687  0.37295979  0.37418247  1
  O  O20  1  0.19456052  0.23988897  0.93592967  1
  O  O21  1  0.31066022  0.75417177  0.06274979  1
  O  O22  1  0.12508012  0.62599116  0.62476743  1
  O  O23  1  0.80968354  0.12870848  0.18740540  1
  O  O24  1  0.18814048  0.87410511  0.31368734  1
  O  O25  1  0.68892917  0.24819064  0.43745551  1
  O  O26  1  0.37753377  0.37189516  0.87057710  1
  O  O27  1  0.62217386  0.62903637  0.11827970  1
  O  O28  1  0.31407152  0.74385169  0.56316724  1
  O  O29  1  0.80332131  0.12984830  0.68445905  1
  O  O30  1  0.18832231  0.86621470  0.81795143  1
  O  O31  1  0.87553037  0.37484180  0.36772115  1
  O  O32  1  0.71075294  0.23396976  0.92298529  1
  O  O33  1  0.81988113  0.73424692  0.06256457  1
  O  O34  1  0.61831043  0.63342450  0.61804993  1
  O  O35  1  0.69422675  0.84477664  0.32932578  1
  O  O36  1  0.87308985  0.37999834  0.86737871  1
  O  O37  1  0.82112211  0.73307350  0.56350613  1
  O  O38  1  0.68187119  0.87444008  0.81322943  1
