# generated using pymatgen
data_Ba18Pr9Sn4Sb5O54
_symmetry_space_group_name_H-M   'P 1'
_cell_length_a   6.15920281
_cell_length_b   6.17378899
_cell_length_c   55.67380522
_cell_angle_alpha   60.33549248
_cell_angle_beta   60.14098409
_cell_angle_gamma   60.08103982
_symmetry_Int_Tables_number   1
_chemical_formula_structural   Ba18Pr9Sn4Sb5O54
_chemical_formula_sum   'Ba18 Pr9 Sn4 Sb5 O54'
_cell_volume   1503.25068838
_cell_formula_units_Z   1
loop_
 _symmetry_equiv_pos_site_id
 _symmetry_equiv_pos_as_xyz
  1  'x, y, z'
loop_
 _atom_site_type_symbol
 _atom_site_label
 _atom_site_symmetry_multiplicity
 _atom_site_fract_x
 _atom_site_fract_y
 _atom_site_fract_z
 _atom_site_occupancy
  Ba  Ba0  1  0.24618913  0.23586525  0.03020364  1
  Ba  Ba1  1  0.24705464  0.24148215  0.14048466  1
  Ba  Ba2  1  0.24927966  0.25391257  0.24974167  1
  Ba  Ba3  1  0.74363654  0.74412400  0.08540435  1
  Ba  Ba4  1  0.24941793  0.25003937  0.36123533  1
  Ba  Ba5  1  0.75552523  0.75609263  0.19252854  1
  Ba  Ba6  1  0.24911669  0.24971909  0.47245494  1
  Ba  Ba7  1  0.75256723  0.75264621  0.30470771  1
  Ba  Ba8  1  0.25093413  0.25062284  0.58307120  1
  Ba  Ba9  1  0.75124098  0.75090404  0.41628314  1
  Ba  Ba10  1  0.25105530  0.25033730  0.69416150  1
  Ba  Ba11  1  0.75114544  0.75160647  0.52736322  1
  Ba  Ba12  1  0.25510505  0.25409748  0.80394639  1
  Ba  Ba13  1  0.75141688  0.75082439  0.63847334  1
  Ba  Ba14  1  0.24976320  0.24011910  0.91783013  1
  Ba  Ba15  1  0.75558495  0.75478825  0.74820791  1
  Ba  Ba16  1  0.75913588  0.75412413  0.85861978  1
  Ba  Ba17  1  0.74409068  0.73962007  0.97468219  1
  Pr  Pr18  1  0.49366172  0.49215341  0.05783274  1
  Pr  Pr19  1  0.00063179  0.00233671  0.22183121  1
  Pr  Pr20  1  0.00050112  0.00062194  0.33315623  1
  Pr  Pr21  1  0.00019587  0.00022289  0.44436659  1
  Pr  Pr22  1  0.00098597  0.00128018  0.55520832  1
  Pr  Pr23  1  0.00329493  0.00101430  0.77690851  1
  Pr  Pr24  1  0.00416682  0.00446331  0.66524173  1
  Pr  Pr25  1  0.00749345  0.00217742  0.88697470  1
  Pr  Pr26  1  0.49391082  0.48649858  0.94728210  1
  Sn  Sn27  1  0.99183635  0.99099770  0.00281336  1
  Sn  Sn28  1  0.50271654  0.49680425  0.16640132  1
  Sn  Sn29  1  0.50376150  0.50446419  0.72085882  1
  Sn  Sn30  1  0.50250727  0.50501310  0.83220410  1
  Sb  Sb31  1  0.99527694  0.99133034  0.11313051  1
  Sb  Sb32  1  0.50025662  0.50134493  0.27759242  1
  Sb  Sb33  1  0.50037714  0.50052342  0.38873574  1
  Sb  Sb34  1  0.50063543  0.50060407  0.49980228  1
  Sb  Sb35  1  0.50324796  0.50226243  0.61013608  1
  O  O36  1  0.24076714  0.20245537  0.08632377  1
  O  O37  1  0.20570722  0.78292378  0.03143588  1
  O  O38  1  0.22233745  0.72508697  0.09226065  1
  O  O39  1  0.75642452  0.27831401  0.02320521  1
  O  O40  1  0.78004968  0.20252136  0.08631089  1
  O  O41  1  0.72848298  0.78293196  0.03143190  1
  O  O42  1  0.28440952  0.24947765  0.18906545  1
  O  O43  1  0.22071389  0.77582706  0.14093252  1
  O  O44  1  0.26844402  0.70871099  0.19492544  1
  O  O45  1  0.75703394  0.27462417  0.13460261  1
  O  O46  1  0.76443432  0.24961941  0.18906901  1
  O  O47  1  0.73514593  0.77588536  0.14092473  1
  O  O48  1  0.28789095  0.25006021  0.30109172  1
  O  O49  1  0.24604164  0.75061337  0.25471574  1
  O  O50  1  0.26904355  0.69098018  0.30789083  1
  O  O51  1  0.72986811  0.30907893  0.24792556  1
  O  O52  1  0.75241124  0.25006610  0.30108602  1
  O  O53  1  0.71107305  0.75059720  0.25472216  1
  O  O54  1  0.28834697  0.25011271  0.41214877  1
  O  O55  1  0.24727697  0.75001272  0.36567921  1
  O  O56  1  0.26956499  0.69126217  0.41883484  1
  O  O57  1  0.73040710  0.30812771  0.35900650  1
  O  O58  1  0.75209920  0.25012319  0.41215172  1
  O  O59  1  0.71152682  0.75003744  0.36567618  1
  O  O60  1  0.28974140  0.25101797  0.52290477  1
  O  O61  1  0.24829611  0.75103870  0.47645846  1
  O  O62  1  0.27071606  0.69229953  0.52959041  1
  O  O63  1  0.73157944  0.30890948  0.46978737  1
  O  O64  1  0.75318435  0.25104498  0.52290340  1
  O  O65  1  0.71260504  0.75105115  0.47645946  1
  O  O66  1  0.29460241  0.25294507  0.63271839  1
  O  O67  1  0.25110518  0.75391093  0.58679661  1
  O  O68  1  0.27437380  0.69205619  0.63993199  1
  O  O69  1  0.73382896  0.31425675  0.57979183  1
  O  O70  1  0.75806015  0.25294032  0.63271183  1
  O  O71  1  0.71388104  0.75393305  0.58679439  1
  O  O72  1  0.29143735  0.24364248  0.74461736  1
  O  O73  1  0.24234975  0.76373489  0.69741260  1
  O  O74  1  0.26804158  0.69027317  0.75261562  1
  O  O75  1  0.73992621  0.31406568  0.68955739  1
  O  O76  1  0.76325357  0.24376380  0.74460651  1
  O  O77  1  0.71698296  0.76379520  0.69740062  1
  O  O78  1  0.30014431  0.23594400  0.85473881  1
  O  O79  1  0.23628965  0.76477811  0.80973744  1
  O  O80  1  0.26844941  0.67143928  0.86577285  1
  O  O81  1  0.73747363  0.31822095  0.80073169  1
  O  O82  1  0.77134802  0.23572637  0.85472563  1
  O  O83  1  0.71132334  0.76460227  0.80973340  1
  O  O84  1  0.26120979  0.19415296  0.97241305  1
  O  O85  1  0.20468369  0.78937980  0.92200618  1
  O  O86  1  0.22875044  0.69653027  0.98293257  1
  O  O87  1  0.74807521  0.32672271  0.90849480  1
  O  O88  1  0.79307481  0.19414963  0.97239112  1
  O  O89  1  0.70799332  0.78918582  0.92196975  1
