# generated using pymatgen
data_ErB2Rh2C
_symmetry_space_group_name_H-M   'P 1'
_cell_length_a   3.78824984
_cell_length_b   3.78824985
_cell_length_c   5.82358558
_cell_angle_alpha   108.98076039
_cell_angle_beta   108.98076044
_cell_angle_gamma   90.00000008
_symmetry_Int_Tables_number   1
_chemical_formula_structural   ErB2Rh2C
_chemical_formula_sum   'Er1 B2 Rh2 C1'
_cell_volume   74.20746919
_cell_formula_units_Z   1
loop_
 _symmetry_equiv_pos_site_id
 _symmetry_equiv_pos_as_xyz
  1  'x, y, z'
loop_
 _atom_site_type_symbol
 _atom_site_label
 _atom_site_symmetry_multiplicity
 _atom_site_fract_x
 _atom_site_fract_y
 _atom_site_fract_z
 _atom_site_occupancy
  B  B0  1  0.35562219  0.35562219  0.71124438  1
  B  B1  1  0.64437781  0.64437781  0.28875562  1
  C  C2  1  0.50000000  0.50000000  0.00000000  1
  Rh  Rh3  1  0.75000000  0.25000000  0.50000000  1
  Rh  Rh4  1  0.25000000  0.75000000  0.50000000  1
  Er  Er5  1  0.00000000  0.00000000  0.00000000  1
