# generated using pymatgen
data_Li4MnCo2O7
_symmetry_space_group_name_H-M   'P 1'
_cell_length_a   3.02193449
_cell_length_b   13.66470091
_cell_length_c   6.41556477
_cell_angle_alpha   83.16943818
_cell_angle_beta   76.66673521
_cell_angle_gamma   86.42429143
_symmetry_Int_Tables_number   1
_chemical_formula_structural   Li4MnCo2O7
_chemical_formula_sum   'Li8 Mn2 Co4 O14'
_cell_volume   255.78516736
_cell_formula_units_Z   2
loop_
 _symmetry_equiv_pos_site_id
 _symmetry_equiv_pos_as_xyz
  1  'x, y, z'
loop_
 _atom_site_type_symbol
 _atom_site_label
 _atom_site_symmetry_multiplicity
 _atom_site_fract_x
 _atom_site_fract_y
 _atom_site_fract_z
 _atom_site_occupancy
  Li  Li0  1  0.85120394  0.21782339  0.07368008  1
  Li  Li1  1  0.00738229  0.49907408  0.49468966  1
  Li  Li2  1  0.14444588  0.78508833  0.92603770  1
  Li  Li3  1  0.43438222  0.35530258  0.78274260  1
  Li  Li4  1  0.57357575  0.64142997  0.21528899  1
  Li  Li5  1  0.71071667  0.92914402  0.64254732  1
  Li  Li6  1  0.27699315  0.07255100  0.36604266  1
  Li  Li7  1  0.14376388  0.28658626  0.42764191  1
  Mn  Mn8  1  -0.00182877  0.00287848  0.99587337  1
  Mn  Mn9  1  0.43453763  0.85622461  0.28626265  1
  Co  Co10  1  0.28466802  0.56861750  0.86168377  1
  Co  Co11  1  0.56762134  0.15135097  0.70081314  1
  Co  Co12  1  0.71226376  0.42193065  0.15301373  1
  Co  Co13  1  0.85889034  0.71186921  0.57595455  1
  O  O14  1  0.41681365  0.10739472  0.01095786  1
  O  O15  1  0.58096632  0.39935246  0.43282634  1
  O  O16  1  0.72645249  0.67475712  0.88093517  1
  O  O17  1  0.98232437  0.24169848  0.74540182  1
  O  O18  1  0.12056179  0.53105936  0.16298333  1
  O  O19  1  0.30667340  0.81747572  0.59402989  1
  O  O20  1  0.83613359  0.96283111  0.30587322  1
  O  O21  1  0.30199385  0.33123987  0.11000594  1
  O  O22  1  0.40738744  0.60832799  0.55390096  1
  O  O23  1  0.59414333  0.89571324  0.97562820  1
  O  O24  1  0.83327872  0.46549259  0.84575027  1
  O  O25  1  0.02854086  0.75016641  0.26579844  1
  O  O26  1  0.15799971  0.04093973  0.69169566  1
  O  O27  1  0.70811440  0.17368016  0.42194078  1
