# generated using pymatgen
data_Mn4P4O13
_symmetry_space_group_name_H-M   'P 1'
_cell_length_a   9.19714345
_cell_length_b   6.72240913
_cell_length_c   21.66045726
_cell_angle_alpha   100.65564471
_cell_angle_beta   83.97808458
_cell_angle_gamma   53.31524125
_symmetry_Int_Tables_number   1
_chemical_formula_structural   Mn4P4O13
_chemical_formula_sum   'Mn16 P16 O52'
_cell_volume   1015.25647153
_cell_formula_units_Z   4
loop_
 _symmetry_equiv_pos_site_id
 _symmetry_equiv_pos_as_xyz
  1  'x, y, z'
loop_
 _atom_site_type_symbol
 _atom_site_label
 _atom_site_symmetry_multiplicity
 _atom_site_fract_x
 _atom_site_fract_y
 _atom_site_fract_z
 _atom_site_occupancy
  Mn  Mn0  1  0.00292947  0.30675786  0.17074273  1
  Mn  Mn1  1  0.13908629  0.31687589  0.92303611  1
  Mn  Mn2  1  0.26748815  0.29977076  0.66931388  1
  Mn  Mn3  1  0.10752304  0.70020499  0.58068707  1
  Mn  Mn4  1  0.37804838  0.30779717  0.42075974  1
  Mn  Mn5  1  0.23590753  0.68319371  0.32697030  1
  Mn  Mn6  1  0.37209062  0.69324106  0.07926222  1
  Mn  Mn7  1  0.51238298  0.31757785  0.17340886  1
  Mn  Mn8  1  0.48719886  0.68309733  0.82696971  1
  Mn  Mn9  1  0.62864131  0.30600572  0.92048112  1
  Mn  Mn10  1  0.75510494  0.31989795  0.67396772  1
  Mn  Mn11  1  0.61990074  0.68011409  0.57603115  1
  Mn  Mn12  1  0.88780943  0.31690790  0.42302656  1
  Mn  Mn13  1  0.74634830  0.69397897  0.32951402  1
  Mn  Mn14  1  0.86261378  0.68241908  0.07658883  1
  Mn  Mn15  1  0.99697323  0.69219661  0.82923776  1
  P  P16  1  0.06626200  0.22646198  0.55793022  1
  P  P17  1  0.23144188  0.16785555  0.29208245  1
  P  P18  1  0.31655321  0.22659504  0.05659519  1
  P  P19  1  0.05842676  0.77344061  0.19340688  1
  P  P20  1  0.48368412  0.16593074  0.79200261  1
  P  P21  1  0.14355136  0.83216088  0.95792284  1
  P  P22  1  0.60898013  0.16799938  0.54040053  1
  P  P23  1  0.30876609  0.77349653  0.69207181  1
  P  P24  1  0.69164773  0.22664314  0.30648377  1
  P  P25  1  0.43357505  0.77449685  0.44398541  1
  P  P26  1  0.85693000  0.16830114  0.04194398  1
  P  P27  1  0.51805494  0.83171538  0.20805590  1
  P  P28  1  0.94145598  0.22550422  0.80601286  1
  P  P29  1  0.68334033  0.77333108  0.94351693  1
  P  P30  1  0.76601730  0.83199615  0.70959266  1
  P  P31  1  0.89132736  0.83406530  0.45799121  1
  O  O32  1  0.02409975  0.09168717  0.59832484  1
  O  O33  1  0.07023231  0.33654219  0.26134244  1
  O  O34  1  0.17935298  0.04479518  0.33431913  1
  O  O35  1  0.12323283  0.99814949  0.74774826  1
  O  O36  1  0.00076053  0.62459061  0.15616333  1
  O  O37  1  0.16639027  0.38292473  0.02165823  1
  O  O38  1  0.27668405  0.08738082  0.09583120  1
  O  O39  1  0.25179751  0.00182679  0.50225664  1
  O  O40  1  0.11401623  0.38493408  0.59757274  1
  O  O41  1  0.05083863  0.66737998  0.48994234  1
  O  O42  1  0.26743060  0.33835046  0.33490552  1
  O  O43  1  0.50045432  0.99990750  0.00020165  1
  O  O44  1  0.09830816  0.91263521  0.15416877  1
  O  O45  1  0.20859939  0.61710548  0.22834366  1
  O  O46  1  0.37424047  0.37542523  0.09383941  1
  O  O47  1  0.10757738  0.66165411  0.91509873  1
  O  O48  1  0.42774087  0.04687380  0.83455208  1
  O  O49  1  0.32415013  0.33263472  0.76005932  1
  O  O50  1  0.26098727  0.61503707  0.65243165  1
  O  O51  1  0.44824039  0.33389474  0.50936145  1
  O  O52  1  0.55928540  0.04130573  0.58188543  1
  O  O53  1  0.37288970  0.62938842  0.40703717  1
  O  O54  1  0.54033200  0.38392892  0.27200343  1
  O  O55  1  0.65215554  0.08769911  0.34598664  1
  O  O56  1  0.48284331  0.66042883  0.16515134  1
  O  O57  1  0.19563363  0.95523895  0.91569046  1
  O  O58  1  0.30478384  0.66344023  0.98865814  1
  O  O59  1  0.69570226  0.33674527  0.01115514  1
  O  O60  1  0.80517178  0.04480817  0.08415216  1
  O  O61  1  0.51521701  0.34144660  0.83525256  1
  O  O62  1  0.35091691  0.90827810  0.65166898  1
  O  O63  1  0.45812158  0.61575056  0.72674708  1
  O  O64  1  0.65276863  0.33013058  0.58137657  1
  O  O65  1  0.87451635  0.00009481  0.24979961  1
  O  O66  1  0.47136450  0.91519096  0.40457764  1
  O  O67  1  0.58576415  0.61587955  0.47759487  1
  O  O68  1  0.74946454  0.37539069  0.34352583  1
  O  O69  1  0.67928349  0.66326840  0.23884663  1
  O  O70  1  0.56981562  0.95519376  0.16584965  1
  O  O71  1  0.89215009  0.33957453  0.08484940  1
  O  O72  1  0.62552629  0.62458375  0.90647132  1
  O  O73  1  0.78925161  0.38412471  0.77240337  1
  O  O74  1  0.90364613  0.08480992  0.84541975  1
  O  O75  1  0.72221058  0.66987699  0.66862383  1
  O  O76  1  0.91689974  0.38423205  0.52325065  1
  O  O77  1  0.85976637  0.65856469  0.41474830  1
  O  O78  1  0.72281904  0.91228764  0.90401291  1
  O  O79  1  0.83464328  0.61607198  0.97799852  1
  O  O80  1  0.00213125  0.37060058  0.84296288  1
  O  O81  1  0.81571927  0.95867888  0.66810480  1
  O  O82  1  0.92673626  0.66610709  0.74063659  1
  O  O83  1  0.94727353  0.95311930  0.41544390  1
