# generated using pymatgen
data_Li2Cr5(PO4)4
_symmetry_space_group_name_H-M   'P 1'
_cell_length_a   8.07589069
_cell_length_b   8.53418519
_cell_length_c   5.46658409
_cell_angle_alpha   88.59668683
_cell_angle_beta   101.31129475
_cell_angle_gamma   114.94324018
_symmetry_Int_Tables_number   1
_chemical_formula_structural   Li2Cr5(PO4)4
_chemical_formula_sum   'Li2 Cr5 P4 O16'
_cell_volume   334.26630285
_cell_formula_units_Z   1
loop_
 _symmetry_equiv_pos_site_id
 _symmetry_equiv_pos_as_xyz
  1  'x, y, z'
loop_
 _atom_site_type_symbol
 _atom_site_label
 _atom_site_symmetry_multiplicity
 _atom_site_fract_x
 _atom_site_fract_y
 _atom_site_fract_z
 _atom_site_occupancy
  Li  Li0  1  0.09296699  0.27453801  0.64178263  1
  Li  Li1  1  0.90703301  0.72546199  0.35821737  1
  Cr  Cr2  1  0.41813152  0.68231772  0.66479037  1
  Cr  Cr3  1  0.24879582  0.78273078  0.12181742  1
  Cr  Cr4  1  0.00000000  0.00000000  0.00000000  1
  Cr  Cr5  1  0.75120418  0.21726922  0.87818258  1
  Cr  Cr6  1  0.58186848  0.31768228  0.33520963  1
  P  P7  1  0.20855990  0.42013936  0.12822143  1
  P  P8  1  0.79144010  0.57986064  0.87177857  1
  P  P9  1  0.29916445  0.01960636  0.64044854  1
  P  P10  1  0.70083555  0.98039364  0.35955146  1
  O  O11  1  0.35376235  0.36960894  0.28718396  1
  O  O12  1  0.74300854  0.50413651  0.12389850  1
  O  O13  1  0.49626461  0.16760423  0.63436685  1
  O  O14  1  0.81046033  0.05646271  0.62545440  1
  O  O15  1  0.66684915  0.12740673  0.21162883  1
  O  O16  1  0.02020091  0.25049467  0.05233229  1
  O  O17  1  0.64623765  0.63039106  0.71281604  1
  O  O18  1  0.50373539  0.83239577  0.36563315  1
  O  O19  1  0.18953967  0.94353729  0.37454560  1
  O  O20  1  0.33315085  0.87259327  0.78837117  1
  O  O21  1  0.83187067  0.45751389  0.71068269  1
  O  O22  1  0.16812933  0.54248611  0.28931731  1
  O  O23  1  0.19321297  0.09511182  0.77072146  1
  O  O24  1  0.25699146  0.49586349  0.87610150  1
  O  O25  1  0.97979909  0.74950533  0.94766771  1
  O  O26  1  0.80678703  0.90488818  0.22927854  1
