# generated using pymatgen
data_BaLa7Mg5Nb3O24
_symmetry_space_group_name_H-M   'P 1'
_cell_length_a   5.71796632
_cell_length_b   11.44500055
_cell_length_c   15.11428271
_cell_angle_alpha   40.82117946
_cell_angle_beta   55.34954451
_cell_angle_gamma   59.99028235
_symmetry_Int_Tables_number   1
_chemical_formula_structural   BaLa7Mg5Nb3O24
_chemical_formula_sum   'Ba1 La7 Mg5 Nb3 O24'
_cell_volume   527.39159832
_cell_formula_units_Z   1
loop_
 _symmetry_equiv_pos_site_id
 _symmetry_equiv_pos_as_xyz
  1  'x, y, z'
loop_
 _atom_site_type_symbol
 _atom_site_label
 _atom_site_symmetry_multiplicity
 _atom_site_fract_x
 _atom_site_fract_y
 _atom_site_fract_z
 _atom_site_occupancy
  Ba  Ba0  1  0.74090767  0.19226700  0.37559167  1
  La  La1  1  0.27599350  0.08038242  0.09505601  1
  La  La2  1  0.25750468  0.55636735  0.12097633  1
  La  La3  1  0.23946458  0.31269260  0.63605496  1
  La  La4  1  0.27197862  0.77866751  0.63435359  1
  La  La5  1  0.73135981  0.65746260  0.40564255  1
  La  La6  1  0.75000551  0.43308054  0.87340070  1
  La  La7  1  0.75214780  0.96842496  0.85797964  1
  Mg  Mg8  1  0.00280254  0.99849227  0.00076161  1
  Mg  Mg9  1  0.00043672  0.49964507  0.99923466  1
  Mg  Mg10  1  0.50207253  0.37506295  0.74911645  1
  Mg  Mg11  1  0.00265465  0.25002237  0.49953585  1
  Mg  Mg12  1  0.00519920  0.75141897  0.49655119  1
  Nb  Nb13  1  0.49699427  0.11797484  0.25247443  1
  Nb  Nb14  1  0.50532665  0.63176466  0.24691494  1
  Nb  Nb15  1  0.50220214  0.87211254  0.75261158  1
  O  O16  1  0.29738429  0.34781119  0.10386944  1
  O  O17  1  0.67467248  0.03796727  0.14448377  1
  O  O18  1  0.29095515  0.23314546  0.34027797  1
  O  O19  1  0.84056077  0.26221217  0.11901427  1
  O  O20  1  0.19260869  0.46817287  0.39500453  1
  O  O21  1  0.25656900  0.08136522  0.62990004  1
  O  O22  1  0.27169221  0.84455801  0.11731313  1
  O  O23  1  0.66323969  0.54568182  0.14160127  1
  O  O24  1  0.32758165  0.72815398  0.34367696  1
  O  O25  1  0.83848242  0.00443003  0.62824487  1
  O  O26  1  0.74576796  0.43751911  0.37295281  1
  O  O27  1  0.83899497  0.77457775  0.10913001  1
  O  O28  1  0.28676007  0.59941251  0.60494601  1
  O  O29  1  0.19098945  0.97131208  0.37924498  1
  O  O30  1  0.16407864  0.22480681  0.88513854  1
  O  O31  1  0.67284230  0.28771482  0.63925132  1
  O  O32  1  0.32133470  0.47378269  0.85135125  1
  O  O33  1  0.84210791  0.52758502  0.61031292  1
  O  O34  1  0.69957413  0.90827799  0.39667842  1
  O  O35  1  0.73288821  0.15262877  0.88487802  1
  O  O36  1  0.16018982  0.73182667  0.88956909  1
  O  O37  1  0.67453979  0.77633970  0.65453777  1
  O  O38  1  0.33825496  0.96108259  0.85554908  1
  O  O39  1  0.70935791  0.64612481  0.89343838  1
