# generated using pymatgen
data_LiMn4(PO4)3
_symmetry_space_group_name_H-M   'P 1'
_cell_length_a   7.48459344
_cell_length_b   7.80435109
_cell_length_c   9.95770653
_cell_angle_alpha   112.39539419
_cell_angle_beta   109.80755499
_cell_angle_gamma   94.48871643
_symmetry_Int_Tables_number   1
_chemical_formula_structural   LiMn4(PO4)3
_chemical_formula_sum   'Li2 Mn8 P6 O24'
_cell_volume   491.37887672
_cell_formula_units_Z   2
loop_
 _symmetry_equiv_pos_site_id
 _symmetry_equiv_pos_as_xyz
  1  'x, y, z'
loop_
 _atom_site_type_symbol
 _atom_site_label
 _atom_site_symmetry_multiplicity
 _atom_site_fract_x
 _atom_site_fract_y
 _atom_site_fract_z
 _atom_site_occupancy
  Li  Li0  1  0.30594030  0.15683100  0.34011545  1
  Li  Li1  1  0.69405970  0.84316900  0.65988455  1
  Mn  Mn2  1  0.24997464  0.90897010  0.91340918  1
  Mn  Mn3  1  0.31396855  0.59749456  0.28161703  1
  Mn  Mn4  1  0.68603145  0.40250544  0.71838297  1
  Mn  Mn5  1  0.99620651  0.21594313  0.54996935  1
  Mn  Mn6  1  0.27712427  0.51400095  0.91845103  1
  Mn  Mn7  1  0.75002536  0.09102990  0.08659082  1
  Mn  Mn8  1  0.72287573  0.48599905  0.08154897  1
  Mn  Mn9  1  0.00379349  0.78405687  0.45003065  1
  P  P10  1  0.99685401  0.77453631  0.08706529  1
  P  P11  1  0.68834104  0.44693041  0.39788180  1
  P  P12  1  0.57871758  0.87717763  0.25308010  1
  P  P13  1  0.00314599  0.22546369  0.91293471  1
  P  P14  1  0.42128242  0.12282237  0.74691990  1
  P  P15  1  0.31165896  0.55306959  0.60211820  1
  O  O16  1  0.23185592  0.64554638  0.48635655  1
  O  O17  1  0.53491487  0.65347558  0.15381475  1
  O  O18  1  0.14688141  0.73943884  0.00950903  1
  O  O19  1  0.46363160  0.03180086  0.86607909  1
  O  O20  1  0.77097556  0.66753909  0.48859553  1
  O  O21  1  0.99289038  0.00946305  0.83983451  1
  O  O22  1  0.19952638  0.05091257  0.63246332  1
  O  O23  1  0.23661242  0.62515663  0.73948418  1
  O  O24  1  0.22902444  0.33246091  0.51140447  1
  O  O25  1  0.43760418  0.90822141  0.33626965  1
  O  O26  1  0.04000573  0.69610277  0.21761405  1
  O  O27  1  0.00710962  0.99053695  0.16016549  1
  O  O28  1  0.46340558  0.39350806  0.33262458  1
  O  O29  1  0.20836695  0.34825820  0.03879147  1
  O  O30  1  0.80047362  0.94908743  0.36753668  1
  O  O31  1  0.79163305  0.65174180  0.96120853  1
  O  O32  1  0.53659442  0.60649194  0.66737542  1
  O  O33  1  0.85311859  0.26056116  0.99049097  1
  O  O34  1  0.76338758  0.37484337  0.26051582  1
  O  O35  1  0.95999427  0.30389723  0.78238595  1
  O  O36  1  0.56239582  0.09177859  0.66373035  1
  O  O37  1  0.53636840  0.96819914  0.13392091  1
  O  O38  1  0.46508513  0.34652442  0.84618525  1
  O  O39  1  0.76814408  0.35445362  0.51364345  1
