# generated using pymatgen
data_KLiPH2O4F
_symmetry_space_group_name_H-M   'P 1'
_cell_length_a   5.48995077
_cell_length_b   7.59886777
_cell_length_c   12.56985040
_cell_angle_alpha   90.00000000
_cell_angle_beta   108.06487882
_cell_angle_gamma   90.00000000
_symmetry_Int_Tables_number   1
_chemical_formula_structural   KLiPH2O4F
_chemical_formula_sum   'K4 Li4 P4 H8 O16 F4'
_cell_volume   498.53273100
_cell_formula_units_Z   4
loop_
 _symmetry_equiv_pos_site_id
 _symmetry_equiv_pos_as_xyz
  1  'x, y, z'
loop_
 _atom_site_type_symbol
 _atom_site_label
 _atom_site_symmetry_multiplicity
 _atom_site_fract_x
 _atom_site_fract_y
 _atom_site_fract_z
 _atom_site_occupancy
  K  K0  1  0.32364071  0.27457651  0.65347058  1
  K  K1  1  0.67635929  0.77457651  0.84652942  1
  K  K2  1  0.67635929  0.72542349  0.34652942  1
  K  K3  1  0.32364071  0.22542349  0.15347058  1
  Li  Li4  1  0.18140543  0.45856949  0.36359435  1
  Li  Li5  1  0.81859457  0.95856949  0.13640565  1
  Li  Li6  1  0.81859457  0.54143051  0.63640565  1
  Li  Li7  1  0.18140543  0.04143051  0.86359435  1
  P  P8  1  0.73783811  0.22608564  0.94718512  1
  P  P9  1  0.26216189  0.72608564  0.55281488  1
  P  P10  1  0.26216189  0.77391436  0.05281488  1
  P  P11  1  0.73783811  0.27391436  0.44718512  1
  H  H12  1  0.84693666  0.41695702  0.16178587  1
  H  H13  1  0.15306334  0.91695702  0.33821413  1
  H  H14  1  0.15306334  0.58304298  0.83821413  1
  H  H15  1  0.84693666  0.08304298  0.66178587  1
  H  H16  1  0.95948155  0.60783699  0.15836219  1
  H  H17  1  0.04051845  0.10783699  0.34163781  1
  H  H18  1  0.04051845  0.39216301  0.84163781  1
  H  H19  1  0.95948155  0.89216301  0.65836219  1
  O  O20  1  0.99605263  0.21785446  0.92455802  1
  O  O21  1  0.00394737  0.71785446  0.57544198  1
  O  O22  1  0.00394737  0.78214554  0.07544198  1
  O  O23  1  0.99605263  0.28214554  0.42455802  1
  O  O24  1  0.52380240  0.12392015  0.86417516  1
  O  O25  1  0.47619760  0.62392015  0.63582484  1
  O  O26  1  0.47619760  0.87607985  0.13582484  1
  O  O27  1  0.52380240  0.37607985  0.36417516  1
  O  O28  1  0.76084860  0.20082135  0.07078454  1
  O  O29  1  0.23915140  0.70082135  0.42921546  1
  O  O30  1  0.23915140  0.79917865  0.92921546  1
  O  O31  1  0.76084860  0.29917865  0.57078454  1
  O  O32  1  0.93852664  0.51366788  0.21023308  1
  O  O33  1  0.06147336  0.01366788  0.28976692  1
  O  O34  1  0.06147336  0.48633212  0.78976692  1
  O  O35  1  0.93852664  0.98633212  0.71023308  1
  F  F36  1  0.65468733  0.43130260  0.92300304  1
  F  F37  1  0.34531267  0.93130260  0.57699696  1
  F  F38  1  0.34531267  0.56869740  0.07699696  1
  F  F39  1  0.65468733  0.06869740  0.42300304  1
