# generated using pymatgen
data_ZnH16C6(N3O5)2
_symmetry_space_group_name_H-M   'P 1'
_cell_length_a   8.83769289
_cell_length_b   8.83769289
_cell_length_c   11.34193695
_cell_angle_alpha   69.00245972
_cell_angle_beta   110.99754028
_cell_angle_gamma   109.84907074
_symmetry_Int_Tables_number   1
_chemical_formula_structural   ZnH16C6(N3O5)2
_chemical_formula_sum   'Zn2 H32 C12 N12 O20'
_cell_volume   749.11826136
_cell_formula_units_Z   2
loop_
 _symmetry_equiv_pos_site_id
 _symmetry_equiv_pos_as_xyz
  1  'x, y, z'
loop_
 _atom_site_type_symbol
 _atom_site_label
 _atom_site_symmetry_multiplicity
 _atom_site_fract_x
 _atom_site_fract_y
 _atom_site_fract_z
 _atom_site_occupancy
  Zn  Zn0  1  0.67134642  0.67134642  0.25000000  1
  Zn  Zn1  1  0.32865358  0.32865358  0.75000000  1
  H  H2  1  0.93648632  0.16023302  0.97464504  1
  H  H3  1  0.16023302  0.93648632  0.52535496  1
  H  H4  1  0.06351368  0.83976698  0.02535496  1
  H  H5  1  0.83976698  0.06351368  0.47464504  1
  H  H6  1  0.10758904  0.32030904  0.93831198  1
  H  H7  1  0.32030904  0.10758904  0.56168802  1
  H  H8  1  0.89241096  0.67969096  0.06168802  1
  H  H9  1  0.67969096  0.89241096  0.43831198  1
  H  H10  1  0.86115863  0.10762334  0.15928331  1
  H  H11  1  0.10762334  0.86115863  0.34071669  1
  H  H12  1  0.13884137  0.89237666  0.84071669  1
  H  H13  1  0.89237666  0.13884137  0.65928331  1
  H  H14  1  0.95470715  0.25207125  0.25616248  1
  H  H15  1  0.25207125  0.95470715  0.24383752  1
  H  H16  1  0.04529285  0.74792875  0.74383752  1
  H  H17  1  0.74792875  0.04529285  0.75616248  1
  H  H18  1  0.26048487  0.49519258  0.08427488  1
  H  H19  1  0.49519258  0.26048487  0.41572512  1
  H  H20  1  0.73951513  0.50480742  0.91572512  1
  H  H21  1  0.50480742  0.73951513  0.58427488  1
  H  H22  1  0.18160483  0.46888020  0.21287724  1
  H  H23  1  0.46888020  0.18160483  0.28712276  1
  H  H24  1  0.81839517  0.53111980  0.78712276  1
  H  H25  1  0.53111980  0.81839517  0.71287724  1
  H  H26  1  0.69658406  0.42833619  0.16806970  1
  H  H27  1  0.42833619  0.69658406  0.33193030  1
  H  H28  1  0.30341594  0.57166381  0.83193030  1
  H  H29  1  0.57166381  0.30341594  0.66806970  1
  H  H30  1  0.86906965  0.47485829  0.27162395  1
  H  H31  1  0.47485829  0.86906965  0.22837605  1
  H  H32  1  0.13093035  0.52514171  0.72837605  1
  H  H33  1  0.52514171  0.13093035  0.77162395  1
  C  C34  1  0.65804740  0.90895072  0.99709178  1
  C  C35  1  0.90895072  0.65804740  0.50290822  1
  C  C36  1  0.34195260  0.09104928  0.00290822  1
  C  C37  1  0.09104928  0.34195260  0.49709178  1
  C  C38  1  0.75257403  0.51301855  0.52608104  1
  C  C39  1  0.51301855  0.75257403  0.97391896  1
  C  C40  1  0.24742597  0.48698145  0.47391896  1
  C  C41  1  0.48698145  0.24742597  0.02608104  1
  C  C42  1  0.05238647  0.29896343  0.10472769  1
  C  C43  1  0.29896343  0.05238647  0.39527231  1
  C  C44  1  0.94761353  0.70103657  0.89527231  1
  C  C45  1  0.70103657  0.94761353  0.60472769  1
  N  N46  1  0.04598844  0.24111051  0.00735894  1
  N  N47  1  0.24111051  0.04598844  0.49264106  1
  N  N48  1  0.95401156  0.75888949  0.99264106  1
  N  N49  1  0.75888949  0.95401156  0.50735894  1
  N  N50  1  0.94131995  0.21832651  0.17490017  1
  N  N51  1  0.21832651  0.94131995  0.32509983  1
  N  N52  1  0.05868005  0.78167349  0.82509983  1
  N  N53  1  0.78167349  0.05868005  0.67490017  1
  N  N54  1  0.16814461  0.43431801  0.13158785  1
  N  N55  1  0.43431801  0.16814461  0.36841215  1
  N  N56  1  0.83185539  0.56568199  0.86841215  1
  N  N57  1  0.56568199  0.83185539  0.63158785  1
  O  O58  1  0.74220954  0.90170646  0.11627972  1
  O  O59  1  0.90170646  0.74220954  0.38372028  1
  O  O60  1  0.25779046  0.09829354  0.88372028  1
  O  O61  1  0.09829354  0.25779046  0.61627972  1
  O  O62  1  0.64187000  0.47957776  0.42348418  1
  O  O63  1  0.47957776  0.64187000  0.07651582  1
  O  O64  1  0.35813000  0.52042224  0.57651582  1
  O  O65  1  0.52042224  0.35813000  0.92348418  1
  O  O66  1  0.78360875  0.52640606  0.19795867  1
  O  O67  1  0.52640606  0.78360875  0.30204133  1
  O  O68  1  0.21639125  0.47359394  0.80204133  1
  O  O69  1  0.47359394  0.21639125  0.69795867  1
  O  O70  1  0.68447732  0.03168602  0.90081401  1
  O  O71  1  0.03168602  0.68447732  0.59918599  1
  O  O72  1  0.31552268  0.96831398  0.09918599  1
  O  O73  1  0.96831398  0.31552268  0.40081401  1
  O  O74  1  0.74596824  0.43980861  0.64251745  1
  O  O75  1  0.43980861  0.74596824  0.85748255  1
  O  O76  1  0.25403176  0.56019139  0.35748255  1
  O  O77  1  0.56019139  0.25403176  0.14251745  1
