# generated using pymatgen
data_BaNaP3(HO2)6
_symmetry_space_group_name_H-M   'P 1'
_cell_length_a   7.11901034
_cell_length_b   9.12104836
_cell_length_c   10.08112724
_cell_angle_alpha   116.10757838
_cell_angle_beta   95.32563482
_cell_angle_gamma   74.70106231
_symmetry_Int_Tables_number   1
_chemical_formula_structural   BaNaP3(HO2)6
_chemical_formula_sum   'Ba2 Na2 P6 H12 O24'
_cell_volume   566.77170288
_cell_formula_units_Z   2
loop_
 _symmetry_equiv_pos_site_id
 _symmetry_equiv_pos_as_xyz
  1  'x, y, z'
loop_
 _atom_site_type_symbol
 _atom_site_label
 _atom_site_symmetry_multiplicity
 _atom_site_fract_x
 _atom_site_fract_y
 _atom_site_fract_z
 _atom_site_occupancy
  Ba  Ba0  1  0.95705844  0.76266732  0.80704931  1
  Ba  Ba1  1  0.04294156  0.23733268  0.19295069  1
  Na  Na2  1  0.21882809  0.36897563  0.87043161  1
  Na  Na3  1  0.78117191  0.63102437  0.12956839  1
  P  P4  1  0.85700335  0.30804192  0.58189147  1
  P  P5  1  0.14299665  0.69195808  0.41810853  1
  P  P6  1  0.80062271  0.22645300  0.82202109  1
  P  P7  1  0.19937729  0.77354700  0.17797891  1
  P  P8  1  0.54449237  0.52725062  0.80039309  1
  P  P9  1  0.45550763  0.47274938  0.19960691  1
  H  H10  1  0.47358801  0.00922990  0.68602362  1
  H  H11  1  0.52641199  0.99077010  0.31397638  1
  H  H12  1  0.26290470  0.98345196  0.64685116  1
  H  H13  1  0.73709530  0.01654804  0.35314884  1
  H  H14  1  0.29167666  0.00681987  0.86022026  1
  H  H15  1  0.70832334  0.99318013  0.13977974  1
  H  H16  1  0.65560862  0.09676127  0.04304559  1
  H  H17  1  0.34439138  0.90323873  0.95695441  1
  H  H18  1  0.76921543  0.68998378  0.47940582  1
  H  H19  1  0.23078457  0.31001622  0.52059418  1
  H  H20  1  0.60010244  0.65623205  0.53934786  1
  H  H21  1  0.39989756  0.34376795  0.46065214  1
  O  O22  1  0.85944995  0.17855906  0.65264220  1
  O  O23  1  0.14055005  0.82144094  0.34735780  1
  O  O24  1  0.00662528  0.40682427  0.65677336  1
  O  O25  1  0.99337472  0.59317573  0.34322664  1
  O  O26  1  0.13919066  0.78815169  0.58199158  1
  O  O27  1  0.86080934  0.21184831  0.41800842  1
  O  O28  1  0.59504948  0.36924682  0.84535192  1
  O  O29  1  0.40495052  0.63075318  0.15464808  1
  O  O30  1  0.94409278  0.30897099  0.92943740  1
  O  O31  1  0.05590722  0.69102901  0.07056260  1
  O  O32  1  0.75443414  0.07516246  0.81923202  1
  O  O33  1  0.24556586  0.92483754  0.18076798  1
  O  O34  1  0.63721157  0.43353432  0.63159688  1
  O  O35  1  0.36278843  0.56646568  0.36840312  1
  O  O36  1  0.64797879  0.65937860  0.89687598  1
  O  O37  1  0.35202121  0.34062140  0.10312402  1
  O  O38  1  0.32765760  0.56869048  0.78974121  1
  O  O39  1  0.67234240  0.43130952  0.21025879  1
  O  O40  1  0.33648842  0.06067546  0.71859284  1
  O  O41  1  0.66351158  0.93932454  0.28140716  1
  O  O42  1  0.23731623  0.97605510  0.92928472  1
  O  O43  1  0.76268377  0.02394490  0.07071528  1
  O  O44  1  0.68550130  0.73287859  0.56814115  1
  O  O45  1  0.31449870  0.26712141  0.43185885  1
