# generated using pymatgen
data_LaP3H8O7
_symmetry_space_group_name_H-M   'P 1'
_cell_length_a   7.31400800
_cell_length_b   8.09975189
_cell_length_c   9.06195133
_cell_angle_alpha   110.71216095
_cell_angle_beta   98.21008073
_cell_angle_gamma   104.62169021
_symmetry_Int_Tables_number   1
_chemical_formula_structural   LaP3H8O7
_chemical_formula_sum   'La2 P6 H16 O14'
_cell_volume   469.63955714
_cell_formula_units_Z   2
loop_
 _symmetry_equiv_pos_site_id
 _symmetry_equiv_pos_as_xyz
  1  'x, y, z'
loop_
 _atom_site_type_symbol
 _atom_site_label
 _atom_site_symmetry_multiplicity
 _atom_site_fract_x
 _atom_site_fract_y
 _atom_site_fract_z
 _atom_site_occupancy
  La  La0  1  0.84001195  0.68261754  0.63204333  1
  La  La1  1  0.15998805  0.31738246  0.36795667  1
  P  P2  1  0.65220486  0.31848461  0.23161691  1
  P  P3  1  0.34779514  0.68151539  0.76838309  1
  P  P4  1  0.03305344  0.19290562  0.91224376  1
  P  P5  1  0.96694656  0.80709438  0.08775624  1
  P  P6  1  0.53182093  0.27195023  0.68711354  1
  P  P7  1  0.46817907  0.72804977  0.31288646  1
  H  H8  1  0.65597190  0.37564314  0.10061937  1
  H  H9  1  0.34402810  0.62435686  0.89938063  1
  H  H10  1  0.63321379  0.12655814  0.16041598  1
  H  H11  1  0.36678621  0.87344186  0.83958402  1
  H  H12  1  0.22605686  0.18394178  0.91777544  1
  H  H13  1  0.77394314  0.81605822  0.08222456  1
  H  H14  1  0.03799785  0.34720676  0.87047037  1
  H  H15  1  0.96200215  0.65279324  0.12952963  1
  H  H16  1  0.54491675  0.09944293  0.68505813  1
  H  H17  1  0.45508325  0.90055707  0.31494187  1
  H  H18  1  0.54690532  0.37653316  0.85478247  1
  H  H19  1  0.45309468  0.62346684  0.14521753  1
  H  H20  1  0.14835910  0.99607659  0.55889317  1
  H  H21  1  0.85164090  0.00392341  0.44110683  1
  H  H22  1  0.18732498  0.80020735  0.48024454  1
  H  H23  1  0.81267502  0.19979265  0.51975546  1
  O  O24  1  0.84844031  0.42711266  0.35956588  1
  O  O25  1  0.15155969  0.57288734  0.64043412  1
  O  O26  1  0.47284753  0.33903124  0.29288860  1
  O  O27  1  0.52715247  0.66096876  0.70711140  1
  O  O28  1  0.88666253  0.01921886  0.77396952  1
  O  O29  1  0.11333747  0.98078114  0.22603048  1
  O  O30  1  0.00501734  0.23998264  0.08358741  1
  O  O31  1  0.99498266  0.76001736  0.91641259  1
  O  O32  1  0.71144476  0.36296363  0.64163938  1
  O  O33  1  0.28855524  0.63703637  0.35836062  1
  O  O34  1  0.32940683  0.23753158  0.58631289  1
  O  O35  1  0.67059317  0.76246842  0.41368711  1
  O  O36  1  0.11110499  0.86659863  0.54757819  1
  O  O37  1  0.88889501  0.13340137  0.45242181  1
