# generated using pymatgen
data_K2Pr2H3(S2O9)2
_symmetry_space_group_name_H-M   'P 1'
_cell_length_a   11.01586361
_cell_length_b   15.65011198
_cell_length_c   10.18943465
_cell_angle_alpha   90.00000000
_cell_angle_beta   111.96988883
_cell_angle_gamma   90.00000000
_symmetry_Int_Tables_number   1
_chemical_formula_structural   K2Pr2H3(S2O9)2
_chemical_formula_sum   'K8 Pr8 H12 S16 O72'
_cell_volume   1629.08630687
_cell_formula_units_Z   4
loop_
 _symmetry_equiv_pos_site_id
 _symmetry_equiv_pos_as_xyz
  1  'x, y, z'
loop_
 _atom_site_type_symbol
 _atom_site_label
 _atom_site_symmetry_multiplicity
 _atom_site_fract_x
 _atom_site_fract_y
 _atom_site_fract_z
 _atom_site_occupancy
  K  K0  1  0.34671564  0.32853613  0.82637047  1
  K  K1  1  0.65328436  0.82853613  0.67362953  1
  K  K2  1  0.65328436  0.67146387  0.17362953  1
  K  K3  1  0.34671564  0.17146387  0.32637047  1
  K  K4  1  0.84542186  0.41920444  0.82668026  1
  K  K5  1  0.15457814  0.91920444  0.67331974  1
  K  K6  1  0.15457814  0.58079556  0.17331974  1
  K  K7  1  0.84542186  0.08079556  0.32668026  1
  Pr  Pr8  1  0.99849275  0.17017980  0.77041160  1
  Pr  Pr9  1  0.00150725  0.67017980  0.72958840  1
  Pr  Pr10  1  0.00150725  0.82982020  0.22958840  1
  Pr  Pr11  1  0.99849275  0.32982020  0.27041160  1
  Pr  Pr12  1  0.50444309  0.08117819  0.76468005  1
  Pr  Pr13  1  0.49555691  0.58117819  0.73531995  1
  Pr  Pr14  1  0.49555691  0.91882181  0.23531995  1
  Pr  Pr15  1  0.50444309  0.41882181  0.26468005  1
  H  H16  1  0.98840050  0.47468198  0.63062487  1
  H  H17  1  0.01159950  0.97468198  0.86937513  1
  H  H18  1  0.01159950  0.52531802  0.36937513  1
  H  H19  1  0.98840050  0.02531802  0.13062487  1
  H  H20  1  0.11750908  0.49161166  0.75695466  1
  H  H21  1  0.88249092  0.99161166  0.74304534  1
  H  H22  1  0.88249092  0.50838834  0.24304534  1
  H  H23  1  0.11750908  0.00838834  0.25695466  1
  H  H24  1  0.64040083  0.24789909  0.79354039  1
  H  H25  1  0.35959917  0.74789909  0.70645961  1
  H  H26  1  0.35959917  0.75210091  0.20645961  1
  H  H27  1  0.64040083  0.25210091  0.29354039  1
  S  S28  1  0.66706541  0.07096776  0.55120613  1
  S  S29  1  0.33293459  0.57096776  0.94879387  1
  S  S30  1  0.33293459  0.92903224  0.44879387  1
  S  S31  1  0.66706541  0.42903224  0.05120613  1
  S  S32  1  0.34700767  0.40987962  0.46800219  1
  S  S33  1  0.65299233  0.90987962  0.03199781  1
  S  S34  1  0.65299233  0.59012038  0.53199781  1
  S  S35  1  0.34700767  0.09012038  0.96800219  1
  S  S36  1  0.84086740  0.33197852  0.48424872  1
  S  S37  1  0.15913260  0.83197852  0.01575128  1
  S  S38  1  0.15913260  0.66802148  0.51575128  1
  S  S39  1  0.84086740  0.16802148  0.98424872  1
  S  S40  1  0.15582950  0.16938874  0.56081275  1
  S  S41  1  0.84417050  0.66938874  0.93918725  1
  S  S42  1  0.84417050  0.83061126  0.43918725  1
  S  S43  1  0.15582950  0.33061126  0.06081275  1
  O  O44  1  0.79232289  0.11674222  0.57867990  1
  O  O45  1  0.20767711  0.61674222  0.92132010  1
  O  O46  1  0.20767711  0.88325778  0.42132010  1
  O  O47  1  0.79232289  0.38325778  0.07867990  1
  O  O48  1  0.62262482  0.46633805  0.90683048  1
  O  O49  1  0.37737518  0.96633805  0.59316952  1
  O  O50  1  0.37737518  0.53366195  0.09316952  1
  O  O51  1  0.62262482  0.03366195  0.40683048  1
  O  O52  1  0.56350367  0.13099836  0.55861794  1
  O  O53  1  0.43649633  0.63099836  0.94138206  1
  O  O54  1  0.43649633  0.86900164  0.44138206  1
  O  O55  1  0.56350367  0.36900164  0.05861794  1
  O  O56  1  0.68567121  0.00490547  0.66265627  1
  O  O57  1  0.31432879  0.50490547  0.83734373  1
  O  O58  1  0.31432879  0.99509453  0.33734373  1
  O  O59  1  0.68567121  0.49509453  0.16265627  1
  O  O60  1  0.39653287  0.44066935  0.61632148  1
  O  O61  1  0.60346713  0.94066935  0.88367852  1
  O  O62  1  0.60346713  0.55933065  0.38367852  1
  O  O63  1  0.39653287  0.05933065  0.11632148  1
  O  O64  1  0.34885800  0.01967237  0.86897335  1
  O  O65  1  0.65114200  0.51967237  0.63102665  1
  O  O66  1  0.65114200  0.98032763  0.13102665  1
  O  O67  1  0.34885800  0.48032763  0.36897335  1
  O  O68  1  0.43312407  0.15865861  0.94751258  1
  O  O69  1  0.56687593  0.65865861  0.55248742  1
  O  O70  1  0.56687593  0.84134139  0.05248742  1
  O  O71  1  0.43312407  0.34134139  0.44751258  1
  O  O72  1  0.21173986  0.12256805  0.93220911  1
  O  O73  1  0.78826014  0.62256805  0.56779089  1
  O  O74  1  0.78826014  0.87743195  0.06779089  1
  O  O75  1  0.21173986  0.37743195  0.43220911  1
  O  O76  1  0.71540708  0.12120448  0.94506870  1
  O  O77  1  0.28459292  0.62120448  0.55493130  1
  O  O78  1  0.28459292  0.87879552  0.05493130  1
  O  O79  1  0.71540708  0.37879552  0.44506870  1
  O  O80  1  0.94631672  0.10830717  0.98217685  1
  O  O81  1  0.05368328  0.60830717  0.51782315  1
  O  O82  1  0.05368328  0.89169283  0.01782315  1
  O  O83  1  0.94631672  0.39169283  0.48217685  1
  O  O84  1  0.87434569  0.29513988  0.62729327  1
  O  O85  1  0.12565431  0.79513988  0.87270673  1
  O  O86  1  0.12565431  0.70486012  0.37270673  1
  O  O87  1  0.87434569  0.20486012  0.12729327  1
  O  O88  1  0.82986638  0.23507071  0.87500757  1
  O  O89  1  0.17013362  0.73507071  0.62499243  1
  O  O90  1  0.17013362  0.76492929  0.12499243  1
  O  O91  1  0.82986638  0.26492929  0.37500757  1
  O  O92  1  0.07926126  0.09558730  0.58363259  1
  O  O93  1  0.92073874  0.59558730  0.91636741  1
  O  O94  1  0.92073874  0.90441270  0.41636741  1
  O  O95  1  0.07926126  0.40441270  0.08363259  1
  O  O96  1  0.10243590  0.30430742  0.90949522  1
  O  O97  1  0.89756410  0.80430742  0.59050478  1
  O  O98  1  0.89756410  0.69569258  0.09050478  1
  O  O99  1  0.10243590  0.19569258  0.40949522  1
  O  O100  1  0.29632194  0.14777512  0.60087429  1
  O  O101  1  0.70367806  0.64777512  0.89912571  1
  O  O102  1  0.70367806  0.85222488  0.39912571  1
  O  O103  1  0.29632194  0.35222488  0.10087429  1
  O  O104  1  0.14000654  0.23933725  0.65332076  1
  O  O105  1  0.85999346  0.73933725  0.84667924  1
  O  O106  1  0.85999346  0.76066275  0.34667924  1
  O  O107  1  0.14000654  0.26066275  0.15332076  1
  O  O108  1  0.02243156  0.50286714  0.72369761  1
  O  O109  1  0.97756844  0.00286714  0.77630239  1
  O  O110  1  0.97756844  0.49713286  0.27630239  1
  O  O111  1  0.02243156  0.99713286  0.22369761  1
  O  O112  1  0.54461243  0.23961799  0.75857288  1
  O  O113  1  0.45538757  0.73961799  0.74142712  1
  O  O114  1  0.45538757  0.76038201  0.24142712  1
  O  O115  1  0.54461243  0.26038201  0.25857288  1
