# generated using pymatgen
data_Na2Ca9NdY5HoF41
_symmetry_space_group_name_H-M   'P 1'
_cell_length_a   10.54067084
_cell_length_b   10.41954871
_cell_length_c   10.43554084
_cell_angle_alpha   110.49812017
_cell_angle_beta   111.17381954
_cell_angle_gamma   110.62506927
_symmetry_Int_Tables_number   1
_chemical_formula_structural   Na2Ca9NdY5HoF41
_chemical_formula_sum   'Na2 Ca9 Nd1 Y5 Ho1 F41'
_cell_volume   837.31755021
_cell_formula_units_Z   1
loop_
 _symmetry_equiv_pos_site_id
 _symmetry_equiv_pos_as_xyz
  1  'x, y, z'
loop_
 _atom_site_type_symbol
 _atom_site_label
 _atom_site_symmetry_multiplicity
 _atom_site_fract_x
 _atom_site_fract_y
 _atom_site_fract_z
 _atom_site_occupancy
  Na  Na0  1  0.38639083  0.75402983  0.34610169  1
  Na  Na1  1  0.95209860  0.79187005  0.68296845  1
  Ca  Ca2  1  0.07225073  0.55656266  0.85949013  1
  Ca  Ca3  1  0.13498056  0.92321629  0.46100145  1
  Ca  Ca4  1  0.23136259  0.65938333  0.60221860  1
  Ca  Ca5  1  0.34392706  0.40121211  0.75301771  1
  Ca  Ca6  1  0.43942467  0.13272134  0.91401591  1
  Ca  Ca7  1  0.56411866  0.87003200  0.06689776  1
  Ca  Ca8  1  0.61033849  0.24476568  0.67103015  1
  Ca  Ca9  1  0.77331563  0.35159963  0.40544999  1
  Ca  Ca10  1  0.92792956  0.44228513  0.13181233  1
  Nd  Nd11  1  0.86593189  0.06569631  0.57854551  1
  Y  Y12  1  0.01330995  0.18003334  0.29542442  1
  Y  Y13  1  0.68115375  0.95872599  0.79813563  1
  Y  Y14  1  0.18841315  0.31228140  0.01979307  1
  Y  Y15  1  0.80233652  0.70259920  0.96514019  1
  Y  Y16  1  0.33276000  0.05466407  0.22307345  1
  Ho  Ho17  1  0.65556358  0.60244442  0.23840603  1
  F  F18  1  0.02051298  0.57839544  0.63701485  1
  F  F19  1  0.19879863  0.89156562  0.67791483  1
  F  F20  1  0.12974594  0.34966454  0.80624628  1
  F  F21  1  0.13965971  0.68717317  0.37488532  1
  F  F22  1  0.31727381  0.63081335  0.84438136  1
  F  F23  1  0.08762563  0.14605033  0.52940699  1
  F  F24  1  0.46652274  0.91143522  0.85131934  1
  F  F25  1  0.33657247  0.97379645  0.39444817  1
  F  F26  1  0.23287113  0.41752056  0.53119307  1
  F  F27  1  0.40513463  0.35724269  0.97869204  1
  F  F28  1  0.14901629  0.52464966  0.08577522  1
  F  F29  1  0.44403656  0.75451660  0.57620801  1
  F  F30  1  0.28978451  0.81573270  0.08606285  1
  F  F31  1  0.20479617  0.12683859  0.32672419  1
  F  F32  1  0.37896956  0.17007708  0.69268685  1
  F  F33  1  0.62460660  0.76105865  0.85389207  1
  F  F34  1  0.57648856  0.46027960  0.74842946  1
  F  F35  1  0.43375187  0.53661168  0.24247449  1
  F  F36  1  0.29607260  0.17686158  0.09432489  1
  F  F37  1  0.62698670  0.83010449  0.29959207  1
  F  F38  1  0.76103447  0.86144265  0.63920332  1
  F  F39  1  0.65482402  0.18339429  0.87344692  1
  F  F40  1  0.56016151  0.26441364  0.44450051  1
  F  F41  1  0.94240083  0.69698797  0.85181490  1
  F  F42  1  0.85258209  0.48290576  0.91846240  1
  F  F43  1  0.58829915  0.63116695  0.02066982  1
  F  F44  1  0.73024311  0.55479653  0.43151326  1
  F  F45  1  0.62677608  0.01891834  0.58013183  1
  F  F46  1  0.51940133  0.09401392  0.15221158  1
  F  F47  1  0.89219073  0.83750049  0.45342077  1
  F  F48  1  0.88184221  0.91215013  0.20723694  1
  F  F49  1  0.68311295  0.38228737  0.15168333  1
  F  F50  1  0.83638638  0.30201494  0.63038411  1
  F  F51  1  0.90659700  0.19017010  0.86155658  1
  F  F52  1  0.86684225  0.65440613  0.17791739  1
  F  F53  1  0.94574712  0.95672940  0.00473924  1
  F  F54  1  0.81354535  0.12878660  0.35906906  1
  F  F55  1  0.07792102  0.07858258  0.78773588  1
  F  F56  1  0.96684186  0.39492625  0.34378442  1
  F  F57  1  0.77386876  0.08261596  0.07260834  1
  F  F58  1  0.09434848  0.30977922  0.17991461  1
