# generated using pymatgen
data_NaCa3UH16C3SO25F
_symmetry_space_group_name_H-M   'P 1'
_cell_length_a   9.67879597
_cell_length_b   9.64824094
_cell_length_c   14.26183274
_cell_angle_alpha   92.07676840
_cell_angle_beta   91.43724308
_cell_angle_gamma   120.14367159
_symmetry_Int_Tables_number   1
_chemical_formula_structural   NaCa3UH16C3SO25F
_chemical_formula_sum   'Na2 Ca6 U2 H32 C6 S2 O50 F2'
_cell_volume   1149.51388725
_cell_formula_units_Z   2
loop_
 _symmetry_equiv_pos_site_id
 _symmetry_equiv_pos_as_xyz
  1  'x, y, z'
loop_
 _atom_site_type_symbol
 _atom_site_label
 _atom_site_symmetry_multiplicity
 _atom_site_fract_x
 _atom_site_fract_y
 _atom_site_fract_z
 _atom_site_occupancy
  Na  Na0  1  0.01902763  0.01942847  0.71253214  1
  Na  Na1  1  0.98097237  0.98057153  0.28746786  1
  Ca  Ca2  1  0.33777918  0.44943973  0.76905021  1
  Ca  Ca3  1  0.66222082  0.55056027  0.23094979  1
  Ca  Ca4  1  0.14465081  0.71798937  0.77301840  1
  Ca  Ca5  1  0.85534919  0.28201063  0.22698160  1
  Ca  Ca6  1  0.60309435  0.90965965  0.78114189  1
  Ca  Ca7  1  0.39690565  0.09034035  0.21885811  1
  U  U8  1  0.69974558  0.36392851  0.81832088  1
  U  U9  1  0.30025442  0.63607149  0.18167912  1
  H  H10  1  0.24954441  0.30001751  0.56665005  1
  H  H11  1  0.75045559  0.69998249  0.43334995  1
  H  H12  1  0.30777331  0.19559840  0.61213833  1
  H  H13  1  0.69222669  0.80440160  0.38786167  1
  H  H14  1  0.05692560  0.76018586  0.56694583  1
  H  H15  1  0.94307440  0.23981414  0.43305417  1
  H  H16  1  0.89793051  0.70518846  0.61322982  1
  H  H17  1  0.10206949  0.29481154  0.38677018  1
  H  H18  1  0.71463765  0.95349739  0.57208226  1
  H  H19  1  0.28536235  0.04650261  0.42791774  1
  H  H20  1  0.82182511  0.12251170  0.61635865  1
  H  H21  1  0.17817489  0.87748830  0.38364135  1
  H  H22  1  0.19653638  0.71881138  0.98447189  1
  H  H23  1  0.80346362  0.28118862  0.01552811  1
  H  H24  1  0.07352800  0.78002143  0.96768245  1
  H  H25  1  0.92647200  0.21997857  0.03231755  1
  H  H26  1  0.52942225  0.83821437  0.98097526  1
  H  H27  1  0.47057775  0.16178563  0.01902474  1
  H  H28  1  0.68293547  0.01374112  0.99606487  1
  H  H29  1  0.31706453  0.98625888  0.00393513  1
  H  H30  1  0.36934140  0.36395471  0.41276968  1
  H  H31  1  0.63065860  0.63604529  0.58723032  1
  H  H32  1  0.32115964  0.48841046  0.45455321  1
  H  H33  1  0.67884036  0.51158954  0.54544679  1
  H  H34  1  0.98639059  0.61266684  0.41291037  1
  H  H35  1  0.01360941  0.38733316  0.58708963  1
  H  H36  1  0.16420933  0.67322439  0.45208993  1
  H  H37  1  0.83579067  0.32677561  0.54791007  1
  H  H38  1  0.62234694  0.99895942  0.41251894  1
  H  H39  1  0.37765306  0.00104058  0.58748106  1
  H  H40  1  0.50848383  0.83047903  0.45516972  1
  H  H41  1  0.49151617  0.16952097  0.54483028  1
  C  C42  1  0.95817970  0.29481050  0.80946391  1
  C  C43  1  0.04182030  0.70518950  0.19053609  1
  C  C44  1  0.37028664  0.10592016  0.80183712  1
  C  C45  1  0.62971336  0.89407984  0.19816288  1
  C  C46  1  0.76676922  0.68892520  0.80598384  1
  C  C47  1  0.23323078  0.31107480  0.19401616  1
  S  S48  1  0.34630754  0.67777060  0.61132094  1
  S  S49  1  0.65369246  0.32222940  0.38867906  1
  O  O50  1  0.71263492  0.36980720  0.94861945  1
  O  O51  1  0.28736508  0.63019280  0.05138055  1
  O  O52  1  0.68873013  0.35308095  0.69068580  1
  O  O53  1  0.31126987  0.64691905  0.30931420  1
  O  O54  1  0.98208907  0.44164760  0.81335430  1
  O  O55  1  0.01791093  0.55835240  0.18664570  1
  O  O56  1  0.80771579  0.18345070  0.81486385  1
  O  O57  1  0.19228421  0.81654930  0.18513615  1
  O  O58  1  0.06948366  0.26303505  0.80115871  1
  O  O59  1  0.93051634  0.73696495  0.19884129  1
  O  O60  1  0.49165383  0.08188428  0.81078388  1
  O  O61  1  0.50834617  0.91811572  0.18921612  1
  O  O62  1  0.41124430  0.25824303  0.81266213  1
  O  O63  1  0.58875570  0.74175697  0.18733787  1
  O  O64  1  0.22815090  0.99500128  0.78343360  1
  O  O65  1  0.77184910  0.00499872  0.21656640  1
  O  O66  1  0.62091717  0.56675513  0.81024366  1
  O  O67  1  0.37908283  0.43324487  0.18975634  1
  O  O68  1  0.87866819  0.65054497  0.81619099  1
  O  O69  1  0.12133181  0.34945503  0.18380901  1
  O  O70  1  0.79751236  0.82972323  0.79209002  1
  O  O71  1  0.20248764  0.17027677  0.20790998  1
  O  O72  1  0.37040836  0.83513427  0.64999482  1
  O  O73  1  0.62959164  0.16486573  0.35000518  1
  O  O74  1  0.48220367  0.65885563  0.64786414  1
  O  O75  1  0.51779633  0.34114437  0.35213586  1
  O  O76  1  0.19464034  0.54597231  0.64782141  1
  O  O77  1  0.80535966  0.45402769  0.35217859  1
  O  O78  1  0.33778433  0.67002054  0.50720838  1
  O  O79  1  0.66221567  0.32997946  0.49279162  1
  O  O80  1  0.25565065  0.26017570  0.62843265  1
  O  O81  1  0.74434935  0.73982430  0.37156735  1
  O  O82  1  0.01517685  0.76134223  0.62939315  1
  O  O83  1  0.98482315  0.23865777  0.37060685  1
  O  O84  1  0.76536760  0.00829040  0.63361670  1
  O  O85  1  0.23463240  0.99170960  0.36638330  1
  O  O86  1  0.35580283  0.42798540  0.95057043  1
  O  O87  1  0.64419717  0.57201460  0.04942957  1
  O  O88  1  0.17298716  0.78925050  0.94691423  1
  O  O89  1  0.82701284  0.21074950  0.05308577  1
  O  O90  1  0.61863614  0.92300349  0.94959817  1
  O  O91  1  0.38136386  0.07699651  0.05040183  1
  O  O92  1  0.28506214  0.37261888  0.44577404  1
  O  O93  1  0.71493786  0.62738112  0.55422596  1
  O  O94  1  0.08242744  0.70512936  0.44436735  1
  O  O95  1  0.91757256  0.29487064  0.55563265  1
  O  O96  1  0.62159948  0.91034029  0.44564025  1
  O  O97  1  0.37840052  0.08965971  0.55435975  1
  O  O98  1  0.02897448  0.07057620  0.99065506  1
  O  O99  1  0.97102552  0.92942380  0.00934494  1
  F  F100  1  0.36148816  0.69047304  0.82246249  1
  F  F101  1  0.63851184  0.30952696  0.17753751  1
