# generated using pymatgen
data_CuH5Pb4SO11
_symmetry_space_group_name_H-M   'P 1'
_cell_length_a   14.21864937
_cell_length_b   11.73524540
_cell_length_c   14.75473548
_cell_angle_alpha   90.00000000
_cell_angle_beta   100.08581190
_cell_angle_gamma   90.00000000
_symmetry_Int_Tables_number   1
_chemical_formula_structural   CuH5Pb4SO11
_chemical_formula_sum   'Cu8 H40 Pb32 S8 O88'
_cell_volume   2423.91962199
_cell_formula_units_Z   8
loop_
 _symmetry_equiv_pos_site_id
 _symmetry_equiv_pos_as_xyz
  1  'x, y, z'
loop_
 _atom_site_type_symbol
 _atom_site_label
 _atom_site_symmetry_multiplicity
 _atom_site_fract_x
 _atom_site_fract_y
 _atom_site_fract_z
 _atom_site_occupancy
  Cu  Cu0  1  0.76187143  0.49357502  0.79225846  1
  Cu  Cu1  1  0.23812857  0.99357502  0.70774154  1
  Cu  Cu2  1  0.23812857  0.50642498  0.20774154  1
  Cu  Cu3  1  0.76187143  0.00642498  0.29225846  1
  Cu  Cu4  1  0.49458529  0.74671745  0.97933378  1
  Cu  Cu5  1  0.50541471  0.24671745  0.52066622  1
  Cu  Cu6  1  0.50541471  0.25328255  0.02066622  1
  Cu  Cu7  1  0.49458529  0.75328255  0.47933378  1
  H  H8  1  0.60660218  0.56999430  0.72212843  1
  H  H9  1  0.39339782  0.06999430  0.77787157  1
  H  H10  1  0.39339782  0.43000570  0.27787157  1
  H  H11  1  0.60660218  0.93000570  0.22212843  1
  H  H12  1  0.60560974  0.42224917  0.81105414  1
  H  H13  1  0.39439026  0.92224917  0.68894586  1
  H  H14  1  0.39439026  0.57775083  0.18894586  1
  H  H15  1  0.60560974  0.07775083  0.31105414  1
  H  H16  1  0.91134483  0.40870977  0.85456077  1
  H  H17  1  0.08865517  0.90870977  0.64543923  1
  H  H18  1  0.08865517  0.59129023  0.14543923  1
  H  H19  1  0.91134483  0.09129023  0.35456077  1
  H  H20  1  0.90744868  0.59044161  0.78406772  1
  H  H21  1  0.09255132  0.09044161  0.71593228  1
  H  H22  1  0.09255132  0.40955839  0.21593228  1
  H  H23  1  0.90744868  0.90955839  0.28406772  1
  H  H24  1  0.53747201  0.67154965  0.84131334  1
  H  H25  1  0.46252799  0.17154965  0.65868666  1
  H  H26  1  0.46252799  0.32845035  0.15868666  1
  H  H27  1  0.53747201  0.82845035  0.34131334  1
  H  H28  1  0.44601964  0.82457523  0.11599183  1
  H  H29  1  0.55398036  0.32457523  0.38400817  1
  H  H30  1  0.55398036  0.17542477  0.88400817  1
  H  H31  1  0.44601964  0.67542477  0.61599183  1
  H  H32  1  0.55137620  0.67742482  0.13331722  1
  H  H33  1  0.44862380  0.17742482  0.36668278  1
  H  H34  1  0.44862380  0.32257518  0.86668278  1
  H  H35  1  0.55137620  0.82257518  0.63331722  1
  H  H36  1  0.44826521  0.81873439  0.82840976  1
  H  H37  1  0.55173479  0.31873439  0.67159024  1
  H  H38  1  0.55173479  0.18126561  0.17159024  1
  H  H39  1  0.44826521  0.68126561  0.32840976  1
  H  H40  1  0.03219019  0.26430829  0.89539539  1
  H  H41  1  0.96780981  0.76430829  0.60460461  1
  H  H42  1  0.96780981  0.73569171  0.10460461  1
  H  H43  1  0.03219019  0.23569171  0.39539539  1
  H  H44  1  0.88389672  0.99108846  0.75973005  1
  H  H45  1  0.11610328  0.49108846  0.74026995  1
  H  H46  1  0.11610328  0.00891154  0.24026995  1
  H  H47  1  0.88389672  0.50891154  0.25973005  1
  Pb  Pb48  1  0.78029254  0.22311995  0.68010003  1
  Pb  Pb49  1  0.21970746  0.72311995  0.81989997  1
  Pb  Pb50  1  0.21970746  0.77688005  0.31989997  1
  Pb  Pb51  1  0.78029254  0.27688005  0.18010003  1
  Pb  Pb52  1  0.89157098  0.52235939  0.58196089  1
  Pb  Pb53  1  0.10842902  0.02235939  0.91803911  1
  Pb  Pb54  1  0.10842902  0.47764061  0.41803911  1
  Pb  Pb55  1  0.89157098  0.97764061  0.08196089  1
  Pb  Pb56  1  0.90004592  0.50551064  0.06507267  1
  Pb  Pb57  1  0.09995408  0.00551064  0.43492733  1
  Pb  Pb58  1  0.09995408  0.49448936  0.93492733  1
  Pb  Pb59  1  0.90004592  0.99448936  0.56507267  1
  Pb  Pb60  1  0.74582943  0.75250934  0.90713897  1
  Pb  Pb61  1  0.25417057  0.25250934  0.59286103  1
  Pb  Pb62  1  0.25417057  0.24749066  0.09286103  1
  Pb  Pb63  1  0.74582943  0.74749066  0.40713897  1
  Pb  Pb64  1  0.76509703  0.26759358  0.43369738  1
  Pb  Pb65  1  0.23490297  0.76759358  0.06630262  1
  Pb  Pb66  1  0.23490297  0.73240642  0.56630262  1
  Pb  Pb67  1  0.76509703  0.23240642  0.93369738  1
  Pb  Pb68  1  0.77082428  0.72166796  0.15447931  1
  Pb  Pb69  1  0.22917572  0.22166796  0.34552069  1
  Pb  Pb70  1  0.22917572  0.27833204  0.84552069  1
  Pb  Pb71  1  0.77082428  0.77833204  0.65447931  1
  Pb  Pb72  1  0.63438490  0.49089304  0.00606592  1
  Pb  Pb73  1  0.36561510  0.99089304  0.49393408  1
  Pb  Pb74  1  0.36561510  0.50910696  0.99393408  1
  Pb  Pb75  1  0.63438490  0.00910696  0.50606592  1
  Pb  Pb76  1  0.63714587  0.49910785  0.54231453  1
  Pb  Pb77  1  0.36285413  0.99910785  0.95768547  1
  Pb  Pb78  1  0.36285413  0.50089215  0.45768547  1
  Pb  Pb79  1  0.63714587  0.00089215  0.04231453  1
  S  S80  1  0.58115359  0.50320172  0.26474919  1
  S  S81  1  0.41884641  0.00320172  0.23525081  1
  S  S82  1  0.41884641  0.49679828  0.73525081  1
  S  S83  1  0.58115359  0.99679828  0.76474919  1
  S  S84  1  0.01190339  0.28210679  0.58508588  1
  S  S85  1  0.98809661  0.78210679  0.91491412  1
  S  S86  1  0.98809661  0.71789321  0.41491412  1
  S  S87  1  0.01190339  0.21789321  0.08508588  1
  O  O88  1  0.51741972  0.40264450  0.27715153  1
  O  O89  1  0.48258028  0.90264450  0.22284847  1
  O  O90  1  0.48258028  0.59735550  0.72284847  1
  O  O91  1  0.51741972  0.09735550  0.77715153  1
  O  O92  1  0.63791211  0.47537689  0.19230417  1
  O  O93  1  0.36208789  0.97537689  0.30769583  1
  O  O94  1  0.36208789  0.52462311  0.80769583  1
  O  O95  1  0.63791211  0.02462311  0.69230417  1
  O  O96  1  0.51771286  0.60509832  0.23534058  1
  O  O97  1  0.48228714  0.10509832  0.26465942  1
  O  O98  1  0.48228714  0.39490168  0.76465942  1
  O  O99  1  0.51771286  0.89490168  0.73534058  1
  O  O100  1  0.64493548  0.52867495  0.35382533  1
  O  O101  1  0.35506452  0.02867495  0.14617467  1
  O  O102  1  0.35506452  0.47132505  0.64617467  1
  O  O103  1  0.64493548  0.97132505  0.85382533  1
  O  O104  1  0.06659276  0.17256617  0.58827743  1
  O  O105  1  0.93340724  0.67256617  0.91172257  1
  O  O106  1  0.93340724  0.82743383  0.41172257  1
  O  O107  1  0.06659276  0.32743383  0.08827743  1
  O  O108  1  0.08235977  0.37842412  0.60289974  1
  O  O109  1  0.91764023  0.87842412  0.89710026  1
  O  O110  1  0.91764023  0.62157588  0.39710026  1
  O  O111  1  0.08235977  0.12157588  0.10289974  1
  O  O112  1  0.94881470  0.28159599  0.65556619  1
  O  O113  1  0.05118530  0.78159599  0.84443381  1
  O  O114  1  0.05118530  0.71840401  0.34443381  1
  O  O115  1  0.94881470  0.21840401  0.15556619  1
  O  O116  1  0.95239385  0.29879443  0.49059674  1
  O  O117  1  0.04760615  0.79879443  0.00940326  1
  O  O118  1  0.04760615  0.70120557  0.50940326  1
  O  O119  1  0.95239385  0.20120557  0.99059674  1
  O  O120  1  0.76235829  0.13924525  0.54527164  1
  O  O121  1  0.23764171  0.63924525  0.95472836  1
  O  O122  1  0.23764171  0.86075475  0.45472836  1
  O  O123  1  0.76235829  0.36075475  0.04527164  1
  O  O124  1  0.77095016  0.39524223  0.56349717  1
  O  O125  1  0.22904984  0.89524223  0.93650283  1
  O  O126  1  0.22904984  0.60475777  0.43650283  1
  O  O127  1  0.77095016  0.10475777  0.06349717  1
  O  O128  1  0.76154531  0.64359220  0.53752931  1
  O  O129  1  0.23845469  0.14359220  0.96247069  1
  O  O130  1  0.23845469  0.35640780  0.46247069  1
  O  O131  1  0.76154531  0.85640780  0.03752931  1
  O  O132  1  0.75878478  0.60864636  0.01897790  1
  O  O133  1  0.24121522  0.10864636  0.48102210  1
  O  O134  1  0.24121522  0.39135364  0.98102210  1
  O  O135  1  0.75878478  0.89135364  0.51897790  1
  O  O136  1  0.67122130  0.56477604  0.70503514  1
  O  O137  1  0.32877870  0.06477604  0.79496486  1
  O  O138  1  0.32877870  0.43522396  0.29496486  1
  O  O139  1  0.67122130  0.93522396  0.20503514  1
  O  O140  1  0.66938423  0.42924265  0.85124690  1
  O  O141  1  0.33061577  0.92924265  0.64875310  1
  O  O142  1  0.33061577  0.57075735  0.14875310  1
  O  O143  1  0.66938423  0.07075735  0.35124690  1
  O  O144  1  0.85271480  0.42284991  0.87943386  1
  O  O145  1  0.14728520  0.92284991  0.62056614  1
  O  O146  1  0.14728520  0.57715009  0.12056614  1
  O  O147  1  0.85271480  0.07715009  0.37943386  1
  O  O148  1  0.85740282  0.55895887  0.73592280  1
  O  O149  1  0.14259718  0.05895887  0.76407720  1
  O  O150  1  0.14259718  0.44104113  0.26407720  1
  O  O151  1  0.85740282  0.94104113  0.23592280  1
  O  O152  1  0.57428538  0.68721088  0.90348421  1
  O  O153  1  0.42571462  0.18721088  0.59651579  1
  O  O154  1  0.42571462  0.31278912  0.09651579  1
  O  O155  1  0.57428538  0.81278912  0.40348421  1
  O  O156  1  0.41177284  0.80040972  0.05430558  1
  O  O157  1  0.58822716  0.30040972  0.44569442  1
  O  O158  1  0.58822716  0.19959028  0.94569442  1
  O  O159  1  0.41177284  0.69959028  0.55430558  1
  O  O160  1  0.58251518  0.69786233  0.08021755  1
  O  O161  1  0.41748482  0.19786233  0.41978245  1
  O  O162  1  0.41748482  0.30213767  0.91978245  1
  O  O163  1  0.58251518  0.80213767  0.58021755  1
  O  O164  1  0.41083213  0.80370800  0.87766285  1
  O  O165  1  0.58916787  0.30370800  0.62233715  1
  O  O166  1  0.58916787  0.19629200  0.12233715  1
  O  O167  1  0.41083213  0.69629200  0.37766285  1
  O  O168  1  0.06628628  0.31413753  0.85793631  1
  O  O169  1  0.93371372  0.81413753  0.64206369  1
  O  O170  1  0.93371372  0.68586247  0.14206369  1
  O  O171  1  0.06628628  0.18586247  0.35793631  1
  O  O172  1  0.85156064  0.03066542  0.70440001  1
  O  O173  1  0.14843936  0.53066542  0.79559999  1
  O  O174  1  0.14843936  0.96933458  0.29559999  1
  O  O175  1  0.85156064  0.46933458  0.20440001  1
