# generated using pymatgen
data_Li15(NiO2)14
_symmetry_space_group_name_H-M   'P 1'
_cell_length_a   5.20489420
_cell_length_b   5.20489398
_cell_length_c   71.40190868
_cell_angle_alpha   32.51115006
_cell_angle_beta   32.51115343
_cell_angle_gamma   32.77596150
_symmetry_Int_Tables_number   1
_chemical_formula_structural   Li15(NiO2)14
_chemical_formula_sum   'Li15 Ni14 O28'
_cell_volume   499.31665295
_cell_formula_units_Z   1
loop_
 _symmetry_equiv_pos_site_id
 _symmetry_equiv_pos_as_xyz
  1  'x, y, z'
loop_
 _atom_site_type_symbol
 _atom_site_label
 _atom_site_symmetry_multiplicity
 _atom_site_fract_x
 _atom_site_fract_y
 _atom_site_fract_z
 _atom_site_occupancy
  Li  Li0  1  0.68629684  0.68629684  0.03780219  1
  Li  Li1  1  0.35163703  0.35163703  0.09986368  1
  Li  Li2  1  0.89808436  0.89808436  0.15643531  1
  Li  Li3  1  0.96979242  0.96979242  0.21874717  1
  Li  Li4  1  0.99867949  0.99867949  0.35735251  1
  Li  Li5  1  0.99125335  0.99125335  0.28709687  1
  Li  Li6  1  -0.00197553  -0.00197553  0.50030177  1
  Li  Li7  1  0.00001272  0.00001272  0.42857401  1
  Li  Li8  1  0.00214919  0.00214919  0.64252206  1
  Li  Li9  1  -0.00121504  -0.00121504  0.57160485  1
  Li  Li10  1  0.00331550  0.00331550  0.71378867  1
  Li  Li11  1  0.00769509  0.00769509  0.78460029  1
  Li  Li12  1  0.02360898  0.02360898  0.85367361  1
  Li  Li13  1  0.61081995  0.61081995  0.97794005  1
  Li  Li14  1  0.07740472  0.07740472  0.91865849  1
  Ni  Ni15  1  0.48498117  0.48498117  0.03416785  1
  Ni  Ni16  1  0.51220096  0.51220096  0.10881508  1
  Ni  Ni17  1  0.48456278  0.48456278  0.18160919  1
  Ni  Ni18  1  0.48745670  0.48745670  0.25207273  1
  Ni  Ni19  1  0.49547003  0.49547003  0.32212106  1
  Ni  Ni20  1  0.49897994  0.49897994  0.39295917  1
  Ni  Ni21  1  0.49953293  0.49953293  0.46431855  1
  Ni  Ni22  1  0.49984177  0.49984177  0.53574829  1
  Ni  Ni23  1  0.50041922  0.50041922  0.60707677  1
  Ni  Ni24  1  0.50160637  0.50160637  0.67832126  1
  Ni  Ni25  1  0.50416762  0.50416762  0.74939721  1
  Ni  Ni26  1  0.50927526  0.50927526  0.82012963  1
  Ni  Ni27  1  0.51453345  0.51453345  0.89084180  1
  Ni  Ni28  1  0.50523500  0.50523500  0.96085969  1
  O  O29  1  0.25024801  0.25024801  0.01273014  1
  O  O30  1  0.25371275  0.25371275  0.08775378  1
  O  O31  1  0.74106832  0.74106832  0.05607438  1
  O  O32  1  0.21599360  0.21599360  0.16539738  1
  O  O33  1  0.73631659  0.73631659  0.13029995  1
  O  O34  1  0.23100992  0.23100992  0.23325615  1
  O  O35  1  0.73315095  0.73315095  0.20137294  1
  O  O36  1  0.24355094  0.24355094  0.30266069  1
  O  O37  1  0.73884092  0.73884092  0.27138987  1
  O  O38  1  0.24934401  0.24934401  0.37316295  1
  O  O39  1  0.74552716  0.74552716  0.34189535  1
  O  O40  1  0.25163475  0.25163475  0.44419562  1
  O  O41  1  0.74896373  0.74896373  0.41275154  1
  O  O42  1  0.24996703  0.24996703  0.51593686  1
  O  O43  1  0.74807993  0.74807993  0.48435258  1
  O  O44  1  0.25082201  0.25082201  0.58723085  1
  O  O45  1  0.74960351  0.74960351  0.55556764  1
  O  O46  1  0.25133689  0.25133689  0.65858794  1
  O  O47  1  0.75011111  0.75011111  0.62688474  1
  O  O48  1  0.25318808  0.25318808  0.72973559  1
  O  O49  1  0.75104206  0.75104206  0.69816392  1
  O  O50  1  0.25873780  0.25873780  0.80046763  1
  O  O51  1  0.75452510  0.75452510  0.76909553  1
  O  O52  1  0.26383311  0.26383311  0.87120275  1
  O  O53  1  0.76235775  0.76235775  0.83947477  1
  O  O54  1  0.25266065  0.25266065  0.94342787  1
  O  O55  1  0.77514737  0.77514737  0.90840187  1
  O  O56  1  0.79840367  0.79840367  0.97577090  1
