# generated using pymatgen
data_Ti2P4H9C2NO16
_symmetry_space_group_name_H-M   'P 1'
_cell_length_a   10.91397486
_cell_length_b   6.45316203
_cell_length_c   20.87137268
_cell_angle_alpha   90.00000000
_cell_angle_beta   104.22774438
_cell_angle_gamma   90.00000000
_symmetry_Int_Tables_number   1
_chemical_formula_structural   Ti2P4H9C2NO16
_chemical_formula_sum   'Ti8 P16 H36 C8 N4 O64'
_cell_volume   1424.87443972
_cell_formula_units_Z   4
loop_
 _symmetry_equiv_pos_site_id
 _symmetry_equiv_pos_as_xyz
  1  'x, y, z'
loop_
 _atom_site_type_symbol
 _atom_site_label
 _atom_site_symmetry_multiplicity
 _atom_site_fract_x
 _atom_site_fract_y
 _atom_site_fract_z
 _atom_site_occupancy
  Ti  Ti0  1  0.60739321  0.53754082  0.30065596  1
  Ti  Ti1  1  0.10739321  0.96245918  0.80065596  1
  Ti  Ti2  1  0.39260679  0.46245918  0.69934404  1
  Ti  Ti3  1  0.89260679  0.03754082  0.19934404  1
  Ti  Ti4  1  0.40044107  0.03985417  0.10692056  1
  Ti  Ti5  1  0.90044107  0.46014583  0.60692056  1
  Ti  Ti6  1  0.59955893  0.96014583  0.89307944  1
  Ti  Ti7  1  0.09955893  0.53985417  0.39307944  1
  P  P8  1  0.33310328  0.68442317  0.32797801  1
  P  P9  1  0.83310328  0.81557683  0.82797801  1
  P  P10  1  0.66689672  0.31557683  0.67202199  1
  P  P11  1  0.16689672  0.18442317  0.17202199  1
  P  P12  1  0.61644169  0.03751566  0.25625820  1
  P  P13  1  0.11644169  0.46248434  0.75625820  1
  P  P14  1  0.38355831  0.96248434  0.74374180  1
  P  P15  1  0.88355831  0.53751566  0.24374180  1
  P  P16  1  0.47068012  0.54648394  0.13466702  1
  P  P17  1  0.97068012  0.95351606  0.63466702  1
  P  P18  1  0.52931988  0.45351606  0.86533298  1
  P  P19  1  0.02931988  0.04648394  0.36533298  1
  P  P20  1  0.67857482  0.07452212  0.05351407  1
  P  P21  1  0.17857482  0.42547788  0.55351407  1
  P  P22  1  0.32142518  0.92547788  0.94648593  1
  P  P23  1  0.82142518  0.57452212  0.44648593  1
  H  H24  1  0.17418151  0.74884741  0.24117823  1
  H  H25  1  0.67418151  0.75115259  0.74117823  1
  H  H26  1  0.82581849  0.25115259  0.75882177  1
  H  H27  1  0.32581849  0.24884741  0.25882177  1
  H  H28  1  0.64762746  0.70445002  0.12838994  1
  H  H29  1  0.14762746  0.79554998  0.62838994  1
  H  H30  1  0.35237254  0.29554998  0.87161006  1
  H  H31  1  0.85237254  0.20445002  0.37161006  1
  H  H32  1  0.64959288  0.41277569  0.06764652  1
  H  H33  1  0.14959288  0.08722431  0.56764652  1
  H  H34  1  0.35040712  0.58722431  0.93235348  1
  H  H35  1  0.85040712  0.91277569  0.43235348  1
  H  H36  1  0.35151794  0.96716276  0.42644425  1
  H  H37  1  0.85151794  0.53283724  0.92644425  1
  H  H38  1  0.64848206  0.03283724  0.57355575  1
  H  H39  1  0.14848206  0.46716276  0.07355575  1
  H  H40  1  0.28207893  0.09331920  0.48117441  1
  H  H41  1  0.78207893  0.40668080  0.98117441  1
  H  H42  1  0.71792107  0.90668080  0.51882559  1
  H  H43  1  0.21792107  0.59331920  0.01882559  1
  H  H44  1  0.42088578  0.31027657  0.43498345  1
  H  H45  1  0.92088578  0.18972343  0.93498345  1
  H  H46  1  0.57911422  0.68972343  0.56501655  1
  H  H47  1  0.07911422  0.81027657  0.06501655  1
  H  H48  1  0.46700654  0.29139494  0.52340488  1
  H  H49  1  0.96700654  0.20860506  0.02340488  1
  H  H50  1  0.53299346  0.70860506  0.47659512  1
  H  H51  1  0.03299346  0.79139494  0.97659512  1
  H  H52  1  0.42421984  0.95820796  0.57629951  1
  H  H53  1  0.92421984  0.54179204  0.07629951  1
  H  H54  1  0.57578016  0.04179204  0.42370049  1
  H  H55  1  0.07578016  0.45820796  0.92370049  1
  H  H56  1  0.34490482  0.75701407  0.52382383  1
  H  H57  1  0.84490482  0.74298593  0.02382383  1
  H  H58  1  0.65509518  0.24298593  0.47617617  1
  H  H59  1  0.15509518  0.25701407  0.97617617  1
  C  C60  1  0.45890624  0.20736065  0.47687639  1
  C  C61  1  0.95890624  0.29263935  0.97687639  1
  C  C62  1  0.54109376  0.79263935  0.52312361  1
  C  C63  1  0.04109376  0.70736065  0.02312361  1
  C  C64  1  0.41495623  0.88066932  0.52853312  1
  C  C65  1  0.91495623  0.61933068  0.02853312  1
  C  C66  1  0.58504377  0.11933068  0.47146688  1
  C  C67  1  0.08504377  0.38066932  0.97146688  1
  N  N68  1  0.36681850  0.03519796  0.47485674  1
  N  N69  1  0.86681850  0.46480204  0.97485674  1
  N  N70  1  0.63318150  0.96480204  0.52514326  1
  N  N71  1  0.13318150  0.53519796  0.02514326  1
  O  O72  1  0.61331780  0.22909597  0.30018463  1
  O  O73  1  0.11331780  0.27090403  0.80018463  1
  O  O74  1  0.38668220  0.77090403  0.69981537  1
  O  O75  1  0.88668220  0.72909597  0.19981537  1
  O  O76  1  0.69904682  0.52567848  0.39372814  1
  O  O77  1  0.19904682  0.97432152  0.89372814  1
  O  O78  1  0.30095318  0.47432152  0.60627186  1
  O  O79  1  0.80095318  0.02567848  0.10627186  1
  O  O80  1  0.61239119  0.84052756  0.29788247  1
  O  O81  1  0.11239119  0.65947244  0.79788247  1
  O  O82  1  0.38760881  0.15947244  0.70211753  1
  O  O83  1  0.88760881  0.34052756  0.20211753  1
  O  O84  1  0.50252904  0.53000019  0.20946692  1
  O  O85  1  0.00252904  0.96999981  0.70946692  1
  O  O86  1  0.49747096  0.46999981  0.79053308  1
  O  O87  1  0.99747096  0.03000019  0.29053308  1
  O  O88  1  0.76389809  0.53629036  0.27049046  1
  O  O89  1  0.26389809  0.96370964  0.77049046  1
  O  O90  1  0.23610191  0.46370964  0.72950954  1
  O  O91  1  0.73610191  0.03629036  0.22950954  1
  O  O92  1  0.44836093  0.54385951  0.32765707  1
  O  O93  1  0.94836093  0.95614049  0.82765707  1
  O  O94  1  0.55163907  0.45614049  0.67234293  1
  O  O95  1  0.05163907  0.04385951  0.17234293  1
  O  O96  1  0.49801140  0.04218246  0.19686273  1
  O  O97  1  0.99801140  0.45781754  0.69686273  1
  O  O98  1  0.50198860  0.95781754  0.80313727  1
  O  O99  1  0.00198860  0.54218246  0.30313727  1
  O  O100  1  0.41378746  0.34902926  0.09961255  1
  O  O101  1  0.91378746  0.15097074  0.59961255  1
  O  O102  1  0.58621254  0.65097074  0.90038745  1
  O  O103  1  0.08621254  0.84902926  0.40038745  1
  O  O104  1  0.31348887  0.03450238  0.01074817  1
  O  O105  1  0.81348887  0.46549762  0.51074817  1
  O  O106  1  0.68651113  0.96549762  0.98925183  1
  O  O107  1  0.18651113  0.53450238  0.48925183  1
  O  O108  1  0.38737196  0.73447268  0.10896999  1
  O  O109  1  0.88737196  0.76552732  0.60896999  1
  O  O110  1  0.61262804  0.26552732  0.89103001  1
  O  O111  1  0.11262804  0.23447268  0.39103001  1
  O  O112  1  0.24552795  0.06508730  0.12959491  1
  O  O113  1  0.74552795  0.43491270  0.62959491  1
  O  O114  1  0.75447205  0.93491270  0.87040509  1
  O  O115  1  0.25447205  0.56508730  0.37040509  1
  O  O116  1  0.56404450  0.01145238  0.07888586  1
  O  O117  1  0.06404450  0.48854762  0.57888586  1
  O  O118  1  0.43595550  0.98854762  0.92111414  1
  O  O119  1  0.93595550  0.51145238  0.42111414  1
  O  O120  1  0.25460745  0.67468197  0.25325513  1
  O  O121  1  0.75460745  0.82531803  0.75325513  1
  O  O122  1  0.74539255  0.32531803  0.74674487  1
  O  O123  1  0.24539255  0.17468197  0.24674487  1
  O  O124  1  0.36555296  0.89699718  0.35629353  1
  O  O125  1  0.86555296  0.60300282  0.85629353  1
  O  O126  1  0.63444704  0.10300282  0.64370647  1
  O  O127  1  0.13444704  0.39699718  0.14370647  1
  O  O128  1  0.60291745  0.57434212  0.11326736  1
  O  O129  1  0.10291745  0.92565788  0.61326736  1
  O  O130  1  0.39708255  0.42565788  0.88673264  1
  O  O131  1  0.89708255  0.07434212  0.38673264  1
  O  O132  1  0.67561990  0.31382899  0.03616728  1
  O  O133  1  0.17561990  0.18617101  0.53616728  1
  O  O134  1  0.32438010  0.68617101  0.96383272  1
  O  O135  1  0.82438010  0.81382899  0.46383272  1
