# generated using pymatgen
data_Li4MnCo2O7
_symmetry_space_group_name_H-M   'P 1'
_cell_length_a   3.02920321
_cell_length_b   11.14985502
_cell_length_c   7.79574006
_cell_angle_alpha   100.43712844
_cell_angle_beta   96.65179512
_cell_angle_gamma   83.40665433
_symmetry_Int_Tables_number   1
_chemical_formula_structural   Li4MnCo2O7
_chemical_formula_sum   'Li8 Mn2 Co4 O14'
_cell_volume   256.01336898
_cell_formula_units_Z   2
loop_
 _symmetry_equiv_pos_site_id
 _symmetry_equiv_pos_as_xyz
  1  'x, y, z'
loop_
 _atom_site_type_symbol
 _atom_site_label
 _atom_site_symmetry_multiplicity
 _atom_site_fract_x
 _atom_site_fract_y
 _atom_site_fract_z
 _atom_site_occupancy
  Li  Li0  1  0.77939622  0.07805347  0.63942304  1
  Li  Li1  1  0.93027877  0.35412255  0.21340173  1
  Li  Li2  1  0.07108821  0.64023524  0.78663034  1
  Li  Li3  1  0.21592628  0.92881096  0.35751964  1
  Li  Li4  1  0.35343319  0.21896606  0.92880462  1
  Li  Li5  1  0.50395327  0.49670066  0.50401079  1
  Li  Li6  1  0.64707793  0.78322124  0.07136732  1
  Li  Li7  1  0.14360542  0.28628988  0.57278480  1
  Mn  Mn8  1  0.00301535  0.00275990  0.00406923  1
  Mn  Mn9  1  0.42450184  0.85627361  0.71002083  1
  Co  Co10  1  0.28647985  0.56891753  0.14259277  1
  Co  Co11  1  0.58159752  0.14909477  0.30045870  1
  Co  Co12  1  0.71375646  0.42470023  0.84512744  1
  Co  Co13  1  0.84969073  0.71139912  0.42526751  1
  O  O14  1  0.36692909  0.03040148  0.82188047  1
  O  O15  1  0.53126811  0.30614542  0.38021578  1
  O  O16  1  0.69699686  0.59184075  0.96426347  1
  O  O17  1  0.80029156  0.88092963  0.53357031  1
  O  O18  1  0.94901791  0.17178335  0.11639020  1
  O  O19  1  0.09995138  0.46115967  0.69291100  1
  O  O20  1  0.21330346  0.73909519  0.25064780  1
  O  O21  1  0.19643319  0.11101172  0.45177933  1
  O  O22  1  0.34591109  0.40212256  0.03057597  1
  O  O23  1  0.48389725  0.68556202  0.59812724  1
  O  O24  1  0.62638431  0.97956654  0.18206563  1
  O  O25  1  0.75430773  0.26771177  0.76530849  1
  O  O26  1  0.86515207  0.54404022  0.31697922  1
  O  O27  1  0.06635495  0.82908445  0.89380631  1
