# generated using pymatgen
data_Ti5Fe11O24
_symmetry_space_group_name_H-M   'P 1'
_cell_length_a   5.52816365
_cell_length_b   5.58516050
_cell_length_c   22.17486626
_cell_angle_alpha   55.16483942
_cell_angle_beta   55.75196079
_cell_angle_gamma   55.37192113
_symmetry_Int_Tables_number   1
_chemical_formula_structural   Ti5Fe11O24
_chemical_formula_sum   'Ti5 Fe11 O24'
_cell_volume   432.71350728
_cell_formula_units_Z   1
loop_
 _symmetry_equiv_pos_site_id
 _symmetry_equiv_pos_as_xyz
  1  'x, y, z'
loop_
 _atom_site_type_symbol
 _atom_site_label
 _atom_site_symmetry_multiplicity
 _atom_site_fract_x
 _atom_site_fract_y
 _atom_site_fract_z
 _atom_site_occupancy
  Ti  Ti0  1  0.33640314  0.35435460  0.09478892  1
  Ti  Ti1  1  0.34299860  0.36943915  0.33316151  1
  Ti  Ti2  1  0.15942743  0.13921684  0.53532701  1
  Ti  Ti3  1  0.84532647  0.86368155  0.71136287  1
  Ti  Ti4  1  0.84892060  0.85996312  0.96438014  1
  Fe  Fe5  1  0.13897235  0.14879203  0.03440281  1
  Fe  Fe6  1  0.13805484  0.14695247  0.28802097  1
  Fe  Fe7  1  0.65584312  0.63966708  0.15938674  1
  Fe  Fe8  1  0.85289306  0.85481669  0.21390597  1
  Fe  Fe9  1  0.35697412  0.35298209  0.58997133  1
  Fe  Fe10  1  0.64669108  0.63793467  0.41309052  1
  Fe  Fe11  1  0.14042634  0.14550972  0.78652477  1
  Fe  Fe12  1  0.86134824  0.85243974  0.46184921  1
  Fe  Fe13  1  0.35838945  0.35865427  0.83583777  1
  Fe  Fe14  1  0.64268370  0.64914422  0.65864781  1
  Fe  Fe15  1  0.64230343  0.65096879  0.91238236  1
  O  O16  1  0.08349382  0.71485341  0.11590032  1
  O  O17  1  0.46213372  0.07844930  0.18069805  1
  O  O18  1  0.71300062  0.46467060  0.01474182  1
  O  O19  1  0.23225875  0.56414484  0.24169342  1
  O  O20  1  0.58804430  0.95206691  0.05404168  1
  O  O21  1  0.06097593  0.72011041  0.36373242  1
  O  O22  1  0.98409107  0.22144587  0.13759661  1
  O  O23  1  0.43599180  0.05798790  0.43723748  1
  O  O24  1  0.71388510  0.45876554  0.26990716  1
  O  O25  1  0.25175006  0.55167427  0.48638860  1
  O  O26  1  0.56166012  0.94975266  0.31306731  1
  O  O27  1  0.05087361  0.78192292  0.60914937  1
  O  O28  1  0.94300914  0.24528152  0.39249259  1
  O  O29  1  0.44749502  0.05088173  0.69256733  1
  O  O30  1  0.77993816  0.43834804  0.51204170  1
  O  O31  1  0.21425960  0.55700418  0.74184199  1
  O  O32  1  0.55150170  0.94829026  0.55662692  1
  O  O33  1  0.05701172  0.73980334  0.86355209  1
  O  O34  1  0.95126962  0.21714936  0.64110724  1
  O  O35  1  0.46503905  0.05553042  0.93127161  1
  O  O36  1  0.75021721  0.44433309  0.76343375  1
  O  O37  1  0.23179030  0.58215754  0.98410743  1
  O  O38  1  0.56301459  0.94598094  0.80991714  1
  O  O39  1  0.93963904  0.23487792  0.89384524  1
