# generated using pymatgen
data_Sb4H8C2S7N
_symmetry_space_group_name_H-M   'P 1'
_cell_length_a   7.78900812
_cell_length_b   7.78900812
_cell_length_c   26.34878256
_cell_angle_alpha   90.00000000
_cell_angle_beta   90.00000000
_cell_angle_gamma   80.94142851
_symmetry_Int_Tables_number   1
_chemical_formula_structural   Sb4H8C2S7N
_chemical_formula_sum   'Sb16 H32 C8 S28 N4'
_cell_volume   1578.60779894
_cell_formula_units_Z   4
loop_
 _symmetry_equiv_pos_site_id
 _symmetry_equiv_pos_as_xyz
  1  'x, y, z'
loop_
 _atom_site_type_symbol
 _atom_site_label
 _atom_site_symmetry_multiplicity
 _atom_site_fract_x
 _atom_site_fract_y
 _atom_site_fract_z
 _atom_site_occupancy
  Sb  Sb0  1  0.09695587  0.70413149  0.81990384  1
  Sb  Sb1  1  0.29586851  0.90304413  0.18009616  1
  Sb  Sb2  1  0.79586851  0.40304413  0.31990384  1
  Sb  Sb3  1  0.59695587  0.20413149  0.68009616  1
  Sb  Sb4  1  0.90304413  0.29586851  0.18009616  1
  Sb  Sb5  1  0.70413149  0.09695587  0.81990384  1
  Sb  Sb6  1  0.20413149  0.59695587  0.68009616  1
  Sb  Sb7  1  0.40304413  0.79586851  0.31990384  1
  Sb  Sb8  1  0.53429287  0.53429287  0.88873611  1
  Sb  Sb9  1  0.46570713  0.46570713  0.11126389  1
  Sb  Sb10  1  0.96570713  0.96570713  0.38873611  1
  Sb  Sb11  1  0.03429287  0.03429287  0.61126389  1
  Sb  Sb12  1  0.13616991  0.13616991  0.75611581  1
  Sb  Sb13  1  0.86383009  0.86383009  0.24388419  1
  Sb  Sb14  1  0.36383009  0.36383009  0.25611581  1
  Sb  Sb15  1  0.63616991  0.63616991  0.74388419  1
  H  H16  1  0.24784463  0.24784463  0.92368306  1
  H  H17  1  0.75215537  0.75215537  0.07631694  1
  H  H18  1  0.25215537  0.25215537  0.42368306  1
  H  H19  1  0.74784463  0.74784463  0.57631694  1
  H  H20  1  0.11978490  0.11978490  0.89907927  1
  H  H21  1  0.88021510  0.88021510  0.10092073  1
  H  H22  1  0.38021510  0.38021510  0.39907927  1
  H  H23  1  0.61978490  0.61978490  0.60092073  1
  H  H24  1  0.39121232  0.98189739  0.94602005  1
  H  H25  1  0.01810261  0.60878768  0.05397995  1
  H  H26  1  0.51810261  0.10878768  0.44602005  1
  H  H27  1  0.89121232  0.48189739  0.55397995  1
  H  H28  1  0.60878768  0.01810261  0.05397995  1
  H  H29  1  0.98189739  0.39121232  0.94602005  1
  H  H30  1  0.48189739  0.89121232  0.55397995  1
  H  H31  1  0.10878768  0.51810261  0.44602005  1
  H  H32  1  0.19306054  0.89855604  0.95683533  1
  H  H33  1  0.10144396  0.80693946  0.04316467  1
  H  H34  1  0.60144396  0.30693946  0.45683533  1
  H  H35  1  0.69306054  0.39855604  0.54316467  1
  H  H36  1  0.80693946  0.10144396  0.04316467  1
  H  H37  1  0.89855604  0.19306054  0.95683533  1
  H  H38  1  0.39855604  0.69306054  0.54316467  1
  H  H39  1  0.30693946  0.60144396  0.45683533  1
  H  H40  1  0.26622968  0.04620678  0.00181087  1
  H  H41  1  0.95379322  0.73377032  0.99818913  1
  H  H42  1  0.45379322  0.23377032  0.50181087  1
  H  H43  1  0.76622968  0.54620678  0.49818913  1
  H  H44  1  0.73377032  0.95379322  0.99818913  1
  H  H45  1  0.04620678  0.26622968  0.00181087  1
  H  H46  1  0.54620678  0.76622968  0.49818913  1
  H  H47  1  0.23377032  0.45379322  0.50181087  1
  C  C48  1  0.25984809  0.01124590  0.96160828  1
  C  C49  1  0.98875410  0.74015191  0.03839172  1
  C  C50  1  0.48875410  0.24015191  0.46160828  1
  C  C51  1  0.75984809  0.51124590  0.53839172  1
  C  C52  1  0.74015191  0.98875410  0.03839172  1
  C  C53  1  0.01124590  0.25984809  0.96160828  1
  C  C54  1  0.51124590  0.75984809  0.53839172  1
  C  C55  1  0.24015191  0.48875410  0.46160828  1
  S  S56  1  0.57959817  0.57959817  0.98297396  1
  S  S57  1  0.42040183  0.42040183  0.01702604  1
  S  S58  1  0.92040183  0.92040183  0.48297396  1
  S  S59  1  0.07959817  0.07959817  0.51702604  1
  S  S60  1  0.86348762  0.86348762  0.87574618  1
  S  S61  1  0.13651238  0.13651238  0.12425382  1
  S  S62  1  0.63651238  0.63651238  0.37574618  1
  S  S63  1  0.36348762  0.36348762  0.62425382  1
  S  S64  1  0.21714262  0.57983817  0.90251773  1
  S  S65  1  0.42016183  0.78285738  0.09748227  1
  S  S66  1  0.92016183  0.28285738  0.40251773  1
  S  S67  1  0.71714262  0.07983817  0.59748227  1
  S  S68  1  0.78285738  0.42016183  0.09748227  1
  S  S69  1  0.57983817  0.21714262  0.90251773  1
  S  S70  1  0.07983817  0.71714262  0.59748227  1
  S  S71  1  0.28285738  0.92016183  0.40251773  1
  S  S72  1  0.94276182  0.94276182  0.72547982  1
  S  S73  1  0.05723818  0.05723818  0.27452018  1
  S  S74  1  0.55723818  0.55723818  0.22547982  1
  S  S75  1  0.44276182  0.44276182  0.77452018  1
  S  S76  1  0.29537365  0.92945752  0.81990013  1
  S  S77  1  0.07054248  0.70462635  0.18009987  1
  S  S78  1  0.57054248  0.20462635  0.31990013  1
  S  S79  1  0.79537365  0.42945752  0.68009987  1
  S  S80  1  0.70462635  0.07054248  0.18009987  1
  S  S81  1  0.92945752  0.29537365  0.81990013  1
  S  S82  1  0.42945752  0.79537365  0.68009987  1
  S  S83  1  0.20462635  0.57054248  0.31990013  1
  N  N84  1  0.16254885  0.16254885  0.93348606  1
  N  N85  1  0.83745115  0.83745115  0.06651394  1
  N  N86  1  0.33745115  0.33745115  0.43348606  1
  N  N87  1  0.66254885  0.66254885  0.56651394  1
