# generated using pymatgen
data_Li4MnCo2O7
_symmetry_space_group_name_H-M   'P 1'
_cell_length_a   3.01692983
_cell_length_b   11.13144050
_cell_length_c   7.78299504
_cell_angle_alpha   100.26331787
_cell_angle_beta   97.32539907
_cell_angle_gamma   83.08501266
_symmetry_Int_Tables_number   1
_chemical_formula_structural   Li4MnCo2O7
_chemical_formula_sum   'Li8 Mn2 Co4 O14'
_cell_volume   253.81237151
_cell_formula_units_Z   2
loop_
 _symmetry_equiv_pos_site_id
 _symmetry_equiv_pos_as_xyz
  1  'x, y, z'
loop_
 _atom_site_type_symbol
 _atom_site_label
 _atom_site_symmetry_multiplicity
 _atom_site_fract_x
 _atom_site_fract_y
 _atom_site_fract_z
 _atom_site_occupancy
  Li  Li0  1  0.78506447  0.06892579  0.64116619  1
  Li  Li1  1  0.92328274  0.36067493  0.21059913  1
  Li  Li2  1  0.07580700  0.63999239  0.78535433  1
  Li  Li3  1  0.21345471  0.92793036  0.35742364  1
  Li  Li4  1  0.36062326  0.21727606  0.92905587  1
  Li  Li5  1  0.49369668  0.50466661  0.50126107  1
  Li  Li6  1  0.64783505  0.77877104  0.07468424  1
  Li  Li7  1  0.28541812  0.57150665  0.14390375  1
  Mn  Mn8  1  -0.00096800  0.99861741  0.00110271  1
  Mn  Mn9  1  0.14392666  0.28795944  0.57237181  1
  Co  Co10  1  0.42474715  0.85297678  0.71080069  1
  Co  Co11  1  0.56993160  0.14392051  0.28574716  1
  Co  Co12  1  0.72432179  0.43481249  0.87098600  1
  Co  Co13  1  0.85027604  0.70982049  0.41480286  1
  O  O14  1  0.36315183  0.02592390  0.81762537  1
  O  O15  1  0.51384550  0.31430732  0.39294123  1
  O  O16  1  0.67522469  0.59131909  0.95104479  1
  O  O17  1  0.83689622  0.87763096  0.53348152  1
  O  O18  1  0.94225285  0.17053292  0.11361169  1
  O  O19  1  0.09286753  0.45698957  0.68599421  1
  O  O20  1  0.23767458  0.74686379  0.26322870  1
  O  O21  1  0.20531628  0.11557794  0.46065748  1
  O  O22  1  0.33783651  0.39707570  0.02259727  1
  O  O23  1  0.48196443  0.68769349  0.60018963  1
  O  O24  1  0.62738635  0.97417438  0.17821869  1
  O  O25  1  0.77071194  0.26502622  0.75351997  1
  O  O26  1  0.89509896  0.55252060  0.33648533  1
  O  O27  1  0.02235509  0.82651318  0.89114469  1
