# generated using pymatgen
data_Na3AsH14SO10
_symmetry_space_group_name_H-M   'P 1'
_cell_length_a   6.77473567
_cell_length_b   7.10608064
_cell_length_c   12.74214304
_cell_angle_alpha   90.00000000
_cell_angle_beta   90.00000000
_cell_angle_gamma   94.13453855
_symmetry_Int_Tables_number   1
_chemical_formula_structural   Na3AsH14SO10
_chemical_formula_sum   'Na6 As2 H28 S2 O20'
_cell_volume   611.83348072
_cell_formula_units_Z   2
loop_
 _symmetry_equiv_pos_site_id
 _symmetry_equiv_pos_as_xyz
  1  'x, y, z'
loop_
 _atom_site_type_symbol
 _atom_site_label
 _atom_site_symmetry_multiplicity
 _atom_site_fract_x
 _atom_site_fract_y
 _atom_site_fract_z
 _atom_site_occupancy
  Na  Na0  1  0.80042005  0.79979607  0.23869024  1
  Na  Na1  1  0.19957995  0.20020393  0.73869024  1
  Na  Na2  1  0.79702111  0.32614611  0.13178817  1
  Na  Na3  1  0.20297889  0.67385389  0.63178817  1
  Na  Na4  1  0.77672857  0.67741914  0.49397632  1
  Na  Na5  1  0.22327143  0.32258086  0.99397632  1
  As  As6  1  0.80050028  0.80691434  0.85107724  1
  As  As7  1  0.19949972  0.19308566  0.35107724  1
  H  H8  1  0.64473590  0.41579922  0.77747882  1
  H  H9  1  0.35526410  0.58420078  0.27747882  1
  H  H10  1  0.64000763  0.30272403  0.67038038  1
  H  H11  1  0.35999237  0.69727597  0.17038038  1
  H  H12  1  0.79975581  0.05426185  0.40418369  1
  H  H13  1  0.20024419  0.94573815  0.90418369  1
  H  H14  1  0.56810994  0.97935253  0.39362863  1
  H  H15  1  0.43189006  0.02064747  0.89362863  1
  H  H16  1  0.82932633  0.40653543  0.91289553  1
  H  H17  1  0.17067367  0.59346457  0.41289553  1
  H  H18  1  0.81087513  0.18364154  0.92612211  1
  H  H19  1  0.18912487  0.81635846  0.42612211  1
  H  H20  1  0.57964821  0.53663682  0.97218836  1
  H  H21  1  0.42035179  0.46336318  0.47218836  1
  H  H22  1  0.52650981  0.58844382  0.08906252  1
  H  H23  1  0.47349019  0.41155618  0.58906252  1
  H  H24  1  0.60209943  0.42742758  0.32970211  1
  H  H25  1  0.39790057  0.57257242  0.82970211  1
  H  H26  1  0.63743186  0.98123035  0.04662605  1
  H  H27  1  0.36256814  0.01876965  0.54662605  1
  H  H28  1  0.49021877  0.01433637  0.14429427  1
  H  H29  1  0.50978123  0.98566363  0.64429427  1
  H  H30  1  0.00653930  0.68820904  0.03321134  1
  H  H31  1  0.99346070  0.31179096  0.53321134  1
  H  H32  1  0.10474828  0.69000005  0.14739655  1
  H  H33  1  0.89525172  0.30999995  0.64739655  1
  H  H34  1  0.82831648  0.37999089  0.34604812  1
  H  H35  1  0.17168352  0.62000911  0.84604812  1
  S  S36  1  0.86063550  0.89049450  0.69110315  1
  S  S37  1  0.13936450  0.10950550  0.19110315  1
  O  O38  1  0.67934884  0.97275609  0.91954081  1
  O  O39  1  0.32065116  0.02724391  0.41954081  1
  O  O40  1  0.02115623  0.76733878  0.91486523  1
  O  O41  1  0.97884377  0.23266122  0.41486523  1
  O  O42  1  0.65363921  0.59443586  0.85910580  1
  O  O43  1  0.34636079  0.40556414  0.35910580  1
  O  O44  1  0.61381163  0.28832347  0.74502239  1
  O  O45  1  0.38618837  0.71167653  0.24502239  1
  O  O46  1  0.70633700  0.93935288  0.39483854  1
  O  O47  1  0.29366300  0.06064712  0.89483854  1
  O  O48  1  0.89315984  0.30192591  0.94623257  1
  O  O49  1  0.10684016  0.69807409  0.44623257  1
  O  O50  1  0.52405444  0.48083957  0.04116974  1
  O  O51  1  0.47594556  0.51916043  0.54116974  1
  O  O52  1  0.74097213  0.46667857  0.30890371  1
  O  O53  1  0.25902787  0.53332143  0.80890371  1
  O  O54  1  0.62815992  0.99635792  0.12531657  1
  O  O55  1  0.37184008  0.00364208  0.62531657  1
  O  O56  1  0.00063203  0.62465059  0.10535106  1
  O  O57  1  0.99936797  0.37534941  0.60535106  1
