# generated using pymatgen
data_CaEr15Si8Se11ClO28
_symmetry_space_group_name_H-M   'P 1'
_cell_length_a   10.86905947
_cell_length_b   10.87605904
_cell_length_c   10.87085479
_cell_angle_alpha   100.91881566
_cell_angle_beta   113.85305422
_cell_angle_gamma   113.90687681
_symmetry_Int_Tables_number   1
_chemical_formula_structural   CaEr15Si8Se11ClO28
_chemical_formula_sum   'Ca1 Er15 Si8 Se11 Cl1 O28'
_cell_volume   973.83922484
_cell_formula_units_Z   1
loop_
 _symmetry_equiv_pos_site_id
 _symmetry_equiv_pos_as_xyz
  1  'x, y, z'
loop_
 _atom_site_type_symbol
 _atom_site_label
 _atom_site_symmetry_multiplicity
 _atom_site_fract_x
 _atom_site_fract_y
 _atom_site_fract_z
 _atom_site_occupancy
  Ca  Ca0  1  0.48749206  0.81855521  0.33067787  1
  Er  Er1  1  0.01452104  0.67050467  0.18493062  1
  Er  Er2  1  0.39901361  0.69877183  0.95192526  1
  Er  Er3  1  0.01213839  0.34172732  0.33094480  1
  Er  Er4  1  0.25283402  0.95264209  0.04803952  1
  Er  Er5  1  0.24873176  0.29613509  0.70380236  1
  Er  Er6  1  0.48477329  0.67007958  0.65577926  1
  Er  Er7  1  0.10342620  0.05073714  0.30141114  1
  Er  Er8  1  0.51047189  0.18102644  0.66710664  1
  Er  Er9  1  0.90260714  0.95183158  0.70047106  1
  Er  Er10  1  0.51366549  0.33041099  0.34432810  1
  Er  Er11  1  0.75191938  0.05119966  0.94972709  1
  Er  Er12  1  0.74785509  0.70059037  0.30191954  1
  Er  Er13  1  0.98914414  0.65831696  0.66993844  1
  Er  Er14  1  0.59344842  0.29664201  0.04676691  1
  Er  Er15  1  0.98516698  0.32927973  0.81943879  1
  Si  Si16  1  0.12510592  0.90989008  0.53606339  1
  Si  Si17  1  0.37428267  0.91035800  0.78491005  1
  Si  Si18  1  0.12642815  0.21533737  0.09023585  1
  Si  Si19  1  0.62728998  0.53613394  0.90941253  1
  Si  Si20  1  0.37498707  0.46391877  0.08960744  1
  Si  Si21  1  0.87526363  0.78305553  0.90970116  1
  Si  Si22  1  0.62621586  0.08988190  0.21463167  1
  Si  Si23  1  0.87433817  0.09056784  0.46489517  1
  Se  Se24  1  0.14421867  0.49828122  0.64448853  1
  Se  Se25  1  0.24427939  0.62114571  0.37755670  1
  Se  Se26  1  0.24795351  0.12484675  0.87543594  1
  Se  Se27  1  0.13937370  0.64198325  0.99573512  1
  Se  Se28  1  0.35603512  0.35651380  0.50127262  1
  Se  Se29  1  0.64653828  0.64209723  0.50409682  1
  Se  Se30  1  0.35598832  0.00489514  0.35673071  1
  Se  Se31  1  0.75101846  0.37579382  0.62644054  1
  Se  Se32  1  0.64603804  0.00481103  0.65066419  1
  Se  Se33  1  0.85612712  0.50051200  0.35579224  1
  Se  Se34  1  0.85813931  0.35814327  0.00530776  1
  Cl  Cl35  1  0.75134096  0.87576572  0.12575152  1
  O  O36  1  0.01560373  0.83531449  0.35073206  1
  O  O37  1  0.26429149  0.83822335  0.85085514  1
  O  O38  1  0.00848053  0.85295570  0.08736077  1
  O  O39  1  0.24886975  0.85677152  0.60745378  1
  O  O40  1  0.26502151  0.42591955  0.91304191  1
  O  O41  1  0.00873618  0.15425643  0.42178159  1
  O  O42  1  0.48573014  0.83643118  0.82143001  1
  O  O43  1  0.01677178  0.17996550  0.16632902  1
  O  O44  1  0.49475811  0.58101261  0.84480262  1
  O  O45  1  0.23384610  0.08616466  0.57392386  1
  O  O46  1  0.24887458  0.39274109  0.14161208  1
  O  O47  1  0.51789175  0.35161292  0.83388050  1
  O  O48  1  0.48935701  0.91382833  0.13804359  1
  O  O49  1  0.76604670  0.85150041  0.84537065  1
  O  O50  1  0.23461651  0.14744473  0.16067347  1
  O  O51  1  0.51059132  0.08708672  0.85162489  1
  O  O52  1  0.48803639  0.64760959  0.16095470  1
  O  O53  1  0.75322544  0.60585896  0.85803366  1
  O  O54  1  0.77386936  0.91450395  0.42521646  1
  O  O55  1  0.51097005  0.42332273  0.16090618  1
  O  O56  1  0.98384050  0.81684122  0.83428449  1
  O  O57  1  0.51943005  0.16791409  0.18453327  1
  O  O58  1  0.98646058  0.83895906  0.57339470  1
  O  O59  1  0.73349774  0.58040148  0.08728203  1
  O  O60  1  0.75035440  0.14302067  0.39150916  1
  O  O61  1  0.98518158  0.14617292  0.91461542  1
  O  O62  1  0.73470668  0.15462168  0.14594456  1
  O  O63  1  0.98132486  0.16742540  0.64954907  1
