# generated using pymatgen
data_SmH5(SeO4)2
_symmetry_space_group_name_H-M   'P 1'
_cell_length_a   6.80488391
_cell_length_b   7.20837975
_cell_length_c   17.72358090
_cell_angle_alpha   90.00000000
_cell_angle_beta   90.00000000
_cell_angle_gamma   90.00000000
_symmetry_Int_Tables_number   1
_chemical_formula_structural   SmH5(SeO4)2
_chemical_formula_sum   'Sm4 H20 Se8 O32'
_cell_volume   869.38041131
_cell_formula_units_Z   4
loop_
 _symmetry_equiv_pos_site_id
 _symmetry_equiv_pos_as_xyz
  1  'x, y, z'
loop_
 _atom_site_type_symbol
 _atom_site_label
 _atom_site_symmetry_multiplicity
 _atom_site_fract_x
 _atom_site_fract_y
 _atom_site_fract_z
 _atom_site_occupancy
  Sm  Sm0  1  0.12255360  0.59786192  0.71617215  1
  Sm  Sm1  1  0.37744640  0.40213808  0.21617215  1
  Sm  Sm2  1  0.62255360  0.90213808  0.28382785  1
  Sm  Sm3  1  0.87744640  0.09786192  0.78382785  1
  H  H4  1  0.09954481  0.76183612  0.55247914  1
  H  H5  1  0.40045519  0.23816388  0.05247914  1
  H  H6  1  0.59954481  0.73816388  0.44752086  1
  H  H7  1  0.90045519  0.26183612  0.94752086  1
  H  H8  1  0.05277584  0.92122834  0.61319315  1
  H  H9  1  0.44722416  0.07877166  0.11319315  1
  H  H10  1  0.55277584  0.57877166  0.38680685  1
  H  H11  1  0.94722416  0.42122834  0.88680685  1
  H  H12  1  0.20300655  0.75620855  0.42770113  1
  H  H13  1  0.29699345  0.24379145  0.92770113  1
  H  H14  1  0.70300655  0.74379145  0.57229887  1
  H  H15  1  0.79699345  0.25620855  0.07229887  1
  H  H16  1  0.98203072  0.72283471  0.41734268  1
  H  H17  1  0.51796928  0.27716529  0.91734268  1
  H  H18  1  0.48203072  0.77716529  0.58265732  1
  H  H19  1  0.01796928  0.22283471  0.08265732  1
  H  H20  1  0.04175266  0.26616896  0.49047502  1
  H  H21  1  0.45824734  0.73383104  0.99047502  1
  H  H22  1  0.54175266  0.23383104  0.50952498  1
  H  H23  1  0.95824734  0.76616896  0.00952498  1
  Se  Se24  1  0.65727518  0.60516277  0.76989345  1
  Se  Se25  1  0.84272482  0.39483723  0.26989345  1
  Se  Se26  1  0.15727518  0.89483723  0.23010655  1
  Se  Se27  1  0.34272482  0.10516277  0.73010655  1
  Se  Se28  1  0.85967872  0.28862025  0.59567133  1
  Se  Se29  1  0.64032128  0.71137975  0.09567133  1
  Se  Se30  1  0.35967872  0.21137975  0.40432867  1
  Se  Se31  1  0.14032128  0.78862025  0.90432867  1
  O  O32  1  0.80838467  0.42368209  0.73858806  1
  O  O33  1  0.69161533  0.57631791  0.23858806  1
  O  O34  1  0.30838467  0.07631791  0.26141194  1
  O  O35  1  0.19161533  0.92368209  0.76141194  1
  O  O36  1  0.91241718  0.09617883  0.64813176  1
  O  O37  1  0.58758282  0.90382117  0.14813176  1
  O  O38  1  0.41241718  0.40382117  0.35186824  1
  O  O39  1  0.08758282  0.59617883  0.85186824  1
  O  O40  1  0.05593491  0.42958197  0.60561885  1
  O  O41  1  0.44406509  0.57041803  0.10561885  1
  O  O42  1  0.55593491  0.07041803  0.39438115  1
  O  O43  1  0.94406509  0.92958197  0.89438115  1
  O  O44  1  0.91899436  0.20024844  0.50177721  1
  O  O45  1  0.58100564  0.79975156  0.00177721  1
  O  O46  1  0.41899436  0.29975156  0.49822279  1
  O  O47  1  0.08100564  0.70024844  0.99822279  1
  O  O48  1  0.81330383  0.77841057  0.73677026  1
  O  O49  1  0.68669617  0.22158943  0.23677026  1
  O  O50  1  0.31330383  0.72158943  0.26322974  1
  O  O51  1  0.18669617  0.27841057  0.76322974  1
  O  O52  1  0.46819942  0.60644900  0.70654633  1
  O  O53  1  0.03180058  0.39355100  0.20654633  1
  O  O54  1  0.96819942  0.89355100  0.29345367  1
  O  O55  1  0.53180058  0.10644900  0.79345367  1
  O  O56  1  0.12764115  0.80403412  0.60498179  1
  O  O57  1  0.37235885  0.19596588  0.10498179  1
  O  O58  1  0.62764115  0.69596588  0.39501821  1
  O  O59  1  0.87235885  0.30403412  0.89501821  1
  O  O60  1  0.08804710  0.71042970  0.45433332  1
  O  O61  1  0.41195290  0.28957030  0.95433332  1
  O  O62  1  0.58804710  0.78957030  0.54566668  1
  O  O63  1  0.91195290  0.21042970  0.04566668  1
