# generated using pymatgen
data_NaCa9ScZn9(SiO3)20
_symmetry_space_group_name_H-M   'P 1'
_cell_length_a   26.51093217
_cell_length_b   6.72141358
_cell_length_c   6.72141364
_cell_angle_alpha   83.93355499
_cell_angle_beta   78.41848702
_cell_angle_gamma   78.41848493
_symmetry_Int_Tables_number   1
_chemical_formula_structural   NaCa9ScZn9(SiO3)20
_chemical_formula_sum   'Na1 Ca9 Sc1 Zn9 Si20 O60'
_cell_volume   1146.75141128
_cell_formula_units_Z   1
loop_
 _symmetry_equiv_pos_site_id
 _symmetry_equiv_pos_as_xyz
  1  'x, y, z'
loop_
 _atom_site_type_symbol
 _atom_site_label
 _atom_site_symmetry_multiplicity
 _atom_site_fract_x
 _atom_site_fract_y
 _atom_site_fract_z
 _atom_site_occupancy
  Na  Na0  1  0.95000000  0.30280510  0.69719490  1
  Ca  Ca1  1  0.05115215  0.69657355  0.30801252  1
  Ca  Ca2  1  0.15034706  0.30125644  0.69694645  1
  Ca  Ca3  1  0.24983490  0.69909714  0.30100626  1
  Ca  Ca4  1  0.34979306  0.30147908  0.69916544  1
  Ca  Ca5  1  0.45000000  0.69883849  0.30116151  1
  Ca  Ca6  1  0.55020694  0.30083456  0.69852092  1
  Ca  Ca7  1  0.65016510  0.69899374  0.30090286  1
  Ca  Ca8  1  0.74965294  0.30305355  0.69874356  1
  Ca  Ca9  1  0.84884785  0.69198748  0.30342645  1
  Sc  Sc10  1  0.95000000  0.91363846  0.08636153  1
  Zn  Zn11  1  0.05041773  0.10159551  0.89808443  1
  Zn  Zn12  1  0.14926482  0.90824500  0.09538134  1
  Zn  Zn13  1  0.24956567  0.09422572  0.90731467  1
  Zn  Zn14  1  0.34987642  0.90673818  0.09371811  1
  Zn  Zn15  1  0.45000000  0.09366388  0.90633612  1
  Zn  Zn16  1  0.55012358  0.90628189  0.09326182  1
  Zn  Zn17  1  0.65043433  0.09268533  0.90577428  1
  Zn  Zn18  1  0.75073518  0.90461866  0.09175500  1
  Zn  Zn19  1  0.84958227  0.10191557  0.89840449  1
  Si  Si20  1  0.05274597  0.18969982  0.38354232  1
  Si  Si21  1  0.04702626  0.62052256  0.80272056  1
  Si  Si22  1  0.15277648  0.37909931  0.19497972  1
  Si  Si23  1  0.14680602  0.80943494  0.61987927  1
  Si  Si24  1  0.25322644  0.19277298  0.38006864  1
  Si  Si25  1  0.24641958  0.62075225  0.80780067  1
  Si  Si26  1  0.35320221  0.38018628  0.19291643  1
  Si  Si27  1  0.34651957  0.80778930  0.62051713  1
  Si  Si28  1  0.45330589  0.19271065  0.37991167  1
  Si  Si29  1  0.44669411  0.62008833  0.80728935  1
  Si  Si30  1  0.55348043  0.37948287  0.19221070  1
  Si  Si31  1  0.54679779  0.80708357  0.61981372  1
  Si  Si32  1  0.65358042  0.19219933  0.37924775  1
  Si  Si33  1  0.64677356  0.61993136  0.80722702  1
  Si  Si34  1  0.75319398  0.38012073  0.19056506  1
  Si  Si35  1  0.74722352  0.80502028  0.62090069  1
  Si  Si36  1  0.85297374  0.19727944  0.37947744  1
  Si  Si37  1  0.84725403  0.61645768  0.81030018  1
  Si  Si38  1  0.95404662  0.38157430  0.19731485  1
  Si  Si39  1  0.94595338  0.80268515  0.61842570  1
  O  O40  1  0.00194307  0.37164315  0.32828618  1
  O  O41  1  0.03537148  0.09557493  0.61011957  1
  O  O42  1  0.07010732  0.02764862  0.20672751  1
  O  O43  1  0.02842671  0.78704098  0.97468118  1
  O  O44  1  0.06636090  0.39042451  0.88391608  1
  O  O45  1  0.10087229  0.32585127  0.37321676  1
  O  O46  1  0.09948225  0.67258933  0.62869247  1
  O  O47  1  0.13331772  0.61009783  0.11505621  1
  O  O48  1  0.17054771  0.21014538  0.02643197  1
  O  O49  1  0.12918472  0.97322704  0.79331394  1
  O  O50  1  0.16609734  0.89260665  0.39031208  1
  O  O51  1  0.20079910  0.36989495  0.32897235  1
  O  O52  1  0.19894642  0.63082965  0.67110387  1
  O  O53  1  0.23398357  0.11074389  0.61035149  1
  O  O54  1  0.27087094  0.02672946  0.20869863  1
  O  O55  1  0.22842976  0.79162630  0.97437868  1
  O  O56  1  0.26571965  0.39039989  0.88947377  1
  O  O57  1  0.30079071  0.32883120  0.37012781  1
  O  O58  1  0.29885075  0.67210347  0.63077199  1
  O  O59  1  0.33381236  0.61042480  0.11116446  1
  O  O60  1  0.37092396  0.20903245  0.02655080  1
  O  O61  1  0.32871964  0.97406840  0.79175747  1
  O  O62  1  0.36586856  0.88943269  0.39015868  1
  O  O63  1  0.40087741  0.36997680  0.32860869  1
  O  O64  1  0.39896371  0.63051167  0.67176076  1
  O  O65  1  0.43392309  0.11105033  0.61022752  1
  O  O66  1  0.47105728  0.02630667  0.20875824  1
  O  O67  1  0.42894272  0.79124176  0.97369334  1
  O  O68  1  0.46607691  0.38977248  0.88894967  1
  O  O69  1  0.50103629  0.32823924  0.36948833  1
  O  O70  1  0.49912259  0.67139131  0.63002320  1
  O  O71  1  0.53413144  0.60984131  0.11056731  1
  O  O72  1  0.57128036  0.20824253  0.02593160  1
  O  O73  1  0.52907604  0.97344920  0.79096755  1
  O  O74  1  0.56618764  0.88883554  0.38957520  1
  O  O75  1  0.60114925  0.36922801  0.32789653  1
  O  O76  1  0.59920929  0.62987219  0.67116880  1
  O  O77  1  0.63428035  0.11052623  0.60960011  1
  O  O78  1  0.67157024  0.02562132  0.20837370  1
  O  O79  1  0.62912906  0.79130137  0.97327054  1
  O  O80  1  0.66601643  0.38964851  0.88925611  1
  O  O81  1  0.70105358  0.32889613  0.36917035  1
  O  O82  1  0.69920090  0.67102765  0.63010505  1
  O  O83  1  0.73390266  0.60968792  0.10739335  1
  O  O84  1  0.77081528  0.20668606  0.02677296  1
  O  O85  1  0.72945229  0.97356803  0.78985462  1
  O  O86  1  0.76668228  0.88494379  0.38990217  1
  O  O87  1  0.80051775  0.37130753  0.32741067  1
  O  O88  1  0.79912771  0.62678324  0.67414873  1
  O  O89  1  0.83363910  0.11608392  0.60957549  1
  O  O90  1  0.87157329  0.02531882  0.21295902  1
  O  O91  1  0.82989268  0.79327249  0.97235139  1
  O  O92  1  0.86462852  0.38988043  0.90442507  1
  O  O93  1  0.90012150  0.33364771  0.36349303  1
  O  O94  1  0.89805693  0.67171382  0.62835685  1
  O  O95  1  0.93578780  0.61509497  0.11610264  1
  O  O96  1  0.97130201  0.20623907  0.03399767  1
  O  O97  1  0.92869799  0.96600233  0.79376094  1
  O  O98  1  0.96421220  0.88389736  0.38490502  1
  O  O99  1  -0.00012150  0.63650697  0.66635229  1
