# generated using pymatgen
data_NbAlO4
_symmetry_space_group_name_H-M   'P 1'
_cell_length_a   3.80056316
_cell_length_b   6.39746380
_cell_length_c   12.98155836
_cell_angle_alpha   102.40828772
_cell_angle_beta   98.41738131
_cell_angle_gamma   72.72029666
_symmetry_Int_Tables_number   1
_chemical_formula_structural   NbAlO4
_chemical_formula_sum   'Nb4 Al4 O16'
_cell_volume   293.19167797
_cell_formula_units_Z   4
loop_
 _symmetry_equiv_pos_site_id
 _symmetry_equiv_pos_as_xyz
  1  'x, y, z'
loop_
 _atom_site_type_symbol
 _atom_site_label
 _atom_site_symmetry_multiplicity
 _atom_site_fract_x
 _atom_site_fract_y
 _atom_site_fract_z
 _atom_site_occupancy
  Nb  Nb0  1  0.80582510  0.50361564  0.11526584  1
  Nb  Nb1  1  0.10446537  0.40613382  0.61506556  1
  Nb  Nb2  1  0.19417490  0.99638436  0.38473416  1
  Nb  Nb3  1  0.89553463  0.09386618  0.88493444  1
  Al  Al4  1  0.09785757  0.89884602  0.09456216  1
  Al  Al5  1  0.80264739  0.99126239  0.59655816  1
  Al  Al6  1  0.90214243  0.60115398  0.40543884  1
  Al  Al7  1  0.19735261  0.50873761  0.90344184  1
  O  O8  1  0.13431588  0.97363947  0.24227024  1
  O  O9  1  0.74044901  0.94649150  0.42738952  1
  O  O10  1  0.63410282  0.83105261  0.09925725  1
  O  O11  1  0.36589718  0.66894739  0.40074275  1
  O  O12  1  0.25955099  0.55350850  0.07261048  1
  O  O13  1  0.06066550  0.81697072  0.93830171  1
  O  O14  1  0.93933450  0.68302928  0.56169829  1
  O  O15  1  0.86568412  0.52636053  0.25772976  1
  O  O16  1  0.13363116  0.49202729  0.75928861  1
  O  O17  1  0.05840062  0.31665661  0.43345785  1
  O  O18  1  0.94159938  0.18334339  0.06654215  1
  O  O19  1  0.73367238  0.45390140  0.92124616  1
  O  O20  1  0.64674887  0.30968047  0.60317821  1
  O  O21  1  0.35325113  0.19031953  0.89682179  1
  O  O22  1  0.26632762  0.04609860  0.57875384  1
  O  O23  1  0.86636884  0.00797271  0.74071139  1
