# generated using pymatgen
data_Li3BiS3
_symmetry_space_group_name_H-M   'P 1'
_cell_length_a   7.82021964
_cell_length_b   6.84450921
_cell_length_c   10.43582472
_cell_angle_alpha   90.00000000
_cell_angle_beta   90.00000000
_cell_angle_gamma   90.00000000
_symmetry_Int_Tables_number   1
_chemical_formula_structural   Li3BiS3
_chemical_formula_sum   'Li12 Bi4 S12'
_cell_volume   558.58341803
_cell_formula_units_Z   4
loop_
 _symmetry_equiv_pos_site_id
 _symmetry_equiv_pos_as_xyz
  1  'x, y, z'
loop_
 _atom_site_type_symbol
 _atom_site_label
 _atom_site_symmetry_multiplicity
 _atom_site_fract_x
 _atom_site_fract_y
 _atom_site_fract_z
 _atom_site_occupancy
  Li  Li0  1  0.06745923  0.03999573  0.77114598  1
  Li  Li1  1  0.09415313  0.34244994  0.31620882  1
  Li  Li2  1  0.24779321  0.37664727  0.61964594  1
  Li  Li3  1  0.25220679  0.87664727  0.11964594  1
  Li  Li4  1  0.40584687  0.84244994  0.81620882  1
  Li  Li5  1  0.43254077  0.53999573  0.27114598  1
  Li  Li6  1  0.56745923  0.46000427  0.77114598  1
  Li  Li7  1  0.59415313  0.15755006  0.31620882  1
  Li  Li8  1  0.74779321  0.12335273  0.61964594  1
  Li  Li9  1  0.75220679  0.62335273  0.11964594  1
  Li  Li10  1  0.90584687  0.65755006  0.81620882  1
  Li  Li11  1  0.93254077  0.96000427  0.27114598  1
  Bi  Bi12  1  0.28305303  0.90077587  0.49656835  1
  Bi  Bi13  1  0.21694697  0.40077587  0.99656835  1
  Bi  Bi14  1  0.78305303  0.59922413  0.49656835  1
  Bi  Bi15  1  0.71694697  0.09922413  0.99656835  1
  S  S16  1  0.03750688  0.15535211  0.50948694  1
  S  S17  1  0.14878575  0.69571731  0.31593031  1
  S  S18  1  0.17323295  0.70424051  0.69183767  1
  S  S19  1  0.32676705  0.20424051  0.19183767  1
  S  S20  1  0.35121425  0.19571731  0.81593031  1
  S  S21  1  0.46249312  0.65535211  0.00948694  1
  S  S22  1  0.53750688  0.34464789  0.50948694  1
  S  S23  1  0.64878575  0.80428269  0.31593031  1
  S  S24  1  0.67323295  0.79575949  0.69183767  1
  S  S25  1  0.82676705  0.29575949  0.19183767  1
  S  S26  1  0.85121425  0.30428269  0.81593031  1
  S  S27  1  0.96249312  0.84464789  0.00948694  1
