# generated using pymatgen
data_LiTiPCO7
_symmetry_space_group_name_H-M   'P 1'
_cell_length_a   8.24287330
_cell_length_b   5.24368802
_cell_length_c   6.44769535
_cell_angle_alpha   90.00000000
_cell_angle_beta   90.00000000
_cell_angle_gamma   82.12489369
_symmetry_Int_Tables_number   1
_chemical_formula_structural   LiTiPCO7
_chemical_formula_sum   'Li2 Ti2 P2 C2 O14'
_cell_volume   276.06080402
_cell_formula_units_Z   2
loop_
 _symmetry_equiv_pos_site_id
 _symmetry_equiv_pos_as_xyz
  1  'x, y, z'
loop_
 _atom_site_type_symbol
 _atom_site_label
 _atom_site_symmetry_multiplicity
 _atom_site_fract_x
 _atom_site_fract_y
 _atom_site_fract_z
 _atom_site_occupancy
  Li  Li0  1  0.09921340  0.75467029  0.25000000  1
  Li  Li1  1  0.90078660  0.24532971  0.75000000  1
  Ti  Ti2  1  0.31570097  0.79598459  0.75000000  1
  Ti  Ti3  1  0.68429903  0.20401541  0.25000000  1
  P  P4  1  0.42401929  0.75064404  0.25000000  1
  P  P5  1  0.57598071  0.24935596  0.75000000  1
  C  C6  1  0.03465436  0.68630497  0.75000000  1
  C  C7  1  0.96534564  0.31369503  0.25000000  1
  O  O8  1  0.07071955  0.92983839  0.75000000  1
  O  O9  1  0.10495694  0.37542823  0.25000000  1
  O  O10  1  0.17019079  0.52012869  0.75000000  1
  O  O11  1  0.30843114  0.80084285  0.06097632  1
  O  O12  1  0.30843114  0.80084285  0.43902368  1
  O  O13  1  0.43776547  0.08076104  0.75000000  1
  O  O14  1  0.50364781  0.46499070  0.25000000  1
  O  O15  1  0.49635219  0.53500930  0.75000000  1
  O  O16  1  0.56223453  0.91923896  0.25000000  1
  O  O17  1  0.69156886  0.19915715  0.93902368  1
  O  O18  1  0.69156886  0.19915715  0.56097632  1
  O  O19  1  0.82980921  0.47987131  0.25000000  1
  O  O20  1  0.89504306  0.62457177  0.75000000  1
  O  O21  1  0.92928045  0.07016161  0.25000000  1
