# generated using pymatgen
data_Bi3O4F
_symmetry_space_group_name_H-M   'P 1'
_cell_length_a   5.80980921
_cell_length_b   10.17274631
_cell_length_c   5.83210817
_cell_angle_alpha   63.83954768
_cell_angle_beta   89.95115637
_cell_angle_gamma   106.54770770
_symmetry_Int_Tables_number   1
_chemical_formula_structural   Bi3O4F
_chemical_formula_sum   'Bi6 O8 F2'
_cell_volume   293.34626534
_cell_formula_units_Z   2
loop_
 _symmetry_equiv_pos_site_id
 _symmetry_equiv_pos_as_xyz
  1  'x, y, z'
loop_
 _atom_site_type_symbol
 _atom_site_label
 _atom_site_symmetry_multiplicity
 _atom_site_fract_x
 _atom_site_fract_y
 _atom_site_fract_z
 _atom_site_occupancy
  Bi  Bi0  1  0.36028268  0.31017846  0.96764389  1
  Bi  Bi1  1  0.70400282  0.99872348  0.24813478  1
  Bi  Bi2  1  0.94499508  0.30966480  0.46948039  1
  Bi  Bi3  1  0.29231987  0.99981973  0.74717851  1
  Bi  Bi4  1  0.04832772  0.68803167  0.53330011  1
  Bi  Bi5  1  0.63787845  0.68820860  0.03413194  1
  O  O6  1  0.50400482  0.14314271  0.95560392  1
  O  O7  1  0.15316817  0.19978594  0.36016634  1
  O  O8  1  0.95074182  0.80253435  0.14450637  1
  O  O9  1  0.63700773  0.14256988  0.45521586  1
  O  O10  1  0.36032010  0.85508860  0.54108319  1
  O  O11  1  0.04480207  0.19723505  0.85961325  1
  O  O12  1  0.84918952  0.80139339  0.64489498  1
  O  O13  1  0.49473470  0.85618784  0.03940972  1
  F  F14  1  0.00650304  0.49933474  0.00283064  1
  F  F15  1  0.50701440  0.49880777  0.50147511  1
