# generated using pymatgen
data_Li4MnCo2O7
_symmetry_space_group_name_H-M   'P 1'
_cell_length_a   3.02338023
_cell_length_b   16.67787007
_cell_length_c   5.04283565
_cell_angle_alpha   89.93169339
_cell_angle_beta   91.73022274
_cell_angle_gamma   88.51820131
_symmetry_Int_Tables_number   1
_chemical_formula_structural   Li4MnCo2O7
_chemical_formula_sum   'Li8 Mn2 Co4 O14'
_cell_volume   254.07621657
_cell_formula_units_Z   2
loop_
 _symmetry_equiv_pos_site_id
 _symmetry_equiv_pos_as_xyz
  1  'x, y, z'
loop_
 _atom_site_type_symbol
 _atom_site_label
 _atom_site_symmetry_multiplicity
 _atom_site_fract_x
 _atom_site_fract_y
 _atom_site_fract_z
 _atom_site_occupancy
  Li  Li0  1  0.92840618  0.14295990  0.35712435  1
  Li  Li1  1  0.35411830  0.28648245  0.21628271  1
  Li  Li2  1  0.78018978  0.42905604  0.07475709  1
  Li  Li3  1  0.21402419  0.57183640  0.92890736  1
  Li  Li4  1  0.64847381  0.71409997  0.78379495  1
  Li  Li5  1  0.07457234  0.85609313  0.64034553  1
  Li  Li6  1  0.50123024  0.99952644  0.49844707  1
  Li  Li7  1  0.71456372  0.57218497  0.42857011  1
  Mn  Mn8  1  0.99414371  0.99767695  -0.00053242  1
  Mn  Mn9  1  0.86001449  0.28790648  0.71203570  1
  Co  Co10  1  0.42845588  0.14306049  0.85711375  1
  Co  Co11  1  0.27461438  0.43602312  0.56820563  1
  Co  Co12  1  0.15001153  0.70885241  0.28841233  1
  Co  Co13  1  0.57274587  0.85490410  0.14734896  1
  O  O14  1  0.42646040  0.07212142  0.15980896  1
  O  O15  1  0.90891511  0.21538507  0.01582572  1
  O  O16  1  0.29699060  0.36101834  0.86150178  1
  O  O17  1  0.72515584  0.49508873  0.73810915  1
  O  O18  1  0.17268790  0.65207450  0.57643271  1
  O  O19  1  0.58778313  0.78437729  0.43867493  1
  O  O20  1  0.00245996  0.92623573  0.30502920  1
  O  O21  1  0.42834771  0.21313725  0.55302952  1
  O  O22  1  0.84514477  0.35906262  0.41111891  1
  O  O23  1  0.25704456  0.49256533  0.28047074  1
  O  O24  1  0.70630810  0.64872457  0.11727459  1
  O  O25  1  0.13855349  0.78429520  0.00025892  1
  O  O26  1  0.56091155  0.92442563  0.84333311  1
  O  O27  1  0.94767245  0.07082546  0.69831865  1
