# generated using pymatgen
data_Lu2TiO5
_symmetry_space_group_name_H-M   'P 1'
_cell_length_a   4.03596316
_cell_length_b   5.73717846
_cell_length_c   10.36085528
_cell_angle_alpha   90.00051340
_cell_angle_beta   89.99978005
_cell_angle_gamma   69.42624789
_symmetry_Int_Tables_number   1
_chemical_formula_structural   Lu2TiO5
_chemical_formula_sum   'Lu4 Ti2 O10'
_cell_volume   224.60497027
_cell_formula_units_Z   2
loop_
 _symmetry_equiv_pos_site_id
 _symmetry_equiv_pos_as_xyz
  1  'x, y, z'
loop_
 _atom_site_type_symbol
 _atom_site_label
 _atom_site_symmetry_multiplicity
 _atom_site_fract_x
 _atom_site_fract_y
 _atom_site_fract_z
 _atom_site_occupancy
  Lu  Lu0  1  0.14267476  0.71494129  0.93172118  1
  Lu  Lu1  1  0.14265933  0.71494258  0.56828001  1
  Lu  Lu2  1  0.85732545  0.28505915  0.06827959  1
  Lu  Lu3  1  0.85732914  0.28505288  0.43171779  1
  Ti  Ti4  1  0.17555408  0.64891951  0.24999795  1
  Ti  Ti5  1  0.82445124  0.35108310  0.74999832  1
  O  O6  1  0.05126657  0.89767658  0.37705335  1
  O  O7  1  0.05127435  0.89767120  0.12293924  1
  O  O8  1  0.70561215  0.58896193  0.91210045  1
  O  O9  1  0.70559708  0.58896390  0.58791013  1
  O  O10  1  0.26783571  0.46450184  0.74999892  1
  O  O11  1  0.73216096  0.53549983  0.25000028  1
  O  O12  1  0.29439270  0.41103054  0.08791166  1
  O  O13  1  0.29439872  0.41103710  0.41208805  1
  O  O14  1  0.94872642  0.10232998  0.62294827  1
  O  O15  1  0.94874132  0.10232757  0.87705478  1
