# generated using pymatgen
data_LiCuO2
_symmetry_space_group_name_H-M   'P 1'
_cell_length_a   5.36356377
_cell_length_b   5.44972812
_cell_length_c   6.79641547
_cell_angle_alpha   99.00871909
_cell_angle_beta   78.92716682
_cell_angle_gamma   74.48703779
_symmetry_Int_Tables_number   1
_chemical_formula_structural   LiCuO2
_chemical_formula_sum   'Li4 Cu4 O8'
_cell_volume   183.25965624
_cell_formula_units_Z   4
loop_
 _symmetry_equiv_pos_site_id
 _symmetry_equiv_pos_as_xyz
  1  'x, y, z'
loop_
 _atom_site_type_symbol
 _atom_site_label
 _atom_site_symmetry_multiplicity
 _atom_site_fract_x
 _atom_site_fract_y
 _atom_site_fract_z
 _atom_site_occupancy
  Li  Li0  1  0.47399787  0.78735808  0.44321561  1
  Li  Li1  1  0.57377390  0.34781012  0.14860521  1
  Li  Li2  1  0.42128509  0.10397040  0.85153586  1
  Li  Li3  1  0.41798060  0.61520289  0.87054042  1
  Cu  Cu4  1  0.03562728  0.55805208  0.25590696  1
  Cu  Cu5  1  0.03903482  0.05719141  0.25945278  1
  Cu  Cu6  1  0.94405098  0.94767858  0.74105285  1
  Cu  Cu7  1  0.95066186  0.44529886  0.73811972  1
  O  O8  1  0.26597905  0.22552292  0.14143964  1
  O  O9  1  0.29086157  0.72316852  0.18359629  1
  O  O10  1  0.19519768  0.62280085  0.67027634  1
  O  O11  1  0.19450516  0.11237159  0.66690688  1
  O  O12  1  0.79019844  0.38901756  0.33478659  1
  O  O13  1  0.80863684  0.88899978  0.36775894  1
  O  O14  1  0.70337031  0.28333645  0.84351991  1
  O  O15  1  0.70093856  0.77166990  0.80718601  1
