# generated using pymatgen
data_Li2CrS4
_symmetry_space_group_name_H-M   'P 1'
_cell_length_a   6.78245959
_cell_length_b   6.81927788
_cell_length_c   12.30855276
_cell_angle_alpha   98.82747206
_cell_angle_beta   154.24854048
_cell_angle_gamma   103.67165083
_symmetry_Int_Tables_number   1
_chemical_formula_structural   Li2CrS4
_chemical_formula_sum   'Li2 Cr1 S4'
_cell_volume   119.42816647
_cell_formula_units_Z   1
loop_
 _symmetry_equiv_pos_site_id
 _symmetry_equiv_pos_as_xyz
  1  'x, y, z'
loop_
 _atom_site_type_symbol
 _atom_site_label
 _atom_site_symmetry_multiplicity
 _atom_site_fract_x
 _atom_site_fract_y
 _atom_site_fract_z
 _atom_site_occupancy
  Li  Li0  1  0.32573711  0.91360789  0.82267228  1
  Li  Li1  1  0.36713582  0.49084968  0.92676594  1
  Cr  Cr2  1  0.84608746  0.20118368  0.37445772  1
  S  S3  1  0.96617237  0.83490290  0.06915162  1
  S  S4  1  0.74188383  0.26659770  0.88550830  1
  S  S5  1  0.95133420  0.13617872  0.86389721  1
  S  S6  1  0.72589721  0.56756444  0.67972394  1
