# generated using pymatgen
data_Sr3Li3La5O12
_symmetry_space_group_name_H-M   'P 1'
_cell_length_a   13.65569209
_cell_length_b   6.94523838
_cell_length_c   3.59398080
_cell_angle_alpha   90.00000000
_cell_angle_beta   90.00000000
_cell_angle_gamma   89.80964712
_symmetry_Int_Tables_number   1
_chemical_formula_structural   Sr3Li3La5O12
_chemical_formula_sum   'Sr3 Li3 La5 O12'
_cell_volume   340.85857801
_cell_formula_units_Z   1
loop_
 _symmetry_equiv_pos_site_id
 _symmetry_equiv_pos_as_xyz
  1  'x, y, z'
loop_
 _atom_site_type_symbol
 _atom_site_label
 _atom_site_symmetry_multiplicity
 _atom_site_fract_x
 _atom_site_fract_y
 _atom_site_fract_z
 _atom_site_occupancy
  Sr  Sr0  1  0.21883315  0.90147141  0.75000000  1
  Sr  Sr1  1  0.26827652  0.42111742  0.75000000  1
  Sr  Sr2  1  0.71839691  0.58914167  0.25000000  1
  Li  Li3  1  0.36245029  0.12481931  0.25000000  1
  Li  Li4  1  0.63242712  0.87786288  0.75000000  1
  Li  Li5  1  0.86899376  0.38423181  0.75000000  1
  La  La6  1  0.04421410  0.25357587  0.25000000  1
  La  La7  1  0.45800615  0.74328372  0.25000000  1
  La  La8  1  0.53799725  0.25415203  0.75000000  1
  La  La9  1  0.78572959  0.08659898  0.25000000  1
  La  La10  1  0.97060959  0.74491461  0.75000000  1
  O  O11  1  0.05639640  0.88476848  0.25000000  1
  O  O12  1  0.08368990  0.46484314  0.75000000  1
  O  O13  1  0.22265832  0.17790872  0.25000000  1
  O  O14  1  0.29249170  0.68883236  0.25000000  1
  O  O15  1  0.41016444  0.99213066  0.75000000  1
  O  O16  1  0.43906098  0.36226668  0.25000000  1
  O  O17  1  0.56703564  0.62856693  0.75000000  1
  O  O18  1  0.60745523  0.01433369  0.25000000  1
  O  O19  1  0.72573300  0.30909612  0.75000000  1
  O  O20  1  0.77481990  0.83296121  0.75000000  1
  O  O21  1  0.89784058  0.51072726  0.25000000  1
  O  O22  1  0.92375949  0.13071403  0.75000000  1
