# generated using pymatgen
data_INO3
_symmetry_space_group_name_H-M   'P 1'
_cell_length_a   4.34246919
_cell_length_b   7.42284823
_cell_length_c   12.09624520
_cell_angle_alpha   90.00000000
_cell_angle_beta   90.00000000
_cell_angle_gamma   90.00000000
_symmetry_Int_Tables_number   1
_chemical_formula_structural   INO3
_chemical_formula_sum   'I4 N4 O12'
_cell_volume   389.90419556
_cell_formula_units_Z   4
loop_
 _symmetry_equiv_pos_site_id
 _symmetry_equiv_pos_as_xyz
  1  'x, y, z'
loop_
 _atom_site_type_symbol
 _atom_site_label
 _atom_site_symmetry_multiplicity
 _atom_site_fract_x
 _atom_site_fract_y
 _atom_site_fract_z
 _atom_site_occupancy
  I  I0  1  0.24535560  0.97106329  0.78554534  1
  I  I1  1  0.25464440  0.02893671  0.28554534  1
  I  I2  1  0.74535560  0.52893671  0.21445466  1
  I  I3  1  0.75464440  0.47106329  0.71445466  1
  N  N4  1  0.16073212  0.98539102  0.53782533  1
  N  N5  1  0.33926788  0.01460898  0.03782533  1
  N  N6  1  0.66073212  0.51460898  0.46217467  1
  N  N7  1  0.83926788  0.48539102  0.96217467  1
  O  O8  1  0.03439319  0.93531962  0.44519563  1
  O  O9  1  0.04184257  0.89889697  0.62271880  1
  O  O10  1  0.13591160  0.90278490  0.04575083  1
  O  O11  1  0.36408840  0.09721510  0.54575083  1
  O  O12  1  0.45815743  0.10110303  0.12271880  1
  O  O13  1  0.46560681  0.06468038  0.94519563  1
  O  O14  1  0.53439319  0.56468038  0.55480437  1
  O  O15  1  0.54184257  0.60110303  0.37728120  1
  O  O16  1  0.63591160  0.59721510  0.95424917  1
  O  O17  1  0.86408840  0.40278490  0.45424917  1
  O  O18  1  0.95815743  0.39889697  0.87728120  1
  O  O19  1  0.96560681  0.43531962  0.05480437  1
