# generated using pymatgen
data_Li7Mn2(CoO4)3
_symmetry_space_group_name_H-M   'P 1'
_cell_length_a   3.02607860
_cell_length_b   14.76727856
_cell_length_c   5.10142944
_cell_angle_alpha   95.56955705
_cell_angle_beta   76.09983465
_cell_angle_gamma   85.91065281
_symmetry_Int_Tables_number   1
_chemical_formula_structural   Li7Mn2(CoO4)3
_chemical_formula_sum   'Li7 Mn2 Co3 O12'
_cell_volume   219.18779248
_cell_formula_units_Z   1
loop_
 _symmetry_equiv_pos_site_id
 _symmetry_equiv_pos_as_xyz
  1  'x, y, z'
loop_
 _atom_site_type_symbol
 _atom_site_label
 _atom_site_symmetry_multiplicity
 _atom_site_fract_x
 _atom_site_fract_y
 _atom_site_fract_z
 _atom_site_occupancy
  Li  Li0  1  0.66678013  0.08481632  0.58308274  1
  Li  Li1  1  0.99508817  0.25111292  0.74848120  1
  Li  Li2  1  0.33221604  0.41610549  0.90892459  1
  Li  Li3  1  0.66719393  0.58369938  0.09029587  1
  Li  Li4  1  0.00574733  0.74741264  0.25240704  1
  Li  Li5  1  0.33326529  0.91718290  0.41545724  1
  Li  Li6  1  0.00030899  0.49915679  0.49913114  1
  Mn  Mn7  1  0.99457067  0.00170405  0.00099264  1
  Mn  Mn8  1  0.67271330  0.83020247  0.83174010  1
  Co  Co9  1  0.32518164  0.17107941  0.16771966  1
  Co  Co10  1  0.65719328  0.34058711  0.34130969  1
  Co  Co11  1  0.34851790  0.65752155  0.65934215  1
  O  O12  1  0.30290862  0.04864823  0.28097096  1
  O  O13  1  0.67785773  0.21732269  0.43733060  1
  O  O14  1  0.99309015  0.37165384  0.59826772  1
  O  O15  1  0.32520654  0.55316455  0.78897264  1
  O  O16  1  0.65382877  0.70874193  0.93749770  1
  O  O17  1  0.97490770  0.87823252  0.11445446  1
  O  O18  1  0.98680317  0.12402717  0.88948004  1
  O  O19  1  0.35149748  0.28972775  0.06243299  1
  O  O20  1  0.67480905  0.44491713  0.21010583  1
  O  O21  1  0.01151035  0.62689093  0.40207157  1
  O  O22  1  0.35592991  0.78204710  0.55910430  1
  O  O23  1  0.69287385  0.95404514  0.72042711  1
