# generated using pymatgen
data_Na4CuO3
_symmetry_space_group_name_H-M   'P 1'
_cell_length_a   8.12208784
_cell_length_b   6.30789688
_cell_length_c   5.72774331
_cell_angle_alpha   116.90105782
_cell_angle_beta   90.04956734
_cell_angle_gamma   111.46670452
_symmetry_Int_Tables_number   1
_chemical_formula_structural   Na4CuO3
_chemical_formula_sum   'Na8 Cu2 O6'
_cell_volume   238.59466446
_cell_formula_units_Z   2
loop_
 _symmetry_equiv_pos_site_id
 _symmetry_equiv_pos_as_xyz
  1  'x, y, z'
loop_
 _atom_site_type_symbol
 _atom_site_label
 _atom_site_symmetry_multiplicity
 _atom_site_fract_x
 _atom_site_fract_y
 _atom_site_fract_z
 _atom_site_occupancy
  Na  Na0  1  0.10088247  0.65594514  0.19510778  1
  Na  Na1  1  0.28951885  0.82348505  0.73650096  1
  Na  Na2  1  0.19518014  0.26738148  0.63088511  1
  Na  Na3  1  0.37981665  0.46318649  0.23016662  1
  Na  Na4  1  0.60096568  0.65587847  0.76710130  1
  Na  Na5  1  0.78879780  0.82187910  0.39311543  1
  Na  Na6  1  0.69522219  0.26807055  0.94423400  1
  Na  Na7  1  0.87998584  0.46235365  0.54072221  1
  Cu  Cu8  1  0.00246971  0.00280183  0.00824128  1
  Cu  Cu9  1  0.50225001  0.00302863  0.29975439  1
  O  O10  1  0.04528626  0.90110994  0.65242197  1
  O  O11  1  0.08497734  0.32858393  0.30979354  1
  O  O12  1  0.36000997  0.66600999  0.99534387  1
  O  O13  1  0.54545653  0.90274122  0.55572169  1
  O  O14  1  0.58556800  0.33018423  0.32636929  1
  O  O15  1  0.85968356  0.66628829  0.97730057  1
