# generated using pymatgen
data_SrNd2O4
_symmetry_space_group_name_H-M   'P 1'
_cell_length_a   10.42281864
_cell_length_b   3.56939229
_cell_length_c   12.41226835
_cell_angle_alpha   90.00000000
_cell_angle_beta   90.00000000
_cell_angle_gamma   90.00000000
_symmetry_Int_Tables_number   1
_chemical_formula_structural   SrNd2O4
_chemical_formula_sum   'Sr4 Nd8 O16'
_cell_volume   461.77521432
_cell_formula_units_Z   4
loop_
 _symmetry_equiv_pos_site_id
 _symmetry_equiv_pos_as_xyz
  1  'x, y, z'
loop_
 _atom_site_type_symbol
 _atom_site_label
 _atom_site_symmetry_multiplicity
 _atom_site_fract_x
 _atom_site_fract_y
 _atom_site_fract_z
 _atom_site_occupancy
  Sr  Sr0  1  0.24742016  0.75000000  0.35114294  1
  Sr  Sr1  1  0.25257984  0.25000000  0.85114294  1
  Sr  Sr2  1  0.74742016  0.75000000  0.14885706  1
  Sr  Sr3  1  0.75257984  0.25000000  0.64885706  1
  Nd  Nd4  1  0.07616433  0.75000000  0.61291960  1
  Nd  Nd5  1  0.08097251  0.75000000  0.11242359  1
  Nd  Nd6  1  0.41902749  0.25000000  0.61242359  1
  Nd  Nd7  1  0.42383567  0.25000000  0.11291960  1
  Nd  Nd8  1  0.57616433  0.75000000  0.88708040  1
  Nd  Nd9  1  0.58097251  0.75000000  0.38757641  1
  Nd  Nd10  1  0.91902749  0.25000000  0.88757641  1
  Nd  Nd11  1  0.92383567  0.25000000  0.38708040  1
  O  O12  1  0.01101239  0.25000000  0.71544659  1
  O  O13  1  0.07476187  0.75000000  0.92034774  1
  O  O14  1  0.13071380  0.25000000  0.47943526  1
  O  O15  1  0.21291638  0.25000000  0.18438956  1
  O  O16  1  0.28708362  0.75000000  0.68438956  1
  O  O17  1  0.36928620  0.75000000  0.97943526  1
  O  O18  1  0.42523813  0.25000000  0.42034774  1
  O  O19  1  0.48898761  0.75000000  0.21544659  1
  O  O20  1  0.51101239  0.25000000  0.78455341  1
  O  O21  1  0.57476187  0.75000000  0.57965226  1
  O  O22  1  0.63071380  0.25000000  0.02056474  1
  O  O23  1  0.71291638  0.25000000  0.31561044  1
  O  O24  1  0.78708362  0.75000000  0.81561044  1
  O  O25  1  0.86928620  0.75000000  0.52056474  1
  O  O26  1  0.92523813  0.25000000  0.07965226  1
  O  O27  1  0.98898761  0.75000000  0.28455341  1
