# generated using pymatgen
data_MnP4
_symmetry_space_group_name_H-M   'P 1'
_cell_length_a   5.11740933
_cell_length_b   5.87896470
_cell_length_c   11.07891931
_cell_angle_alpha   88.77125357
_cell_angle_beta   92.82413520
_cell_angle_gamma   115.79996606
_symmetry_Int_Tables_number   1
_chemical_formula_structural   MnP4
_chemical_formula_sum   'Mn4 P16'
_cell_volume   299.72091837
_cell_formula_units_Z   4
loop_
 _symmetry_equiv_pos_site_id
 _symmetry_equiv_pos_as_xyz
  1  'x, y, z'
loop_
 _atom_site_type_symbol
 _atom_site_label
 _atom_site_symmetry_multiplicity
 _atom_site_fract_x
 _atom_site_fract_y
 _atom_site_fract_z
 _atom_site_occupancy
  Mn  Mn0  1  -0.00000000  0.50000000  -0.00000000  1
  Mn  Mn1  1  0.09522440  0.19044880  0.25000000  1
  Mn  Mn2  1  0.50000000  0.50000000  0.50000000  1
  Mn  Mn3  1  0.90477560  0.80955120  0.75000000  1
  P  P4  1  0.05361531  0.50028672  0.78931224  1
  P  P5  1  0.24313921  0.88435076  0.28369049  1
  P  P6  1  0.34126841  0.79807572  0.47473405  1
  P  P7  1  0.04566393  0.18463698  0.45499124  1
  P  P8  1  0.13897205  0.18463698  0.04500876  1
  P  P9  1  0.45680731  0.79807572  0.02526595  1
  P  P10  1  0.44667141  0.50028672  0.71068776  1
  P  P11  1  0.64121056  0.88435076  0.21630951  1
  P  P12  1  0.35878944  0.11564924  0.78369049  1
  P  P13  1  0.55332859  0.49971328  0.28931224  1
  P  P14  1  0.54319269  0.20192428  0.97473405  1
  P  P15  1  0.86102695  0.81536302  0.95499124  1
  P  P16  1  0.95433607  0.81536302  0.54500876  1
  P  P17  1  0.65873159  0.20192428  0.52526595  1
  P  P18  1  0.75686079  0.11564924  0.71630951  1
  P  P19  1  0.94638469  0.49971328  0.21068776  1
