# generated using pymatgen
data_Na3SnPCO7
_symmetry_space_group_name_H-M   'P 1'
_cell_length_a   9.43083458
_cell_length_b   7.17056756
_cell_length_c   5.29637560
_cell_angle_alpha   90.00000000
_cell_angle_beta   92.06095313
_cell_angle_gamma   90.00000000
_symmetry_Int_Tables_number   1
_chemical_formula_structural   Na3SnPCO7
_chemical_formula_sum   'Na6 Sn2 P2 C2 O14'
_cell_volume   357.93273131
_cell_formula_units_Z   2
loop_
 _symmetry_equiv_pos_site_id
 _symmetry_equiv_pos_as_xyz
  1  'x, y, z'
loop_
 _atom_site_type_symbol
 _atom_site_label
 _atom_site_symmetry_multiplicity
 _atom_site_fract_x
 _atom_site_fract_y
 _atom_site_fract_z
 _atom_site_occupancy
  Na  Na0  1  0.08284046  0.25000000  0.77770498  1
  Na  Na1  1  0.24974980  0.00430804  0.24018150  1
  Na  Na2  1  0.24974980  0.49569196  0.24018150  1
  Na  Na3  1  0.75025020  0.50430804  0.75981850  1
  Na  Na4  1  0.75025020  0.99569196  0.75981850  1
  Na  Na5  1  0.91715954  0.75000000  0.22229502  1
  Sn  Sn6  1  0.37110559  0.75000000  0.76417434  1
  Sn  Sn7  1  0.62889441  0.25000000  0.23582566  1
  P  P8  1  0.39498681  0.25000000  0.72333681  1
  P  P9  1  0.60501319  0.75000000  0.27666319  1
  C  C10  1  0.05447065  0.75000000  0.73254148  1
  C  C11  1  0.94552935  0.25000000  0.26745852  1
  O  O12  1  0.08169920  0.25000000  0.25723246  1
  O  O13  1  0.13197775  0.75000000  0.94462809  1
  O  O14  1  0.11576289  0.75000000  0.51523232  1
  O  O15  1  0.31586670  0.07714957  0.82989296  1
  O  O16  1  0.31586670  0.42285043  0.82989296  1
  O  O17  1  0.38322970  0.25000000  0.43167662  1
  O  O18  1  0.44257149  0.75000000  0.19094120  1
  O  O19  1  0.55742851  0.25000000  0.80905880  1
  O  O20  1  0.61677030  0.75000000  0.56832338  1
  O  O21  1  0.68413330  0.57714957  0.17010704  1
  O  O22  1  0.68413330  0.92285043  0.17010704  1
  O  O23  1  0.88423711  0.25000000  0.48476768  1
  O  O24  1  0.86802225  0.25000000  0.05537191  1
  O  O25  1  0.91830080  0.75000000  0.74276754  1
