# generated using pymatgen
data_LiAgF4
_symmetry_space_group_name_H-M   'P 1'
_cell_length_a   5.78593722
_cell_length_b   6.44592141
_cell_length_c   5.56197029
_cell_angle_alpha   73.67284766
_cell_angle_beta   89.98056110
_cell_angle_gamma   63.36209588
_symmetry_Int_Tables_number   1
_chemical_formula_structural   LiAgF4
_chemical_formula_sum   'Li2 Ag2 F8'
_cell_volume   176.02123704
_cell_formula_units_Z   2
loop_
 _symmetry_equiv_pos_site_id
 _symmetry_equiv_pos_as_xyz
  1  'x, y, z'
loop_
 _atom_site_type_symbol
 _atom_site_label
 _atom_site_symmetry_multiplicity
 _atom_site_fract_x
 _atom_site_fract_y
 _atom_site_fract_z
 _atom_site_occupancy
  Li  Li0  1  0.89612788  0.99957162  0.25030667  1
  Li  Li1  1  0.10392399  0.00032203  0.74980843  1
  Ag  Ag2  1  -0.00034634  0.50022401  -0.00027869  1
  Ag  Ag3  1  0.50026317  0.50016187  0.49955274  1
  F  F4  1  0.73267312  0.70395456  0.70300526  1
  F  F5  1  0.97179354  0.21112778  0.96978067  1
  F  F6  1  0.81659177  0.21070356  0.47002331  1
  F  F7  1  0.56416943  0.70381420  0.20331431  1
  F  F8  1  0.43592842  0.29582001  0.79696962  1
  F  F9  1  0.18351347  0.78916388  0.53005950  1
  F  F10  1  0.02800736  0.78903293  0.03022061  1
  F  F11  1  0.26735419  0.29610355  0.29723657  1
