# generated using pymatgen
data_Li4MnCo2O7
_symmetry_space_group_name_H-M   'P 1'
_cell_length_a   3.02141947
_cell_length_b   17.14576483
_cell_length_c   5.10928408
_cell_angle_alpha   94.38511333
_cell_angle_beta   75.63619744
_cell_angle_gamma   91.57624762
_symmetry_Int_Tables_number   1
_chemical_formula_structural   Li4MnCo2O7
_chemical_formula_sum   'Li8 Mn2 Co4 O14'
_cell_volume   255.64955333
_cell_formula_units_Z   2
loop_
 _symmetry_equiv_pos_site_id
 _symmetry_equiv_pos_as_xyz
  1  'x, y, z'
loop_
 _atom_site_type_symbol
 _atom_site_label
 _atom_site_symmetry_multiplicity
 _atom_site_fract_x
 _atom_site_fract_y
 _atom_site_fract_z
 _atom_site_occupancy
  Li  Li0  1  0.71564350  0.07258343  0.57061002  1
  Li  Li1  1  0.13867708  0.21527744  0.71234201  1
  Li  Li2  1  0.57075000  0.35667023  0.85015811  1
  Li  Li3  1  0.00052990  0.50047791  0.00652632  1
  Li  Li4  1  0.43262981  0.64071940  0.14618793  1
  Li  Li5  1  0.85897487  0.78683431  0.28243124  1
  Li  Li6  1  0.28359987  0.92790124  0.43065634  1
  Li  Li7  1  0.28581659  0.42816979  0.42811824  1
  Mn  Mn8  1  -0.00002475  0.00127110  0.00095781  1
  Mn  Mn9  1  0.14085707  0.71174412  0.71215950  1
  Co  Co10  1  0.42316784  0.14642242  0.14345934  1
  Co  Co11  1  0.85347743  0.29189928  0.29257552  1
  Co  Co12  1  0.72390755  0.56419788  0.56528429  1
  Co  Co13  1  0.57116365  0.85646496  0.85688158  1
  O  O14  1  0.33146727  0.04135133  0.27414015  1
  O  O15  1  0.80273672  0.18611993  0.40583234  1
  O  O16  1  0.20405481  0.31872279  0.54580018  1
  O  O17  1  0.64153784  0.47451925  0.71054864  1
  O  O18  1  0.05847975  0.60785641  0.83609890  1
  O  O19  1  0.47171547  0.75252841  0.98855597  1
  O  O20  1  0.94560262  0.89556274  0.12473012  1
  O  O21  1  0.05655725  0.10617297  0.87287329  1
  O  O22  1  0.51926765  0.24840459  0.02175497  1
  O  O23  1  0.92916385  0.38161893  0.14677867  1
  O  O24  1  0.37172486  0.53766158  0.31229807  1
  O  O25  1  0.80095347  0.67047791  0.44665189  1
  O  O26  1  0.19772059  0.81757686  0.58836262  1
  O  O27  1  0.66984745  0.96079278  0.72722593  1
