# generated using pymatgen
data_Na7SbO6
_symmetry_space_group_name_H-M   'P 1'
_cell_length_a   6.50577029
_cell_length_b   6.50579430
_cell_length_c   6.39319494
_cell_angle_alpha   59.41866366
_cell_angle_beta   120.59130767
_cell_angle_gamma   120.01227594
_symmetry_Int_Tables_number   1
_chemical_formula_structural   Na7SbO6
_chemical_formula_sum   'Na7 Sb1 O6'
_cell_volume   189.60779844
_cell_formula_units_Z   1
loop_
 _symmetry_equiv_pos_site_id
 _symmetry_equiv_pos_as_xyz
  1  'x, y, z'
loop_
 _atom_site_type_symbol
 _atom_site_label
 _atom_site_symmetry_multiplicity
 _atom_site_fract_x
 _atom_site_fract_y
 _atom_site_fract_z
 _atom_site_occupancy
  Na  Na0  1  0.88581810  0.70649538  0.68265144  1
  Na  Na1  1  0.51740908  0.95723178  0.31029183  1
  Na  Na2  1  0.75013079  0.48260636  0.31037163  1
  Na  Na3  1  0.34436806  0.65551427  0.03312107  1
  Na  Na4  1  0.50331326  0.11416653  0.68269191  1
  Na  Na5  1  0.29348614  0.49673172  0.68250329  1
  Na  Na6  1  0.04277840  0.24988627  0.31029996  1
  Sb  Sb7  1  0.99904594  0.00096921  0.99709383  1
  O  O8  1  0.78680997  0.88989009  0.21938494  1
  O  O9  1  0.66217981  0.81280729  0.77412009  1
  O  O10  1  0.92485144  0.33783448  0.77429535  1
  O  O11  1  0.11000261  0.67749649  0.21933742  1
  O  O12  1  0.32251219  0.21305892  0.21958802  1
  O  O13  1  0.18729519  0.07531023  0.77424922  1
