# generated using pymatgen
data_NaYH8(CO3)4
_symmetry_space_group_name_H-M   'P 1'
_cell_length_a   8.78209659
_cell_length_b   8.65965000
_cell_length_c   14.95715484
_cell_angle_alpha   90.00000000
_cell_angle_beta   103.30112318
_cell_angle_gamma   90.00000000
_symmetry_Int_Tables_number   1
_chemical_formula_structural   NaYH8(CO3)4
_chemical_formula_sum   'Na4 Y4 H32 C16 O48'
_cell_volume   1106.97598082
_cell_formula_units_Z   4
loop_
 _symmetry_equiv_pos_site_id
 _symmetry_equiv_pos_as_xyz
  1  'x, y, z'
loop_
 _atom_site_type_symbol
 _atom_site_label
 _atom_site_symmetry_multiplicity
 _atom_site_fract_x
 _atom_site_fract_y
 _atom_site_fract_z
 _atom_site_occupancy
  Na  Na0  1  0.31491167  0.61934206  0.51729901  1
  Na  Na1  1  0.31491167  0.38065794  0.01729901  1
  Na  Na2  1  0.99344655  0.32142914  0.52174928  1
  Na  Na3  1  0.99344655  0.67857086  0.02174928  1
  Y  Y4  1  0.19449414  0.09497204  0.80466433  1
  Y  Y5  1  0.19449414  0.90502796  0.30466333  1
  Y  Y6  1  0.66231769  0.59409298  0.73410089  1
  Y  Y7  1  0.66231769  0.40590702  0.23410089  1
  H  H8  1  0.03181442  0.62106143  0.59870114  1
  H  H9  1  0.23698456  0.71325601  0.94113703  1
  H  H10  1  0.35562564  0.03964935  0.00976347  1
  H  H11  1  0.17237144  0.94582314  0.50223316  1
  H  H12  1  0.03181442  0.37893857  0.09870114  1
  H  H13  1  0.23698456  0.28674399  0.44113703  1
  H  H14  1  0.34626150  0.28953340  0.54000178  1
  H  H15  1  0.35562564  0.96035065  0.50976347  1
  H  H16  1  0.17237144  0.05417686  0.00223316  1
  H  H17  1  0.61821696  0.09515983  0.92675429  1
  H  H18  1  0.51385223  0.09809652  0.63218143  1
  H  H19  1  0.67326727  0.72837911  0.94734989  1
  H  H20  1  0.34626150  0.71046660  0.04000178  1
  H  H21  1  0.72385371  0.23348360  0.90780633  1
  H  H22  1  0.62406583  0.97119862  0.60621162  1
  H  H23  1  0.64094739  0.67857381  0.53103654  1
  H  H24  1  0.63433174  0.49435947  0.53680884  1
  H  H25  1  0.66326954  0.22562197  0.54568479  1
  H  H26  1  0.61821696  0.90484017  0.42675429  1
  H  H27  1  0.51385223  0.90190348  0.13218143  1
  H  H28  1  0.67326727  0.27162089  0.44734989  1
  H  H29  1  0.89533047  0.02593825  0.99120124  1
  H  H30  1  0.72385371  0.76651640  0.40780633  1
  H  H31  1  0.62406583  0.02880138  0.10621162  1
  H  H32  1  0.64094739  0.32142619  0.03103654  1
  H  H33  1  0.63433174  0.50564053  0.03680884  1
  H  H34  1  0.66326954  0.77437803  0.04568479  1
  H  H35  1  0.89533047  0.97406175  0.49120124  1
  H  H36  1  0.96986191  0.02265035  0.59157977  1
  H  H37  1  0.99033970  0.68189069  0.49765753  1
  H  H38  1  0.96986191  0.97734965  0.09157977  1
  H  H39  1  0.99033970  0.31810931  0.99765753  1
  C  C40  1  0.36726523  0.82047623  0.72253847  1
  C  C41  1  0.41865322  0.39166464  0.81532415  1
  C  C42  1  0.43323129  0.30778613  0.72634294  1
  C  C43  1  0.48443694  0.86944178  0.81225334  1
  C  C44  1  0.36726523  0.17952377  0.22253847  1
  C  C45  1  0.41865322  0.60833536  0.31532415  1
  C  C46  1  0.43323129  0.69221387  0.22634294  1
  C  C47  1  0.48443694  0.13055822  0.31225334  1
  C  C48  1  0.90891686  0.31956681  0.81290270  1
  C  C49  1  0.88537854  0.88575052  0.72755220  1
  C  C50  1  0.97166899  0.80056949  0.81588358  1
  C  C51  1  0.95595583  0.37409081  0.72450199  1
  C  C52  1  0.90891686  0.68043319  0.31290270  1
  C  C53  1  0.88537854  0.11424948  0.22755220  1
  C  C54  1  0.97166899  0.19943051  0.31588358  1
  C  C55  1  0.95595583  0.62590919  0.22450199  1
  O  O56  1  0.10233882  0.85691584  0.85728706  1
  O  O57  1  0.06525720  0.30143943  0.70063671  1
  O  O58  1  0.05261881  0.60483503  0.53805417  1
  O  O59  1  0.26080397  0.09731022  0.97898035  1
  O  O60  1  0.10233882  0.14308416  0.35728706  1
  O  O61  1  0.23676005  0.88733741  0.70434322  1
  O  O62  1  0.06525720  0.69856057  0.20063671  1
  O  O63  1  0.33302549  0.32736950  0.86240480  1
  O  O64  1  0.05261881  0.39516497  0.03805417  1
  O  O65  1  0.26080397  0.90268978  0.47898035  1
  O  O66  1  0.26359790  0.34683140  0.49846691  1
  O  O67  1  0.36585751  0.17847005  0.70859848  1
  O  O68  1  0.44255371  0.97498820  0.86039833  1
  O  O69  1  0.41431443  0.71681043  0.67485906  1
  O  O70  1  0.23676005  0.11266259  0.20434322  1
  O  O71  1  0.49514428  0.51499567  0.83420535  1
  O  O72  1  0.33302549  0.67263050  0.36240480  1
  O  O73  1  0.51435036  0.37189784  0.67676994  1
  O  O74  1  0.26359790  0.65316860  0.99846691  1
  O  O75  1  0.36585751  0.82152995  0.20859848  1
  O  O76  1  0.61545929  0.80156109  0.83143214  1
  O  O77  1  0.44255371  0.02501180  0.36039833  1
  O  O78  1  0.55268883  0.05674267  0.58036118  1
  O  O79  1  0.70566024  0.16317552  0.95650708  1
  O  O80  1  0.41431443  0.28318957  0.17485906  1
  O  O81  1  0.49514428  0.48500433  0.33420535  1
  O  O82  1  0.59784490  0.59196308  0.56085621  1
  O  O83  1  0.51435036  0.62810216  0.17676994  1
  O  O84  1  0.78373268  0.37502867  0.82877428  1
  O  O85  1  0.61545929  0.19843891  0.33143214  1
  O  O86  1  0.76088595  0.82534279  0.68038004  1
  O  O87  1  0.55268883  0.94325733  0.08036118  1
  O  O88  1  0.70816217  0.30569189  0.51196831  1
  O  O89  1  0.70566024  0.83682448  0.45650708  1
  O  O90  1  0.59784490  0.40803692  0.06085621  1
  O  O91  1  0.90697903  0.68232464  0.84025948  1
  O  O92  1  0.88080699  0.48764058  0.68238103  1
  O  O93  1  0.78373268  0.62497133  0.32877428  1
  O  O94  1  0.99722610  0.22367136  0.86390351  1
  O  O95  1  0.94586242  0.01032526  0.70838352  1
  O  O96  1  0.76088595  0.17465721  0.18038004  1
  O  O97  1  0.70816217  0.69430811  0.01196831  1
  O  O98  1  0.90697903  0.31767536  0.34025948  1
  O  O99  1  0.98471563  0.03197286  0.52815313  1
  O  O100  1  0.88080699  0.51235942  0.18238103  1
  O  O101  1  0.99722610  0.77632864  0.36390351  1
  O  O102  1  0.94586242  0.98967474  0.20838352  1
  O  O103  1  0.98471563  0.96802714  0.02815313  1
