# generated using pymatgen
data_Na3Ti8O16
_symmetry_space_group_name_H-M   'P 1'
_cell_length_a   6.12544076
_cell_length_b   12.26396239
_cell_length_c   8.66211210
_cell_angle_alpha   90.00299193
_cell_angle_beta   90.00071081
_cell_angle_gamma   89.99999011
_symmetry_Int_Tables_number   1
_chemical_formula_structural   Na3Ti8O16
_chemical_formula_sum   'Na6 Ti16 O32'
_cell_volume   650.71670121
_cell_formula_units_Z   2
loop_
 _symmetry_equiv_pos_site_id
 _symmetry_equiv_pos_as_xyz
  1  'x, y, z'
loop_
 _atom_site_type_symbol
 _atom_site_label
 _atom_site_symmetry_multiplicity
 _atom_site_fract_x
 _atom_site_fract_y
 _atom_site_fract_z
 _atom_site_occupancy
  Na  Na0  1  0.74999712  0.99997764  0.12282946  1
  Na  Na1  1  0.74999870  0.74866399  0.37383402  1
  Na  Na2  1  0.74999900  0.25133367  0.37384976  1
  Na  Na3  1  0.25000150  0.24871064  0.62614556  1
  Na  Na4  1  0.25000084  0.75129102  0.62616540  1
  Na  Na5  1  0.24999953  0.50002279  0.87716369  1
  Ti  Ti6  1  0.49998779  0.25002817  0.00001115  1
  Ti  Ti7  1  0.49999422  0.74997040  0.00000335  1
  Ti  Ti8  1  0.00001273  0.25002787  0.00001091  1
  Ti  Ti9  1  0.00000629  0.74997034  0.00000336  1
  Ti  Ti10  1  0.24999988  0.37791934  0.24836604  1
  Ti  Ti11  1  0.25000009  0.12374353  0.24245166  1
  Ti  Ti12  1  0.24999969  0.62214210  0.24828341  1
  Ti  Ti13  1  0.25000069  0.87619622  0.24235610  1
  Ti  Ti14  1  0.50355424  0.50002641  0.49515542  1
  Ti  Ti15  1  0.99644602  0.50002583  0.49515586  1
  Ti  Ti16  1  0.00353767  0.99997471  0.50481601  1
  Ti  Ti17  1  0.49646384  0.99997473  0.50481742  1
  Ti  Ti18  1  0.75000010  0.37632261  0.75748188  1
  Ti  Ti19  1  0.74999796  0.12214142  0.75172429  1
  Ti  Ti20  1  0.74999878  0.87779274  0.75180851  1
  Ti  Ti21  1  0.74999995  0.62374394  0.75757906  1
  O  O22  1  0.25000043  0.35593097  0.01752234  1
  O  O23  1  0.25000041  0.14260572  0.01729772  1
  O  O24  1  0.25000025  0.85741644  0.01728112  1
  O  O25  1  0.25000131  0.64405114  0.01752769  1
  O  O26  1  0.03769956  0.24921632  0.23135014  1
  O  O27  1  0.03769556  0.75077964  0.23137588  1
  O  O28  1  0.46230438  0.75078006  0.23137570  1
  O  O29  1  0.46230270  0.24921636  0.23135030  1
  O  O30  1  0.03496467  0.49999225  0.26684328  1
  O  O31  1  0.46503470  0.49999213  0.26684284  1
  O  O32  1  0.03612858  0.00000291  0.26894959  1
  O  O33  1  0.46387604  0.00000239  0.26895097  1
  O  O34  1  0.25000129  0.60678712  0.48103599  1
  O  O35  1  0.25000307  0.10649451  0.48084910  1
  O  O36  1  0.25000002  0.39321021  0.48101802  1
  O  O37  1  0.25000325  0.89350709  0.48085676  1
  O  O38  1  0.74999771  0.10678812  0.51897634  1
  O  O39  1  0.74999882  0.60650209  0.51916239  1
  O  O40  1  0.74999878  0.39349877  0.51916990  1
  O  O41  1  0.74999647  0.89321449  0.51895841  1
  O  O42  1  0.96501613  0.00000724  0.73312545  1
  O  O43  1  0.53612094  0.49999901  0.73106420  1
  O  O44  1  0.53498142  0.00000735  0.73312427  1
  O  O45  1  0.96387903  0.49999918  0.73106423  1
  O  O46  1  0.53769601  0.25077855  0.76865177  1
  O  O47  1  0.53769522  0.74922561  0.76862333  1
  O  O48  1  0.96230238  0.74922521  0.76862287  1
  O  O49  1  0.96230487  0.25077851  0.76865143  1
  O  O50  1  0.75000058  0.14407165  0.98247524  1
  O  O51  1  0.74999990  0.35739674  0.98270216  1
  O  O52  1  0.74999924  0.85594318  0.98246985  1
  O  O53  1  0.74999967  0.64257889  0.98271842  1
