# generated using pymatgen
data_Cd2Si(P2O7)2
_symmetry_space_group_name_H-M   'P 1'
_cell_length_a   5.37205328
_cell_length_b   9.35897871
_cell_length_c   12.77963589
_cell_angle_alpha   77.43907767
_cell_angle_beta   90.00000000
_cell_angle_gamma   73.32156624
_symmetry_Int_Tables_number   1
_chemical_formula_structural   Cd2Si(P2O7)2
_chemical_formula_sum   'Cd4 Si2 P8 O28'
_cell_volume   599.41879285
_cell_formula_units_Z   2
loop_
 _symmetry_equiv_pos_site_id
 _symmetry_equiv_pos_as_xyz
  1  'x, y, z'
loop_
 _atom_site_type_symbol
 _atom_site_label
 _atom_site_symmetry_multiplicity
 _atom_site_fract_x
 _atom_site_fract_y
 _atom_site_fract_z
 _atom_site_occupancy
  Cd  Cd0  1  0.89595344  0.49050685  0.87054479  1
  Cd  Cd1  1  0.38646129  0.50949315  0.62945521  1
  Cd  Cd2  1  0.61353871  0.49050685  0.37054479  1
  Cd  Cd3  1  0.10404656  0.50949315  0.12945521  1
  Si  Si4  1  0.37651376  0.00000000  0.75000000  1
  Si  Si5  1  0.62348624  0.00000000  0.25000000  1
  P  P6  1  0.35290655  0.74781277  0.92781006  1
  P  P7  1  0.71467313  0.76223781  0.63850462  1
  P  P8  1  0.89928068  0.74781277  0.42781006  1
  P  P9  1  0.52308907  0.76223781  0.13850462  1
  P  P10  1  0.47691093  0.23776219  0.86149538  1
  P  P11  1  0.10071932  0.25218723  0.57218994  1
  P  P12  1  0.28532687  0.23776219  0.36149538  1
  P  P13  1  0.64709345  0.25218723  0.07218994  1
  O  O14  1  0.22864347  0.89313772  0.83188025  1
  O  O15  1  0.61940567  0.90938671  0.68760950  1
  O  O16  1  0.63314937  0.68853562  0.90390579  1
  O  O17  1  0.81925828  0.83387404  0.52679185  1
  O  O18  1  0.87821881  0.89313772  0.33188025  1
  O  O19  1  0.47120763  0.90938671  0.18760950  1
  O  O20  1  0.47502080  0.71667390  0.62039011  1
  O  O21  1  0.19051110  0.63985723  0.94980236  1
  O  O22  1  0.94653167  0.63799682  0.70226485  1
  O  O23  1  0.67831501  0.68853562  0.40390579  1
  O  O24  1  0.34686768  0.83387404  0.02679185  1
  O  O25  1  0.80830529  0.71667390  0.12039011  1
  O  O26  1  0.16963267  0.63985723  0.44980236  1
  O  O27  1  0.41547052  0.63799682  0.20226485  1
  O  O28  1  0.58452948  0.36200318  0.79773515  1
  O  O29  1  0.83036733  0.36014277  0.55019764  1
  O  O30  1  0.19169471  0.28332610  0.87960989  1
  O  O31  1  0.65313232  0.16612596  0.97320815  1
  O  O32  1  0.32168499  0.31146438  0.59609421  1
  O  O33  1  0.05346833  0.36200318  0.29773515  1
  O  O34  1  0.80948890  0.36014277  0.05019764  1
  O  O35  1  0.52497920  0.28332610  0.37960989  1
  O  O36  1  0.52879237  0.09061329  0.81239050  1
  O  O37  1  0.12178119  0.10686228  0.66811975  1
  O  O38  1  0.18074172  0.16612596  0.47320815  1
  O  O39  1  0.36685063  0.31146438  0.09609421  1
  O  O40  1  0.38059433  0.09061329  0.31239050  1
  O  O41  1  0.77135653  0.10686228  0.16811975  1
