# generated using pymatgen
data_LiCrCoO4
_symmetry_space_group_name_H-M   'P 1'
_cell_length_a   5.80966109
_cell_length_b   5.80966084
_cell_length_c   5.80966109
_cell_angle_alpha   89.38662543
_cell_angle_beta   121.03226533
_cell_angle_gamma   61.72043669
_symmetry_Int_Tables_number   1
_chemical_formula_structural   LiCrCoO4
_chemical_formula_sum   'Li2 Cr2 Co2 O8'
_cell_volume   139.26883790
_cell_formula_units_Z   2
loop_
 _symmetry_equiv_pos_site_id
 _symmetry_equiv_pos_as_xyz
  1  'x, y, z'
loop_
 _atom_site_type_symbol
 _atom_site_label
 _atom_site_symmetry_multiplicity
 _atom_site_fract_x
 _atom_site_fract_y
 _atom_site_fract_z
 _atom_site_occupancy
  Li  Li0  1  0.75000000  0.13017363  0.61982637  1
  Li  Li1  1  0.25000000  0.86982637  0.38017363  1
  Cr  Cr2  1  0.50000000  0.00000000  0.00000000  1
  Cr  Cr3  1  0.00000000  0.50000000  0.00000000  1
  Co  Co4  1  0.50000000  0.50000000  0.00000000  1
  Co  Co5  1  0.00000000  0.50000000  0.50000000  1
  O  O6  1  0.51977434  0.72853043  0.79124391  1
  O  O7  1  0.98022566  0.72853043  0.25169422  1
  O  O8  1  0.96360217  0.29081692  0.24557992  1
  O  O9  1  0.53639783  0.71802225  0.24557992  1
  O  O10  1  0.46360217  0.28197775  0.75442008  1
  O  O11  1  0.03639783  0.70918308  0.75442008  1
  O  O12  1  0.01977434  0.27146957  0.74830578  1
  O  O13  1  0.48022566  0.27146957  0.20875609  1
