# generated using pymatgen
data_LiMnPO5
_symmetry_space_group_name_H-M   'P 1'
_cell_length_a   6.70765102
_cell_length_b   6.94216717
_cell_length_c   8.01340662
_cell_angle_alpha   89.79973180
_cell_angle_beta   91.29681503
_cell_angle_gamma   116.31076269
_symmetry_Int_Tables_number   1
_chemical_formula_structural   LiMnPO5
_chemical_formula_sum   'Li4 Mn4 P4 O20'
_cell_volume   334.39771261
_cell_formula_units_Z   4
loop_
 _symmetry_equiv_pos_site_id
 _symmetry_equiv_pos_as_xyz
  1  'x, y, z'
loop_
 _atom_site_type_symbol
 _atom_site_label
 _atom_site_symmetry_multiplicity
 _atom_site_fract_x
 _atom_site_fract_y
 _atom_site_fract_z
 _atom_site_occupancy
  Li  Li0  1  0.28907251  0.79651168  0.43379264  1
  Li  Li1  1  0.22182931  0.27713143  0.06704996  1
  Li  Li2  1  0.77817069  0.72286857  0.93295004  1
  Li  Li3  1  0.71092749  0.20348832  0.56620736  1
  Mn  Mn4  1  0.24638963  0.49671432  0.74791556  1
  Mn  Mn5  1  0.24636222  0.99710740  0.75292081  1
  Mn  Mn6  1  0.75363778  0.00289260  0.24707919  1
  Mn  Mn7  1  0.75361037  0.50328568  0.25208344  1
  P  P8  1  0.23992300  0.75354963  0.08448438  1
  P  P9  1  0.26126202  0.24524641  0.41625815  1
  P  P10  1  0.73873798  0.75475359  0.58374185  1
  P  P11  1  0.76007700  0.24645037  0.91551562  1
  O  O12  1  0.13574079  0.86737231  0.96935748  1
  O  O13  1  0.07924495  0.64004766  0.22841411  1
  O  O14  1  0.23122060  0.74225495  0.66878616  1
  O  O15  1  0.28893484  0.58976341  0.98407835  1
  O  O16  1  0.19794016  0.39537110  0.51966214  1
  O  O17  1  0.44601839  0.92182267  0.18006164  1
  O  O18  1  0.06083092  0.08382032  0.31148962  1
  O  O19  1  0.26741919  0.25580811  0.83217395  1
  O  O20  1  0.64388083  0.88102750  0.47147076  1
  O  O21  1  0.42927706  0.37121009  0.27968132  1
  O  O22  1  0.57072294  0.62878991  0.72031868  1
  O  O23  1  0.35611917  0.11897250  0.52852924  1
  O  O24  1  0.73258081  0.74419189  0.16782605  1
  O  O25  1  0.93916908  0.91617968  0.68851038  1
  O  O26  1  0.55398161  0.07817733  0.81993836  1
  O  O27  1  0.80205984  0.60462890  0.48033786  1
  O  O28  1  0.71106516  0.41023659  0.01592165  1
  O  O29  1  0.76877940  0.25774505  0.33121384  1
  O  O30  1  0.92075505  0.35995234  0.77158589  1
  O  O31  1  0.86425921  0.13262769  0.03064252  1
