# generated using pymatgen
data_TiGa2O5
_symmetry_space_group_name_H-M   'P 1'
_cell_length_a   3.66101793
_cell_length_b   10.08881249
_cell_length_c   5.29399417
_cell_angle_alpha   90.00000000
_cell_angle_beta   69.77114036
_cell_angle_gamma   90.00000000
_symmetry_Int_Tables_number   1
_chemical_formula_structural   TiGa2O5
_chemical_formula_sum   'Ti2 Ga4 O10'
_cell_volume   183.47456438
_cell_formula_units_Z   2
loop_
 _symmetry_equiv_pos_site_id
 _symmetry_equiv_pos_as_xyz
  1  'x, y, z'
loop_
 _atom_site_type_symbol
 _atom_site_label
 _atom_site_symmetry_multiplicity
 _atom_site_fract_x
 _atom_site_fract_y
 _atom_site_fract_z
 _atom_site_occupancy
  Ti  Ti0  1  0.17921890  0.25000000  0.64156220  1
  Ti  Ti1  1  0.82078110  0.75000000  0.35843780  1
  Ga  Ga2  1  0.13676909  0.55908100  0.72646181  1
  Ga  Ga3  1  0.13676909  0.94091900  0.72646181  1
  Ga  Ga4  1  0.86323091  0.05908100  0.27353819  1
  Ga  Ga5  1  0.86323091  0.44091900  0.27353819  1
  O  O6  1  0.04703131  0.11925828  0.90593738  1
  O  O7  1  0.04703131  0.38074172  0.90593738  1
  O  O8  1  0.69240637  0.92457289  0.61518825  1
  O  O9  1  0.69240637  0.57542711  0.61518825  1
  O  O10  1  0.24869880  0.75000000  0.50260241  1
  O  O11  1  0.75130120  0.25000000  0.49739759  1
  O  O12  1  0.30759363  0.07542711  0.38481175  1
  O  O13  1  0.30759363  0.42457289  0.38481175  1
  O  O14  1  0.95296869  0.61925828  0.09406262  1
  O  O15  1  0.95296869  0.88074172  0.09406262  1
