# generated using pymatgen
data_Ba3Sr4O7
_symmetry_space_group_name_H-M   'P 1'
_cell_length_a   3.80435597
_cell_length_b   13.77018744
_cell_length_c   5.39864028
_cell_angle_alpha   101.31074778
_cell_angle_beta   89.99818787
_cell_angle_gamma   82.06129190
_symmetry_Int_Tables_number   1
_chemical_formula_structural   Ba3Sr4O7
_chemical_formula_sum   'Ba3 Sr4 O7'
_cell_volume   274.55913902
_cell_formula_units_Z   1
loop_
 _symmetry_equiv_pos_site_id
 _symmetry_equiv_pos_as_xyz
  1  'x, y, z'
loop_
 _atom_site_type_symbol
 _atom_site_label
 _atom_site_symmetry_multiplicity
 _atom_site_fract_x
 _atom_site_fract_y
 _atom_site_fract_z
 _atom_site_occupancy
  Ba  Ba0  1  0.14073132  0.71846674  0.85925115  1
  Ba  Ba1  1  0.43133195  0.13868361  0.56907841  1
  Ba  Ba2  1  0.28577374  0.42861024  0.71404914  1
  Sr  Sr3  1  0.57063175  0.85899667  0.42921010  1
  Sr  Sr4  1  0.00108207  0.99821588  0.99877753  1
  Sr  Sr5  1  0.71376350  0.57244416  0.28608947  1
  Sr  Sr6  1  0.85809340  0.28472364  0.14218943  1
  O  O7  1  0.42535125  0.14801737  0.07369389  1
  O  O8  1  0.14512521  0.70906468  0.35475284  1
  O  O9  1  0.28494210  0.42848885  0.21422209  1
  O  O10  1  0.00820333  0.98409865  0.49236248  1
  O  O11  1  0.56339800  0.87302726  0.93723331  1
  O  O12  1  0.85952948  0.28149818  0.64050043  1
  O  O13  1  0.71204290  0.57566209  0.78858973  1
