# generated using pymatgen
data_Li4MnCo2O7
_symmetry_space_group_name_H-M   'P 1'
_cell_length_a   3.02235047
_cell_length_b   17.10205344
_cell_length_c   5.11547072
_cell_angle_alpha   94.55697571
_cell_angle_beta   75.55956282
_cell_angle_gamma   91.60095361
_symmetry_Int_Tables_number   1
_chemical_formula_structural   Li4MnCo2O7
_chemical_formula_sum   'Li8 Mn2 Co4 O14'
_cell_volume   255.23859418
_cell_formula_units_Z   2
loop_
 _symmetry_equiv_pos_site_id
 _symmetry_equiv_pos_as_xyz
  1  'x, y, z'
loop_
 _atom_site_type_symbol
 _atom_site_label
 _atom_site_symmetry_multiplicity
 _atom_site_fract_x
 _atom_site_fract_y
 _atom_site_fract_z
 _atom_site_occupancy
  Li  Li0  1  0.71824081  0.07291933  0.57002574  1
  Li  Li1  1  0.14203755  0.21442374  0.71466259  1
  Li  Li2  1  0.56491474  0.35814846  0.85422671  1
  Li  Li3  1  0.00084024  0.49914936  0.99327684  1
  Li  Li4  1  0.42758924  0.64345748  0.14915742  1
  Li  Li5  1  0.86268720  0.78315170  0.28894535  1
  Li  Li6  1  0.28543519  0.92901420  0.42734913  1
  Li  Li7  1  0.71452893  0.57076203  0.57102249  1
  Mn  Mn8  1  0.99066189  0.00071286  0.00110414  1
  Mn  Mn9  1  0.57535593  0.85411664  0.85575721  1
  Co  Co10  1  0.42244953  0.14584696  0.14314075  1
  Co  Co11  1  0.85560324  0.28838097  0.28672124  1
  Co  Co12  1  0.28354260  0.43429401  0.43404143  1
  Co  Co13  1  0.15570132  0.70639330  0.70851858  1
  O  O14  1  0.32343748  0.04104726  0.27330586  1
  O  O15  1  0.79966024  0.18415071  0.41165146  1
  O  O16  1  0.23590213  0.32824758  0.54681074  1
  O  O17  1  0.63142108  0.46116047  0.68730477  1
  O  O18  1  0.07042335  0.61689183  0.85389929  1
  O  O19  1  0.48504332  0.75020959  0.98009125  1
  O  O20  1  0.90285643  0.89495239  0.13183459  1
  O  O21  1  0.04389372  0.10631075  0.87722151  1
  O  O22  1  0.48721535  0.24857402  0.01534439  1
  O  O23  1  0.95279690  0.39036743  0.16343400  1
  O  O24  1  0.35866458  0.52397128  0.28893381  1
  O  O25  1  0.80589329  0.68015421  0.45539680  1
  O  O26  1  0.23402073  0.81301035  0.59084966  1
  O  O27  1  0.66918298  0.96018109  0.72597226  1
