# generated using pymatgen
data_Li2SnP2O7
_symmetry_space_group_name_H-M   'P 1'
_cell_length_a   10.44555781
_cell_length_b   10.27695806
_cell_length_c   12.03035320
_cell_angle_alpha   90.03584906
_cell_angle_beta   104.86523124
_cell_angle_gamma   89.87018342
_symmetry_Int_Tables_number   1
_chemical_formula_structural   Li2SnP2O7
_chemical_formula_sum   'Li16 Sn8 P16 O56'
_cell_volume   1248.21584979
_cell_formula_units_Z   8
loop_
 _symmetry_equiv_pos_site_id
 _symmetry_equiv_pos_as_xyz
  1  'x, y, z'
loop_
 _atom_site_type_symbol
 _atom_site_label
 _atom_site_symmetry_multiplicity
 _atom_site_fract_x
 _atom_site_fract_y
 _atom_site_fract_z
 _atom_site_occupancy
  Li  Li0  1  0.08808256  0.73001033  0.42307082  1
  Li  Li1  1  0.17821449  0.41800236  0.56394406  1
  Li  Li2  1  0.06954169  0.11101095  0.02616328  1
  Li  Li3  1  0.35839251  0.90321958  0.96123343  1
  Li  Li4  1  0.14039194  0.40227844  0.03931081  1
  Li  Li5  1  0.43010665  0.61142737  0.97345650  1
  Li  Li6  1  0.32185959  0.91806063  0.43629763  1
  Li  Li7  1  0.41286965  0.23052120  0.57683985  1
  Li  Li8  1  0.58713035  0.76947880  0.42316015  1
  Li  Li9  1  0.67814041  0.08193937  0.56370237  1
  Li  Li10  1  0.56989335  0.38857263  0.02654350  1
  Li  Li11  1  0.85960806  0.59772156  0.96068919  1
  Li  Li12  1  0.64160749  0.09678042  0.03876657  1
  Li  Li13  1  0.93045831  0.88898905  0.97383672  1
  Li  Li14  1  0.82178551  0.58199764  0.43605594  1
  Li  Li15  1  0.91191744  0.26998967  0.57692918  1
  Sn  Sn16  1  0.20361102  0.90108641  0.67009450  1
  Sn  Sn17  1  0.25656696  0.22405916  0.83004762  1
  Sn  Sn18  1  0.24320449  0.72392500  0.16979903  1
  Sn  Sn19  1  0.29666691  0.40066467  0.32983643  1
  Sn  Sn20  1  0.70333309  0.59933533  0.67016357  1
  Sn  Sn21  1  0.75679551  0.27607500  0.83020097  1
  Sn  Sn22  1  0.74343304  0.77594084  0.16995238  1
  Sn  Sn23  1  0.79638898  0.09891359  0.32990550  1
  P  P24  1  0.03109694  0.46677853  0.77103430  1
  P  P25  1  0.13433424  0.69791054  0.90598039  1
  P  P26  1  0.05240345  0.95316577  0.25278018  1
  P  P27  1  0.12680564  0.14653965  0.45011335  1
  P  P28  1  0.37301218  0.64653870  0.54994022  1
  P  P29  1  0.44771454  0.45305657  0.74704041  1
  P  P30  1  0.53108064  0.03405858  0.77054506  1
  P  P31  1  0.36595720  0.19743134  0.09400863  1
  P  P32  1  0.63404280  0.80256866  0.90599137  1
  P  P33  1  0.46891936  0.96594142  0.22945494  1
  P  P34  1  0.55228546  0.54694343  0.25295959  1
  P  P35  1  0.62698782  0.35346130  0.45005978  1
  P  P36  1  0.87319436  0.85346035  0.54988665  1
  P  P37  1  0.94759655  0.04683423  0.74721982  1
  P  P38  1  0.86566576  0.30208946  0.09401961  1
  P  P39  1  0.96890306  0.53322147  0.22896570  1
  O  O40  1  0.03810087  0.41946089  0.65243307  1
  O  O41  1  0.99963393  0.84603912  0.50947647  1
  O  O42  1  0.09043138  0.08346518  0.74156668  1
  O  O43  1  0.10871084  0.37852910  0.86949963  1
  O  O44  1  0.10128283  0.60986472  0.78807469  1
  O  O45  1  0.19561127  0.82287745  0.87616583  1
  O  O46  1  0.23978749  0.61813059  0.99702226  1
  O  O47  1  0.99243674  0.28400560  0.05488054  1
  O  O48  1  0.08375232  0.09623095  0.31490210  1
  O  O49  1  0.06153528  0.96775487  0.12931297  1
  O  O50  1  0.11079643  0.51365488  0.21439140  1
  O  O51  1  0.18581770  0.28268514  0.44628340  1
  O  O52  1  0.15367717  0.85879895  0.32586020  1
  O  O53  1  0.23572582  0.05401571  0.51801560  1
  O  O54  1  0.26376676  0.55479628  0.48198339  1
  O  O55  1  0.34682534  0.35874254  0.67400690  1
  O  O56  1  0.31454796  0.78323292  0.55387724  1
  O  O57  1  0.38917326  0.01537431  0.78527843  1
  O  O58  1  0.41567751  0.59621582  0.68508843  1
  O  O59  1  0.43862307  0.46758088  0.87058105  1
  O  O60  1  0.50681671  0.78444202  0.94465549  1
  O  O61  1  0.26151926  0.11712811  0.00270965  1
  O  O62  1  0.30380639  0.32205615  0.12343673  1
  O  O63  1  0.39897061  0.10941651  0.21198745  1
  O  O64  1  0.40938976  0.58336948  0.25896494  1
  O  O65  1  0.39114674  0.87754164  0.13126150  1
  O  O66  1  0.53801144  0.08074350  0.65189781  1
  O  O67  1  0.50053726  0.34678403  0.49044677  1
  O  O68  1  0.49946274  0.65321597  0.50955323  1
  O  O69  1  0.46198856  0.91925650  0.34810219  1
  O  O70  1  0.60885326  0.12245836  0.86873850  1
  O  O71  1  0.59061024  0.41663052  0.74103506  1
  O  O72  1  0.60102939  0.89058349  0.78801255  1
  O  O73  1  0.69619361  0.67794385  0.87656327  1
  O  O74  1  0.73848074  0.88287189  0.99729035  1
  O  O75  1  0.49318329  0.21555798  0.05534451  1
  O  O76  1  0.56137693  0.53241912  0.12941895  1
  O  O77  1  0.58432249  0.40378418  0.31491157  1
  O  O78  1  0.61082674  0.98462569  0.21472157  1
  O  O79  1  0.68545204  0.21676708  0.44612276  1
  O  O80  1  0.65317466  0.64125746  0.32599310  1
  O  O81  1  0.73623324  0.44520372  0.51801661  1
  O  O82  1  0.76427418  0.94598429  0.48198440  1
  O  O83  1  0.84632283  0.14120105  0.67413980  1
  O  O84  1  0.81418230  0.71731486  0.55371660  1
  O  O85  1  0.88920357  0.48634512  0.78560860  1
  O  O86  1  0.93846472  0.03224513  0.87068703  1
  O  O87  1  0.91624768  0.90376905  0.68509790  1
  O  O88  1  0.00756326  0.71599440  0.94511946  1
  O  O89  1  0.76021251  0.38186941  0.00297774  1
  O  O90  1  0.80438873  0.17712255  0.12383417  1
  O  O91  1  0.89871717  0.39013528  0.21192531  1
  O  O92  1  0.89128916  0.62147090  0.13050037  1
  O  O93  1  0.90956862  0.91653482  0.25843332  1
  O  O94  1  0.00036607  0.15396088  0.49052353  1
  O  O95  1  0.96189913  0.58053911  0.34756693  1
