# generated using pymatgen
data_Li3Fe2(SiO4)2
_symmetry_space_group_name_H-M   'P 1'
_cell_length_a   6.59877045
_cell_length_b   10.63019139
_cell_length_c   5.13260505
_cell_angle_alpha   90.00000000
_cell_angle_beta   89.47166290
_cell_angle_gamma   90.00000000
_symmetry_Int_Tables_number   1
_chemical_formula_structural   Li3Fe2(SiO4)2
_chemical_formula_sum   'Li6 Fe4 Si4 O16'
_cell_volume   360.01739658
_cell_formula_units_Z   2
loop_
 _symmetry_equiv_pos_site_id
 _symmetry_equiv_pos_as_xyz
  1  'x, y, z'
loop_
 _atom_site_type_symbol
 _atom_site_label
 _atom_site_symmetry_multiplicity
 _atom_site_fract_x
 _atom_site_fract_y
 _atom_site_fract_z
 _atom_site_occupancy
  Li  Li0  1  0.01213612  0.83964463  0.68633598  1
  Li  Li1  1  0.48786388  0.33964463  0.81366402  1
  Li  Li2  1  0.49989523  0.65579882  0.18387142  1
  Li  Li3  1  0.73078314  0.42601948  0.20608061  1
  Li  Li4  1  0.76921686  0.92601948  0.29391939  1
  Li  Li5  1  0.00010477  0.15579882  0.31612858  1
  Fe  Fe6  1  0.01650139  0.65865194  0.16806518  1
  Fe  Fe7  1  0.48349861  0.15865194  0.33193482  1
  Fe  Fe8  1  0.49946481  0.83624388  0.68952733  1
  Fe  Fe9  1  0.00053519  0.33624388  0.81047267  1
  Si  Si10  1  0.25360211  0.41171785  0.30914159  1
  Si  Si11  1  0.24639789  0.91171785  0.19085841  1
  Si  Si12  1  0.74009830  0.09364083  0.82000355  1
  Si  Si13  1  0.75990170  0.59364083  0.67999645  1
  O  O14  1  0.04464183  0.34233824  0.18153304  1
  O  O15  1  0.03973972  0.84315008  0.30019673  1
  O  O16  1  0.26723560  0.88588833  0.87248673  1
  O  O17  1  0.24096890  0.05993079  0.25656062  1
  O  O18  1  0.23276440  0.38588833  0.62751327  1
  O  O19  1  0.25903110  0.55993079  0.24343938  1
  O  O20  1  0.46026028  0.34315008  0.19980327  1
  O  O21  1  0.45535817  0.84233824  0.31846696  1
  O  O22  1  0.54412162  0.16820976  0.71120716  1
  O  O23  1  0.55871868  0.67011137  0.79817087  1
  O  O24  1  0.76063585  0.44447786  0.79421255  1
  O  O25  1  0.75073096  0.59098015  0.36052923  1
  O  O26  1  0.73936415  0.94447786  0.70578745  1
  O  O27  1  0.74926904  0.09098015  0.13947077  1
  O  O28  1  0.94128132  0.17011137  0.70182913  1
  O  O29  1  0.95587838  0.66820976  0.78879284  1
