# generated using pymatgen
data_Li4Mn5(NiO6)2
_symmetry_space_group_name_H-M   'P 1'
_cell_length_a   5.18731884
_cell_length_b   8.91998187
_cell_length_c   9.83410020
_cell_angle_alpha   90.00000149
_cell_angle_beta   100.70250130
_cell_angle_gamma   90.00000452
_symmetry_Int_Tables_number   1
_chemical_formula_structural   Li4Mn5(NiO6)2
_chemical_formula_sum   'Li8 Mn10 Ni4 O24'
_cell_volume   447.11616944
_cell_formula_units_Z   2
loop_
 _symmetry_equiv_pos_site_id
 _symmetry_equiv_pos_as_xyz
  1  'x, y, z'
loop_
 _atom_site_type_symbol
 _atom_site_label
 _atom_site_symmetry_multiplicity
 _atom_site_fract_x
 _atom_site_fract_y
 _atom_site_fract_z
 _atom_site_occupancy
  Li  Li0  1  0.76318229  0.08205360  0.51346572  1
  Li  Li1  1  0.24262575  0.41099382  0.99258204  1
  Li  Li2  1  0.49949210  0.42424621  0.74543534  1
  Li  Li3  1  0.75462792  0.41968189  0.50878343  1
  Li  Li4  1  0.73681771  0.58205360  0.98653428  1
  Li  Li5  1  0.00050790  0.92424621  0.75456466  1
  Li  Li6  1  0.25737425  0.91099382  0.50741796  1
  Li  Li7  1  0.74537208  0.91968189  0.99121657  1
  Mn  Mn8  1  0.00810508  0.07257501  0.24841460  1
  Mn  Mn9  1  0.49448674  0.08152120  0.75057234  1
  Mn  Mn10  1  0.26004739  0.26335160  0.51044255  1
  Mn  Mn11  1  0.73460939  0.25405483  0.99083615  1
  Mn  Mn12  1  0.99636628  0.41553006  0.25335401  1
  Mn  Mn13  1  0.00551326  0.58152120  0.74942766  1
  Mn  Mn14  1  0.49189492  0.57257501  0.25158540  1
  Mn  Mn15  1  0.23995261  0.76335160  0.98955745  1
  Mn  Mn16  1  0.76539061  0.75405483  0.50916385  1
  Mn  Mn17  1  0.50363372  0.91553006  0.24664599  1
  Ni  Ni18  1  0.00272869  0.25320136  0.75580777  1
  Ni  Ni19  1  0.49550525  0.24474338  0.24442553  1
  Ni  Ni20  1  0.00449475  0.74474338  0.25557447  1
  Ni  Ni21  1  0.49727131  0.75320136  0.74419223  1
  O  O22  1  0.14991779  0.10047397  0.62718280  1
  O  O23  1  0.36338861  0.07420958  0.35507456  1
  O  O24  1  0.65489043  0.07465522  0.14490111  1
  O  O25  1  0.39792041  0.24618165  0.86807357  1
  O  O26  1  0.08490197  0.25766478  0.12920345  1
  O  O27  1  0.83477156  0.09762542  0.86874818  1
  O  O28  1  0.60493782  0.24155691  0.62519808  1
  O  O29  1  0.11414744  0.42077592  0.64032452  1
  O  O30  1  0.39054788  0.39897573  0.37468613  1
  O  O31  1  0.91093001  0.25217410  0.37706383  1
  O  O32  1  0.60995105  0.40652945  0.11745303  1
  O  O33  1  0.13661139  0.57420958  0.14492544  1
  O  O34  1  0.35008221  0.60047397  0.87281720  1
  O  O35  1  0.88251282  0.42723730  0.86697583  1
  O  O36  1  0.10207959  0.74618165  0.63192643  1
  O  O37  1  0.66522844  0.59762542  0.63125182  1
  O  O38  1  0.84510957  0.57465522  0.35509889  1
  O  O39  1  0.41509803  0.75766478  0.37079655  1
  O  O40  1  0.10945212  0.89897573  0.12531387  1
  O  O41  1  0.89506218  0.74155691  0.87480192  1
  O  O42  1  0.58906999  0.75217410  0.12293617  1
  O  O43  1  0.38585256  0.92077592  0.85967548  1
  O  O44  1  0.61748718  0.92723730  0.63302417  1
  O  O45  1  0.89004895  0.90652945  0.38254697  1
