# generated using pymatgen
data_Li7(NiO2)12
_symmetry_space_group_name_H-M   'P 1'
_cell_length_a   7.66231609
_cell_length_b   8.59588810
_cell_length_c   7.66231610
_cell_angle_alpha   73.40822769
_cell_angle_beta   67.41916765
_cell_angle_gamma   105.28138314
_symmetry_Int_Tables_number   1
_chemical_formula_structural   Li7(NiO2)12
_chemical_formula_sum   'Li7 Ni12 O24'
_cell_volume   404.92155363
_cell_formula_units_Z   1
loop_
 _symmetry_equiv_pos_site_id
 _symmetry_equiv_pos_as_xyz
  1  'x, y, z'
loop_
 _atom_site_type_symbol
 _atom_site_label
 _atom_site_symmetry_multiplicity
 _atom_site_fract_x
 _atom_site_fract_y
 _atom_site_fract_z
 _atom_site_occupancy
  Li  Li0  1  0.15918037  0.50000000  0.34081963  1
  Li  Li1  1  0.25446378  0.75527648  0.49800573  1
  Li  Li2  1  0.50148630  0.50000000  0.99851370  1
  Li  Li3  1  0.38510711  0.23521448  0.83883049  1
  Li  Li4  1  0.69688748  0.00000000  0.30311252  1
  Li  Li5  1  0.74671678  0.24472352  0.50081271  1
  Li  Li6  1  0.92595503  0.76478552  0.85010737  1
  Ni  Ni7  1  0.29777507  0.87662281  0.08156930  1
  Ni  Ni8  1  0.04180790  0.12337719  0.57884773  1
  Ni  Ni9  1  0.12185194  0.37944077  0.75110424  1
  Ni  Ni10  1  0.20618622  0.62116695  0.92317076  1
  Ni  Ni11  1  0.38011497  0.12853637  0.24754399  1
  Ni  Ni12  1  0.45566230  0.37883305  0.41498073  1
  Ni  Ni13  1  0.54115683  0.62416948  0.58934450  1
  Ni  Ni14  1  0.62391964  0.87146363  0.74842240  1
  Ni  Ni15  1  0.78648602  0.37583052  0.08301266  1
  Ni  Ni16  1  0.86945499  0.62055923  0.25758883  1
  Ni  Ni17  1  0.96202054  0.87278388  0.41449080  1
  Ni  Ni18  1  0.71272533  0.12721612  0.91076334  1
  O  O19  1  0.08416329  0.71166067  0.35248649  1
  O  O20  1  0.14402432  0.95423612  0.51367456  1
  O  O21  1  0.02200919  0.55042517  0.81952259  1
  O  O22  1  0.39177951  0.70163064  0.02093506  1
  O  O23  1  0.09915118  0.78302536  0.98740386  1
  O  O24  1  0.21805286  0.05663330  0.13103600  1
  O  O25  1  0.48393924  0.96529836  0.19444285  1
  O  O26  1  0.27743431  0.29836936  0.30985113  1
  O  O27  1  0.35119890  0.55976499  0.49182493  1
  O  O28  1  0.22957078  0.21697464  0.68387418  1
  O  O29  1  0.45784146  0.80112687  0.63098349  1
  O  O30  1  0.32373097  0.46196814  0.85773088  1
  O  O31  1  0.68030098  0.53803186  0.13823718  1
  O  O32  1  0.56788963  0.19887313  0.34328541  1
  O  O33  1  0.77652459  0.79100536  0.32285088  1
  O  O34  1  0.63005224  0.44957483  0.52841598  1
  O  O35  1  0.70872397  0.69571484  0.70467264  1
  O  O36  1  0.53208932  0.04576388  0.81021180  1
  O  O37  1  0.81233070  0.94336670  0.83858044  1
  O  O38  1  0.88614376  0.20899464  0.01448077  1
  O  O39  1  0.59961152  0.30428516  0.98699187  1
  O  O40  1  0.94840908  0.44023501  0.20856609  1
  O  O41  1  0.84025879  0.03470164  0.48135912  1
  O  O42  1  0.93585284  0.28833933  0.62749738  1
