# generated using pymatgen
data_Bi17W3O34
_symmetry_space_group_name_H-M   'P 1'
_cell_length_a   10.27397675
_cell_length_b   10.41049012
_cell_length_c   10.62862857
_cell_angle_alpha   107.58475191
_cell_angle_beta   107.92314389
_cell_angle_gamma   113.20569268
_symmetry_Int_Tables_number   1
_chemical_formula_structural   Bi17W3O34
_chemical_formula_sum   'Bi17 W3 O34'
_cell_volume   869.85455747
_cell_formula_units_Z   1
loop_
 _symmetry_equiv_pos_site_id
 _symmetry_equiv_pos_as_xyz
  1  'x, y, z'
loop_
 _atom_site_type_symbol
 _atom_site_label
 _atom_site_symmetry_multiplicity
 _atom_site_fract_x
 _atom_site_fract_y
 _atom_site_fract_z
 _atom_site_occupancy
  Bi  Bi0  1  0.94206948  0.02641094  0.71969637  1
  Bi  Bi1  1  0.66238394  0.27103940  0.18913905  1
  Bi  Bi2  1  0.35950057  0.36747567  0.00087236  1
  Bi  Bi3  1  0.82233857  0.72290496  0.31970674  1
  Bi  Bi4  1  0.30748283  0.19933428  0.29142867  1
  Bi  Bi5  1  0.50398072  0.79694282  0.07734367  1
  Bi  Bi6  1  0.78884806  0.56514130  0.59213848  1
  Bi  Bi7  1  0.23161996  0.04074688  0.57921984  1
  Bi  Bi8  1  0.01962796  0.34566072  0.13085599  1
  Bi  Bi9  1  0.48682832  0.68448866  0.42516587  1
  Bi  Bi10  1  0.96487126  0.16844804  0.40143221  1
  Bi  Bi11  1  0.72881786  0.42019188  0.91295298  1
  Bi  Bi12  1  0.19343311  0.77957624  0.21871860  1
  Bi  Bi13  1  0.39613113  0.49868992  0.66607759  1
  Bi  Bi14  1  0.07923459  0.47254444  0.82222403  1
  Bi  Bi15  1  0.55631042  0.96384074  0.79803590  1
  Bi  Bi16  1  0.20919806  0.90053587  0.87877973  1
  W  W17  1  0.65099388  0.14451538  0.49686728  1
  W  W18  1  0.89448698  0.87998748  0.00569498  1
  W  W19  1  0.11944314  0.60364532  0.51502296  1
  O  O20  1  0.76338239  0.23238109  0.97242302  1
  O  O21  1  0.50212196  0.96966887  0.98012438  1
  O  O22  1  0.92438965  0.34678916  0.30448527  1
  O  O23  1  0.68430502  0.46366857  0.11618354  1
  O  O24  1  0.38197489  0.23144028  0.12398428  1
  O  O25  1  0.89450026  0.23151419  0.57689995  1
  O  O26  1  0.42404317  0.06382224  0.41462575  1
  O  O27  1  0.65736449  0.30996821  0.41130833  1
  O  O28  1  0.90167651  0.59642925  0.43819636  1
  O  O29  1  0.45215578  0.61361316  0.19559247  1
  O  O30  1  0.82244671  0.87031258  0.14406068  1
  O  O31  1  0.72996685  0.33069844  0.67992451  1
  O  O32  1  0.04170496  0.12526682  0.13749742  1
  O  O33  1  0.98493450  0.53288073  0.03484205  1
  O  O34  1  0.26329192  0.74555205  0.02100152  1
  O  O35  1  0.98587668  0.99409802  0.51777177  1
  O  O36  1  0.22890523  0.22782004  0.50748916  1
  O  O37  1  0.42468862  0.46504609  0.44166988  1
  O  O38  1  0.73728646  0.73721904  0.51119905  1
  O  O39  1  0.63309513  0.02214755  0.30550809  1
  O  O40  1  0.17609069  0.60866615  0.35587197  1
  O  O41  1  0.20157230  0.09277089  0.79592495  1
  O  O42  1  0.78508313  0.65394650  0.89478887  1
  O  O43  1  0.96632988  0.87820179  0.83552210  1
  O  O44  1  0.63494286  0.00216857  0.57235647  1
  O  O45  1  0.10546594  0.90256960  0.10953317  1
  O  O46  1  0.37951253  0.69742367  0.64324024  1
  O  O47  1  0.14551285  0.43717636  0.55241793  1
  O  O48  1  0.10546234  0.29917828  0.93190010  1
  O  O49  1  0.32555092  0.52329460  0.85489420  1
  O  O50  1  0.73105456  0.90072543  0.88047815  1
  O  O51  1  0.07134628  0.83414489  0.34881463  1
  O  O52  1  0.21755317  0.83634282  0.64754755  1
  O  O53  1  0.04898250  0.62110610  0.70055291  1
