# generated using pymatgen
data_Li4MnCo2O7
_symmetry_space_group_name_H-M   'P 1'
_cell_length_a   3.03040932
_cell_length_b   16.74180420
_cell_length_c   5.06901551
_cell_angle_alpha   89.92118691
_cell_angle_beta   91.41734836
_cell_angle_gamma   87.58828963
_symmetry_Int_Tables_number   1
_chemical_formula_structural   Li4MnCo2O7
_chemical_formula_sum   'Li8 Mn2 Co4 O14'
_cell_volume   256.86690906
_cell_formula_units_Z   2
loop_
 _symmetry_equiv_pos_site_id
 _symmetry_equiv_pos_as_xyz
  1  'x, y, z'
loop_
 _atom_site_type_symbol
 _atom_site_label
 _atom_site_symmetry_multiplicity
 _atom_site_fract_x
 _atom_site_fract_y
 _atom_site_fract_z
 _atom_site_occupancy
  Li  Li0  1  0.92177860  0.14424414  0.35975153  1
  Li  Li1  1  0.34729311  0.28691347  0.21930411  1
  Li  Li2  1  0.78544249  0.42869938  0.07131737  1
  Li  Li3  1  0.22315419  0.57131095  0.92273468  1
  Li  Li4  1  0.64637901  0.71318472  0.78496569  1
  Li  Li5  1  0.07357797  0.85619171  0.64374704  1
  Li  Li6  1  0.50104724  0.99959052  0.50063188  1
  Li  Li7  1  0.28455279  0.42930609  0.57112229  1
  Mn  Mn8  1  0.01432436  0.99918128  0.00117588  1
  Mn  Mn9  1  0.42246579  0.14559449  0.85265206  1
  Co  Co10  1  0.83711404  0.29403196  0.71172710  1
  Co  Co11  1  0.71660666  0.56531465  0.42807577  1
  Co  Co12  1  0.14231231  0.71176742  0.28941127  1
  Co  Co13  1  0.58306863  0.85424165  0.14671547  1
  O  O14  1  0.43385446  0.07372548  0.15994970  1
  O  O15  1  0.86098270  0.21812557  0.00134145  1
  O  O16  1  0.28652649  0.35291413  0.88273284  1
  O  O17  1  0.74423961  0.50907084  0.71611737  1
  O  O18  1  0.13941280  0.64212900  0.58535015  1
  O  O19  1  0.61310707  0.78464622  0.44651657  1
  O  O20  1  0.06190835  0.92638517  0.30140736  1
  O  O21  1  0.41543085  0.21647554  0.55307788  1
  O  O22  1  0.82205396  0.35029633  0.42433897  1
  O  O23  1  0.27356383  0.50592972  0.25942857  1
  O  O24  1  0.66488278  0.64080484  0.14119683  1
  O  O25  1  0.10457527  0.78284404  0.98715796  1
  O  O26  1  0.58438772  0.92604078  0.84281775  1
  O  O27  1  0.99595693  0.07103993  0.69523444  1
