# generated using pymatgen
data_Li4Mn3F10
_symmetry_space_group_name_H-M   'P 1'
_cell_length_a   5.41154523
_cell_length_b   27.09654284
_cell_length_c   5.41589034
_cell_angle_alpha   90.00000000
_cell_angle_beta   90.00000000
_cell_angle_gamma   90.00000000
_symmetry_Int_Tables_number   1
_chemical_formula_structural   Li4Mn3F10
_chemical_formula_sum   'Li16 Mn12 F40'
_cell_volume   794.15456941
_cell_formula_units_Z   4
loop_
 _symmetry_equiv_pos_site_id
 _symmetry_equiv_pos_as_xyz
  1  'x, y, z'
loop_
 _atom_site_type_symbol
 _atom_site_label
 _atom_site_symmetry_multiplicity
 _atom_site_fract_x
 _atom_site_fract_y
 _atom_site_fract_z
 _atom_site_occupancy
  Li  Li0  1  0.98560546  0.42549294  0.48961748  1
  Li  Li1  1  0.98560546  0.92549294  0.01038252  1
  Li  Li2  1  0.03679033  0.27980634  0.53404321  1
  Li  Li3  1  0.03679033  0.77980634  0.96595679  1
  Li  Li4  1  0.46320967  0.27980634  0.03404321  1
  Li  Li5  1  0.46320967  0.77980634  0.46595679  1
  Li  Li6  1  0.51439454  0.92549294  0.51038252  1
  Li  Li7  1  0.51439454  0.42549294  0.98961748  1
  Li  Li8  1  0.48560546  0.57450706  0.01038252  1
  Li  Li9  1  0.48560546  0.07450706  0.48961748  1
  Li  Li10  1  0.53679033  0.22019366  0.53404321  1
  Li  Li11  1  0.53679033  0.72019366  0.96595679  1
  Li  Li12  1  0.96320967  0.22019366  0.03404321  1
  Li  Li13  1  0.96320967  0.72019366  0.46595679  1
  Li  Li14  1  0.01439454  0.07450706  0.98961748  1
  Li  Li15  1  0.01439454  0.57450706  0.51038252  1
  Mn  Mn16  1  0.00000000  0.00000000  0.50000000  1
  Mn  Mn17  1  0.00000000  0.50000000  0.00000000  1
  Mn  Mn18  1  0.00362085  0.14853633  0.50421771  1
  Mn  Mn19  1  0.00362085  0.64853633  0.99578229  1
  Mn  Mn20  1  0.49637915  0.64853633  0.49578229  1
  Mn  Mn21  1  0.49637915  0.14853633  0.00421771  1
  Mn  Mn22  1  0.50000000  0.50000000  0.50000000  1
  Mn  Mn23  1  0.50000000  0.00000000  0.00000000  1
  Mn  Mn24  1  0.50362085  0.35146367  0.50421771  1
  Mn  Mn25  1  0.50362085  0.85146367  0.99578229  1
  Mn  Mn26  1  0.99637915  0.35146367  0.00421771  1
  Mn  Mn27  1  0.99637915  0.85146367  0.49578229  1
  F  F28  1  0.12624982  0.27863147  0.90172397  1
  F  F29  1  0.12624982  0.77863147  0.59827603  1
  F  F30  1  0.13978818  0.07433912  0.60698586  1
  F  F31  1  0.13978818  0.57433912  0.89301414  1
  F  F32  1  0.16119550  0.47720419  0.66541082  1
  F  F33  1  0.16119550  0.97720419  0.83458918  1
  F  F34  1  0.15661628  0.17291075  0.84053329  1
  F  F35  1  0.15661628  0.67291075  0.65946671  1
  F  F36  1  0.15980695  0.37389408  0.66737068  1
  F  F37  1  0.15980695  0.87389408  0.83262932  1
  F  F38  1  0.34019305  0.87389408  0.33262932  1
  F  F39  1  0.34019305  0.37389408  0.16737068  1
  F  F40  1  0.34338372  0.17291075  0.34053329  1
  F  F41  1  0.34338372  0.67291075  0.15946671  1
  F  F42  1  0.33880450  0.47720419  0.16541082  1
  F  F43  1  0.33880450  0.97720419  0.33458918  1
  F  F44  1  0.36021182  0.57433912  0.39301414  1
  F  F45  1  0.36021182  0.07433912  0.10698586  1
  F  F46  1  0.37375018  0.27863147  0.40172397  1
  F  F47  1  0.37375018  0.77863147  0.09827603  1
  F  F48  1  0.62624982  0.22136853  0.90172397  1
  F  F49  1  0.62624982  0.72136853  0.59827603  1
  F  F50  1  0.63978818  0.92566088  0.89301414  1
  F  F51  1  0.63978818  0.42566088  0.60698586  1
  F  F52  1  0.66119550  0.02279581  0.66541082  1
  F  F53  1  0.66119550  0.52279581  0.83458918  1
  F  F54  1  0.65661628  0.32708925  0.84053329  1
  F  F55  1  0.65661628  0.82708925  0.65946671  1
  F  F56  1  0.65980695  0.62610592  0.83262932  1
  F  F57  1  0.65980695  0.12610592  0.66737068  1
  F  F58  1  0.84019305  0.62610592  0.33262932  1
  F  F59  1  0.84019305  0.12610592  0.16737068  1
  F  F60  1  0.84338372  0.32708925  0.34053329  1
  F  F61  1  0.84338372  0.82708925  0.15946671  1
  F  F62  1  0.83880450  0.02279581  0.16541082  1
  F  F63  1  0.83880450  0.52279581  0.33458918  1
  F  F64  1  0.86021182  0.42566088  0.10698586  1
  F  F65  1  0.86021182  0.92566088  0.39301414  1
  F  F66  1  0.87375018  0.22136853  0.40172397  1
  F  F67  1  0.87375018  0.72136853  0.09827603  1
