# generated using pymatgen
data_Li2Fe3TeO8
_symmetry_space_group_name_H-M   'P 1'
_cell_length_a   6.18693700
_cell_length_b   6.18693749
_cell_length_c   6.18693787
_cell_angle_alpha   58.54431901
_cell_angle_beta   58.54431550
_cell_angle_gamma   58.54430920
_symmetry_Int_Tables_number   1
_chemical_formula_structural   Li2Fe3TeO8
_chemical_formula_sum   'Li2 Fe3 Te1 O8'
_cell_volume   161.88536917
_cell_formula_units_Z   1
loop_
 _symmetry_equiv_pos_site_id
 _symmetry_equiv_pos_as_xyz
  1  'x, y, z'
loop_
 _atom_site_type_symbol
 _atom_site_label
 _atom_site_symmetry_multiplicity
 _atom_site_fract_x
 _atom_site_fract_y
 _atom_site_fract_z
 _atom_site_occupancy
  Li  Li0  1  0.13721494  0.13721494  0.13721494  1
  Li  Li1  1  0.86278506  0.86278506  0.86278506  1
  Fe  Fe2  1  0.00000000  0.50000000  0.50000000  1
  Fe  Fe3  1  0.50000000  0.00000000  0.50000000  1
  Fe  Fe4  1  0.50000000  0.50000000  0.00000000  1
  Te  Te5  1  0.50000000  0.50000000  0.50000000  1
  O  O6  1  0.26830495  0.26830495  0.26830495  1
  O  O7  1  0.26848789  0.26848789  0.71904670  1
  O  O8  1  0.26848789  0.71904670  0.26848789  1
  O  O9  1  0.71904670  0.26848789  0.26848789  1
  O  O10  1  0.28095330  0.73151211  0.73151211  1
  O  O11  1  0.73151211  0.28095330  0.73151211  1
  O  O12  1  0.73151211  0.73151211  0.28095330  1
  O  O13  1  0.73169505  0.73169505  0.73169505  1
