# generated using pymatgen
data_Li2V(PO4)2
_symmetry_space_group_name_H-M   'P 1'
_cell_length_a   7.59914968
_cell_length_b   7.96266457
_cell_length_c   5.12435800
_cell_angle_alpha   90.00000000
_cell_angle_beta   88.57499482
_cell_angle_gamma   90.00000000
_symmetry_Int_Tables_number   1
_chemical_formula_structural   Li2V(PO4)2
_chemical_formula_sum   'Li4 V2 P4 O16'
_cell_volume   309.97634162
_cell_formula_units_Z   2
loop_
 _symmetry_equiv_pos_site_id
 _symmetry_equiv_pos_as_xyz
  1  'x, y, z'
loop_
 _atom_site_type_symbol
 _atom_site_label
 _atom_site_symmetry_multiplicity
 _atom_site_fract_x
 _atom_site_fract_y
 _atom_site_fract_z
 _atom_site_occupancy
  Li  Li0  1  0.08410810  0.35395039  0.03720295  1
  Li  Li1  1  0.41589190  0.85395039  0.46279705  1
  Li  Li2  1  0.58410810  0.14604961  0.53720295  1
  Li  Li3  1  0.91589190  0.64604961  0.96279705  1
  V  V4  1  0.00000000  0.00000000  0.00000000  1
  V  V5  1  0.50000000  0.50000000  0.50000000  1
  P  P6  1  0.20057621  0.19277076  0.49699715  1
  P  P7  1  0.29942379  0.69277076  0.00300285  1
  P  P8  1  0.70057621  0.30722924  0.99699715  1
  P  P9  1  0.79942379  0.80722924  0.50300285  1
  O  O10  1  0.94299135  0.83672543  0.71347280  1
  O  O11  1  0.10220842  0.16401127  0.77044968  1
  O  O12  1  0.14863787  0.57374419  0.03328883  1
  O  O13  1  0.26194859  0.37866848  0.48252655  1
  O  O14  1  0.23805141  0.87866848  0.01747345  1
  O  O15  1  0.35136213  0.07374419  0.46671117  1
  O  O16  1  0.39779158  0.66401127  0.72955032  1
  O  O17  1  0.55700865  0.33672543  0.78652720  1
  O  O18  1  0.44299135  0.66327457  0.21347280  1
  O  O19  1  0.60220842  0.33598873  0.27044968  1
  O  O20  1  0.64863787  0.92625581  0.53328883  1
  O  O21  1  0.76194859  0.12133152  0.98252655  1
  O  O22  1  0.73805141  0.62133152  0.51747345  1
  O  O23  1  0.85136213  0.42625581  0.96671117  1
  O  O24  1  0.89779158  0.83598873  0.22955032  1
  O  O25  1  0.05700865  0.16327457  0.28652720  1
