# generated using pymatgen
data_V3O5F
_symmetry_space_group_name_H-M   'P 1'
_cell_length_a   4.69111994
_cell_length_b   7.50442193
_cell_length_c   5.55330649
_cell_angle_alpha   96.10259906
_cell_angle_beta   90.29246621
_cell_angle_gamma   90.26773492
_symmetry_Int_Tables_number   1
_chemical_formula_structural   V3O5F
_chemical_formula_sum   'V6 O10 F2'
_cell_volume   194.38632012
_cell_formula_units_Z   2
loop_
 _symmetry_equiv_pos_site_id
 _symmetry_equiv_pos_as_xyz
  1  'x, y, z'
loop_
 _atom_site_type_symbol
 _atom_site_label
 _atom_site_symmetry_multiplicity
 _atom_site_fract_x
 _atom_site_fract_y
 _atom_site_fract_z
 _atom_site_occupancy
  V  V0  1  0.53169521  0.65535211  0.15184773  1
  V  V1  1  0.50258577  0.00481698  0.51698292  1
  V  V2  1  0.49769408  0.33722715  0.83312067  1
  V  V3  1  0.99188219  0.67303320  0.68105063  1
  V  V4  1  0.99256275  0.31422682  0.32646151  1
  V  V5  1  0.98293971  0.00867270  0.99176739  1
  O  O6  1  0.82067577  0.44318026  0.62736794  1
  O  O7  1  0.79473806  0.10114142  0.30830255  1
  O  O8  1  0.79906116  0.76504486  0.96455980  1
  O  O9  1  0.69649885  0.09875537  0.79873199  1
  O  O10  1  0.68083724  0.77012908  0.45760949  1
  O  O11  1  0.71112954  0.43496707  0.13931455  1
  O  O12  1  0.30284519  0.58001792  0.88228628  1
  O  O13  1  0.30002736  0.21925770  0.52368692  1
  O  O14  1  0.20185113  0.24152681  0.04095697  1
  O  O15  1  0.19110638  0.89041115  0.69175386  1
  F  F16  1  0.29676648  0.89728516  0.19790545  1
  F  F17  1  0.20510314  0.56495126  0.36629234  1
