# generated using pymatgen
data_Li4Fe2Si4O13
_symmetry_space_group_name_H-M   'P 1'
_cell_length_a   13.88048377
_cell_length_b   5.03408144
_cell_length_c   14.08061910
_cell_angle_alpha   90.00000000
_cell_angle_beta   90.00000000
_cell_angle_gamma   90.00000000
_symmetry_Int_Tables_number   1
_chemical_formula_structural   Li4Fe2Si4O13
_chemical_formula_sum   'Li16 Fe8 Si16 O52'
_cell_volume   983.89009892
_cell_formula_units_Z   4
loop_
 _symmetry_equiv_pos_site_id
 _symmetry_equiv_pos_as_xyz
  1  'x, y, z'
loop_
 _atom_site_type_symbol
 _atom_site_label
 _atom_site_symmetry_multiplicity
 _atom_site_fract_x
 _atom_site_fract_y
 _atom_site_fract_z
 _atom_site_occupancy
  Li  Li0  1  0.03937098  0.18122653  0.21748948  1
  Li  Li1  1  0.11027216  0.65551054  0.92152848  1
  Li  Li2  1  0.13338421  0.64245949  0.10888641  1
  Li  Li3  1  0.21282906  0.25157899  0.84049650  1
  Li  Li4  1  0.28717094  0.75157899  0.34049650  1
  Li  Li5  1  0.36661579  0.14245949  0.60888641  1
  Li  Li6  1  0.38972784  0.15551054  0.42152848  1
  Li  Li7  1  0.46062902  0.68122653  0.71748948  1
  Li  Li8  1  0.53937098  0.31877347  0.21748948  1
  Li  Li9  1  0.61027216  0.84448946  0.92152848  1
  Li  Li10  1  0.63338421  0.85754051  0.10888641  1
  Li  Li11  1  0.71282906  0.24842101  0.84049650  1
  Li  Li12  1  0.78717094  0.74842101  0.34049650  1
  Li  Li13  1  0.86661579  0.35754051  0.60888641  1
  Li  Li14  1  0.88972784  0.34448946  0.42152848  1
  Li  Li15  1  0.96062902  0.81877347  0.71748948  1
  Fe  Fe16  1  0.08098793  0.35695172  0.62870381  1
  Fe  Fe17  1  0.16967798  0.18538393  0.41904007  1
  Fe  Fe18  1  0.33032202  0.68538393  0.91904007  1
  Fe  Fe19  1  0.41901207  0.85695172  0.12870381  1
  Fe  Fe20  1  0.58098793  0.14304828  0.62870381  1
  Fe  Fe21  1  0.66967798  0.31461607  0.41904007  1
  Fe  Fe22  1  0.83032202  0.81461607  0.91904007  1
  Fe  Fe23  1  0.91901207  0.64304828  0.12870381  1
  Si  Si24  1  0.02107155  0.14847646  0.00218436  1
  Si  Si25  1  0.06058555  0.68920809  0.31685472  1
  Si  Si26  1  0.19048915  0.85090788  0.72900514  1
  Si  Si27  1  0.22548234  0.16897610  0.04495447  1
  Si  Si28  1  0.27451766  0.66897610  0.54495447  1
  Si  Si29  1  0.30951085  0.35090788  0.22900514  1
  Si  Si30  1  0.43941445  0.18920809  0.81685472  1
  Si  Si31  1  0.47892845  0.64847646  0.50218436  1
  Si  Si32  1  0.52107155  0.35152354  0.00218436  1
  Si  Si33  1  0.56058555  0.81079191  0.31685472  1
  Si  Si34  1  0.69048915  0.64909212  0.72900514  1
  Si  Si35  1  0.72548234  0.33102390  0.04495447  1
  Si  Si36  1  0.77451766  0.83102390  0.54495447  1
  Si  Si37  1  0.80951085  0.14909212  0.22900514  1
  Si  Si38  1  0.93941445  0.31079191  0.81685472  1
  Si  Si39  1  0.97892845  0.85152354  0.50218436  1
  O  O40  1  0.02491679  0.42085239  0.06274339  1
  O  O41  1  0.03432230  0.77412590  0.20696179  1
  O  O42  1  0.03238548  0.22205587  0.88739923  1
  O  O43  1  0.06555701  0.06340302  0.52094691  1
  O  O44  1  0.07542405  0.37120706  0.33405415  1
  O  O45  1  0.09477944  0.67744076  0.70719135  1
  O  O46  1  0.12494877  0.98395952  0.02574346  1
  O  O47  1  0.15457234  0.85964175  0.34681465  1
  O  O48  1  0.17703075  0.16682318  0.70668780  1
  O  O49  1  0.18379223  0.47177798  0.52471456  1
  O  O50  1  0.21779131  0.24891986  0.15940180  1
  O  O51  1  0.21695566  0.82397277  0.84259620  1
  O  O52  1  0.21593684  0.43964952  0.98246227  1
  O  O53  1  0.28406316  0.93964952  0.48246227  1
  O  O54  1  0.28304434  0.32397277  0.34259620  1
  O  O55  1  0.28220869  0.74891986  0.65940180  1
  O  O56  1  0.31620777  0.97177798  0.02471456  1
  O  O57  1  0.32296925  0.66682318  0.20668780  1
  O  O58  1  0.34542766  0.35964175  0.84681465  1
  O  O59  1  0.37505123  0.48395952  0.52574346  1
  O  O60  1  0.40522056  0.17744076  0.20719135  1
  O  O61  1  0.42457595  0.87120706  0.83405415  1
  O  O62  1  0.43444299  0.56340302  0.02094691  1
  O  O63  1  0.46761452  0.72205587  0.38739923  1
  O  O64  1  0.46567770  0.27412590  0.70696179  1
  O  O65  1  0.47508321  0.92085239  0.56274339  1
  O  O66  1  0.52491679  0.07914761  0.06274339  1
  O  O67  1  0.53432230  0.72587410  0.20696179  1
  O  O68  1  0.53238548  0.27794413  0.88739923  1
  O  O69  1  0.56555701  0.43659698  0.52094691  1
  O  O70  1  0.57542405  0.12879294  0.33405415  1
  O  O71  1  0.59477944  0.82255924  0.70719135  1
  O  O72  1  0.62494877  0.51604048  0.02574346  1
  O  O73  1  0.65457234  0.64035825  0.34681465  1
  O  O74  1  0.67703075  0.33317682  0.70668780  1
  O  O75  1  0.68379223  0.02822202  0.52471456  1
  O  O76  1  0.71779131  0.25108014  0.15940180  1
  O  O77  1  0.71695566  0.67602723  0.84259620  1
  O  O78  1  0.71593684  0.06035048  0.98246227  1
  O  O79  1  0.78406316  0.56035048  0.48246227  1
  O  O80  1  0.78304434  0.17602723  0.34259620  1
  O  O81  1  0.78220869  0.75108014  0.65940180  1
  O  O82  1  0.81620777  0.52822202  0.02471456  1
  O  O83  1  0.82296925  0.83317682  0.20668780  1
  O  O84  1  0.84542766  0.14035825  0.84681465  1
  O  O85  1  0.87505123  0.01604048  0.52574346  1
  O  O86  1  0.90522056  0.32255924  0.20719135  1
  O  O87  1  0.92457595  0.62879294  0.83405415  1
  O  O88  1  0.93444299  0.93659698  0.02094691  1
  O  O89  1  0.96761452  0.77794413  0.38739923  1
  O  O90  1  0.96567770  0.22587410  0.70696179  1
  O  O91  1  0.97508321  0.57914761  0.56274339  1
