# generated using pymatgen
data_MnAlP2(HO)15
_symmetry_space_group_name_H-M   'P 1'
_cell_length_a   9.58281282
_cell_length_b   10.14644134
_cell_length_c   7.00475142
_cell_angle_alpha   109.02255592
_cell_angle_beta   98.31778719
_cell_angle_gamma   99.28749950
_symmetry_Int_Tables_number   1
_chemical_formula_structural   MnAlP2(HO)15
_chemical_formula_sum   'Mn2 Al2 P4 H30 O30'
_cell_volume   621.08180000
_cell_formula_units_Z   2
loop_
 _symmetry_equiv_pos_site_id
 _symmetry_equiv_pos_as_xyz
  1  'x, y, z'
loop_
 _atom_site_type_symbol
 _atom_site_label
 _atom_site_symmetry_multiplicity
 _atom_site_fract_x
 _atom_site_fract_y
 _atom_site_fract_z
 _atom_site_occupancy
  Mn  Mn0  1  0.70097343  0.04907580  0.32253143  1
  Mn  Mn1  1  0.29902657  0.95092420  0.67746857  1
  Al  Al2  1  0.50000000  0.50000000  0.50000000  1
  Al  Al3  1  0.50000000  0.50000000  0.00000000  1
  P  P4  1  0.70855083  0.35441089  0.73776563  1
  P  P5  1  0.29144917  0.64558911  0.26223437  1
  P  P6  1  0.70362146  0.74868730  0.90053429  1
  P  P7  1  0.29637854  0.25131270  0.09946571  1
  H  H8  1  0.88047809  0.54265972  0.90320811  1
  H  H9  1  0.11952191  0.45734028  0.09679189  1
  H  H10  1  0.31617992  0.44371695  0.68658607  1
  H  H11  1  0.68382008  0.55628305  0.31341393  1
  H  H12  1  0.94474063  0.80096024  0.98714416  1
  H  H13  1  0.05525937  0.19903976  0.01285584  1
  H  H14  1  0.57823383  0.24532352  0.21154823  1
  H  H15  1  0.42176617  0.75467648  0.78845177  1
  H  H16  1  0.73953956  0.30606169  0.26816185  1
  H  H17  1  0.26046044  0.69393831  0.73183815  1
  H  H18  1  0.40470199  0.91670335  0.26901431  1
  H  H19  1  0.59529801  0.08329665  0.73098569  1
  H  H20  1  0.40125558  0.02715626  0.15119978  1
  H  H21  1  0.59874442  0.97284374  0.84880022  1
  H  H22  1  0.63752474  0.84408523  0.50597356  1
  H  H23  1  0.36247526  0.15591477  0.49402644  1
  H  H24  1  0.67829798  0.77717578  0.28753806  1
  H  H25  1  0.32170202  0.22282422  0.71246194  1
  H  H26  1  0.00029222  0.21511478  0.45724868  1
  H  H27  1  0.99970778  0.78488522  0.54275132  1
  H  H28  1  0.99777765  0.05146856  0.33143026  1
  H  H29  1  0.00222235  0.94853144  0.66856974  1
  H  H30  1  0.85929878  0.13045841  0.76230235  1
  H  H31  1  0.14070122  0.86954159  0.23769765  1
  H  H32  1  0.85559116  0.02803550  0.89124387  1
  H  H33  1  0.14440884  0.97196450  0.10875613  1
  H  H34  1  0.13191091  0.44634911  0.48350428  1
  H  H35  1  0.86808909  0.55365089  0.51649572  1
  H  H36  1  0.06232562  0.45914704  0.68148616  1
  H  H37  1  0.93767438  0.54085296  0.31851384  1
  O  O38  1  0.71911706  0.19773556  0.64288740  1
  O  O39  1  0.28088294  0.80226444  0.35711260  1
  O  O40  1  0.61700561  0.37159813  0.90090014  1
  O  O41  1  0.38299439  0.62840187  0.09909986  1
  O  O42  1  0.66294579  0.42222326  0.57792155  1
  O  O43  1  0.33705421  0.57777674  0.42207845  1
  O  O44  1  0.60624476  0.69178288  0.68309969  1
  O  O45  1  0.39375524  0.30821712  0.31690031  1
  O  O46  1  0.65277582  0.66303197  0.03393242  1
  O  O47  1  0.34722418  0.33696803  0.96606758  1
  O  O48  1  0.71512006  0.91066143  0.00465138  1
  O  O49  1  0.28487994  0.08933857  0.99534862  1
  O  O50  1  0.87428368  0.43852046  0.85004161  1
  O  O51  1  0.12571632  0.56147954  0.14995839  1
  O  O52  1  0.42139590  0.47930781  0.72245373  1
  O  O53  1  0.57860410  0.52069219  0.27754627  1
  O  O54  1  0.86342967  0.72544959  0.87710790  1
  O  O55  1  0.13657033  0.27455041  0.12289210  1
  O  O56  1  0.67001296  0.21572724  0.19359389  1
  O  O57  1  0.32998704  0.78427276  0.80640611  1
  O  O58  1  0.46085396  0.00481101  0.26031588  1
  O  O59  1  0.53914604  0.99518899  0.73968412  1
  O  O60  1  0.69944529  0.86439655  0.41432211  1
  O  O61  1  0.30055471  0.13560345  0.58567789  1
  O  O62  1  0.93718357  0.11843487  0.38918504  1
  O  O63  1  0.06281643  0.88156513  0.61081496  1
  O  O64  1  0.92182164  0.08360652  0.83495894  1
  O  O65  1  0.07817836  0.91639348  0.16504106  1
  O  O66  1  0.10716088  0.39884179  0.57953080  1
  O  O67  1  0.89283912  0.60115821  0.42046920  1
