# generated using pymatgen
data_Fe3Co2Sb(PO4)6
_symmetry_space_group_name_H-M   'P 1'
_cell_length_a   8.55753468
_cell_length_b   8.67547461
_cell_length_c   8.67547495
_cell_angle_alpha   59.99999497
_cell_angle_beta   59.54303763
_cell_angle_gamma   59.54303916
_symmetry_Int_Tables_number   1
_chemical_formula_structural   Fe3Co2Sb(PO4)6
_chemical_formula_sum   'Fe3 Co2 Sb1 P6 O24'
_cell_volume   452.25742822
_cell_formula_units_Z   1
loop_
 _symmetry_equiv_pos_site_id
 _symmetry_equiv_pos_as_xyz
  1  'x, y, z'
loop_
 _atom_site_type_symbol
 _atom_site_label
 _atom_site_symmetry_multiplicity
 _atom_site_fract_x
 _atom_site_fract_y
 _atom_site_fract_z
 _atom_site_occupancy
  Fe  Fe0  1  0.06391583  0.64536172  0.64536172  1
  Fe  Fe1  1  0.43558803  0.85480399  0.85480399  1
  Fe  Fe2  1  0.93016180  0.35661240  0.35661240  1
  Co  Co3  1  0.02072380  0.99309173  0.99309173  1
  Co  Co4  1  0.49798519  0.50067194  0.50067194  1
  Sb  Sb5  1  0.57205302  0.14264933  0.14264933  1
  P  P6  1  0.24546511  0.25394952  0.54771829  1
  P  P7  1  0.24546511  0.95286608  0.25394952  1
  P  P8  1  0.24546511  0.54771829  0.95286608  1
  P  P9  1  0.74671984  0.45889040  0.04680135  1
  P  P10  1  0.74671984  0.04680135  0.74758941  1
  P  P11  1  0.74671984  0.74758941  0.45889040  1
  O  O12  1  0.07074213  0.11187504  0.31823595  1
  O  O13  1  0.07074213  0.49914588  0.11187504  1
  O  O14  1  0.07074213  0.31823595  0.49914588  1
  O  O15  1  0.22978674  0.09005141  0.73934026  1
  O  O16  1  0.43738870  0.18669959  0.38736103  1
  O  O17  1  0.27351085  0.41074493  0.55917486  1
  O  O18  1  0.22978674  0.94082160  0.09005141  1
  O  O19  1  0.27351085  0.75657036  0.41074493  1
  O  O20  1  0.56430818  0.60965834  0.00566094  1
  O  O21  1  0.27351085  0.55917486  0.75657036  1
  O  O22  1  0.77003278  0.25590418  0.06029986  1
  O  O23  1  0.56430818  0.00566094  0.82037253  1
  O  O24  1  0.43738870  0.98855068  0.18669959  1
  O  O25  1  0.22978674  0.73934026  0.94082160  1
  O  O26  1  0.72448674  0.43760099  0.24489034  1
  O  O27  1  0.43738870  0.38736103  0.98855068  1
  O  O28  1  0.72448674  0.24489034  0.59302193  1
  O  O29  1  0.77003278  0.06029986  0.91376318  1
  O  O30  1  0.72448674  0.59302193  0.43760099  1
  O  O31  1  0.56430818  0.82037253  0.60965834  1
  O  O32  1  0.77003278  0.91376318  0.25590418  1
  O  O33  1  0.93074905  0.68930598  0.49071495  1
  O  O34  1  0.93074905  0.49071495  0.88923002  1
  O  O35  1  0.93074905  0.88923002  0.68930598  1
