# generated using pymatgen
data_VOF
_symmetry_space_group_name_H-M   'P 1'
_cell_length_a   4.74676784
_cell_length_b   14.23552538
_cell_length_c   3.10957127
_cell_angle_alpha   90.00000000
_cell_angle_beta   90.00000000
_cell_angle_gamma   93.29679149
_symmetry_Int_Tables_number   1
_chemical_formula_structural   VOF
_chemical_formula_sum   'V6 O6 F6'
_cell_volume   209.77448821
_cell_formula_units_Z   6
loop_
 _symmetry_equiv_pos_site_id
 _symmetry_equiv_pos_as_xyz
  1  'x, y, z'
loop_
 _atom_site_type_symbol
 _atom_site_label
 _atom_site_symmetry_multiplicity
 _atom_site_fract_x
 _atom_site_fract_y
 _atom_site_fract_z
 _atom_site_occupancy
  V  V0  1  0.04685583  0.99942093  0.00000000  1
  V  V1  1  0.00637213  0.33334232  0.00000000  1
  V  V2  1  0.98274471  0.66679405  0.00000000  1
  V  V3  1  0.51945972  0.16675599  0.50000000  1
  V  V4  1  0.49455148  0.49984062  0.50000000  1
  V  V5  1  0.44968010  0.83336740  0.50000000  1
  O  O6  1  0.20223703  0.93378220  0.50000000  1
  O  O7  1  0.31725044  0.10237801  0.00000000  1
  O  O8  1  0.28234116  0.76539951  0.00000000  1
  O  O9  1  0.29948119  0.43364752  0.00000000  1
  O  O10  1  0.71338512  0.23312820  0.00000000  1
  O  O11  1  0.69013105  0.56701754  0.00000000  1
  F  F12  1  0.20669070  0.26894624  0.50000000  1
  F  F13  1  0.18333760  0.60187763  0.50000000  1
  F  F14  1  0.69739454  0.89906772  0.00000000  1
  F  F15  1  0.81442929  0.06174328  0.50000000  1
  F  F16  1  0.80602403  0.39836686  0.50000000  1
  F  F17  1  0.78763187  0.73512498  0.50000000  1
