# generated using pymatgen
data_V3O5F
_symmetry_space_group_name_H-M   'P 1'
_cell_length_a   7.32959302
_cell_length_b   5.52092510
_cell_length_c   5.52092510
_cell_angle_alpha   71.83676392
_cell_angle_beta   70.12253383
_cell_angle_gamma   70.12253383
_symmetry_Int_Tables_number   1
_chemical_formula_structural   V3O5F
_chemical_formula_sum   'V6 O10 F2'
_cell_volume   192.66342987
_cell_formula_units_Z   2
loop_
 _symmetry_equiv_pos_site_id
 _symmetry_equiv_pos_as_xyz
  1  'x, y, z'
loop_
 _atom_site_type_symbol
 _atom_site_label
 _atom_site_symmetry_multiplicity
 _atom_site_fract_x
 _atom_site_fract_y
 _atom_site_fract_z
 _atom_site_occupancy
  V  V0  1  0.84651594  0.67390557  0.67390557  1
  V  V1  1  0.67132628  0.31942976  0.31942976  1
  V  V2  1  0.31801721  0.65600580  0.65600580  1
  V  V3  1  0.15964074  0.33821951  0.33821951  1
  V  V4  1  0.51508368  0.99964523  0.99964523  1
  V  V5  1  0.98740871  0.01198819  0.01198819  1
  O  O6  1  0.65929585  0.03995213  0.63788730  1
  O  O7  1  0.33419065  0.36856296  0.96104135  1
  O  O8  1  0.96531176  0.23780174  0.23780174  1
  O  O9  1  0.69660778  0.09690759  0.09690759  1
  O  O10  1  0.03797022  0.77206629  0.77206629  1
  O  O11  1  0.36886018  0.43266457  0.43266457  1
  O  O12  1  0.00663647  0.29409557  0.69658198  1
  O  O13  1  0.65929585  0.63788730  0.03995213  1
  O  O14  1  0.33419065  0.96104135  0.36856296  1
  O  O15  1  0.00663647  0.69658198  0.29409557  1
  F  F16  1  0.63299339  0.56425730  0.56425730  1
  F  F17  1  0.30001817  0.89898813  0.89898813  1
