# generated using pymatgen
data_LiV2P2H5O11
_symmetry_space_group_name_H-M   'P 1'
_cell_length_a   9.97650662
_cell_length_b   9.65278368
_cell_length_c   9.78668327
_cell_angle_alpha   90.00000000
_cell_angle_beta   102.97937553
_cell_angle_gamma   90.00000000
_symmetry_Int_Tables_number   1
_chemical_formula_structural   LiV2P2H5O11
_chemical_formula_sum   'Li4 V8 P8 H20 O44'
_cell_volume   918.38883837
_cell_formula_units_Z   4
loop_
 _symmetry_equiv_pos_site_id
 _symmetry_equiv_pos_as_xyz
  1  'x, y, z'
loop_
 _atom_site_type_symbol
 _atom_site_label
 _atom_site_symmetry_multiplicity
 _atom_site_fract_x
 _atom_site_fract_y
 _atom_site_fract_z
 _atom_site_occupancy
  Li  Li0  1  0.03241625  0.30065767  0.49991560  1
  Li  Li1  1  0.53241625  0.19934233  0.99991560  1
  Li  Li2  1  0.46758375  0.80065767  0.00008440  1
  Li  Li3  1  0.96758375  0.69934233  0.50008440  1
  V  V4  1  0.09284795  0.26896910  0.80558014  1
  V  V5  1  0.10312629  0.05548484  0.13362119  1
  V  V6  1  0.40715205  0.76896910  0.69441986  1
  V  V7  1  0.39687371  0.55548484  0.36637881  1
  V  V8  1  0.60312629  0.44451516  0.63362119  1
  V  V9  1  0.59284795  0.23103090  0.30558014  1
  V  V10  1  0.89687371  0.94451516  0.86637881  1
  V  V11  1  0.90715205  0.73103090  0.19441986  1
  P  P12  1  0.21010389  0.97006135  0.86034879  1
  P  P13  1  0.20963211  0.82874006  0.38068863  1
  P  P14  1  0.28989611  0.47006135  0.63965121  1
  P  P15  1  0.29036789  0.32874006  0.11931137  1
  P  P16  1  0.70963211  0.67125994  0.88068863  1
  P  P17  1  0.71010389  0.52993865  0.36034879  1
  P  P18  1  0.79036789  0.17125994  0.61931137  1
  P  P19  1  0.78989611  0.02993865  0.13965121  1
  H  H20  1  0.04839047  0.53228344  0.87924198  1
  H  H21  1  0.21479818  0.64330324  0.87630493  1
  H  H22  1  0.07592317  0.79615490  0.03549509  1
  H  H23  1  0.10874316  0.52381810  0.18342265  1
  H  H24  1  0.28520182  0.14330324  0.62369507  1
  H  H25  1  0.27346212  0.08895071  0.46822094  1
  H  H26  1  0.22653788  0.58895071  0.03177906  1
  H  H27  1  0.39125684  0.02381810  0.31657735  1
  H  H28  1  0.42407683  0.29615490  0.46450491  1
  H  H29  1  0.45160953  0.03228344  0.62075802  1
  H  H30  1  0.54839047  0.96771656  0.37924198  1
  H  H31  1  0.57592317  0.70384510  0.53549509  1
  H  H32  1  0.60874316  0.97618190  0.68342265  1
  H  H33  1  0.77346212  0.41104929  0.96822094  1
  H  H34  1  0.72653788  0.91104929  0.53177906  1
  H  H35  1  0.71479818  0.85669676  0.37630493  1
  H  H36  1  0.89125684  0.47618190  0.81657735  1
  H  H37  1  0.92407683  0.20384510  0.96450491  1
  H  H38  1  0.78520182  0.35669676  0.12369507  1
  H  H39  1  0.95160953  0.46771656  0.12075802  1
  O  O40  1  0.06958039  0.89647590  0.80669847  1
  O  O41  1  0.01035614  0.54400462  0.17367674  1
  O  O42  1  0.16920649  0.64501356  0.95618605  1
  O  O43  1  0.05912777  0.77356691  0.36210963  1
  O  O44  1  0.00701973  0.85657070  0.06462426  1
  O  O45  1  0.23536927  0.34301645  0.95950652  1
  O  O46  1  0.16846915  0.37663328  0.65438020  1
  O  O47  1  0.21072332  0.10835695  0.77654133  1
  O  O48  1  0.28927668  0.60835695  0.72345867  1
  O  O49  1  0.33153085  0.87663328  0.84561980  1
  O  O50  1  0.20613066  0.97924350  0.31807203  1
  O  O51  1  0.26463073  0.84301645  0.54049348  1
  O  O52  1  0.20285283  0.23872718  0.19320189  1
  O  O53  1  0.26313381  0.50397390  0.48057564  1
  O  O54  1  0.33079351  0.14501356  0.54381395  1
  O  O55  1  0.23686619  0.00397390  0.01942436  1
  O  O56  1  0.29714717  0.73872718  0.30679811  1
  O  O57  1  0.29386934  0.47924350  0.18192797  1
  O  O58  1  0.43041961  0.39647590  0.69330153  1
  O  O59  1  0.51035614  0.95599538  0.67367674  1
  O  O60  1  0.55912777  0.72643309  0.86210963  1
  O  O61  1  0.50701973  0.64342930  0.56462426  1
  O  O62  1  0.49298027  0.35657070  0.43537574  1
  O  O63  1  0.44087223  0.27356691  0.13789037  1
  O  O64  1  0.48964386  0.04400462  0.32632326  1
  O  O65  1  0.56958039  0.60352410  0.30669847  1
  O  O66  1  0.70613066  0.52075650  0.81807203  1
  O  O67  1  0.70285283  0.26127282  0.69320189  1
  O  O68  1  0.76313381  0.99602610  0.98057564  1
  O  O69  1  0.66920649  0.85498644  0.45618605  1
  O  O70  1  0.73686619  0.49602610  0.51942436  1
  O  O71  1  0.79714717  0.76127282  0.80679811  1
  O  O72  1  0.73536927  0.15698355  0.45950652  1
  O  O73  1  0.79386934  0.02075650  0.68192797  1
  O  O74  1  0.66846915  0.12336672  0.15438020  1
  O  O75  1  0.71072332  0.39164305  0.27654133  1
  O  O76  1  0.78927668  0.89164305  0.22345867  1
  O  O77  1  0.83153085  0.62336672  0.34561980  1
  O  O78  1  0.76463073  0.65698355  0.04049348  1
  O  O79  1  0.99298027  0.14342930  0.93537574  1
  O  O80  1  0.94087223  0.22643309  0.63789037  1
  O  O81  1  0.83079351  0.35498644  0.04381395  1
  O  O82  1  0.98964386  0.45599538  0.82632326  1
  O  O83  1  0.93041961  0.10352410  0.19330153  1
