# generated using pymatgen
data_LiPWO5
_symmetry_space_group_name_H-M   'P 1'
_cell_length_a   5.45764924
_cell_length_b   10.70453620
_cell_length_c   7.53937760
_cell_angle_alpha   70.68341714
_cell_angle_beta   68.78042824
_cell_angle_gamma   75.23101816
_symmetry_Int_Tables_number   1
_chemical_formula_structural   LiPWO5
_chemical_formula_sum   'Li4 P4 W4 O20'
_cell_volume   382.88160308
_cell_formula_units_Z   4
loop_
 _symmetry_equiv_pos_site_id
 _symmetry_equiv_pos_as_xyz
  1  'x, y, z'
loop_
 _atom_site_type_symbol
 _atom_site_label
 _atom_site_symmetry_multiplicity
 _atom_site_fract_x
 _atom_site_fract_y
 _atom_site_fract_z
 _atom_site_occupancy
  Li  Li0  1  0.50000000  0.25000000  0.75000000  1
  Li  Li1  1  0.50000000  0.25000000  0.25000000  1
  Li  Li2  1  0.50000000  0.75000000  0.75000000  1
  Li  Li3  1  0.00000000  0.75000000  0.25000000  1
  P  P4  1  0.11888951  0.06096861  0.18920998  1
  P  P5  1  0.88111049  0.43903139  0.31079002  1
  P  P6  1  0.13093190  0.56096861  0.68920998  1
  P  P7  1  0.86906810  0.93903139  0.81079002  1
  W  W8  1  0.49401486  0.00000000  0.50000000  1
  W  W9  1  0.00000000  0.25000000  0.75000000  1
  W  W10  1  0.50598514  0.50000000  1.00000000  1
  W  W11  1  0.50000000  0.75000000  0.25000000  1
  O  O12  1  0.79379640  0.08940613  0.80541140  1
  O  O13  1  0.17184247  0.15401342  0.97622344  1
  O  O14  1  0.65787091  0.32657785  0.92418130  1
  O  O15  1  0.81675988  0.09271255  0.29569302  1
  O  O16  1  0.29419802  0.09478943  0.28331499  1
  O  O17  1  0.34212909  0.17342215  0.57581870  1
  O  O18  1  0.20620360  0.41059387  0.69458860  1
  O  O19  1  0.82815753  0.34598658  0.52377656  1
  O  O20  1  0.82769856  0.59478943  0.78331499  1
  O  O21  1  0.70580198  0.40521057  0.21668501  1
  O  O22  1  0.29483454  0.59271255  0.79569302  1
  O  O23  1  0.18324012  0.40728745  0.20430698  1
  O  O24  1  0.81138507  0.58940613  0.30541140  1
  O  O25  1  0.19792067  0.65401342  0.47622344  1
  O  O26  1  0.70516546  0.90728745  0.70430698  1
  O  O27  1  0.17230144  0.90521057  0.71668501  1
  O  O28  1  0.40862905  0.67342215  0.07581870  1
  O  O29  1  0.59137095  0.82657785  0.42418130  1
  O  O30  1  0.80207933  0.84598658  0.02377656  1
  O  O31  1  0.18861493  0.91059387  0.19458860  1
