# generated using pymatgen
data_LiP(WO4)2
_symmetry_space_group_name_H-M   'P 1'
_cell_length_a   6.80269645
_cell_length_b   5.40501890
_cell_length_c   17.98199604
_cell_angle_alpha   90.00000000
_cell_angle_beta   90.61029349
_cell_angle_gamma   90.00000000
_symmetry_Int_Tables_number   1
_chemical_formula_structural   LiP(WO4)2
_chemical_formula_sum   'Li4 P4 W8 O32'
_cell_volume   661.13716274
_cell_formula_units_Z   4
loop_
 _symmetry_equiv_pos_site_id
 _symmetry_equiv_pos_as_xyz
  1  'x, y, z'
loop_
 _atom_site_type_symbol
 _atom_site_label
 _atom_site_symmetry_multiplicity
 _atom_site_fract_x
 _atom_site_fract_y
 _atom_site_fract_z
 _atom_site_occupancy
  Li  Li0  1  0.24191003  0.20682794  0.79719630  1
  Li  Li1  1  0.24791210  0.21795727  0.29452321  1
  Li  Li2  1  0.75208790  0.71795727  0.70547679  1
  Li  Li3  1  0.75808997  0.70682794  0.20280370  1
  P  P4  1  0.19616532  0.77836121  0.69250555  1
  P  P5  1  0.30109529  0.77859646  0.18989275  1
  P  P6  1  0.69890471  0.27859646  0.81010725  1
  P  P7  1  0.80383468  0.27836121  0.30749445  1
  W  W8  1  0.99547722  0.76361488  0.87521617  1
  W  W9  1  0.16043884  0.26880267  0.45348420  1
  W  W10  1  0.33995199  0.27087970  0.95342876  1
  W  W11  1  0.50297449  0.77370644  0.37259464  1
  W  W12  1  0.49702551  0.27370644  0.62740536  1
  W  W13  1  0.66004801  0.77087970  0.04657124  1
  W  W14  1  0.83956116  0.76880267  0.54651580  1
  W  W15  1  0.00452278  0.26361488  0.12478383  1
  O  O16  1  0.00355271  0.76319261  0.64682172  1
  O  O17  1  0.00451421  0.02607225  0.49577495  1
  O  O18  1  0.13534978  0.80965795  0.77475370  1
  O  O19  1  0.15151663  0.47046458  0.88895981  1
  O  O20  1  0.14962157  0.59229522  0.16145497  1
  O  O21  1  0.16264905  0.26448664  0.04267821  1
  O  O22  1  0.20341991  0.98629324  0.91211465  1
  O  O23  1  0.21514614  0.04829457  0.18935615  1
  O  O24  1  0.30659374  0.02049029  0.67699624  1
  O  O25  1  0.32350527  0.51658210  0.40761152  1
  O  O26  1  0.33846179  0.27324501  0.54443631  1
  O  O27  1  0.32291639  0.54507612  0.68464246  1
  O  O28  1  0.32060131  0.03266397  0.39274005  1
  O  O29  1  0.35164802  0.71843891  0.27183838  1
  O  O30  1  0.47554126  0.54319818  0.99026394  1
  O  O31  1  0.49698027  0.76560278  0.14677156  1
  O  O32  1  0.50301973  0.26560278  0.85322844  1
  O  O33  1  0.52445874  0.04319818  0.00973606  1
  O  O34  1  0.64835198  0.21843891  0.72816162  1
  O  O35  1  0.67939869  0.53266397  0.60725995  1
  O  O36  1  0.67708361  0.04507612  0.31535754  1
  O  O37  1  0.66153821  0.77324501  0.45556369  1
  O  O38  1  0.67649473  0.01658210  0.59238848  1
  O  O39  1  0.69340626  0.52049029  0.32300376  1
  O  O40  1  0.78485386  0.54829457  0.81064385  1
  O  O41  1  0.79658009  0.48629324  0.08788535  1
  O  O42  1  0.83735095  0.76448664  0.95732179  1
  O  O43  1  0.85037843  0.09229522  0.83854503  1
  O  O44  1  0.84848337  0.97046458  0.11104019  1
  O  O45  1  0.86465022  0.30965795  0.22524630  1
  O  O46  1  0.99548579  0.52607225  0.50422505  1
  O  O47  1  0.99644729  0.26319261  0.35317828  1
