# generated using pymatgen
data_LiMn3P2(HO3)4
_symmetry_space_group_name_H-M   'P 1'
_cell_length_a   11.79792612
_cell_length_b   10.36078472
_cell_length_c   7.46522210
_cell_angle_alpha   90.00000000
_cell_angle_beta   98.10695577
_cell_angle_gamma   90.00000000
_symmetry_Int_Tables_number   1
_chemical_formula_structural   LiMn3P2(HO3)4
_chemical_formula_sum   'Li4 Mn12 P8 H16 O48'
_cell_volume   903.39799232
_cell_formula_units_Z   4
loop_
 _symmetry_equiv_pos_site_id
 _symmetry_equiv_pos_as_xyz
  1  'x, y, z'
loop_
 _atom_site_type_symbol
 _atom_site_label
 _atom_site_symmetry_multiplicity
 _atom_site_fract_x
 _atom_site_fract_y
 _atom_site_fract_z
 _atom_site_occupancy
  Li  Li0  1  0.17327131  0.60693302  0.40623747  1
  Li  Li1  1  0.32672869  0.10693302  0.09376253  1
  Li  Li2  1  0.67327131  0.89306698  0.90623747  1
  Li  Li3  1  0.82672869  0.39306698  0.59376253  1
  Mn  Mn4  1  0.04051501  0.21659039  0.55098541  1
  Mn  Mn5  1  0.03754035  0.76105804  0.06444638  1
  Mn  Mn6  1  0.23390346  0.57141632  0.98852637  1
  Mn  Mn7  1  0.26609654  0.07141632  0.51147363  1
  Mn  Mn8  1  0.45948499  0.71659039  0.94901459  1
  Mn  Mn9  1  0.46245965  0.26105804  0.43555362  1
  Mn  Mn10  1  0.53754035  0.73894196  0.56444638  1
  Mn  Mn11  1  0.54051501  0.28340961  0.05098541  1
  Mn  Mn12  1  0.73390346  0.92858368  0.48852637  1
  Mn  Mn13  1  0.76609654  0.42858368  0.01147363  1
  Mn  Mn14  1  0.96245965  0.23894196  0.93555362  1
  Mn  Mn15  1  0.95948499  0.78340961  0.44901459  1
  P  P16  1  0.19495834  0.83079920  0.75075503  1
  P  P17  1  0.18146321  0.31792699  0.22887206  1
  P  P18  1  0.30504166  0.33079920  0.74924497  1
  P  P19  1  0.31853679  0.81792699  0.27112794  1
  P  P20  1  0.68146321  0.18207301  0.72887206  1
  P  P21  1  0.69495834  0.66920080  0.25075503  1
  P  P22  1  0.81853679  0.68207301  0.77112794  1
  P  P23  1  0.80504166  0.16920080  0.24924497  1
  H  H24  1  0.03043808  0.61127100  0.80867089  1
  H  H25  1  0.05686728  0.03945833  0.82833427  1
  H  H26  1  0.06928477  0.40390645  0.73246109  1
  H  H27  1  0.06850924  0.00678358  0.35151439  1
  H  H28  1  0.43071523  0.90390645  0.76753891  1
  H  H29  1  0.44313272  0.53945833  0.67166573  1
  H  H30  1  0.46956192  0.11127100  0.69132911  1
  H  H31  1  0.43149076  0.50678358  0.14848561  1
  H  H32  1  0.56850924  0.49321642  0.85151439  1
  H  H33  1  0.53043808  0.88872900  0.30867089  1
  H  H34  1  0.55686728  0.46054167  0.32833427  1
  H  H35  1  0.56928477  0.09609355  0.23246109  1
  H  H36  1  0.93149076  0.99321642  0.64848561  1
  H  H37  1  0.93071523  0.59609355  0.26753891  1
  H  H38  1  0.94313272  0.96054167  0.17166573  1
  H  H39  1  0.96956192  0.38872900  0.19132911  1
  O  O40  1  0.99639979  0.35626631  0.69765042  1
  O  O41  1  0.99912211  0.89483843  0.22763537  1
  O  O42  1  0.07022409  0.60745171  0.93472519  1
  O  O43  1  0.11093435  0.87781613  0.87980058  1
  O  O44  1  0.13027534  0.77943970  0.57075423  1
  O  O45  1  0.10242440  0.06658416  0.45040375  1
  O  O46  1  0.09357541  0.33601898  0.36494716  1
  O  O47  1  0.12599201  0.24659914  0.05681513  1
  O  O48  1  0.22767635  0.21522561  0.66459685  1
  O  O49  1  0.22023872  0.44080883  0.77326105  1
  O  O50  1  0.21221028  0.73386241  0.19645907  1
  O  O51  1  0.27976128  0.94080883  0.72673895  1
  O  O52  1  0.27232365  0.71522561  0.83540315  1
  O  O53  1  0.21952232  0.45859341  0.19605508  1
  O  O54  1  0.28047768  0.95859341  0.30394492  1
  O  O55  1  0.28778972  0.23386241  0.30354093  1
  O  O56  1  0.36972466  0.27943970  0.92924577  1
  O  O57  1  0.38906565  0.37781613  0.62019942  1
  O  O58  1  0.37400799  0.74659914  0.44318487  1
  O  O59  1  0.42977591  0.10745171  0.56527481  1
  O  O60  1  0.40642459  0.83601898  0.13505284  1
  O  O61  1  0.39757560  0.56658416  0.04959625  1
  O  O62  1  0.50360021  0.85626631  0.80234958  1
  O  O63  1  0.49912211  0.60516157  0.72763537  1
  O  O64  1  0.50087789  0.39483843  0.27236463  1
  O  O65  1  0.49639979  0.14373369  0.19765042  1
  O  O66  1  0.60242440  0.43341584  0.95040375  1
  O  O67  1  0.59357541  0.16398102  0.86494716  1
  O  O68  1  0.57022409  0.89254829  0.43472519  1
  O  O69  1  0.62599201  0.25340086  0.55681513  1
  O  O70  1  0.61093435  0.62218387  0.37980058  1
  O  O71  1  0.63027534  0.72056030  0.07075423  1
  O  O72  1  0.71221028  0.76613759  0.69645907  1
  O  O73  1  0.71952232  0.04140659  0.69605508  1
  O  O74  1  0.78047768  0.54140659  0.80394492  1
  O  O75  1  0.72767635  0.28477439  0.16459685  1
  O  O76  1  0.72023872  0.05919117  0.27326105  1
  O  O77  1  0.78778972  0.26613759  0.80354093  1
  O  O78  1  0.77976128  0.55919117  0.22673895  1
  O  O79  1  0.77232365  0.78477439  0.33540315  1
  O  O80  1  0.87400799  0.75340086  0.94318487  1
  O  O81  1  0.90642459  0.66398102  0.63505284  1
  O  O82  1  0.89757560  0.93341584  0.54959625  1
  O  O83  1  0.86972466  0.22056030  0.42924577  1
  O  O84  1  0.88906565  0.12218387  0.12019942  1
  O  O85  1  0.92977591  0.39254829  0.06527481  1
  O  O86  1  0.00087789  0.10516157  0.77236463  1
  O  O87  1  0.00360021  0.64373369  0.30234958  1
