# generated using pymatgen
data_Li4MnCo2O7
_symmetry_space_group_name_H-M   'P 1'
_cell_length_a   2.89240957
_cell_length_b   13.53541467
_cell_length_c   6.70235532
_cell_angle_alpha   87.21704809
_cell_angle_beta   77.53895979
_cell_angle_gamma   96.13353340
_symmetry_Int_Tables_number   1
_chemical_formula_structural   Li4MnCo2O7
_chemical_formula_sum   'Li8 Mn2 Co4 O14'
_cell_volume   254.05510331
_cell_formula_units_Z   2
loop_
 _symmetry_equiv_pos_site_id
 _symmetry_equiv_pos_as_xyz
  1  'x, y, z'
loop_
 _atom_site_type_symbol
 _atom_site_label
 _atom_site_symmetry_multiplicity
 _atom_site_fract_x
 _atom_site_fract_y
 _atom_site_fract_z
 _atom_site_occupancy
  Li  Li0  1  0.35251294  0.07099520  0.36596933  1
  Li  Li1  1  0.07544907  0.22102077  0.07012364  1
  Li  Li2  1  0.78887987  0.36415301  0.78639226  1
  Li  Li3  1  0.64211430  0.92124502  0.63701642  1
  Li  Li4  1  0.92438734  0.77945763  0.93068195  1
  Li  Li5  1  0.50418128  0.50122616  0.49286361  1
  Li  Li6  1  0.21147030  0.63911290  0.21617330  1
  Li  Li7  1  0.14352790  0.43005340  0.14299760  1
  Mn  Mn8  1  0.99758827  0.99717536  0.00199883  1
  Mn  Mn9  1  0.72027827  0.14645891  0.70590337  1
  Co  Co10  1  0.44983584  0.29732329  0.39765061  1
  Co  Co11  1  0.83926935  0.56486254  0.88632385  1
  Co  Co12  1  0.56877076  0.70817496  0.57063443  1
  Co  Co13  1  0.27854201  0.85549817  0.29841315  1
  O  O14  1  0.54510983  0.09843135  0.00821170  1
  O  O15  1  0.24381205  0.23750925  0.74988615  1
  O  O16  1  0.95817365  0.38500984  0.46866155  1
  O  O17  1  0.81707667  0.95998791  0.32583457  1
  O  O18  1  0.10520855  0.81397973  0.60356164  1
  O  O19  1  0.69003074  0.53947544  0.15941396  1
  O  O20  1  0.39416179  0.66756764  0.87924506  1
  O  O21  1  0.18877753  0.05115938  0.67360432  1
  O  O22  1  0.88160264  0.18406847  0.42086419  1
  O  O23  1  0.59609222  0.31554270  0.12335725  1
  O  O24  1  0.46491897  0.90140762  0.97156969  1
  O  O25  1  0.75072385  0.75685216  0.25540345  1
  O  O26  1  0.32797412  0.47662193  0.82067369  1
  O  O27  1  0.03952990  0.61562923  0.53657044  1
