# generated using pymatgen
data_Li3TiNi3O8
_symmetry_space_group_name_H-M   'P 1'
_cell_length_a   5.86016721
_cell_length_b   5.75135686
_cell_length_c   5.92712676
_cell_angle_alpha   60.97623476
_cell_angle_beta   59.44701239
_cell_angle_gamma   60.61234469
_symmetry_Int_Tables_number   1
_chemical_formula_structural   Li3TiNi3O8
_chemical_formula_sum   'Li3 Ti1 Ni3 O8'
_cell_volume   142.30557869
_cell_formula_units_Z   1
loop_
 _symmetry_equiv_pos_site_id
 _symmetry_equiv_pos_as_xyz
  1  'x, y, z'
loop_
 _atom_site_type_symbol
 _atom_site_label
 _atom_site_symmetry_multiplicity
 _atom_site_fract_x
 _atom_site_fract_y
 _atom_site_fract_z
 _atom_site_occupancy
  Li  Li0  1  0.50000000  0.50000000  0.50000000  1
  Li  Li1  1  0.00000000  0.50000000  0.50000000  1
  Li  Li2  1  0.00000000  0.00000000  0.50000000  1
  Ti  Ti3  1  0.00000000  0.00000000  0.00000000  1
  Ni  Ni4  1  0.50000000  0.50000000  0.00000000  1
  Ni  Ni5  1  0.00000000  0.50000000  0.00000000  1
  Ni  Ni6  1  0.50000000  0.00000000  0.00000000  1
  O  O7  1  0.77759477  0.73935170  0.22417008  1
  O  O8  1  0.24634365  0.76397971  0.22569692  1
  O  O9  1  0.77759477  0.25888245  0.22417008  1
  O  O10  1  0.23896801  0.27832578  0.20438042  1
  O  O11  1  0.76103199  0.72167422  0.79561958  1
  O  O12  1  0.22240523  0.74111755  0.77582992  1
  O  O13  1  0.75365635  0.23602029  0.77430308  1
  O  O14  1  0.22240523  0.26064830  0.77582992  1
