# generated using pymatgen
data_Na3Fe2(PO4)3
_symmetry_space_group_name_H-M   'P 1'
_cell_length_a   8.80610113
_cell_length_b   12.82904492
_cell_length_c   8.98167852
_cell_angle_alpha   90.00000000
_cell_angle_beta   90.00000000
_cell_angle_gamma   90.27753212
_symmetry_Int_Tables_number   1
_chemical_formula_structural   Na3Fe2(PO4)3
_chemical_formula_sum   'Na12 Fe8 P12 O48'
_cell_volume   1014.68305004
_cell_formula_units_Z   4
loop_
 _symmetry_equiv_pos_site_id
 _symmetry_equiv_pos_as_xyz
  1  'x, y, z'
loop_
 _atom_site_type_symbol
 _atom_site_label
 _atom_site_symmetry_multiplicity
 _atom_site_fract_x
 _atom_site_fract_y
 _atom_site_fract_z
 _atom_site_occupancy
  Na  Na0  1  0.07548030  0.69320035  0.06627198  1
  Na  Na1  1  0.09802298  0.76191595  0.70297914  1
  Na  Na2  1  0.20957943  0.17264461  0.78726304  1
  Na  Na3  1  0.29042057  0.32735539  0.28726304  1
  Na  Na4  1  0.40197702  0.73808405  0.20297914  1
  Na  Na5  1  0.42451970  0.80679965  0.56627198  1
  Na  Na6  1  0.57548030  0.19320035  0.43372802  1
  Na  Na7  1  0.59802298  0.26191595  0.79702086  1
  Na  Na8  1  0.70957943  0.67264461  0.71273696  1
  Na  Na9  1  0.79042057  0.82735539  0.21273696  1
  Na  Na10  1  0.90197702  0.23808405  0.29702086  1
  Na  Na11  1  0.92451970  0.30679965  0.93372802  1
  Fe  Fe12  1  0.24882936  0.59526289  0.52597055  1
  Fe  Fe13  1  0.25117064  0.90473711  0.02597055  1
  Fe  Fe14  1  0.24048147  0.10052014  0.46091903  1
  Fe  Fe15  1  0.25951853  0.39947986  0.96091903  1
  Fe  Fe16  1  0.74048147  0.60052014  0.03908097  1
  Fe  Fe17  1  0.75951853  0.89947986  0.53908097  1
  Fe  Fe18  1  0.74882936  0.09526289  0.97402945  1
  Fe  Fe19  1  0.75117064  0.40473711  0.47402945  1
  P  P20  1  0.02835935  0.49631456  0.24949783  1
  P  P21  1  0.10638213  0.85406407  0.38213726  1
  P  P22  1  0.11139322  0.14702450  0.10379181  1
  P  P23  1  0.39361787  0.64593593  0.88213726  1
  P  P24  1  0.38860678  0.35297550  0.60379181  1
  P  P25  1  0.47164065  0.00368544  0.74949783  1
  P  P26  1  0.52835935  0.99631456  0.25050217  1
  P  P27  1  0.61139322  0.64702450  0.39620819  1
  P  P28  1  0.60638213  0.35406407  0.11786274  1
  P  P29  1  0.88860678  0.85297550  0.89620819  1
  P  P30  1  0.89361787  0.14593593  0.61786274  1
  P  P31  1  0.97164065  0.50368544  0.75050217  1
  O  O32  1  0.07052450  0.43353533  0.85093878  1
  O  O33  1  0.06560007  0.86246440  0.90531322  1
  O  O34  1  0.07062106  0.58629679  0.66821822  1
  O  O35  1  0.06577580  0.15716979  0.58259399  1
  O  O36  1  0.11357277  0.57032967  0.35655653  1
  O  O37  1  0.13522207  0.83406862  0.21217012  1
  O  O38  1  0.15705363  0.96444001  0.42471547  1
  O  O39  1  0.15867841  0.24296353  0.00780810  1
  O  O40  1  0.15201360  0.16930126  0.26980360  1
  O  O41  1  0.14742059  0.43733895  0.15434325  1
  O  O42  1  0.18746098  0.04917113  0.04236464  1
  O  O43  1  0.19587403  0.77249071  0.47570034  1
  O  O44  1  0.30412597  0.72750929  0.97570034  1
  O  O45  1  0.31253902  0.45082887  0.54236464  1
  O  O46  1  0.35257941  0.06266105  0.65434325  1
  O  O47  1  0.34798640  0.33069874  0.76980360  1
  O  O48  1  0.34294637  0.53555999  0.92471547  1
  O  O49  1  0.34132159  0.25703647  0.50780810  1
  O  O50  1  0.36477793  0.66593138  0.71217012  1
  O  O51  1  0.38642723  0.92967033  0.85655653  1
  O  O52  1  0.42937894  0.91370321  0.16821822  1
  O  O53  1  0.43439993  0.63753560  0.40531322  1
  O  O54  1  0.43422420  0.34283021  0.08259399  1
  O  O55  1  0.42947550  0.06646467  0.35093878  1
  O  O56  1  0.57052450  0.93353533  0.64906122  1
  O  O57  1  0.56577580  0.65716979  0.91740601  1
  O  O58  1  0.56560007  0.36246440  0.59468678  1
  O  O59  1  0.57062106  0.08629679  0.83178178  1
  O  O60  1  0.61357277  0.07032967  0.14344347  1
  O  O61  1  0.63522207  0.33406862  0.28782988  1
  O  O62  1  0.65867841  0.74296353  0.49219190  1
  O  O63  1  0.65705363  0.46444001  0.07528453  1
  O  O64  1  0.65201360  0.66930126  0.23019640  1
  O  O65  1  0.64742059  0.93733895  0.34565675  1
  O  O66  1  0.68746098  0.54917113  0.45763536  1
  O  O67  1  0.69587403  0.27249071  0.02429966  1
  O  O68  1  0.80412597  0.22750929  0.52429966  1
  O  O69  1  0.81253902  0.95082887  0.95763536  1
  O  O70  1  0.85257941  0.56266105  0.84565675  1
  O  O71  1  0.84798640  0.83069874  0.73019640  1
  O  O72  1  0.84132159  0.75703647  0.99219190  1
  O  O73  1  0.84294637  0.03555999  0.57528453  1
  O  O74  1  0.86477793  0.16593138  0.78782988  1
  O  O75  1  0.88642723  0.42967033  0.64344347  1
  O  O76  1  0.93422420  0.84283021  0.41740601  1
  O  O77  1  0.92937894  0.41370321  0.33178178  1
  O  O78  1  0.93439993  0.13753560  0.09468678  1
  O  O79  1  0.92947550  0.56646467  0.14906122  1
