# generated using pymatgen
data_Mn3OF5
_symmetry_space_group_name_H-M   'P 1'
_cell_length_a   4.87556603
_cell_length_b   4.87556603
_cell_length_c   9.78761564
_cell_angle_alpha   89.59885826
_cell_angle_beta   89.59885826
_cell_angle_gamma   91.83964145
_symmetry_Int_Tables_number   1
_chemical_formula_structural   Mn3OF5
_chemical_formula_sum   'Mn6 O2 F10'
_cell_volume   232.53112825
_cell_formula_units_Z   2
loop_
 _symmetry_equiv_pos_site_id
 _symmetry_equiv_pos_as_xyz
  1  'x, y, z'
loop_
 _atom_site_type_symbol
 _atom_site_label
 _atom_site_symmetry_multiplicity
 _atom_site_fract_x
 _atom_site_fract_y
 _atom_site_fract_z
 _atom_site_occupancy
  Mn  Mn0  1  0.96775146  0.96775146  0.00371712  1
  Mn  Mn1  1  0.03224854  0.03224854  0.32961588  1
  Mn  Mn2  1  0.00000000  0.00000000  0.66666700  1
  Mn  Mn3  1  0.50402714  0.50402714  0.84413775  1
  Mn  Mn4  1  0.50000000  0.50000000  0.16666700  1
  Mn  Mn5  1  0.49597286  0.49597286  0.48919625  1
  O  O6  1  0.32642001  0.32642001  0.32292726  1
  O  O7  1  0.67357999  0.67357999  0.01040574  1
  F  F8  1  0.20295955  0.79704045  0.16666700  1
  F  F9  1  0.20714456  0.81444226  0.49857754  1
  F  F10  1  0.18555774  0.79285544  0.83475646  1
  F  F11  1  0.28043253  0.28043253  0.00532218  1
  F  F12  1  0.31071496  0.31071496  0.67356580  1
  F  F13  1  0.71956747  0.71956747  0.32801082  1
  F  F14  1  0.68928504  0.68928504  0.65976720  1
  F  F15  1  0.79704045  0.20295955  0.16666700  1
  F  F16  1  0.81444226  0.20714456  0.49857754  1
  F  F17  1  0.79285544  0.18555774  0.83475646  1
