# generated using pymatgen
data_MnOF
_symmetry_space_group_name_H-M   'P 1'
_cell_length_a   4.81745980
_cell_length_b   19.09254172
_cell_length_c   3.06122962
_cell_angle_alpha   90.00000000
_cell_angle_beta   90.00000000
_cell_angle_gamma   97.10459595
_symmetry_Int_Tables_number   1
_chemical_formula_structural   MnOF
_chemical_formula_sum   'Mn8 O8 F8'
_cell_volume   279.40256144
_cell_formula_units_Z   8
loop_
 _symmetry_equiv_pos_site_id
 _symmetry_equiv_pos_as_xyz
  1  'x, y, z'
loop_
 _atom_site_type_symbol
 _atom_site_label
 _atom_site_symmetry_multiplicity
 _atom_site_fract_x
 _atom_site_fract_y
 _atom_site_fract_z
 _atom_site_occupancy
  Mn  Mn0  1  0.05323735  0.99872940  0.00000000  1
  Mn  Mn1  1  0.01166285  0.25126152  0.00000000  1
  Mn  Mn2  1  0.99675014  0.49937290  0.00000000  1
  Mn  Mn3  1  0.97103691  0.74915600  0.00000000  1
  Mn  Mn4  1  0.52384235  0.12740388  0.50000000  1
  Mn  Mn5  1  0.50349620  0.37544188  0.50000000  1
  Mn  Mn6  1  0.48862183  0.62320893  0.50000000  1
  Mn  Mn7  1  0.45084120  0.87423838  0.50000000  1
  O  O8  1  0.20022112  0.95232036  0.50000000  1
  O  O9  1  0.33232241  0.07765898  0.00000000  1
  O  O10  1  0.29387631  0.57520608  0.00000000  1
  O  O11  1  0.31051723  0.32615112  0.00000000  1
  O  O12  1  0.26984128  0.82565047  0.00000000  1
  O  O13  1  0.71557786  0.17543753  0.00000000  1
  O  O14  1  0.69774628  0.42430142  0.00000000  1
  O  O15  1  0.67789596  0.67356518  0.00000000  1
  F  F16  1  0.19895879  0.20270252  0.50000000  1
  F  F17  1  0.18724507  0.45251964  0.50000000  1
  F  F18  1  0.16788705  0.70436462  0.50000000  1
  F  F19  1  0.69436842  0.92417802  0.00000000  1
  F  F20  1  0.84635119  0.04166015  0.50000000  1
  F  F21  1  0.81978971  0.29772909  0.50000000  1
  F  F22  1  0.80818942  0.54711488  0.50000000  1
  F  F23  1  0.77972306  0.80062806  0.50000000  1
