# generated using pymatgen
data_VO2F
_symmetry_space_group_name_H-M   'P 1'
_cell_length_a   5.10327344
_cell_length_b   13.03345992
_cell_length_c   5.14759269
_cell_angle_alpha   88.78604854
_cell_angle_beta   119.47480027
_cell_angle_gamma   90.03103836
_symmetry_Int_Tables_number   1
_chemical_formula_structural   VO2F
_chemical_formula_sum   'V6 O12 F6'
_cell_volume   297.98337937
_cell_formula_units_Z   6
loop_
 _symmetry_equiv_pos_site_id
 _symmetry_equiv_pos_as_xyz
  1  'x, y, z'
loop_
 _atom_site_type_symbol
 _atom_site_label
 _atom_site_symmetry_multiplicity
 _atom_site_fract_x
 _atom_site_fract_y
 _atom_site_fract_z
 _atom_site_occupancy
  V  V0  1  0.94298590  0.49646580  0.95992460  1
  V  V1  1  0.95472396  0.00174075  0.99148364  1
  V  V2  1  0.63177365  0.83230461  0.35205725  1
  V  V3  1  0.27986706  0.66526173  0.63542649  1
  V  V4  1  0.71442234  0.33297334  0.35585157  1
  V  V5  1  0.36350912  0.16933245  0.73172639  1
  O  O6  1  0.01147880  0.74992470  0.41368816  1
  O  O7  1  0.34703395  0.91549636  0.25343873  1
  O  O8  1  0.58384869  0.25253438  0.00178779  1
  O  O9  1  0.99439612  0.24827045  0.58011510  1
  O  O10  1  0.75935196  0.91787247  0.07349821  1
  O  O11  1  0.09482604  0.58354105  0.74946284  1
  O  O12  1  0.59597823  0.74927566  0.58700963  1
  O  O13  1  0.92077537  0.41399257  0.25460649  1
  O  O14  1  0.26393719  0.08444998  0.91649737  1
  O  O15  1  0.73749576  0.41846741  0.66122351  1
  O  O16  1  0.67880452  0.08597476  0.74411161  1
  O  O17  1  0.68459254  0.58319253  0.92159284  1
  F  F18  1  0.41589615  0.75035083  0.99948692  1
  F  F19  1  0.33420442  0.41641606  0.08113332  1
  F  F20  1  0.07437674  0.08160925  0.32566681  1
  F  F21  1  0.27146192  0.58354342  0.33606451  1
  F  F22  1  0.40791036  0.25058016  0.40951376  1
  F  F23  1  0.93635121  0.91643028  0.66463346  1
