# generated using pymatgen
data_VOF
_symmetry_space_group_name_H-M   'P 1'
_cell_length_a   4.75421357
_cell_length_b   14.19985211
_cell_length_c   3.10357568
_cell_angle_alpha   90.00002863
_cell_angle_beta   90.00004827
_cell_angle_gamma   90.00088136
_symmetry_Int_Tables_number   1
_chemical_formula_structural   VOF
_chemical_formula_sum   'V6 O6 F6'
_cell_volume   209.51969277
_cell_formula_units_Z   6
loop_
 _symmetry_equiv_pos_site_id
 _symmetry_equiv_pos_as_xyz
  1  'x, y, z'
loop_
 _atom_site_type_symbol
 _atom_site_label
 _atom_site_symmetry_multiplicity
 _atom_site_fract_x
 _atom_site_fract_y
 _atom_site_fract_z
 _atom_site_occupancy
  V  V0  1  0.97781315  0.00029414  0.00000225  1
  V  V1  1  0.07678425  0.33276303  0.00000363  1
  V  V2  1  0.98142293  0.66695537  0.00000395  1
  V  V3  1  0.51858602  0.16694753  0.49999826  1
  V  V4  1  0.52219754  0.50029156  0.49999897  1
  V  V5  1  0.42320813  0.83277825  0.49999735  1
  O  O6  1  0.23552449  0.26515984  0.50000077  1
  O  O7  1  0.16821013  0.93515482  0.49999833  1
  O  O8  1  0.26444421  0.76518062  0.00000060  1
  O  O9  1  0.33177624  0.43513323  0.99999912  1
  O  O10  1  0.70365551  0.56741611  0.99999898  1
  O  O11  1  0.79633983  0.06743067  0.49999724  1
  F  F12  1  0.19111736  0.60164298  0.49999974  1
  F  F13  1  0.30890118  0.10164441  0.99999828  1
  F  F14  1  0.72525484  0.23485614  -0.00000017  1
  F  F15  1  0.66566756  0.89575877  0.00000076  1
  F  F16  1  0.83434320  0.39573648  0.50000135  1
  F  F17  1  0.77475342  0.73485606  0.50000060  1
