# generated using pymatgen
data_Li5FeO3F
_symmetry_space_group_name_H-M   'P 1'
_cell_length_a   6.79958023
_cell_length_b   6.79958023
_cell_length_c   4.74235036
_cell_angle_alpha   78.65617812
_cell_angle_beta   78.65617812
_cell_angle_gamma   90.19926643
_symmetry_Int_Tables_number   1
_chemical_formula_structural   Li5FeO3F
_chemical_formula_sum   'Li10 Fe2 O6 F2'
_cell_volume   210.57333833
_cell_formula_units_Z   2
loop_
 _symmetry_equiv_pos_site_id
 _symmetry_equiv_pos_as_xyz
  1  'x, y, z'
loop_
 _atom_site_type_symbol
 _atom_site_label
 _atom_site_symmetry_multiplicity
 _atom_site_fract_x
 _atom_site_fract_y
 _atom_site_fract_z
 _atom_site_occupancy
  Li  Li0  1  0.96881189  0.54309617  0.25426061  1
  Li  Li1  1  0.70690383  0.28118811  0.99573939  1
  Li  Li2  1  0.54309617  0.96881189  0.25426061  1
  Li  Li3  1  0.28118811  0.70690383  0.99573939  1
  Li  Li4  1  0.77971430  0.21433241  0.50808841  1
  Li  Li5  1  0.98274425  0.98274425  0.00086591  1
  Li  Li6  1  0.26725575  0.26725575  0.24913409  1
  Li  Li7  1  0.21433241  0.77971430  0.50808841  1
  Li  Li8  1  0.47028570  0.03566759  0.74191159  1
  Li  Li9  1  0.03566759  0.47028570  0.74191159  1
  Fe  Fe10  1  0.49771321  0.49771321  0.49095119  1
  Fe  Fe11  1  0.75228679  0.75228679  0.75904881  1
  O  O12  1  0.22895675  0.52563151  0.37353006  1
  O  O13  1  0.52563151  0.22895675  0.37353006  1
  O  O14  1  0.77103867  0.47896133  0.62500000  1
  O  O15  1  0.47896133  0.77103867  0.62500000  1
  O  O16  1  0.72436849  0.02104325  0.87646994  1
  O  O17  1  0.02104325  0.72436849  0.87646994  1
  F  F18  1  0.98108903  0.26891097  0.12500000  1
  F  F19  1  0.26891097  0.98108903  0.12500000  1
