# generated using pymatgen
data_Li3Co3OF7
_symmetry_space_group_name_H-M   'P 1'
_cell_length_a   6.11057213
_cell_length_b   6.09577676
_cell_length_c   6.03208218
_cell_angle_alpha   59.72970047
_cell_angle_beta   90.00000000
_cell_angle_gamma   120.08032198
_symmetry_Int_Tables_number   1
_chemical_formula_structural   Li3Co3OF7
_chemical_formula_sum   'Li3 Co3 O1 F7'
_cell_volume   158.03162343
_cell_formula_units_Z   1
loop_
 _symmetry_equiv_pos_site_id
 _symmetry_equiv_pos_as_xyz
  1  'x, y, z'
loop_
 _atom_site_type_symbol
 _atom_site_label
 _atom_site_symmetry_multiplicity
 _atom_site_fract_x
 _atom_site_fract_y
 _atom_site_fract_z
 _atom_site_occupancy
  Li  Li0  1  0.61635975  0.23272050  0.12216707  1
  Li  Li1  1  0.00499776  0.00999553  0.98826631  1
  Li  Li2  1  0.62619514  0.25239028  0.63007894  1
  Co  Co3  1  0.25596411  0.51192922  0.27323902  1
  Co  Co4  1  0.61643408  0.74363648  0.61590637  1
  Co  Co5  1  0.12720241  0.74363648  0.61590637  1
  O  O6  1  0.38249791  0.76499582  0.39999716  1
  F  F7  1  0.85456258  0.23425554  0.38624621  1
  F  F8  1  0.37969296  0.23425554  0.38624621  1
  F  F9  1  0.86413196  0.72826392  0.38777670  1
  F  F10  1  0.86701861  0.26627891  0.86597660  1
  F  F11  1  0.87123856  0.74247712  0.84911235  1
  F  F12  1  0.39925930  0.26627891  0.86597660  1
  F  F13  1  0.38444388  0.76888776  0.86310707  1
