# generated using pymatgen
data_LiVF5
_symmetry_space_group_name_H-M   'P 1'
_cell_length_a   12.77857072
_cell_length_b   6.01972755
_cell_length_c   5.27747415
_cell_angle_alpha   90.00000000
_cell_angle_beta   90.00000000
_cell_angle_gamma   90.00000000
_symmetry_Int_Tables_number   1
_chemical_formula_structural   LiVF5
_chemical_formula_sum   'Li4 V4 F20'
_cell_volume   405.96185779
_cell_formula_units_Z   4
loop_
 _symmetry_equiv_pos_site_id
 _symmetry_equiv_pos_as_xyz
  1  'x, y, z'
loop_
 _atom_site_type_symbol
 _atom_site_label
 _atom_site_symmetry_multiplicity
 _atom_site_fract_x
 _atom_site_fract_y
 _atom_site_fract_z
 _atom_site_occupancy
  Li  Li0  1  0.10451577  0.11551574  0.73903061  1
  Li  Li1  1  0.39548423  0.88448426  0.23903061  1
  Li  Li2  1  0.60451577  0.38448426  0.26096939  1
  Li  Li3  1  0.89548423  0.61551574  0.76096939  1
  V  V4  1  0.16022089  0.62860828  0.42469509  1
  V  V5  1  0.33977911  0.37139172  0.92469509  1
  V  V6  1  0.66022089  0.87139172  0.57530491  1
  V  V7  1  0.83977911  0.12860828  0.07530491  1
  F  F8  1  0.07795595  0.66902190  0.15578151  1
  F  F9  1  0.08051376  0.82562969  0.62055740  1
  F  F10  1  0.09097459  0.39145731  0.56905347  1
  F  F11  1  0.24100366  0.41514431  0.21607589  1
  F  F12  1  0.25167809  0.85544256  0.33009503  1
  F  F13  1  0.24832191  0.14455744  0.83009503  1
  F  F14  1  0.25899634  0.58485569  0.71607589  1
  F  F15  1  0.40902541  0.60854269  0.06905347  1
  F  F16  1  0.41948624  0.17437031  0.12055740  1
  F  F17  1  0.42204405  0.33097810  0.65578151  1
  F  F18  1  0.57795595  0.83097810  0.84421849  1
  F  F19  1  0.58051376  0.67437031  0.37944260  1
  F  F20  1  0.59097459  0.10854269  0.43094653  1
  F  F21  1  0.74100366  0.08485569  0.78392411  1
  F  F22  1  0.75167809  0.64455744  0.66990497  1
  F  F23  1  0.74832191  0.35544256  0.16990497  1
  F  F24  1  0.75899634  0.91514431  0.28392411  1
  F  F25  1  0.90902541  0.89145731  0.93094653  1
  F  F26  1  0.91948624  0.32562969  0.87944260  1
  F  F27  1  0.92204405  0.16902190  0.34421849  1
