# generated using pymatgen
data_Fe10O11
_symmetry_space_group_name_H-M   'P 1'
_cell_length_a   6.87970350
_cell_length_b   6.80744177
_cell_length_c   5.35378178
_cell_angle_alpha   104.79498454
_cell_angle_beta   98.41747580
_cell_angle_gamma   107.40716480
_symmetry_Int_Tables_number   1
_chemical_formula_structural   Fe10O11
_chemical_formula_sum   'Fe10 O11'
_cell_volume   224.47396835
_cell_formula_units_Z   1
loop_
 _symmetry_equiv_pos_site_id
 _symmetry_equiv_pos_as_xyz
  1  'x, y, z'
loop_
 _atom_site_type_symbol
 _atom_site_label
 _atom_site_symmetry_multiplicity
 _atom_site_fract_x
 _atom_site_fract_y
 _atom_site_fract_z
 _atom_site_occupancy
  Fe  Fe0  1  0.18243844  0.65450853  0.91357982  1
  Fe  Fe1  1  0.08451661  0.81615062  0.44313129  1
  Fe  Fe2  1  0.36111896  0.26703937  0.82958593  1
  Fe  Fe3  1  0.26451075  0.44410987  0.35075388  1
  Fe  Fe4  1  0.56007159  0.90372542  0.72622021  1
  Fe  Fe5  1  0.43992841  0.09627458  0.27377979  1
  Fe  Fe6  1  0.73548925  0.55589013  0.64924612  1
  Fe  Fe7  1  0.63888004  0.73296063  0.17041407  1
  Fe  Fe8  1  0.91548339  0.18384938  0.55686871  1
  Fe  Fe9  1  0.81756156  0.34549147  0.08642018  1
  O  O10  1  0.28592207  0.94518830  0.83166050  1
  O  O11  1  0.09373388  0.33622321  0.93783388  1
  O  O12  1  0.00000000  0.50000000  0.50000000  1
  O  O13  1  0.34746801  0.77543772  0.32570400  1
  O  O14  1  0.44869872  0.57578191  0.75949315  1
  O  O15  1  0.17175167  0.12503380  0.42513233  1
  O  O16  1  0.65253199  0.22456228  0.67429600  1
  O  O17  1  0.82824833  0.87496620  0.57486767  1
  O  O18  1  0.55130128  0.42421809  0.24050685  1
  O  O19  1  0.71407793  0.05481170  0.16833950  1
  O  O20  1  0.90626612  0.66377679  0.06216612  1
