# generated using pymatgen
data_Fe2CuAs2(HO5)2
_symmetry_space_group_name_H-M   'P 1'
_cell_length_a   7.85708642
_cell_length_b   13.64524985
_cell_length_c   14.51344268
_cell_angle_alpha   90.00000000
_cell_angle_beta   90.00000000
_cell_angle_gamma   90.00000000
_symmetry_Int_Tables_number   1
_chemical_formula_structural   Fe2CuAs2(HO5)2
_chemical_formula_sum   'Fe16 Cu8 As16 H16 O80'
_cell_volume   1556.01387112
_cell_formula_units_Z   8
loop_
 _symmetry_equiv_pos_site_id
 _symmetry_equiv_pos_as_xyz
  1  'x, y, z'
loop_
 _atom_site_type_symbol
 _atom_site_label
 _atom_site_symmetry_multiplicity
 _atom_site_fract_x
 _atom_site_fract_y
 _atom_site_fract_z
 _atom_site_occupancy
  Fe  Fe0  1  0.04207576  0.50525528  0.23827641  1
  Fe  Fe1  1  0.04207576  0.99474472  0.73827641  1
  Fe  Fe2  1  0.21774536  0.25672915  0.49577471  1
  Fe  Fe3  1  0.21774536  0.24327085  0.99577471  1
  Fe  Fe4  1  0.28225464  0.75672915  0.49577471  1
  Fe  Fe5  1  0.28225464  0.74327085  0.99577471  1
  Fe  Fe6  1  0.45792424  0.00525528  0.23827641  1
  Fe  Fe7  1  0.45792424  0.49474472  0.73827641  1
  Fe  Fe8  1  0.54207576  0.50525528  0.26172359  1
  Fe  Fe9  1  0.54207576  0.99474472  0.76172359  1
  Fe  Fe10  1  0.71774536  0.25672915  0.00422529  1
  Fe  Fe11  1  0.71774536  0.24327085  0.50422529  1
  Fe  Fe12  1  0.78225464  0.75672915  0.00422529  1
  Fe  Fe13  1  0.78225464  0.74327085  0.50422529  1
  Fe  Fe14  1  0.95792424  0.00525528  0.26172359  1
  Fe  Fe15  1  0.95792424  0.49474472  0.76172359  1
  Cu  Cu16  1  0.13887420  0.87787301  0.13170136  1
  Cu  Cu17  1  0.13887420  0.62212699  0.63170136  1
  Cu  Cu18  1  0.36112580  0.12212699  0.63170136  1
  Cu  Cu19  1  0.36112580  0.37787301  0.13170136  1
  Cu  Cu20  1  0.63887420  0.87787301  0.36829864  1
  Cu  Cu21  1  0.63887420  0.62212699  0.86829864  1
  Cu  Cu22  1  0.86112580  0.37787301  0.36829864  1
  Cu  Cu23  1  0.86112580  0.12212699  0.86829864  1
  As  As24  1  0.01854006  0.74723040  0.30524630  1
  As  As25  1  0.01854006  0.75276960  0.80524630  1
  As  As26  1  0.23736721  0.00898244  0.44163582  1
  As  As27  1  0.23736721  0.49101756  0.94163582  1
  As  As28  1  0.26263279  0.50898244  0.44163582  1
  As  As29  1  0.26263279  0.99101756  0.94163582  1
  As  As30  1  0.48145994  0.24723040  0.30524630  1
  As  As31  1  0.48145994  0.25276960  0.80524630  1
  As  As32  1  0.51854006  0.75276960  0.69475370  1
  As  As33  1  0.51854006  0.74723040  0.19475370  1
  As  As34  1  0.73736721  0.00898244  0.05836418  1
  As  As35  1  0.73736721  0.49101756  0.55836418  1
  As  As36  1  0.76263279  0.50898244  0.05836418  1
  As  As37  1  0.76263279  0.99101756  0.55836418  1
  As  As38  1  0.98145994  0.24723040  0.19475370  1
  As  As39  1  0.98145994  0.25276960  0.69475370  1
  H  H40  1  0.02206097  0.71248581  0.11075096  1
  H  H41  1  0.02206097  0.78751419  0.61075096  1
  H  H42  1  0.23017369  0.06408755  0.08822137  1
  H  H43  1  0.23017369  0.43591245  0.58822137  1
  H  H44  1  0.26982631  0.56408755  0.08822137  1
  H  H45  1  0.26982631  0.93591245  0.58822137  1
  H  H46  1  0.47793903  0.21248581  0.11075096  1
  H  H47  1  0.47793903  0.28751419  0.61075096  1
  H  H48  1  0.52206097  0.71248581  0.38924904  1
  H  H49  1  0.52206097  0.78751419  0.88924904  1
  H  H50  1  0.73017369  0.06408755  0.41177863  1
  H  H51  1  0.73017369  0.43591245  0.91177863  1
  H  H52  1  0.76982631  0.56408755  0.41177863  1
  H  H53  1  0.76982631  0.93591245  0.91177863  1
  H  H54  1  0.97793903  0.21248581  0.38924904  1
  H  H55  1  0.97793903  0.28751419  0.88924904  1
  O  O56  1  0.99944238  0.85347483  0.23998567  1
  O  O57  1  0.99944238  0.64652517  0.73998567  1
  O  O58  1  0.02510673  0.65293552  0.22738809  1
  O  O59  1  0.02510673  0.84706448  0.72738809  1
  O  O60  1  0.02663244  0.75834054  0.05729179  1
  O  O61  1  0.02663244  0.74165946  0.55729179  1
  O  O62  1  0.04848770  0.50650866  0.88931026  1
  O  O63  1  0.04848770  0.99349134  0.38931026  1
  O  O64  1  0.08404849  0.50749215  0.37631727  1
  O  O65  1  0.08404849  0.99250785  0.87631727  1
  O  O66  1  0.16092708  0.24294966  0.12791159  1
  O  O67  1  0.16092708  0.25705034  0.62791159  1
  O  O68  1  0.19820650  0.75427670  0.37190053  1
  O  O69  1  0.19820650  0.74572330  0.87190053  1
  O  O70  1  0.22421284  0.99426660  0.19329518  1
  O  O71  1  0.22421284  0.50573340  0.69329518  1
  O  O72  1  0.23551875  0.09024657  0.02159282  1
  O  O73  1  0.23551875  0.40975343  0.52159282  1
  O  O74  1  0.23461739  0.39102478  0.01444257  1
  O  O75  1  0.23461739  0.10897522  0.51444257  1
  O  O76  1  0.26538261  0.89102478  0.01444257  1
  O  O77  1  0.26538261  0.60897522  0.51444257  1
  O  O78  1  0.26448125  0.59024657  0.02159282  1
  O  O79  1  0.26448125  0.90975343  0.52159282  1
  O  O80  1  0.27578716  0.49426660  0.19329518  1
  O  O81  1  0.27578716  0.00573340  0.69329518  1
  O  O82  1  0.30179350  0.25427670  0.37190053  1
  O  O83  1  0.30179350  0.24572330  0.87190053  1
  O  O84  1  0.33907292  0.74294966  0.12791159  1
  O  O85  1  0.33907292  0.75705034  0.62791159  1
  O  O86  1  0.41595151  0.00749215  0.37631727  1
  O  O87  1  0.41595151  0.49250785  0.87631727  1
  O  O88  1  0.45151230  0.00650866  0.88931026  1
  O  O89  1  0.45151230  0.49349134  0.38931026  1
  O  O90  1  0.47336756  0.25834054  0.05729179  1
  O  O91  1  0.47336756  0.24165946  0.55729179  1
  O  O92  1  0.47489327  0.15293552  0.22738809  1
  O  O93  1  0.47489327  0.34706448  0.72738809  1
  O  O94  1  0.50055762  0.14652517  0.73998567  1
  O  O95  1  0.50055762  0.35347483  0.23998567  1
  O  O96  1  0.49944238  0.64652517  0.76001433  1
  O  O97  1  0.49944238  0.85347483  0.26001433  1
  O  O98  1  0.52510673  0.65293552  0.27261191  1
  O  O99  1  0.52510673  0.84706448  0.77261191  1
  O  O100  1  0.52663244  0.75834054  0.44270821  1
  O  O101  1  0.52663244  0.74165946  0.94270821  1
  O  O102  1  0.54848770  0.50650866  0.61068974  1
  O  O103  1  0.54848770  0.99349134  0.11068974  1
  O  O104  1  0.58404849  0.50749215  0.12368273  1
  O  O105  1  0.58404849  0.99250785  0.62368273  1
  O  O106  1  0.66092708  0.24294966  0.37208841  1
  O  O107  1  0.66092708  0.25705034  0.87208841  1
  O  O108  1  0.69820650  0.75427670  0.12809947  1
  O  O109  1  0.69820650  0.74572330  0.62809947  1
  O  O110  1  0.72421284  0.99426660  0.30670482  1
  O  O111  1  0.72421284  0.50573340  0.80670482  1
  O  O112  1  0.73551875  0.09024657  0.47840718  1
  O  O113  1  0.73551875  0.40975343  0.97840718  1
  O  O114  1  0.73461739  0.39102478  0.48555743  1
  O  O115  1  0.73461739  0.10897522  0.98555743  1
  O  O116  1  0.76538261  0.89102478  0.48555743  1
  O  O117  1  0.76538261  0.60897522  0.98555743  1
  O  O118  1  0.76448125  0.59024657  0.47840718  1
  O  O119  1  0.76448125  0.90975343  0.97840718  1
  O  O120  1  0.77578716  0.49426660  0.30670482  1
  O  O121  1  0.77578716  0.00573340  0.80670482  1
  O  O122  1  0.80179350  0.25427670  0.12809947  1
  O  O123  1  0.80179350  0.24572330  0.62809947  1
  O  O124  1  0.83907292  0.74294966  0.37208841  1
  O  O125  1  0.83907292  0.75705034  0.87208841  1
  O  O126  1  0.91595151  0.00749215  0.12368273  1
  O  O127  1  0.91595151  0.49250785  0.62368273  1
  O  O128  1  0.95151230  0.49349134  0.11068974  1
  O  O129  1  0.95151230  0.00650866  0.61068974  1
  O  O130  1  0.97336756  0.25834054  0.44270821  1
  O  O131  1  0.97336756  0.24165946  0.94270821  1
  O  O132  1  0.97489327  0.15293552  0.27261191  1
  O  O133  1  0.97489327  0.34706448  0.77261191  1
  O  O134  1  0.00055762  0.35347483  0.26001433  1
  O  O135  1  0.00055762  0.14652517  0.76001433  1
