# generated using pymatgen
data_Co3(PO4)2
_symmetry_space_group_name_H-M   'P 1'
_cell_length_a   8.80000565
_cell_length_b   9.92592206
_cell_length_c   20.70569709
_cell_angle_alpha   90.00000505
_cell_angle_beta   99.10402833
_cell_angle_gamma   89.99999977
_symmetry_Int_Tables_number   1
_chemical_formula_structural   Co3(PO4)2
_chemical_formula_sum   'Co36 P24 O96'
_cell_volume   1785.82118857
_cell_formula_units_Z   12
loop_
 _symmetry_equiv_pos_site_id
 _symmetry_equiv_pos_as_xyz
  1  'x, y, z'
loop_
 _atom_site_type_symbol
 _atom_site_label
 _atom_site_symmetry_multiplicity
 _atom_site_fract_x
 _atom_site_fract_y
 _atom_site_fract_z
 _atom_site_occupancy
  Co  Co0  1  0.06965404  0.90600416  0.94055971  1
  Co  Co1  1  0.09096187  0.39332142  0.89196063  1
  Co  Co2  1  0.03742367  0.21848845  0.54494917  1
  Co  Co3  1  0.11141429  0.61468747  0.58276785  1
  Co  Co4  1  0.21231592  0.58062854  0.78373798  1
  Co  Co5  1  0.03923076  0.11293897  0.24442024  1
  Co  Co6  1  0.10385009  0.70507507  0.29652569  1
  Co  Co7  1  0.28768406  0.08062853  0.71626202  1
  Co  Co8  1  0.38858570  0.11468753  0.91723220  1
  Co  Co9  1  0.46257631  0.71848851  0.95505084  1
  Co  Co10  1  0.23605924  0.27772199  0.35979344  1
  Co  Co11  1  0.28117002  0.88178891  0.42343558  1
  Co  Co12  1  0.40903813  0.89332145  0.60803936  1
  Co  Co13  1  0.21883004  0.38178897  0.07656444  1
  Co  Co14  1  0.26394074  0.77772201  0.14020659  1
  Co  Co15  1  0.43034595  0.40600413  0.55944030  1
  Co  Co16  1  0.53923080  0.38706106  0.74442024  1
  Co  Co17  1  0.60385003  0.79492492  0.79652568  1
  Co  Co18  1  0.39614997  0.20507508  0.20347432  1
  Co  Co19  1  0.46076920  0.61293894  0.25557976  1
  Co  Co20  1  0.56965405  0.59399587  0.44055970  1
  Co  Co21  1  0.73605926  0.22227799  0.85979341  1
  Co  Co22  1  0.78116996  0.61821103  0.92343556  1
  Co  Co23  1  0.59096187  0.10667855  0.39196064  1
  Co  Co24  1  0.71882998  0.11821109  0.57656442  1
  Co  Co25  1  0.76394076  0.72227801  0.64020656  1
  Co  Co26  1  0.53742369  0.28151149  0.04494916  1
  Co  Co27  1  0.61141430  0.88531247  0.08276780  1
  Co  Co28  1  0.71231594  0.91937147  0.28373798  1
  Co  Co29  1  0.89614991  0.29492493  0.70347431  1
  Co  Co30  1  0.96076924  0.88706103  0.75557976  1
  Co  Co31  1  0.78768408  0.41937146  0.21626202  1
  Co  Co32  1  0.88858571  0.38531253  0.41723215  1
  Co  Co33  1  0.96257633  0.78151155  0.45505083  1
  Co  Co34  1  0.90903813  0.60667858  0.10803937  1
  Co  Co35  1  0.93034596  0.09399584  0.05944029  1
  P  P36  1  0.04977062  0.12995032  0.82837212  1
  P  P37  1  0.13021120  0.64497079  0.99800058  1
  P  P38  1  0.03244267  0.92513989  0.60538427  1
  P  P39  1  0.19273052  0.35754324  0.67010739  1
  P  P40  1  0.30726949  0.85754325  0.82989260  1
  P  P41  1  0.19873221  0.55423434  0.43905543  1
  P  P42  1  0.15028585  0.43220992  0.21875218  1
  P  P43  1  0.46755734  0.42513989  0.89461575  1
  P  P44  1  0.36978877  0.14497078  0.50199942  1
  P  P45  1  0.45022937  0.62995036  0.67162789  1
  P  P46  1  0.34971412  0.93220992  0.28124783  1
  P  P47  1  0.30126786  0.05423436  0.06094456  1
  P  P48  1  0.69873214  0.94576564  0.93905544  1
  P  P49  1  0.65028588  0.06779008  0.71875217  1
  P  P50  1  0.54977063  0.37004964  0.32837211  1
  P  P51  1  0.63021123  0.85502922  0.49800058  1
  P  P52  1  0.53244266  0.57486011  0.10538425  1
  P  P53  1  0.84971415  0.56779008  0.78124782  1
  P  P54  1  0.80126779  0.44576566  0.56094457  1
  P  P55  1  0.69273051  0.14245675  0.17010740  1
  P  P56  1  0.80726948  0.64245676  0.32989261  1
  P  P57  1  0.96755733  0.07486011  0.39461573  1
  P  P58  1  0.86978880  0.35502921  0.00199942  1
  P  P59  1  0.95022938  0.87004968  0.17162788  1
  O  O60  1  0.00546640  0.53535944  0.82519595  1
  O  O61  1  0.15692879  0.49544309  0.98166313  1
  O  O62  1  0.10003848  0.07283998  0.76514744  1
  O  O63  1  0.07820875  0.24198292  0.64651617  1
  O  O64  1  0.11014313  0.44336133  0.71631881  1
  O  O65  1  0.18130298  0.20251706  0.87550675  1
  O  O66  1  0.04935093  0.81244954  0.55603950  1
  O  O67  1  0.15774088  0.78719786  0.79439692  1
  O  O68  1  0.25728992  0.74141645  0.98371571  1
  O  O69  1  0.06086180  0.95548085  0.43079333  1
  O  O70  1  0.08612193  0.60966664  0.48415706  1
  O  O71  1  0.06043450  0.13255503  0.34264875  1
  O  O72  1  0.27329866  0.93853673  0.89017356  1
  O  O73  1  0.19631193  0.96906092  0.63793523  1
  O  O74  1  0.12102543  0.42671566  0.40289919  1
  O  O75  1  0.02779122  0.98676450  0.13945362  1
  O  O76  1  0.30368802  0.46906092  0.86206476  1
  O  O77  1  0.22670136  0.43853667  0.60982641  1
  O  O78  1  0.01703447  0.29271648  0.04453395  1
  O  O79  1  0.07091723  0.75681736  0.19241322  1
  O  O80  1  0.12159481  0.31783276  0.26583465  1
  O  O81  1  0.24271001  0.24141654  0.51628430  1
  O  O82  1  0.21838107  0.66925033  0.39114387  1
  O  O83  1  0.34225919  0.28719782  0.70560308  1
  O  O84  1  0.45064910  0.31244952  0.94396055  1
  O  O85  1  0.31869705  0.70251713  0.62449329  1
  O  O86  1  0.38985684  0.94336133  0.78368117  1
  O  O87  1  0.11717860  0.65355930  0.07302780  1
  O  O88  1  0.42179131  0.74198287  0.85348382  1
  O  O89  1  0.23379772  0.88058513  0.32549464  1
  O  O90  1  0.39996154  0.57284000  0.73485256  1
  O  O91  1  0.22811369  0.55524129  0.25753616  1
  O  O92  1  0.14322322  0.02138434  0.02017359  1
  O  O93  1  0.34307117  0.99544311  0.51833683  1
  O  O94  1  0.35677672  0.52138433  0.47982639  1
  O  O95  1  0.27188631  0.05524124  0.24246385  1
  O  O96  1  0.26620224  0.38058518  0.17450538  1
  O  O97  1  0.56086184  0.54451911  0.93079334  1
  O  O98  1  0.58612189  0.89033335  0.98415710  1
  O  O99  1  0.38282143  0.15355923  0.42697219  1
  O  O100  1  0.56043458  0.36744498  0.84264874  1
  O  O101  1  0.28161897  0.16925031  0.10885610  1
  O  O102  1  0.49453365  0.03535941  0.67480404  1
  O  O103  1  0.62102545  0.07328432  0.90289917  1
  O  O104  1  0.52779117  0.51323552  0.63945361  1
  O  O105  1  0.37840522  0.81783271  0.23416534  1
  O  O106  1  0.51703453  0.20728344  0.54453395  1
  O  O107  1  0.57091719  0.74318258  0.69241325  1
  O  O108  1  0.42908281  0.25681742  0.30758675  1
  O  O109  1  0.48296547  0.79271656  0.45546605  1
  O  O110  1  0.62159478  0.18216729  0.76583466  1
  O  O111  1  0.47220883  0.48676448  0.36054639  1
  O  O112  1  0.37897455  0.92671568  0.09710083  1
  O  O113  1  0.50546635  0.96464059  0.32519596  1
  O  O114  1  0.71838103  0.83074969  0.89114390  1
  O  O115  1  0.43956542  0.63255502  0.15735126  1
  O  O116  1  0.61717857  0.84644077  0.57302781  1
  O  O117  1  0.41387811  0.10966665  0.01584290  1
  O  O118  1  0.43913816  0.45548089  0.06920666  1
  O  O119  1  0.73379776  0.61941482  0.82549462  1
  O  O120  1  0.72811369  0.94475876  0.75753615  1
  O  O121  1  0.64322328  0.47861567  0.52017361  1
  O  O122  1  0.65692883  0.00455689  0.48166317  1
  O  O123  1  0.85677678  0.97861566  0.97982641  1
  O  O124  1  0.77188631  0.44475871  0.74246384  1
  O  O125  1  0.60003846  0.42716000  0.26514744  1
  O  O126  1  0.76620228  0.11941487  0.67450536  1
  O  O127  1  0.57820869  0.25801713  0.14651618  1
  O  O128  1  0.88282140  0.34644070  0.92697220  1
  O  O129  1  0.61014316  0.05663867  0.21631883  1
  O  O130  1  0.68130295  0.29748287  0.37550671  1
  O  O131  1  0.54935090  0.68755048  0.05603945  1
  O  O132  1  0.65774081  0.71280218  0.29439692  1
  O  O133  1  0.78161893  0.33074967  0.60885613  1
  O  O134  1  0.75728999  0.75858346  0.48371570  1
  O  O135  1  0.87840519  0.68216724  0.73416535  1
  O  O136  1  0.92908277  0.24318264  0.80758678  1
  O  O137  1  0.98296553  0.70728352  0.95546605  1
  O  O138  1  0.77329864  0.56146333  0.39017359  1
  O  O139  1  0.69631198  0.53093908  0.13793524  1
  O  O140  1  0.97220878  0.01323550  0.86054638  1
  O  O141  1  0.87897457  0.57328434  0.59710081  1
  O  O142  1  0.80368807  0.03093908  0.36206477  1
  O  O143  1  0.72670134  0.06146327  0.10982644  1
  O  O144  1  0.93956550  0.86744497  0.65735125  1
  O  O145  1  0.91387807  0.39033336  0.51584294  1
  O  O146  1  0.93913820  0.04451915  0.56920667  1
  O  O147  1  0.74271008  0.25858355  0.01628429  1
  O  O148  1  0.84225912  0.21280214  0.20560308  1
  O  O149  1  0.95064907  0.18755046  0.44396050  1
  O  O150  1  0.81869702  0.79748294  0.12449325  1
  O  O151  1  0.88985687  0.55663867  0.28368119  1
  O  O152  1  0.92179125  0.75801708  0.35348383  1
  O  O153  1  0.89996152  0.92716002  0.23485256  1
  O  O154  1  0.84307121  0.50455691  0.01833687  1
  O  O155  1  0.99453360  0.46464056  0.17480405  1
