# generated using pymatgen
data_LiVO2
_symmetry_space_group_name_H-M   'P 1'
_cell_length_a   5.16166204
_cell_length_b   5.21547697
_cell_length_c   7.90439421
_cell_angle_alpha   71.09843120
_cell_angle_beta   108.89771408
_cell_angle_gamma   99.36086849
_symmetry_Int_Tables_number   1
_chemical_formula_structural   LiVO2
_chemical_formula_sum   'Li5 V5 O10'
_cell_volume   190.06817236
_cell_formula_units_Z   5
loop_
 _symmetry_equiv_pos_site_id
 _symmetry_equiv_pos_as_xyz
  1  'x, y, z'
loop_
 _atom_site_type_symbol
 _atom_site_label
 _atom_site_symmetry_multiplicity
 _atom_site_fract_x
 _atom_site_fract_y
 _atom_site_fract_z
 _atom_site_occupancy
  Li  Li0  1  0.49469605  0.22072971  0.58202192  1
  Li  Li1  1  0.50559954  0.39326333  0.22010961  1
  Li  Li2  1  0.99499486  0.50178929  0.49575144  1
  Li  Li3  1  0.49536746  0.78298823  0.40960815  1
  Li  Li4  1  0.48422473  0.61120252  0.77122549  1
  V  V5  1  0.49489328  0.00204264  0.99579930  1
  V  V6  1  0.00425899  0.09863782  0.30807966  1
  V  V7  1  0.99509457  0.31044474  0.88622802  1
  V  V8  1  0.99454232  0.69346523  0.10531755  1
  V  V9  1  0.98558653  0.90528234  0.68340526  1
  O  O10  1  0.23083300  0.05136687  0.13425223  1
  O  O11  1  0.76224570  0.14311756  0.45149842  1
  O  O12  1  0.76079432  0.33248003  0.04862056  1
  O  O13  1  0.24470065  0.23531069  0.76081313  1
  O  O14  1  0.22287454  0.45090190  0.33199716  1
  O  O15  1  0.76704068  0.55312318  0.65949564  1
  O  O16  1  0.74507299  0.76854824  0.23078674  1
  O  O17  1  0.22890644  0.67141663  0.94295789  1
  O  O18  1  0.22777409  0.86078450  0.54006157  1
  O  O19  1  0.75872726  0.95253756  0.85722130  1
