# generated using pymatgen
data_Li7Mn2(CoO4)3
_symmetry_space_group_name_H-M   'P 1'
_cell_length_a   3.02483556
_cell_length_b   12.04416596
_cell_length_c   6.39546445
_cell_angle_alpha   104.48633607
_cell_angle_beta   76.64005534
_cell_angle_gamma   87.59020361
_symmetry_Int_Tables_number   1
_chemical_formula_structural   Li7Mn2(CoO4)3
_chemical_formula_sum   'Li7 Mn2 Co3 O12'
_cell_volume   218.24812390
_cell_formula_units_Z   1
loop_
 _symmetry_equiv_pos_site_id
 _symmetry_equiv_pos_as_xyz
  1  'x, y, z'
loop_
 _atom_site_type_symbol
 _atom_site_label
 _atom_site_symmetry_multiplicity
 _atom_site_fract_x
 _atom_site_fract_y
 _atom_site_fract_z
 _atom_site_occupancy
  Li  Li0  1  0.74560170  0.25245496  0.25412615  1
  Li  Li1  1  0.75561730  0.58213139  0.90953091  1
  Li  Li2  1  0.25439830  0.41421204  0.07920685  1
  Li  Li3  1  0.25074414  0.74964592  0.75345293  1
  Li  Li4  1  0.74925586  0.91702108  0.57988007  1
  Li  Li5  1  0.24438270  0.08453461  0.42380309  1
  Li  Li6  1  0.00000000  0.33333300  0.66666700  1
  Mn  Mn7  1  0.99890123  0.00114547  0.99818568  1
  Mn  Mn8  1  0.00109877  0.66552153  0.33514732  1
  Co  Co9  1  0.50485083  0.49133089  0.50645396  1
  Co  Co10  1  0.50000000  0.83333300  0.16666700  1
  Co  Co11  1  0.49514917  0.17533611  0.82687904  1
  O  O12  1  0.36662484  0.12460488  0.10129525  1
  O  O13  1  0.37707457  0.46514919  0.76760053  1
  O  O14  1  0.86581683  0.28125564  0.94759407  1
  O  O15  1  0.86275288  0.61872914  0.60754175  1
  O  O16  1  0.36133814  0.79002071  0.44240842  1
  O  O17  1  0.86252318  0.95286122  0.27374596  1
  O  O18  1  0.13418317  0.38541136  0.38573893  1
  O  O19  1  0.13747682  0.71380478  0.05958804  1
  O  O20  1  0.63337516  0.54206212  0.23203775  1
  O  O21  1  0.63866186  0.87664629  0.89092458  1
  O  O22  1  0.13724712  0.04793786  0.72579125  1
  O  O23  1  0.62292543  0.20151681  0.56573347  1
