# generated using pymatgen
data_V2OF5
_symmetry_space_group_name_H-M   'P 1'
_cell_length_a   4.89132770
_cell_length_b   4.89132764
_cell_length_c   17.62887344
_cell_angle_alpha   89.90924378
_cell_angle_beta   90.09075538
_cell_angle_gamma   89.99537400
_symmetry_Int_Tables_number   1
_chemical_formula_structural   V2OF5
_chemical_formula_sum   'V8 O4 F20'
_cell_volume   421.77126067
_cell_formula_units_Z   4
loop_
 _symmetry_equiv_pos_site_id
 _symmetry_equiv_pos_as_xyz
  1  'x, y, z'
loop_
 _atom_site_type_symbol
 _atom_site_label
 _atom_site_symmetry_multiplicity
 _atom_site_fract_x
 _atom_site_fract_y
 _atom_site_fract_z
 _atom_site_occupancy
  V  V0  1  0.00900028  0.99086929  0.84468779  1
  V  V1  1  0.01455380  0.01327375  0.66392871  1
  V  V2  1  0.00913071  0.99099972  0.34468779  1
  V  V3  1  0.48584874  0.51311345  0.91393703  1
  V  V4  1  0.49176479  0.49015274  0.59462458  1
  V  V5  1  0.48688755  0.51415126  0.41393703  1
  V  V6  1  0.50984726  0.50823521  0.09462458  1
  V  V7  1  0.98672625  0.98544620  0.16392871  1
  O  O8  1  0.20345281  0.79662968  0.90331898  1
  O  O9  1  0.20336932  0.79654719  0.40331898  1
  O  O10  1  0.29816784  0.29503250  0.65331430  1
  O  O11  1  0.70496750  0.70183216  0.15331430  1
  F  F12  1  0.17843141  0.82281585  0.75163035  1
  F  F13  1  0.21762139  0.78627019  0.58989968  1
  F  F14  1  0.17718415  0.82156859  0.25163035  1
  F  F15  1  0.21372981  0.78237861  0.08989968  1
  F  F16  1  0.28340554  0.28790862  0.83986681  1
  F  F17  1  0.32311849  0.32185700  0.50163204  1
  F  F18  1  0.28235055  0.27937111  0.15729532  1
  F  F19  1  0.28399011  0.28752319  0.33983729  1
  F  F20  1  0.32700513  0.32881434  0.00335991  1
  F  F21  1  0.67814300  0.67688151  0.00163204  1
  F  F22  1  0.67118566  0.67299487  0.50335991  1
  F  F23  1  0.71247681  0.71600989  0.83983729  1
  F  F24  1  0.72062889  0.71764945  0.65729532  1
  F  F25  1  0.71209138  0.71659446  0.33986681  1
  F  F26  1  0.78108399  0.21851714  0.90726704  1
  F  F27  1  0.78895849  0.21516966  0.58972944  1
  F  F28  1  0.78148286  0.21891601  0.40726704  1
  F  F29  1  0.82919229  0.17232117  0.75334073  1
  F  F30  1  0.82767883  0.17080771  0.25334073  1
  F  F31  1  0.78483034  0.21104151  0.08972944  1
