# generated using pymatgen
data_Li2Mn(SiO3)2
_symmetry_space_group_name_H-M   'P 1'
_cell_length_a   5.90380626
_cell_length_b   5.76677462
_cell_length_c   9.29443977
_cell_angle_alpha   90.03389535
_cell_angle_beta   90.06337523
_cell_angle_gamma   59.21611259
_symmetry_Int_Tables_number   1
_chemical_formula_structural   Li2Mn(SiO3)2
_chemical_formula_sum   'Li4 Mn2 Si4 O12'
_cell_volume   271.85272896
_cell_formula_units_Z   2
loop_
 _symmetry_equiv_pos_site_id
 _symmetry_equiv_pos_as_xyz
  1  'x, y, z'
loop_
 _atom_site_type_symbol
 _atom_site_label
 _atom_site_symmetry_multiplicity
 _atom_site_fract_x
 _atom_site_fract_y
 _atom_site_fract_z
 _atom_site_occupancy
  Li  Li0  1  0.64637395  0.82214347  0.89663895  1
  Li  Li1  1  0.61494867  0.65222809  0.63212126  1
  Li  Li2  1  0.26719572  0.34777746  0.13210680  1
  Li  Li3  1  0.46853591  0.17784954  0.39662859  1
  Mn  Mn4  1  0.73357939  0.50793569  0.25561213  1
  Mn  Mn5  1  0.24148949  0.49204523  0.75560410  1
  Si  Si6  1  0.86976241  0.94089599  0.13410002  1
  Si  Si7  1  0.19644913  0.93871074  0.36622463  1
  Si  Si8  1  0.81074913  0.05902737  0.63411955  1
  Si  Si9  1  0.13514214  0.06133432  0.86623020  1
  O  O10  1  0.84340881  0.79499299  0.71828526  1
  O  O11  1  0.79082662  0.71905170  0.09182861  1
  O  O12  1  0.50274695  0.77354808  0.41931824  1
  O  O13  1  0.36454215  0.76325006  0.81073187  1
  O  O14  1  0.14982599  0.77647281  0.23005970  1
  O  O15  1  0.92626525  0.22353322  0.73005490  1
  O  O16  1  0.63839319  0.20502082  0.21830162  1
  O  O17  1  0.50980496  0.28096172  0.59182070  1
  O  O18  1  0.27628791  0.22643734  0.91930689  1
  O  O19  1  0.12781864  0.23674343  0.31073614  1
  O  O20  1  0.99382750  0.95005741  0.48924292  1
  O  O21  1  0.94386611  0.04999451  0.98922994  1
