# generated using pymatgen
data_Mn6O5F7
_symmetry_space_group_name_H-M   'P 1'
_cell_length_a   4.83477291
_cell_length_b   4.83477291
_cell_length_c   9.31959508
_cell_angle_alpha   90.00000000
_cell_angle_beta   90.00000000
_cell_angle_gamma   97.75320535
_symmetry_Int_Tables_number   1
_chemical_formula_structural   Mn6O5F7
_chemical_formula_sum   'Mn6 O5 F7'
_cell_volume   215.85433670
_cell_formula_units_Z   1
loop_
 _symmetry_equiv_pos_site_id
 _symmetry_equiv_pos_as_xyz
  1  'x, y, z'
loop_
 _atom_site_type_symbol
 _atom_site_label
 _atom_site_symmetry_multiplicity
 _atom_site_fract_x
 _atom_site_fract_y
 _atom_site_fract_z
 _atom_site_occupancy
  Mn  Mn0  1  0.99558979  0.99558979  0.00111042  1
  Mn  Mn1  1  0.99558979  0.99558979  0.33222258  1
  Mn  Mn2  1  0.02253131  0.02253131  0.66666700  1
  Mn  Mn3  1  0.49379294  0.49379294  0.84203161  1
  Mn  Mn4  1  0.49675264  0.49675264  0.16666700  1
  Mn  Mn5  1  0.49379294  0.49379294  0.49130139  1
  O  O6  1  0.29777568  0.29777568  0.00306887  1
  O  O7  1  0.29777568  0.29777568  0.33026413  1
  O  O8  1  0.31973277  0.31973277  0.66666700  1
  O  O9  1  0.69243622  0.69243622  0.00189451  1
  O  O10  1  0.69243622  0.69243622  0.33143949  1
  F  F11  1  0.18464230  0.80978325  0.16666700  1
  F  F12  1  0.19098209  0.81083008  0.50094366  1
  F  F13  1  0.19098209  0.81083008  0.83238934  1
  F  F14  1  0.70374213  0.70374213  0.66666700  1
  F  F15  1  0.80978325  0.18464230  0.16666700  1
  F  F16  1  0.81083008  0.19098209  0.50094366  1
  F  F17  1  0.81083008  0.19098209  0.83238934  1
