# generated using pymatgen
data_Li5V3P8O29
_symmetry_space_group_name_H-M   'P 1'
_cell_length_a   9.79655143
_cell_length_b   9.81182704
_cell_length_c   13.90568322
_cell_angle_alpha   90.04789596
_cell_angle_beta   90.15289229
_cell_angle_gamma   60.00642024
_symmetry_Int_Tables_number   1
_chemical_formula_structural   Li5V3P8O29
_chemical_formula_sum   'Li10 V6 P16 O58'
_cell_volume   1157.63738838
_cell_formula_units_Z   2
loop_
 _symmetry_equiv_pos_site_id
 _symmetry_equiv_pos_as_xyz
  1  'x, y, z'
loop_
 _atom_site_type_symbol
 _atom_site_label
 _atom_site_symmetry_multiplicity
 _atom_site_fract_x
 _atom_site_fract_y
 _atom_site_fract_z
 _atom_site_occupancy
  Li  Li0  1  0.77107478  0.90375756  0.56235944  1
  Li  Li1  1  0.91153007  0.31960868  0.56293934  1
  Li  Li2  1  0.66990178  0.66725845  0.88203252  1
  Li  Li3  1  0.77495874  0.31582084  0.05770250  1
  Li  Li4  1  0.31208528  0.91388217  0.06003815  1
  Li  Li5  1  0.68032296  0.22775344  0.44118613  1
  Li  Li6  1  0.32216995  0.77298892  0.56079716  1
  Li  Li7  1  0.68116646  0.09175046  0.93826022  1
  Li  Li8  1  0.22415383  0.68110783  0.94011750  1
  Li  Li9  1  0.09408696  0.67790099  0.44086038  1
  V  V10  1  0.56800390  0.43168689  0.25026071  1
  V  V11  1  0.43186404  0.56654447  0.75002693  1
  V  V12  1  0.56624923  0.99954852  0.74800682  1
  V  V13  1  0.42901709  0.00703130  0.25486031  1
  V  V14  1  0.99544744  0.56715352  0.24324958  1
  V  V15  1  0.00570003  0.42890553  0.75374467  1
  P  P16  1  0.91233174  0.77091101  0.84195479  1
  P  P17  1  0.77080455  0.91134249  0.34049084  1
  P  P18  1  0.91451853  0.31836493  0.34515010  1
  P  P19  1  0.66189845  0.66850721  0.12669120  1
  P  P20  1  0.66884744  0.66327938  0.62637648  1
  P  P21  1  0.77111517  0.31964669  0.84175608  1
  P  P22  1  0.68034934  0.23189058  0.65782171  1
  P  P23  1  0.31867806  0.91132725  0.84552054  1
  P  P24  1  0.68103688  0.08732148  0.15606436  1
  P  P25  1  0.32031148  0.76845065  0.34090824  1
  P  P26  1  0.23091281  0.67949199  0.15851727  1
  P  P27  1  0.33182086  0.33757715  0.37264400  1
  P  P28  1  0.33636490  0.33253677  0.87467069  1
  P  P29  1  0.08501751  0.68163021  0.65594536  1
  P  P30  1  0.22998525  0.08361843  0.65860810  1
  P  P31  1  0.08521266  0.22848082  0.15879857  1
  O  O32  1  0.99671851  0.75855367  0.56494080  1
  O  O33  1  0.91674289  0.74436645  0.33945993  1
  O  O34  1  0.75229469  0.00603776  0.06470647  1
  O  O35  1  0.74417044  0.91954780  0.84047736  1
  O  O36  1  0.88897698  0.62676583  0.82625185  1
  O  O37  1  0.81320217  0.66804618  0.17116018  1
  O  O38  1  0.90517300  0.47821645  0.32050291  1
  O  O39  1  0.99259813  0.23887262  0.07221175  1
  O  O40  1  0.91806982  0.33813868  0.84016625  1
  O  O41  1  0.67307725  0.81272286  0.66609721  1
  O  O42  1  0.61795661  0.90312579  0.32305479  1
  O  O43  1  0.81577620  0.51249299  0.66811029  1
  O  O44  1  0.66624754  0.66794086  0.01900549  1
  O  O45  1  0.66441187  0.66495881  0.51905389  1
  O  O46  1  0.67073056  0.51467047  0.16496853  1
  O  O47  1  0.48624994  0.88645272  0.82496762  1
  O  O48  1  0.51288325  0.81783441  0.16650516  1
  O  O49  1  0.74723778  0.33766418  0.33927197  1
  O  O50  1  0.78957420  0.21056014  0.75034987  1
  O  O51  1  0.75985067  0.24234128  0.56796601  1
  O  O52  1  0.75489089  0.24338477  0.93089715  1
  O  O53  1  0.62515948  0.48625957  0.82609739  1
  O  O54  1  0.51475439  0.66839364  0.66862696  1
  O  O55  1  0.66116512  0.25444390  0.16131364  1
  O  O56  1  0.47939544  0.61795443  0.32368866  1
  O  O57  1  0.34300201  0.91360612  0.33439085  1
  O  O58  1  0.79197345  0.99876838  0.24890923  1
  O  O59  1  0.75844191  0.99950333  0.43142168  1
  O  O60  1  0.24168438  0.98991860  0.57253320  1
  O  O61  1  0.66657645  0.08161721  0.65820724  1
  O  O62  1  0.52025409  0.38004356  0.67410120  1
  O  O63  1  0.33364137  0.74599824  0.84169208  1
  O  O64  1  0.48712446  0.32696061  0.33306733  1
  O  O65  1  0.37985053  0.52046598  0.17632290  1
  O  O66  1  0.23854391  0.75899200  0.06868508  1
  O  O67  1  0.24179681  0.75987496  0.43104533  1
  O  O68  1  0.20821222  0.79170668  0.24972513  1
  O  O69  1  0.24924629  0.66572171  0.65730817  1
  O  O70  1  0.48745337  0.18486308  0.83443106  1
  O  O71  1  0.52158479  0.09550691  0.17917269  1
  O  O72  1  0.33423675  0.48557414  0.83131518  1
  O  O73  1  0.33493803  0.34044385  0.98141428  1
  O  O74  1  0.33218685  0.33330069  0.47938864  1
  O  O75  1  0.18291653  0.48663748  0.33026457  1
  O  O76  1  0.38303277  0.09222966  0.67738734  1
  O  O77  1  0.33188662  0.18649447  0.32642444  1
  O  O78  1  0.08391698  0.65898771  0.16508958  1
  O  O79  1  0.99184748  0.79355352  0.74539583  1
  O  O80  1  0.00712177  0.76140497  0.92704892  1
  O  O81  1  0.09367850  0.52253132  0.67439094  1
  O  O82  1  0.18959569  0.33442636  0.82873375  1
  O  O83  1  0.09545663  0.38163632  0.17549905  1
  O  O84  1  0.25477465  0.08413068  0.16079906  1
  O  O85  1  0.24695886  0.99532548  0.93647870  1
  O  O86  1  0.20863369  0.00406559  0.75503276  1
  O  O87  1  0.08525963  0.25130480  0.65962852  1
  O  O88  1  0.99515873  0.24922624  0.43727243  1
  O  O89  1  0.00648682  0.20591645  0.25494694  1
