# generated using pymatgen
data_Li5V3P8O29
_symmetry_space_group_name_H-M   'P 1'
_cell_length_a   9.84639128
_cell_length_b   9.73867422
_cell_length_c   14.04472469
_cell_angle_alpha   89.90473793
_cell_angle_beta   90.68535503
_cell_angle_gamma   60.23988935
_symmetry_Int_Tables_number   1
_chemical_formula_structural   Li5V3P8O29
_chemical_formula_sum   'Li10 V6 P16 O58'
_cell_volume   1169.00890612
_cell_formula_units_Z   2
loop_
 _symmetry_equiv_pos_site_id
 _symmetry_equiv_pos_as_xyz
  1  'x, y, z'
loop_
 _atom_site_type_symbol
 _atom_site_label
 _atom_site_symmetry_multiplicity
 _atom_site_fract_x
 _atom_site_fract_y
 _atom_site_fract_z
 _atom_site_occupancy
  Li  Li0  1  0.91575369  0.77325546  0.06076572  1
  Li  Li1  1  0.68262216  0.66728358  0.39292829  1
  Li  Li2  1  0.77223424  0.32024369  0.05575527  1
  Li  Li3  1  0.32093160  0.90872728  0.06123321  1
  Li  Li4  1  0.67679057  0.23207366  0.44211469  1
  Li  Li5  1  0.32829499  0.76643303  0.56208645  1
  Li  Li6  1  0.67926891  0.08873031  0.93375599  1
  Li  Li7  1  0.32406759  0.33387648  0.60929907  1
  Li  Li8  1  0.09219650  0.22843388  0.93743721  1
  Li  Li9  1  0.99910687  0.00205588  0.50549445  1
  V  V10  1  0.56618852  0.43254525  0.24897592  1
  V  V11  1  0.42680527  0.57222014  0.75495627  1
  V  V12  1  0.57021152  0.99447020  0.74470555  1
  V  V13  1  0.43057492  0.00410389  0.25337563  1
  V  V14  1  0.00380014  0.56797581  0.25488603  1
  V  V15  1  0.99534661  0.43412026  0.74467387  1
  P  P16  1  0.91655347  0.76684004  0.84211095  1
  P  P17  1  0.77667199  0.91356866  0.33969842  1
  P  P18  1  0.91277783  0.30661613  0.34337137  1
  P  P19  1  0.66590463  0.66914597  0.13014541  1
  P  P20  1  0.66011428  0.66443507  0.62798756  1
  P  P21  1  0.76873031  0.31849767  0.83863630  1
  P  P22  1  0.67903204  0.22981480  0.65603570  1
  P  P23  1  0.32051372  0.91561942  0.84389408  1
  P  P24  1  0.67821749  0.08654918  0.15454701  1
  P  P25  1  0.31915728  0.77117453  0.34545171  1
  P  P26  1  0.22803880  0.68682772  0.16179130  1
  P  P27  1  0.33794876  0.33354044  0.37209934  1
  P  P28  1  0.33714658  0.32633942  0.87061994  1
  P  P29  1  0.08525060  0.69555438  0.65768534  1
  P  P30  1  0.22171122  0.08845050  0.65935018  1
  P  P31  1  0.08286585  0.23412733  0.15882267  1
  O  O32  1  0.00648909  0.80165174  0.57517029  1
  O  O33  1  0.91687712  0.74200654  0.33739105  1
  O  O34  1  0.75277929  0.00408501  0.06351363  1
  O  O35  1  0.75044441  0.91349065  0.83441186  1
  O  O36  1  0.90873411  0.61564448  0.81686337  1
  O  O37  1  0.81366517  0.67122452  0.16954788  1
  O  O38  1  0.90058992  0.47113113  0.33565319  1
  O  O39  1  0.99786525  0.24872516  0.06597956  1
  O  O40  1  0.91599899  0.33559445  0.83964605  1
  O  O41  1  0.66162598  0.81164922  0.66837097  1
  O  O42  1  0.62812818  0.89732909  0.33086617  1
  O  O43  1  0.80514235  0.51655189  0.66850076  1
  O  O44  1  0.66321466  0.65317145  0.02449123  1
  O  O45  1  0.64404520  0.66908691  0.52137571  1
  O  O46  1  0.66771471  0.51545764  0.17661092  1
  O  O47  1  0.47751639  0.90647735  0.82450763  1
  O  O48  1  0.51576534  0.81674469  0.16831774  1
  O  O49  1  0.73855225  0.33841773  0.33632175  1
  O  O50  1  0.78743008  0.20953973  0.74881174  1
  O  O51  1  0.76306534  0.22596669  0.56771639  1
  O  O52  1  0.75441515  0.24293300  0.92868934  1
  O  O53  1  0.61923077  0.48013415  0.81935988  1
  O  O54  1  0.50744137  0.66916285  0.66949388  1
  O  O55  1  0.66082091  0.25525700  0.15811401  1
  O  O56  1  0.48246940  0.61973645  0.32744571  1
  O  O57  1  0.34577782  0.91367920  0.33546594  1
  O  O58  1  0.79480636  0.99065641  0.24117183  1
  O  O59  1  0.78500571  0.00782243  0.42071598  1
  O  O60  1  0.21113619  0.99368128  0.57924331  1
  O  O61  1  0.65164036  0.08688371  0.66230800  1
  O  O62  1  0.51773232  0.38098038  0.67020938  1
  O  O63  1  0.34224646  0.74617179  0.83707499  1
  O  O64  1  0.49147394  0.32952235  0.32955886  1
  O  O65  1  0.38021529  0.52352476  0.18126767  1
  O  O66  1  0.24186665  0.76941508  0.07716223  1
  O  O67  1  0.24635246  0.76837739  0.43691945  1
  O  O68  1  0.20636221  0.78676987  0.25782609  1
  O  O69  1  0.26015471  0.66177566  0.66430501  1
  O  O70  1  0.48708064  0.18092197  0.83022218  1
  O  O71  1  0.52131533  0.09618363  0.17495917  1
  O  O72  1  0.33910388  0.47654205  0.82173761  1
  O  O73  1  0.34513692  0.33387504  0.97624606  1
  O  O74  1  0.35637888  0.32895519  0.47832818  1
  O  O75  1  0.19367378  0.48135124  0.33181456  1
  O  O76  1  0.37097868  0.10287407  0.66721419  1
  O  O77  1  0.33848769  0.18602048  0.33070168  1
  O  O78  1  0.08362697  0.66434286  0.16105096  1
  O  O79  1  0.01246437  0.78689951  0.75647542  1
  O  O80  1  0.99231672  0.75634948  0.93594906  1
  O  O81  1  0.09769790  0.53059017  0.66396499  1
  O  O82  1  0.18717840  0.32804711  0.83156781  1
  O  O83  1  0.09155218  0.38454287  0.18171051  1
  O  O84  1  0.24745679  0.08715033  0.16154342  1
  O  O85  1  0.24632846  0.99778063  0.93490923  1
  O  O86  1  0.20317408  0.01247827  0.75817396  1
  O  O87  1  0.08212761  0.25988272  0.66217752  1
  O  O88  1  0.99254201  0.20100815  0.42588761  1
  O  O89  1  0.98686586  0.21393536  0.24416553  1
