# generated using pymatgen
data_Zr32N17O39
_symmetry_space_group_name_H-M   'P 1'
_cell_length_a   8.90171445
_cell_length_b   8.90022461
_cell_length_c   14.58841562
_cell_angle_alpha   90.00107518
_cell_angle_beta   90.01026022
_cell_angle_gamma   110.04736142
_symmetry_Int_Tables_number   1
_chemical_formula_structural   Zr32N17O39
_chemical_formula_sum   'Zr32 N17 O39'
_cell_volume   1085.76973099
_cell_formula_units_Z   1
loop_
 _symmetry_equiv_pos_site_id
 _symmetry_equiv_pos_as_xyz
  1  'x, y, z'
loop_
 _atom_site_type_symbol
 _atom_site_label
 _atom_site_symmetry_multiplicity
 _atom_site_fract_x
 _atom_site_fract_y
 _atom_site_fract_z
 _atom_site_occupancy
  Zr  Zr0  1  0.38031571  0.10821286  0.10322540  1
  Zr  Zr1  1  0.00698048  0.99604623  0.00003095  1
  Zr  Zr2  1  0.71139981  0.21189478  0.25000041  1
  Zr  Zr3  1  0.49646295  0.49761820  0.00020878  1
  Zr  Zr4  1  0.85270767  0.63903891  0.13745220  1
  Zr  Zr5  1  0.49506914  0.45132881  0.24977187  1
  Zr  Zr6  1  0.13970531  0.35449166  0.13688714  1
  Zr  Zr7  1  0.61169913  0.88434613  0.10577457  1
  Zr  Zr8  1  0.85294981  0.63968781  0.36283952  1
  Zr  Zr9  1  0.38431533  0.10980255  0.39273697  1
  Zr  Zr10  1  0.95280361  0.99605075  0.24966009  1
  Zr  Zr11  1  0.22489026  0.73132191  0.02014261  1
  Zr  Zr12  1  0.72373818  0.22373831  0.52155756  1
  Zr  Zr13  1  0.13920193  0.35293415  0.36276561  1
  Zr  Zr14  1  0.88396533  0.60942348  0.60701220  1
  Zr  Zr15  1  0.71137925  0.21217779  0.74998440  1
  Zr  Zr16  1  0.99791305  0.99764350  0.50002209  1
  Zr  Zr17  1  0.49730430  0.49733849  0.49999178  1
  Zr  Zr18  1  0.21088511  0.71066918  0.24983829  1
  Zr  Zr19  1  0.60956210  0.88376607  0.39307170  1
  Zr  Zr20  1  0.35361084  0.13993074  0.63792350  1
  Zr  Zr21  1  0.99539424  0.95275460  0.75013943  1
  Zr  Zr22  1  0.22401464  0.72430797  0.47852277  1
  Zr  Zr23  1  0.72541197  0.22352732  0.97861767  1
  Zr  Zr24  1  0.10940781  0.38387717  0.60703050  1
  Zr  Zr25  1  0.63966856  0.85297208  0.63736387  1
  Zr  Zr26  1  0.34956677  0.13595155  0.86619244  1
  Zr  Zr27  1  0.88173239  0.60884606  0.89358144  1
  Zr  Zr28  1  0.45251869  0.49457895  0.75034946  1
  Zr  Zr29  1  0.64085437  0.85474496  0.86342223  1
  Zr  Zr30  1  0.21271049  0.71281494  0.74993520  1
  Zr  Zr31  1  0.11003785  0.38285788  0.89432973  1
  N  N32  1  0.63336912  0.13334547  0.11334342  1
  N  N33  1  0.96535179  0.24672868  0.25052315  1
  N  N34  1  0.74594102  0.46593135  0.25039988  1
  N  N35  1  0.99703399  0.77043831  0.25050054  1
  N  N36  1  0.63453257  0.13394150  0.38683799  1
  N  N37  1  0.27047896  0.49682461  0.25025343  1
  N  N38  1  0.85642298  0.35649906  0.63993972  1
  N  N39  1  0.35721142  0.85553623  0.14160284  1
  N  N40  1  0.85624058  0.35638002  0.85985145  1
  N  N41  1  0.35614926  0.85592332  0.35982975  1
  N  N42  1  0.49828239  0.27120313  0.74918155  1
  N  N43  1  0.13462302  0.63466422  0.61332648  1
  N  N44  1  0.77023621  0.99698397  0.74952381  1
  N  N45  1  0.46595267  0.74599695  0.74992464  1
  N  N46  1  0.24583484  0.96573397  0.74905535  1
  N  N47  1  0.13246698  0.63267026  0.88641606  1
  N  N48  1  0.24768740  0.98197464  0.98384447  1
  O  O49  1  0.98283936  0.24955627  0.01620777  1
  O  O50  1  0.74936428  0.48199301  0.01675201  1
  O  O51  1  0.98600179  0.74548064  0.01592308  1
  O  O52  1  0.38644019  0.35360576  0.11997859  1
  O  O53  1  0.44682984  0.19111434  0.25094923  1
  O  O54  1  0.13171559  0.10132467  0.13643678  1
  O  O55  1  0.98228677  0.24895295  0.48383843  1
  O  O56  1  0.85534778  0.88631420  0.12028266  1
  O  O57  1  0.25026904  0.49031985  0.01616617  1
  O  O58  1  0.59925215  0.63170497  0.13356051  1
  O  O59  1  0.13188033  0.09948765  0.36692900  1
  O  O60  1  0.74888940  0.48236803  0.48387432  1
  O  O61  1  0.99046420  0.74985921  0.48375257  1
  O  O62  1  0.38629236  0.35432901  0.38002944  1
  O  O63  1  0.59935835  0.63186149  0.36686652  1
  O  O64  1  0.56808385  0.06783459  0.62755356  1
  O  O65  1  0.06823760  0.56908156  0.12861012  1
  O  O66  1  0.69059634  0.94621107  0.24984311  1
  O  O67  1  0.49049121  0.24999228  0.51619599  1
  O  O68  1  0.85396365  0.88659352  0.37985107  1
  O  O69  1  0.24979567  0.49061017  0.48381812  1
  O  O70  1  0.88659378  0.85393181  0.62016195  1
  O  O71  1  0.57003366  0.06927124  0.87106410  1
  O  O72  1  0.06777565  0.56780328  0.37247265  1
  O  O73  1  0.94610141  0.68979939  0.74978843  1
  O  O74  1  0.63209161  0.59937128  0.63329207  1
  O  O75  1  0.75003280  0.99040254  0.51635034  1
  O  O76  1  0.35396961  0.38692661  0.62023261  1
  O  O77  1  0.09918617  0.13232364  0.63301160  1
  O  O78  1  0.48237531  0.74906591  0.51609466  1
  O  O79  1  0.63161470  0.59927486  0.86660197  1
  O  O80  1  0.88670482  0.85391929  0.87930257  1
  O  O81  1  0.49504412  0.25369925  0.98261862  1
  O  O82  1  0.09693226  0.13335157  0.86393191  1
  O  O83  1  0.24886873  0.98225646  0.51607233  1
  O  O84  1  0.19040371  0.44652556  0.74997883  1
  O  O85  1  0.35341240  0.38578078  0.87979567  1
  O  O86  1  0.74863772  0.99036164  0.98379421  1
  O  O87  1  0.48266949  0.74870313  0.98368049  1
