# generated using pymatgen
data_Li7Mn2(CoO4)3
_symmetry_space_group_name_H-M   'P 1'
_cell_length_a   3.03464209
_cell_length_b   14.54015187
_cell_length_c   5.06578046
_cell_angle_alpha   87.29241354
_cell_angle_beta   91.62128141
_cell_angle_gamma   81.53886664
_symmetry_Int_Tables_number   1
_chemical_formula_structural   Li7Mn2(CoO4)3
_chemical_formula_sum   'Li7 Mn2 Co3 O12'
_cell_volume   220.70307416
_cell_formula_units_Z   1
loop_
 _symmetry_equiv_pos_site_id
 _symmetry_equiv_pos_as_xyz
  1  'x, y, z'
loop_
 _atom_site_type_symbol
 _atom_site_label
 _atom_site_symmetry_multiplicity
 _atom_site_fract_x
 _atom_site_fract_y
 _atom_site_fract_z
 _atom_site_occupancy
  Li  Li0  1  0.83333300  0.16666700  0.33333300  1
  Li  Li1  1  0.16252108  0.33436313  0.16828781  1
  Li  Li2  1  0.49249267  0.50045711  0.00376879  1
  Li  Li3  1  0.83333300  0.66666700  0.83333300  1
  Li  Li4  1  0.17417433  0.83287589  0.66289821  1
  Li  Li5  1  0.50414592  0.99896987  0.49837919  1
  Li  Li6  1  0.33333300  0.66666700  0.33333300  1
  Mn  Mn7  1  -0.00206436  0.99783129  0.00343553  1
  Mn  Mn8  1  0.66873136  0.33550171  0.66323147  1
  Co  Co9  1  0.33333300  0.16666700  0.83333300  1
  Co  Co10  1  0.98163541  0.50880321  0.49554855  1
  Co  Co11  1  0.68503159  0.82452979  0.17111845  1
  O  O12  1  0.37635413  0.08515304  0.14772349  1
  O  O13  1  0.76257080  0.25014270  0.97705017  1
  O  O14  1  0.05413095  0.42121114  0.80062385  1
  O  O15  1  0.39037553  0.57732516  0.65698226  1
  O  O16  1  0.74023853  0.75912236  0.46728284  1
  O  O17  1  0.06138155  0.91461167  0.31538049  1
  O  O18  1  0.29031187  0.24818096  0.51894251  1
  O  O19  1  0.60528545  0.41872133  0.35128651  1
  O  O20  1  0.92642847  0.57421064  0.19938416  1
  O  O21  1  0.27629047  0.75600884  0.00968374  1
  O  O22  1  0.61253605  0.91212186  0.86604315  1
  O  O23  1  0.90409620  0.08319030  0.68961683  1
