# generated using pymatgen
data_Li(CuO)3
_symmetry_space_group_name_H-M   'P 1'
_cell_length_a   3.96594822
_cell_length_b   3.96594822
_cell_length_c   18.61831572
_cell_angle_alpha   83.88602295
_cell_angle_beta   83.88602295
_cell_angle_gamma   90.00000000
_symmetry_Int_Tables_number   1
_chemical_formula_structural   Li(CuO)3
_chemical_formula_sum   'Li4 Cu12 O12'
_cell_volume   289.50177805
_cell_formula_units_Z   4
loop_
 _symmetry_equiv_pos_site_id
 _symmetry_equiv_pos_as_xyz
  1  'x, y, z'
loop_
 _atom_site_type_symbol
 _atom_site_label
 _atom_site_symmetry_multiplicity
 _atom_site_fract_x
 _atom_site_fract_y
 _atom_site_fract_z
 _atom_site_occupancy
  Li  Li0  1  0.31397492  0.81397492  0.37204917  1
  Li  Li1  1  0.56433475  0.06433475  0.87133149  1
  Li  Li2  1  0.68566525  0.18566525  0.62866851  1
  Li  Li3  1  0.93602508  0.43602508  0.12795083  1
  Cu  Cu4  1  0.00007946  0.00007946  -0.00015991  1
  Cu  Cu5  1  0.50007946  0.50007946  -0.00015991  1
  Cu  Cu6  1  0.12500000  0.12500000  0.75000000  1
  Cu  Cu7  1  0.24992054  0.24992054  0.50015991  1
  Cu  Cu8  1  0.37500000  0.37500000  0.25000000  1
  Cu  Cu9  1  0.05214127  0.55214127  0.89571747  1
  Cu  Cu10  1  0.19785873  0.69785873  0.60428253  1
  Cu  Cu11  1  0.44837061  0.94837061  0.10325878  1
  Cu  Cu12  1  0.80162939  0.30162939  0.39674122  1
  Cu  Cu13  1  0.62500000  0.62500000  0.75000000  1
  Cu  Cu14  1  0.87500000  0.87500000  0.25000000  1
  Cu  Cu15  1  0.74992054  0.74992054  0.50015991  1
  O  O16  1  0.30056752  0.30056752  0.39886596  1
  O  O17  1  0.19940762  0.19940762  0.60118576  1
  O  O18  1  0.05059238  0.05059238  0.89881424  1
  O  O19  1  0.44943248  0.44943248  0.10113404  1
  O  O20  1  0.12500000  0.62500000  0.75000000  1
  O  O21  1  0.37132437  0.87132437  0.25735026  1
  O  O22  1  0.62500000  0.12500000  0.75000000  1
  O  O23  1  0.87867563  0.37867563  0.24264974  1
  O  O24  1  0.55059238  0.55059238  0.89881424  1
  O  O25  1  0.69940762  0.69940762  0.60118576  1
  O  O26  1  0.94943248  0.94943248  0.10113404  1
  O  O27  1  0.80056752  0.80056752  0.39886596  1
