# generated using pymatgen
data_Li5V3P8O29
_symmetry_space_group_name_H-M   'P 1'
_cell_length_a   9.80117286
_cell_length_b   9.80556135
_cell_length_c   13.88706187
_cell_angle_alpha   90.13508645
_cell_angle_beta   90.01722203
_cell_angle_gamma   59.99412399
_symmetry_Int_Tables_number   1
_chemical_formula_structural   Li5V3P8O29
_chemical_formula_sum   'Li10 V6 P16 O58'
_cell_volume   1155.75122805
_cell_formula_units_Z   2
loop_
 _symmetry_equiv_pos_site_id
 _symmetry_equiv_pos_as_xyz
  1  'x, y, z'
loop_
 _atom_site_type_symbol
 _atom_site_label
 _atom_site_symmetry_multiplicity
 _atom_site_fract_x
 _atom_site_fract_y
 _atom_site_fract_z
 _atom_site_occupancy
  Li  Li0  1  0.77135439  0.90343034  0.56112173  1
  Li  Li1  1  0.90415235  0.32360583  0.56081046  1
  Li  Li2  1  0.77068310  0.31862036  0.05995103  1
  Li  Li3  1  0.32384959  0.90362989  0.05952813  1
  Li  Li4  1  0.67484458  0.22961893  0.43869887  1
  Li  Li5  1  0.32452286  0.77134737  0.56111030  1
  Li  Li6  1  0.22483779  0.67849955  0.94207035  1
  Li  Li7  1  0.09550646  0.67594948  0.43803825  1
  Li  Li8  1  0.22778114  0.09529706  0.43993832  1
  Li  Li9  1  0.09360954  0.23030085  0.93971800  1
  V  V10  1  0.56739472  0.43236631  0.24814584  1
  V  V11  1  0.43332367  0.56665698  0.75153096  1
  V  V12  1  0.57014531  0.00152966  0.75587404  1
  V  V13  1  0.43696368  0.00152981  0.24810244  1
  V  V14  1  0.99789163  0.57007201  0.24588022  1
  V  V15  1  0.99775493  0.43518332  0.74995479  1
  P  P16  1  0.91491285  0.76908287  0.84333075  1
  P  P17  1  0.77022141  0.91372454  0.34201338  1
  P  P18  1  0.91230853  0.32046592  0.34207657  1
  P  P19  1  0.66692169  0.66631434  0.12669484  1
  P  P20  1  0.66463022  0.66979780  0.62661175  1
  P  P21  1  0.76920151  0.31823508  0.84331137  1
  P  P22  1  0.68063381  0.23086981  0.65856572  1
  P  P23  1  0.31785565  0.91318400  0.84203380  1
  P  P24  1  0.68930346  0.08310775  0.15378733  1
  P  P25  1  0.32072377  0.76957590  0.34212542  1
  P  P26  1  0.23002274  0.68177160  0.15857095  1
  P  P27  1  0.33295789  0.33428846  0.37289168  1
  P  P28  1  0.33091079  0.33402679  0.87382333  1
  P  P29  1  0.08726725  0.68077121  0.65727579  1
  P  P30  1  0.23296152  0.08789816  0.65796437  1
  P  P31  1  0.08839101  0.23070931  0.15822672  1
  O  O32  1  0.00123950  0.75776341  0.56566294  1
  O  O33  1  0.91657400  0.74869623  0.34203688  1
  O  O34  1  0.76494463  0.99331663  0.06592675  1
  O  O35  1  0.74472245  0.91458576  0.83606396  1
  O  O36  1  0.90320678  0.61992057  0.82577117  1
  O  O37  1  0.80943082  0.67157344  0.17150924  1
  O  O38  1  0.90491989  0.47830864  0.32511356  1
  O  O39  1  0.00075503  0.23918660  0.06767885  1
  O  O40  1  0.91717064  0.33755449  0.83888427  1
  O  O41  1  0.67093236  0.81775320  0.66978582  1
  O  O42  1  0.61826663  0.90395092  0.32246295  1
  O  O43  1  0.81150912  0.51514242  0.66657102  1
  O  O44  1  0.65636063  0.67025131  0.01962902  1
  O  O45  1  0.66651242  0.67321900  0.51894083  1
  O  O46  1  0.67254520  0.51289791  0.16697045  1
  O  O47  1  0.47910405  0.90269179  0.82358983  1
  O  O48  1  0.51131594  0.81748442  0.16990392  1
  O  O49  1  0.74627715  0.33762328  0.34099848  1
  O  O50  1  0.79110113  0.20903088  0.75032450  1
  O  O51  1  0.76129230  0.23688712  0.56769570  1
  O  O52  1  0.75942982  0.24615272  0.93474572  1
  O  O53  1  0.61859096  0.47927887  0.82203901  1
  O  O54  1  0.51126583  0.67693784  0.66649672  1
  O  O55  1  0.66345462  0.25243797  0.15921481  1
  O  O56  1  0.47935741  0.62123095  0.32495024  1
  O  O57  1  0.33716310  0.91946083  0.34029519  1
  O  O58  1  0.78990816  0.00457395  0.25244643  1
  O  O59  1  0.75336370  0.00231263  0.43395792  1
  O  O60  1  0.24308337  0.99873909  0.56744786  1
  O  O61  1  0.66433418  0.08069091  0.66058966  1
  O  O62  1  0.52094036  0.37836734  0.67474452  1
  O  O63  1  0.33530923  0.74827133  0.84270622  1
  O  O64  1  0.48707801  0.32491098  0.33352307  1
  O  O65  1  0.38162077  0.52166323  0.17647126  1
  O  O66  1  0.24437352  0.75798945  0.06842141  1
  O  O67  1  0.23967948  0.76239239  0.43256120  1
  O  O68  1  0.20907343  0.79271374  0.25035909  1
  O  O69  1  0.25376257  0.66335269  0.65992898  1
  O  O70  1  0.48194717  0.18464657  0.82616306  1
  O  O71  1  0.52547324  0.09291400  0.17753803  1
  O  O72  1  0.32802720  0.48540643  0.83408848  1
  O  O73  1  0.33635081  0.32699074  0.98087017  1
  O  O74  1  0.33296250  0.32536030  0.48046941  1
  O  O75  1  0.18566425  0.48607955  0.33330746  1
  O  O76  1  0.38391945  0.09441549  0.67738134  1
  O  O77  1  0.32839360  0.18317522  0.32921596  1
  O  O78  1  0.08592968  0.66009407  0.16146991  1
  O  O79  1  0.99598627  0.79324095  0.74677923  1
  O  O80  1  0.00580076  0.76473409  0.92915506  1
  O  O81  1  0.09853188  0.52082691  0.67496793  1
  O  O82  1  0.18604126  0.32575725  0.83296898  1
  O  O83  1  0.10371775  0.37617783  0.17598745  1
  O  O84  1  0.25460681  0.07967119  0.15990271  1
  O  O85  1  0.24248872  0.00353051  0.93265459  1
  O  O86  1  0.20851224  0.00009374  0.74996438  1
  O  O87  1  0.08421876  0.25307571  0.65823144  1
  O  O88  1  0.00040609  0.24028445  0.43260667  1
  O  O89  1  0.99994149  0.20827881  0.25007476  1
