# generated using pymatgen
data_LiVF5
_symmetry_space_group_name_H-M   'P 1'
_cell_length_a   9.40229226
_cell_length_b   7.90552580
_cell_length_c   10.50088953
_cell_angle_alpha   90.00000000
_cell_angle_beta   95.82676611
_cell_angle_gamma   90.00000000
_symmetry_Int_Tables_number   1
_chemical_formula_structural   LiVF5
_chemical_formula_sum   'Li8 V8 F40'
_cell_volume   776.49908863
_cell_formula_units_Z   8
loop_
 _symmetry_equiv_pos_site_id
 _symmetry_equiv_pos_as_xyz
  1  'x, y, z'
loop_
 _atom_site_type_symbol
 _atom_site_label
 _atom_site_symmetry_multiplicity
 _atom_site_fract_x
 _atom_site_fract_y
 _atom_site_fract_z
 _atom_site_occupancy
  Li  Li0  1  0.12742065  0.63446516  0.91190494  1
  Li  Li1  1  0.13637971  0.65805892  0.47263100  1
  Li  Li2  1  0.37257935  0.13446516  0.58809506  1
  Li  Li3  1  0.36362029  0.15805892  0.02736900  1
  Li  Li4  1  0.63637971  0.84194108  0.97263100  1
  Li  Li5  1  0.62742065  0.86553484  0.41190494  1
  Li  Li6  1  0.86362029  0.34194108  0.52736900  1
  Li  Li7  1  0.87257935  0.36553484  0.08809506  1
  V  V8  1  0.01623610  0.20034410  0.81681082  1
  V  V9  1  0.12437086  0.22515173  0.33272191  1
  V  V10  1  0.37562914  0.72515173  0.16727809  1
  V  V11  1  0.48376390  0.70034410  0.68318918  1
  V  V12  1  0.51623610  0.29965590  0.31681082  1
  V  V13  1  0.62437086  0.27484827  0.83272191  1
  V  V14  1  0.87562914  0.77484827  0.66727809  1
  V  V15  1  0.98376390  0.79965590  0.18318918  1
  F  F16  1  0.02987406  0.24552027  0.64823255  1
  F  F17  1  0.05737995  0.77016493  0.61338187  1
  F  F18  1  0.04993307  0.80960818  0.02599434  1
  F  F19  1  0.10600901  0.40470600  0.86258972  1
  F  F20  1  0.07475685  0.01683252  0.23335492  1
  F  F21  1  0.06903152  0.33758871  0.18500262  1
  F  F22  1  0.18659040  0.09247768  0.85850629  1
  F  F23  1  0.16436845  0.42677571  0.42105711  1
  F  F24  1  0.20078653  0.09388903  0.46581186  1
  F  F25  1  0.18494946  0.70401713  0.23363273  1
  F  F26  1  0.31340960  0.59247768  0.64149371  1
  F  F27  1  0.31505054  0.20401713  0.26636727  1
  F  F28  1  0.29921347  0.59388903  0.03418814  1
  F  F29  1  0.33563155  0.92677571  0.07894289  1
  F  F30  1  0.39399099  0.90470600  0.63741028  1
  F  F31  1  0.44262005  0.27016493  0.88661813  1
  F  F32  1  0.43096848  0.83758871  0.31499738  1
  F  F33  1  0.47012594  0.74552027  0.85176745  1
  F  F34  1  0.42524315  0.51683252  0.26664508  1
  F  F35  1  0.45006693  0.30960818  0.47400566  1
  F  F36  1  0.54993307  0.69039182  0.52599434  1
  F  F37  1  0.57475685  0.48316748  0.73335492  1
  F  F38  1  0.52987406  0.25447973  0.14823255  1
  F  F39  1  0.56903152  0.16241129  0.68500262  1
  F  F40  1  0.55737995  0.72983507  0.11338187  1
  F  F41  1  0.60600901  0.09529400  0.36258972  1
  F  F42  1  0.66436845  0.07322429  0.92105711  1
  F  F43  1  0.70078653  0.40611097  0.96581186  1
  F  F44  1  0.68494946  0.79598287  0.73363273  1
  F  F45  1  0.68659040  0.40752232  0.35850629  1
  F  F46  1  0.81505054  0.29598287  0.76636727  1
  F  F47  1  0.79921347  0.90611097  0.53418814  1
  F  F48  1  0.83563155  0.57322429  0.57894289  1
  F  F49  1  0.81340960  0.90752232  0.14149371  1
  F  F50  1  0.93096848  0.66241129  0.81499738  1
  F  F51  1  0.92524315  0.98316748  0.76664508  1
  F  F52  1  0.89399099  0.59529400  0.13741028  1
  F  F53  1  0.95006693  0.19039182  0.97400566  1
  F  F54  1  0.94262005  0.22983507  0.38661813  1
  F  F55  1  0.97012594  0.75447973  0.35176745  1
