# generated using pymatgen
data_Na4Mn5O12
_symmetry_space_group_name_H-M   'P 1'
_cell_length_a   6.10301199
_cell_length_b   6.10301199
_cell_length_c   14.08966720
_cell_angle_alpha   104.77436918
_cell_angle_beta   75.22563082
_cell_angle_gamma   90.46029562
_symmetry_Int_Tables_number   1
_chemical_formula_structural   Na4Mn5O12
_chemical_formula_sum   'Na8 Mn10 O24'
_cell_volume   489.75347456
_cell_formula_units_Z   2
loop_
 _symmetry_equiv_pos_site_id
 _symmetry_equiv_pos_as_xyz
  1  'x, y, z'
loop_
 _atom_site_type_symbol
 _atom_site_label
 _atom_site_symmetry_multiplicity
 _atom_site_fract_x
 _atom_site_fract_y
 _atom_site_fract_z
 _atom_site_occupancy
  Na  Na0  1  0.99481943  0.98076909  0.99403197  1
  Na  Na1  1  0.40347608  0.07013284  0.16667063  1
  Na  Na2  1  0.31410709  0.66148845  0.33930084  1
  Na  Na3  1  0.04168334  0.20833432  0.41666183  1
  Na  Na4  1  0.76923091  0.75518057  0.49403197  1
  Na  Na5  1  0.67986716  0.34652392  0.66667063  1
  Na  Na6  1  0.08851155  0.43589291  0.83930084  1
  Na  Na7  1  0.54166568  0.70831666  0.91666183  1
  Mn  Mn8  1  0.69839060  0.52005776  0.08472817  1
  Mn  Mn9  1  0.20239166  0.52122916  0.08561355  1
  Mn  Mn10  1  0.85339507  0.36507037  0.24860284  1
  Mn  Mn11  1  0.85455912  0.86906426  0.24772311  1
  Mn  Mn12  1  0.54167774  0.20834479  0.41667048  1
  Mn  Mn13  1  0.22994224  0.05160940  0.58472817  1
  Mn  Mn14  1  0.22877084  0.54760834  0.58561355  1
  Mn  Mn15  1  0.38492963  0.89660493  0.74860284  1
  Mn  Mn16  1  0.88093574  0.89544088  0.74772311  1
  Mn  Mn17  1  0.54165521  0.20832226  0.91667048  1
  O  O18  1  0.45688755  0.29704671  0.06842530  1
  O  O19  1  0.44524655  0.71495682  0.09511673  1
  O  O20  1  0.93859735  0.32030616  0.09827002  1
  O  O21  1  0.94365904  0.73553366  0.09446647  1
  O  O22  1  0.65363783  0.60526617  0.23505983  1
  O  O23  1  0.06886382  0.61033344  0.23886846  1
  O  O24  1  0.63038245  0.12356907  0.26491442  1
  O  O25  1  0.04829111  0.11191497  0.23820856  1
  O  O26  1  0.76948179  0.42213766  0.39080805  1
  O  O27  1  0.76994090  0.96758813  0.38917726  1
  O  O28  1  0.31341570  0.44909890  0.44415977  1
  O  O29  1  0.31387760  0.99454010  0.44252270  1
  O  O30  1  0.03504318  0.30475345  0.59511673  1
  O  O31  1  0.45295329  0.29311245  0.56842530  1
  O  O32  1  0.01446634  0.80634096  0.59446647  1
  O  O33  1  0.42969384  0.81140265  0.59827002  1
  O  O34  1  0.14473383  0.09636217  0.73505983  1
  O  O35  1  0.13966656  0.68113618  0.73886846  1
  O  O36  1  0.62643093  0.11961755  0.76491442  1
  O  O37  1  0.63808503  0.70170889  0.73820856  1
  O  O38  1  0.32786234  0.98051821  0.89080805  1
  O  O39  1  0.78241187  0.98005910  0.88917726  1
  O  O40  1  0.75545990  0.43612240  0.94252270  1
  O  O41  1  0.30090110  0.43658430  0.94415977  1
