# generated using pymatgen
data_Li3Co3OF7
_symmetry_space_group_name_H-M   'P 1'
_cell_length_a   6.06327322
_cell_length_b   6.07043961
_cell_length_c   6.07043961
_cell_angle_alpha   60.00000000
_cell_angle_beta   59.96089423
_cell_angle_gamma   59.96089423
_symmetry_Int_Tables_number   1
_chemical_formula_structural   Li3Co3OF7
_chemical_formula_sum   'Li3 Co3 O1 F7'
_cell_volume   157.89757811
_cell_formula_units_Z   1
loop_
 _symmetry_equiv_pos_site_id
 _symmetry_equiv_pos_as_xyz
  1  'x, y, z'
loop_
 _atom_site_type_symbol
 _atom_site_label
 _atom_site_symmetry_multiplicity
 _atom_site_fract_x
 _atom_site_fract_y
 _atom_site_fract_z
 _atom_site_occupancy
  Li  Li0  1  0.00542550  0.99819117  0.99819117  1
  Li  Li1  1  0.23413215  0.25528895  0.25528895  1
  Li  Li2  1  0.12197669  0.62600777  0.62600777  1
  Co  Co3  1  0.63725039  0.61209748  0.13855365  1
  Co  Co4  1  0.63725039  0.13855365  0.61209748  1
  Co  Co5  1  0.63725039  0.61209748  0.61209748  1
  O  O6  1  0.84566621  0.38477793  0.38477793  1
  F  F7  1  0.37078986  0.38618831  0.38618831  1
  F  F8  1  0.37078986  0.85683351  0.38618831  1
  F  F9  1  0.37078986  0.38618831  0.85683351  1
  F  F10  1  0.86892321  0.39528121  0.86789779  1
  F  F11  1  0.86892321  0.86789779  0.39528121  1
  F  F12  1  0.86892321  0.86789779  0.86789779  1
  F  F13  1  0.41190607  0.86269764  0.86269764  1
