# generated using pymatgen
data_Li2VF6
_symmetry_space_group_name_H-M   'P 1'
_cell_length_a   5.20005499
_cell_length_b   5.23021812
_cell_length_c   7.63901643
_cell_angle_alpha   90.00000000
_cell_angle_beta   89.65504004
_cell_angle_gamma   90.00000000
_symmetry_Int_Tables_number   1
_chemical_formula_structural   Li2VF6
_chemical_formula_sum   'Li4 V2 F12'
_cell_volume   207.75778677
_cell_formula_units_Z   2
loop_
 _symmetry_equiv_pos_site_id
 _symmetry_equiv_pos_as_xyz
  1  'x, y, z'
loop_
 _atom_site_type_symbol
 _atom_site_label
 _atom_site_symmetry_multiplicity
 _atom_site_fract_x
 _atom_site_fract_y
 _atom_site_fract_z
 _atom_site_occupancy
  Li  Li0  1  0.99825330  0.01168873  0.49740776  1
  Li  Li1  1  0.49192371  0.95656316  0.22536252  1
  Li  Li2  1  0.49825330  0.48831127  0.99740776  1
  Li  Li3  1  0.99192371  0.54343684  0.72536252  1
  V  V4  1  0.00117029  -0.00001489  0.00058814  1
  V  V5  1  0.50117029  0.50001489  0.50058814  1
  F  F6  1  0.12762463  0.05828286  0.23206505  1
  F  F7  1  0.14106642  0.30769485  0.92582701  1
  F  F8  1  0.18508449  0.32459254  0.55905547  1
  F  F9  1  0.30580815  0.81514118  0.96009719  1
  F  F10  1  0.32644490  0.78618800  0.56790158  1
  F  F11  1  0.40782911  0.57855800  0.26698830  1
  F  F12  1  0.62762463  0.44171714  0.73206505  1
  F  F13  1  0.64106642  0.19230515  0.42582701  1
  F  F14  1  0.68508449  0.17540746  0.05905547  1
  F  F15  1  0.80580815  0.68485882  0.46009719  1
  F  F16  1  0.82644490  0.71381200  0.06790158  1
  F  F17  1  0.90782911  0.92144200  0.76698830  1
