# generated using pymatgen
data_LiLa5Ti8O24
_symmetry_space_group_name_H-M   'P 1'
_cell_length_a   5.50806275
_cell_length_b   9.60376052
_cell_length_c   9.57214645
_cell_angle_alpha   70.13825580
_cell_angle_beta   89.92634713
_cell_angle_gamma   90.40928986
_symmetry_Int_Tables_number   1
_chemical_formula_structural   LiLa5Ti8O24
_chemical_formula_sum   'Li1 La5 Ti8 O24'
_cell_volume   476.21260074
_cell_formula_units_Z   1
loop_
 _symmetry_equiv_pos_site_id
 _symmetry_equiv_pos_as_xyz
  1  'x, y, z'
loop_
 _atom_site_type_symbol
 _atom_site_label
 _atom_site_symmetry_multiplicity
 _atom_site_fract_x
 _atom_site_fract_y
 _atom_site_fract_z
 _atom_site_occupancy
  Li  Li0  1  0.17391295  0.69583926  0.88799751  1
  La  La1  1  0.25297789  0.87378887  0.13131157  1
  La  La2  1  0.74688227  0.62612456  0.37403807  1
  La  La3  1  0.25767267  0.37629000  0.62938435  1
  La  La4  1  0.74897104  0.13053683  0.87736043  1
  La  La5  1  0.25498364  0.11986636  0.38119197  1
  Ti  Ti6  1  0.75586577  0.51084186  0.76302992  1
  Ti  Ti7  1  0.73607269  0.74366645  0.99371736  1
  Ti  Ti8  1  0.74942754  0.25157747  0.49677023  1
  Ti  Ti9  1  0.75372719  0.00367302  0.25549202  1
  Ti  Ti10  1  0.25394635  0.74905571  0.51787163  1
  Ti  Ti11  1  0.25462901  0.26555515  0.00287589  1
  Ti  Ti12  1  0.24551883  0.50102985  0.23904779  1
  Ti  Ti13  1  0.24821325  0.99784633  0.74947315  1
  O  O14  1  0.71471565  0.85563115  0.14539551  1
  O  O15  1  0.48121531  0.89476802  0.37924318  1
  O  O16  1  0.49303603  0.61983310  0.11180870  1
  O  O17  1  0.29029512  0.64218899  0.35669573  1
  O  O18  1  0.81261705  0.63970108  0.86266885  1
  O  O19  1  0.78984620  0.13735884  0.36210540  1
  O  O20  1  0.49412399  0.88122850  0.88613906  1
  O  O21  1  0.50504710  0.61327637  0.61326066  1
  O  O22  1  0.48831624  0.11457329  0.12156407  1
  O  O23  1  0.00599961  0.87189695  0.36490670  1
  O  O24  1  0.48796263  0.37770826  0.38484266  1
  O  O25  1  0.00631136  0.63893028  0.12969606  1
  O  O26  1  0.22273456  0.34544632  0.15471038  1
  O  O27  1  0.22177759  0.86265895  0.63897416  1
  O  O28  1  0.71404425  0.35234323  0.64221699  1
  O  O29  1  0.48363562  0.11957006  0.60342220  1
  O  O30  1  0.99842325  0.39934227  0.39670143  1
  O  O31  1  0.49883570  0.38362874  0.87788263  1
  O  O32  1  0.00038019  0.10194254  0.10289833  1
  O  O33  1  0.00259520  0.89648018  0.89859426  1
  O  O34  1  0.00025208  0.59934006  0.59938199  1
  O  O35  1  0.29167538  0.14106232  0.85669515  1
  O  O36  1  0.00052094  0.36134765  0.86103524  1
  O  O37  1  0.00713984  0.13695213  0.62679576  1
