# generated using pymatgen
data_NaV4O10
_symmetry_space_group_name_H-M   'P 1'
_cell_length_a   10.63516188
_cell_length_b   8.35464969
_cell_length_c   14.58207830
_cell_angle_alpha   77.46200610
_cell_angle_beta   90.01315024
_cell_angle_gamma   105.82450190
_symmetry_Int_Tables_number   1
_chemical_formula_structural   NaV4O10
_chemical_formula_sum   'Na6 V24 O60'
_cell_volume   1214.42989010
_cell_formula_units_Z   6
loop_
 _symmetry_equiv_pos_site_id
 _symmetry_equiv_pos_as_xyz
  1  'x, y, z'
loop_
 _atom_site_type_symbol
 _atom_site_label
 _atom_site_symmetry_multiplicity
 _atom_site_fract_x
 _atom_site_fract_y
 _atom_site_fract_z
 _atom_site_occupancy
  Na  Na0  1  0.66239832  0.89961441  0.88068438  1
  Na  Na1  1  0.66244317  0.89693287  0.39819860  1
  Na  Na2  1  0.66692102  0.89025184  0.13872579  1
  Na  Na3  1  0.33760168  0.10038559  0.86931562  1
  Na  Na4  1  0.33307898  0.10974816  0.61127421  1
  Na  Na5  1  0.33755683  0.10306713  0.35180140  1
  V  V6  1  0.89600982  0.35065613  0.83225462  1
  V  V7  1  0.89128066  0.33031815  0.58330433  1
  V  V8  1  0.89747540  0.34661389  0.33034201  1
  V  V9  1  0.89024086  0.34632452  0.08120478  1
  V  V10  1  0.88894005  0.75411068  0.28224364  1
  V  V11  1  0.89642846  0.76709027  0.77731222  1
  V  V12  1  0.90908765  0.78716146  0.02578987  1
  V  V13  1  0.91103970  0.79308934  0.52681487  1
  V  V14  1  0.60141017  0.44047158  0.57022418  1
  V  V15  1  0.59553332  0.43895235  0.32000455  1
  V  V16  1  0.59451691  0.43697589  0.81991979  1
  V  V17  1  0.59019219  0.43158274  0.07214116  1
  V  V18  1  0.40548309  0.56302411  0.93008021  1
  V  V19  1  0.40980781  0.56841726  0.67785884  1
  V  V20  1  0.39858983  0.55952842  0.17977582  1
  V  V21  1  0.40446668  0.56104765  0.42999545  1
  V  V22  1  0.10357154  0.23290973  0.97268778  1
  V  V23  1  0.09091235  0.21283854  0.72421013  1
  V  V24  1  0.11105995  0.24588932  0.46775636  1
  V  V25  1  0.08896030  0.20691066  0.22318513  1
  V  V26  1  0.10871934  0.66968185  0.16669567  1
  V  V27  1  0.10252460  0.65338611  0.41965799  1
  V  V28  1  0.10975914  0.65367548  0.66879522  1
  V  V29  1  0.10399018  0.64934387  0.91774538  1
  O  O30  1  0.95126583  0.36630632  0.70457776  1
  O  O31  1  0.95209744  0.38469606  0.95329663  1
  O  O32  1  0.95124070  0.37284496  0.45507317  1
  O  O33  1  0.94930597  0.37170940  0.19973495  1
  O  O34  1  0.79152432  0.16234527  0.86075619  1
  O  O35  1  0.78953503  0.16129236  0.35353351  1
  O  O36  1  0.78852334  0.15620974  0.10132161  1
  O  O37  1  0.78833443  0.14349990  0.60479715  1
  O  O38  1  0.93742175  0.73076536  0.41302611  1
  O  O39  1  0.93486571  0.73387577  0.90638947  1
  O  O40  1  0.93855424  0.73755184  0.66016349  1
  O  O41  1  0.93567217  0.74209312  0.15258694  1
  O  O42  1  0.79158825  0.49060432  0.81271804  1
  O  O43  1  0.77982930  0.46693935  0.56831294  1
  O  O44  1  0.79253526  0.48967651  0.31322750  1
  O  O45  1  0.77642381  0.47552816  0.06547289  1
  O  O46  1  0.74760748  0.78764796  0.77396886  1
  O  O47  1  0.75515204  0.78912445  0.52765157  1
  O  O48  1  0.73882577  0.78401156  0.28031264  1
  O  O49  1  0.75508466  0.79793935  0.02191860  1
  O  O50  1  0.54745324  0.23273923  0.59465421  1
  O  O51  1  0.55196713  0.22922064  0.34863961  1
  O  O52  1  0.54065501  0.22537046  0.09745600  1
  O  O53  1  0.55099108  0.22750350  0.84557410  1
  O  O54  1  0.58016508  0.50866002  0.44108143  1
  O  O55  1  0.58251468  0.50588040  0.68300505  1
  O  O56  1  0.57737288  0.50312050  0.94136770  1
  O  O57  1  0.58122277  0.50602873  0.18276411  1
  O  O58  1  0.42262712  0.49687950  0.80863230  1
  O  O59  1  0.41877723  0.49397127  0.56723589  1
  O  O60  1  0.41983492  0.49133998  0.30891857  1
  O  O61  1  0.41748532  0.49411960  0.06699495  1
  O  O62  1  0.45934499  0.77462954  0.65254400  1
  O  O63  1  0.44900892  0.77249650  0.90442590  1
  O  O64  1  0.45254676  0.76726077  0.15534579  1
  O  O65  1  0.44803287  0.77077936  0.40136039  1
  O  O66  1  0.25239252  0.21235204  0.97603114  1
  O  O67  1  0.24484796  0.21087555  0.22234843  1
  O  O68  1  0.26117423  0.21598844  0.46968736  1
  O  O69  1  0.24491534  0.20206065  0.72808140  1
  O  O70  1  0.22357619  0.52447184  0.68452711  1
  O  O71  1  0.20746474  0.51032349  0.43677250  1
  O  O72  1  0.20841175  0.50939568  0.93728196  1
  O  O73  1  0.22017070  0.53306065  0.18168706  1
  O  O74  1  0.06513429  0.26612423  0.84361053  1
  O  O75  1  0.06432783  0.25790688  0.59741306  1
  O  O76  1  0.06257825  0.26923464  0.33697389  1
  O  O77  1  0.06144576  0.26244816  0.08983651  1
  O  O78  1  0.21147666  0.84379026  0.64867839  1
  O  O79  1  0.21046497  0.83870764  0.39646649  1
  O  O80  1  0.21166557  0.85650010  0.14520285  1
  O  O81  1  0.20847568  0.83765473  0.88924381  1
  O  O82  1  0.99600143  0.99537467  0.75354533  1
  O  O83  1  0.00029284  0.00457363  0.49941329  1
  O  O84  1  0.00399857  0.00462533  0.99645467  1
  O  O85  1  0.99970716  0.99542637  0.25058671  1
  O  O86  1  0.04875930  0.62715504  0.29492683  1
  O  O87  1  0.04790256  0.61530394  0.79670337  1
  O  O88  1  0.05069403  0.62829060  0.55026505  1
  O  O89  1  0.04873417  0.63369368  0.04542224  1
