# generated using pymatgen
data_Li4MnCu3(PO4)4
_symmetry_space_group_name_H-M   'P 1'
_cell_length_a   4.76839059
_cell_length_b   10.07679566
_cell_length_c   6.15863376
_cell_angle_alpha   90.00000000
_cell_angle_beta   90.00000000
_cell_angle_gamma   89.07953706
_symmetry_Int_Tables_number   1
_chemical_formula_structural   Li4MnCu3(PO4)4
_chemical_formula_sum   'Li4 Mn1 Cu3 P4 O16'
_cell_volume   295.88476729
_cell_formula_units_Z   1
loop_
 _symmetry_equiv_pos_site_id
 _symmetry_equiv_pos_as_xyz
  1  'x, y, z'
loop_
 _atom_site_type_symbol
 _atom_site_label
 _atom_site_symmetry_multiplicity
 _atom_site_fract_x
 _atom_site_fract_y
 _atom_site_fract_z
 _atom_site_occupancy
  Li  Li0  1  0.99768282  0.99300870  0.99989603  1
  Li  Li1  1  0.99768282  0.99300870  0.50010397  1
  Li  Li2  1  0.50112901  0.50425045  0.49856301  1
  Li  Li3  1  0.50112901  0.50425045  0.00143699  1
  Mn  Mn4  1  0.97021912  0.28143568  0.25000000  1
  Cu  Cu5  1  0.05323971  0.71339462  0.75000000  1
  Cu  Cu6  1  0.44188388  0.21231648  0.75000000  1
  Cu  Cu7  1  0.55296226  0.78586757  0.25000000  1
  P  P8  1  0.08500287  0.60120690  0.25000000  1
  P  P9  1  0.42164998  0.08966289  0.25000000  1
  P  P10  1  0.57524907  0.90413653  0.75000000  1
  P  P11  1  0.91702972  0.40519998  0.75000000  1
  O  O12  1  0.20469152  0.45612377  0.25000000  1
  O  O13  1  0.21785558  0.66894445  0.04713007  1
  O  O14  1  0.21785558  0.66894445  0.45286993  1
  O  O15  1  0.24177329  0.39300341  0.75000000  1
  O  O16  1  0.25055325  0.89714335  0.75000000  1
  O  O17  1  0.28009355  0.16174144  0.05086707  1
  O  O18  1  0.28009355  0.16174144  0.44913293  1
  O  O19  1  0.30595215  0.94513410  0.25000000  1
  O  O20  1  0.68003100  0.05109639  0.75000000  1
  O  O21  1  0.71505164  0.83675538  0.54832376  1
  O  O22  1  0.71505164  0.83675538  0.95167624  1
  O  O23  1  0.74193242  0.09342212  0.25000000  1
  O  O24  1  0.75991025  0.60620658  0.25000000  1
  O  O25  1  0.78016931  0.34068937  0.54655201  1
  O  O26  1  0.78016931  0.34068937  0.95344799  1
  O  O27  1  0.81395567  0.55386804  0.75000000  1
