# generated using pymatgen
data_Ti(PO3)4
_symmetry_space_group_name_H-M   'P 1'
_cell_length_a   6.98694322
_cell_length_b   9.59577502
_cell_length_c   6.98694256
_cell_angle_alpha   87.77517489
_cell_angle_beta   72.45699694
_cell_angle_gamma   92.22482534
_symmetry_Int_Tables_number   1
_chemical_formula_structural   Ti(PO3)4
_chemical_formula_sum   'Ti2 P8 O24'
_cell_volume   445.68919043
_cell_formula_units_Z   2
loop_
 _symmetry_equiv_pos_site_id
 _symmetry_equiv_pos_as_xyz
  1  'x, y, z'
loop_
 _atom_site_type_symbol
 _atom_site_label
 _atom_site_symmetry_multiplicity
 _atom_site_fract_x
 _atom_site_fract_y
 _atom_site_fract_z
 _atom_site_occupancy
  Ti  Ti0  1  0.89304185  0.25000000  0.39304185  1
  Ti  Ti1  1  0.10695815  0.75000000  0.60695815  1
  P  P2  1  0.78264932  0.46561080  0.77585960  1
  P  P3  1  0.72414040  0.96561080  0.71735068  1
  P  P4  1  0.71899799  0.02614846  0.15202055  1
  P  P5  1  0.65202055  0.47385154  0.21899799  1
  P  P6  1  0.34797945  0.52614846  0.78100201  1
  P  P7  1  0.28100201  0.97385154  0.84797945  1
  P  P8  1  0.27585960  0.03438920  0.28264932  1
  P  P9  1  0.21735068  0.53438920  0.22414040  1
  O  O10  1  0.92940305  0.59014353  0.75271603  1
  O  O11  1  0.85919574  0.34475638  0.64719716  1
  O  O12  1  0.76619222  0.02209349  0.91106456  1
  O  O13  1  0.85280284  0.84475638  0.64080426  1
  O  O14  1  0.74728397  0.09014353  0.57059695  1
  O  O15  1  0.86307969  0.14670842  0.16960192  1
  O  O16  1  0.58893544  0.52209349  0.73380778  1
  O  O17  1  0.75743931  0.60912587  0.21647522  1
  O  O18  1  0.71647522  0.89087413  0.25743931  1
  O  O19  1  0.66960192  0.35329158  0.36307969  1
  O  O20  1  0.49964289  0.90291355  0.78745206  1
  O  O21  1  0.71254794  0.40291355  0.00035711  1
  O  O22  1  0.28745206  0.59708645  0.99964289  1
  O  O23  1  0.50035711  0.09708645  0.21254794  1
  O  O24  1  0.33039808  0.64670842  0.63692031  1
  O  O25  1  0.28352478  0.10912587  0.74256069  1
  O  O26  1  0.24256069  0.39087413  0.78352478  1
  O  O27  1  0.41106456  0.47790651  0.26619222  1
  O  O28  1  0.13692031  0.85329158  0.83039808  1
  O  O29  1  0.25271603  0.90985647  0.42940305  1
  O  O30  1  0.14719716  0.15524362  0.35919574  1
  O  O31  1  0.23380778  0.97790651  0.08893544  1
  O  O32  1  0.14080426  0.65524362  0.35280284  1
  O  O33  1  0.07059695  0.40985647  0.24728397  1
