# generated using pymatgen
data_Li4Ti11O24
_symmetry_space_group_name_H-M   'P 1'
_cell_length_a   5.05666294
_cell_length_b   9.64578982
_cell_length_c   8.91622859
_cell_angle_alpha   89.95523093
_cell_angle_beta   89.95752784
_cell_angle_gamma   89.88364762
_symmetry_Int_Tables_number   1
_chemical_formula_structural   Li4Ti11O24
_chemical_formula_sum   'Li4 Ti11 O24'
_cell_volume   434.89242943
_cell_formula_units_Z   1
loop_
 _symmetry_equiv_pos_site_id
 _symmetry_equiv_pos_as_xyz
  1  'x, y, z'
loop_
 _atom_site_type_symbol
 _atom_site_label
 _atom_site_symmetry_multiplicity
 _atom_site_fract_x
 _atom_site_fract_y
 _atom_site_fract_z
 _atom_site_occupancy
  Li  Li0  1  0.47606573  0.35202890  0.91715228  1
  Li  Li1  1  0.56321974  0.96531400  0.74772706  1
  Li  Li2  1  0.93366131  0.46146433  0.74929789  1
  Li  Li3  1  0.93379400  0.46138115  0.08453050  1
  Ti  Ti4  1  0.02276984  0.86342865  0.24976456  1
  Ti  Ti5  1  0.02629755  0.85890781  0.58072692  1
  Ti  Ti6  1  0.01333783  0.85959092  0.92079824  1
  Ti  Ti7  1  0.46577383  0.35583468  0.24399067  1
  Ti  Ti8  1  0.47731374  0.35798908  0.58820480  1
  Ti  Ti9  1  0.50704887  0.63006824  0.75357663  1
  Ti  Ti10  1  0.50709314  0.63467214  0.08283501  1
  Ti  Ti11  1  0.52910309  0.63623789  0.41528711  1
  Ti  Ti12  1  0.99398729  0.14863017  0.75311594  1
  Ti  Ti13  1  0.96716820  0.14177528  0.07901056  1
  Ti  Ti14  1  0.95754819  0.13741974  0.41680834  1
  O  O15  1  0.16943865  0.22032970  0.91926660  1
  O  O16  1  0.18705005  0.22200098  0.25094320  1
  O  O17  1  0.19623547  0.22061112  0.58160733  1
  O  O18  1  0.18542552  0.95946925  0.41864147  1
  O  O19  1  0.18437505  0.95932061  0.08072851  1
  O  O20  1  0.19552679  0.96003731  0.75055942  1
  O  O21  1  0.32623734  0.46270449  0.41672992  1
  O  O22  1  0.30186306  0.46859725  0.09255681  1
  O  O23  1  0.30021362  0.46637560  0.74050668  1
  O  O24  1  0.30316970  0.72259582  0.91548953  1
  O  O25  1  0.31789422  0.72476926  0.58101262  1
  O  O26  1  0.32127245  0.72534721  0.25312299  1
  O  O27  1  0.72192711  0.28460960  0.73325595  1
  O  O28  1  0.71665405  0.28483025  0.09942808  1
  O  O29  1  0.68804894  0.27478182  0.41653207  1
  O  O30  1  0.70079919  0.54051908  0.24361394  1
  O  O31  1  0.70269877  0.54010037  0.59047742  1
  O  O32  1  0.70907692  0.55034277  0.91533198  1
  O  O33  1  0.80480496  0.03677001  0.58663917  1
  O  O34  1  0.80744043  0.03658457  0.25222478  1
  O  O35  1  0.79584441  0.03865205  0.91123436  1
  O  O36  1  0.79467361  0.78951706  0.74846168  1
  O  O37  1  0.81544674  0.77676616  0.08514791  1
  O  O38  1  0.81987863  0.77218569  0.41699307  1
