# generated using pymatgen
data_Li7Mn2(CoO4)3
_symmetry_space_group_name_H-M   'P 1'
_cell_length_a   3.02514320
_cell_length_b   14.78702278
_cell_length_c   5.12626328
_cell_angle_alpha   95.66667475
_cell_angle_beta   75.81161162
_cell_angle_gamma   85.90284540
_symmetry_Int_Tables_number   1
_chemical_formula_structural   Li7Mn2(CoO4)3
_chemical_formula_sum   'Li7 Mn2 Co3 O12'
_cell_volume   220.14083809
_cell_formula_units_Z   1
loop_
 _symmetry_equiv_pos_site_id
 _symmetry_equiv_pos_as_xyz
  1  'x, y, z'
loop_
 _atom_site_type_symbol
 _atom_site_label
 _atom_site_symmetry_multiplicity
 _atom_site_fract_x
 _atom_site_fract_y
 _atom_site_fract_z
 _atom_site_occupancy
  Li  Li0  1  0.66017509  0.08596237  0.57995636  1
  Li  Li1  1  0.00031307  0.24903438  0.74271266  1
  Li  Li2  1  0.33301993  0.41763262  0.92395434  1
  Li  Li3  1  0.67315891  0.58070363  0.08670964  1
  Li  Li4  1  0.00225491  0.75182598  0.24652887  1
  Li  Li5  1  0.33107809  0.91484102  0.42013813  1
  Li  Li6  1  0.66666700  0.33333300  0.33333300  1
  Mn  Mn7  1  0.00286908  0.00275793  0.00198766  1
  Mn  Mn8  1  0.33046392  0.66390907  0.66467934  1
  Co  Co9  1  0.31686651  0.17518767  0.17253199  1
  Co  Co10  1  0.01646649  0.49147933  0.49413501  1
  Co  Co11  1  0.66666700  0.83333300  0.83333300  1
  O  O12  1  0.31146523  0.05130990  0.27367150  1
  O  O13  1  0.64975442  0.20585494  0.42903671  1
  O  O14  1  0.99253620  0.38731892  0.62365617  1
  O  O15  1  0.31943556  0.54259975  0.77127446  1
  O  O16  1  0.63165808  0.71204453  0.94685858  1
  O  O17  1  0.02581820  0.87910748  0.10641600  1
  O  O18  1  0.01389844  0.12406625  0.89539154  1
  O  O19  1  0.34079680  0.27934808  0.04301083  1
  O  O20  1  0.68357858  0.46081206  0.23763029  1
  O  O21  1  0.02186877  0.61535610  0.39299450  1
  O  O22  1  0.30751480  0.78755952  0.56025100  1
  O  O23  1  0.70167492  0.95462247  0.71980842  1
