# generated using pymatgen
data_Li4Nb2Cr3Co3O16
_symmetry_space_group_name_H-M   'P 1'
_cell_length_a   5.84553505
_cell_length_b   5.87304128
_cell_length_c   9.52398859
_cell_angle_alpha   90.00505554
_cell_angle_beta   89.39882655
_cell_angle_gamma   120.15029664
_symmetry_Int_Tables_number   1
_chemical_formula_structural   Li4Nb2Cr3Co3O16
_chemical_formula_sum   'Li4 Nb2 Cr3 Co3 O16'
_cell_volume   282.71274456
_cell_formula_units_Z   1
loop_
 _symmetry_equiv_pos_site_id
 _symmetry_equiv_pos_as_xyz
  1  'x, y, z'
loop_
 _atom_site_type_symbol
 _atom_site_label
 _atom_site_symmetry_multiplicity
 _atom_site_fract_x
 _atom_site_fract_y
 _atom_site_fract_z
 _atom_site_occupancy
  Li  Li0  1  0.34061726  0.67032337  0.89625133  1
  Li  Li1  1  0.98749996  0.99376020  0.99263027  1
  Li  Li2  1  0.98931155  0.99470744  0.49628569  1
  Li  Li3  1  0.67232116  0.33615299  0.40038163  1
  Nb  Nb4  1  0.33470768  0.66734872  0.49626542  1
  Nb  Nb5  1  0.67112585  0.33557781  0.99275830  1
  Cr  Cr6  1  0.17029277  0.83043569  0.21590464  1
  Cr  Cr7  1  0.17029166  0.33988200  0.21589266  1
  Cr  Cr8  1  0.33982767  0.16993722  0.71570464  1
  Co  Co9  1  0.65888461  0.82945031  0.21551444  1
  Co  Co10  1  0.82865215  0.65901063  0.71496286  1
  Co  Co11  1  0.82865995  0.16964894  0.71495419  1
  O  O12  1  0.16204725  0.83203237  0.59496022  1
  O  O13  1  0.03736467  0.51872914  0.34277741  1
  O  O14  1  0.34174709  0.67084774  0.10731621  1
  O  O15  1  0.98979086  0.99494832  0.31041253  1
  O  O16  1  0.98780710  0.99391520  0.80729173  1
  O  O17  1  0.16207769  0.33006563  0.59495396  1
  O  O18  1  0.48926225  0.96388463  0.33910137  1
  O  O19  1  0.48929879  0.52540325  0.33907461  1
  O  O20  1  0.33014827  0.16505678  0.08933153  1
  O  O21  1  0.66648091  0.83323622  0.60259735  1
  O  O22  1  0.52561209  0.48727768  0.83834824  1
  O  O23  1  0.52563526  0.03835977  0.83833126  1
  O  O24  1  0.67799891  0.33899966  0.61080490  1
  O  O25  1  0.83042865  0.66704153  0.09653460  1
  O  O26  1  0.96168285  0.48083560  0.83195184  1
  O  O27  1  0.83042508  0.16343015  0.09654620  1
