# generated using pymatgen
data_Li5V3P8O29
_symmetry_space_group_name_H-M   'P 1'
_cell_length_a   9.83058056
_cell_length_b   9.80948484
_cell_length_c   13.94375407
_cell_angle_alpha   90.00455946
_cell_angle_beta   89.97550091
_cell_angle_gamma   60.04176371
_symmetry_Int_Tables_number   1
_chemical_formula_structural   Li5V3P8O29
_chemical_formula_sum   'Li10 V6 P16 O58'
_cell_volume   1164.97944487
_cell_formula_units_Z   2
loop_
 _symmetry_equiv_pos_site_id
 _symmetry_equiv_pos_as_xyz
  1  'x, y, z'
loop_
 _atom_site_type_symbol
 _atom_site_label
 _atom_site_symmetry_multiplicity
 _atom_site_fract_x
 _atom_site_fract_y
 _atom_site_fract_z
 _atom_site_occupancy
  Li  Li0  1  0.91403421  0.77471540  0.05790426  1
  Li  Li1  1  0.90529065  0.32202332  0.56171518  1
  Li  Li2  1  0.66468467  0.66925227  0.88143199  1
  Li  Li3  1  0.77359375  0.31145634  0.06012987  1
  Li  Li4  1  0.31537292  0.90892546  0.05753070  1
  Li  Li5  1  0.67768317  0.22703482  0.44251922  1
  Li  Li6  1  0.32306063  0.76932574  0.56361108  1
  Li  Li7  1  0.08851669  0.68521152  0.44113023  1
  Li  Li8  1  0.22834064  0.09346298  0.44110492  1
  Li  Li9  1  0.09626467  0.22794059  0.93785448  1
  V  V10  1  0.56571980  0.43322857  0.24759021  1
  V  V11  1  0.42994749  0.56639729  0.75494325  1
  V  V12  1  0.57330357  0.00324434  0.74871193  1
  V  V13  1  0.43643993  0.00036074  0.25026523  1
  V  V14  1  0.00111656  0.56840075  0.25070427  1
  V  V15  1  0.00000826  0.43321424  0.74677823  1
  P  P16  1  0.91055659  0.77029943  0.84204277  1
  P  P17  1  0.76990817  0.91545994  0.34389020  1
  P  P18  1  0.91142892  0.32012878  0.34113813  1
  P  P19  1  0.66778314  0.66681117  0.12662566  1
  P  P20  1  0.66303917  0.66903140  0.62655640  1
  P  P21  1  0.77127546  0.31944630  0.84337697  1
  P  P22  1  0.68117695  0.23400548  0.65953026  1
  P  P23  1  0.32092385  0.91043805  0.84212435  1
  P  P24  1  0.68520335  0.08395022  0.15633225  1
  P  P25  1  0.32071852  0.76734390  0.34284710  1
  P  P26  1  0.23072049  0.68389676  0.15786209  1
  P  P27  1  0.33362867  0.33389491  0.37295586  1
  P  P28  1  0.33191807  0.33036296  0.87342455  1
  P  P29  1  0.08648435  0.68389616  0.65744274  1
  P  P30  1  0.23351837  0.08541503  0.65805594  1
  P  P31  1  0.08947937  0.23156148  0.15821396  1
  O  O32  1  0.00440886  0.75427161  0.56618119  1
  O  O33  1  0.91522361  0.74826107  0.34135771  1
  O  O34  1  0.76287836  0.99247654  0.06921072  1
  O  O35  1  0.74225793  0.91829308  0.83385066  1
  O  O36  1  0.88664482  0.62667344  0.82506999  1
  O  O37  1  0.81270042  0.67396485  0.16521187  1
  O  O38  1  0.90149961  0.48020997  0.32298073  1
  O  O39  1  0.00223895  0.23929549  0.06815763  1
  O  O40  1  0.92082502  0.33701099  0.83829776  1
  O  O41  1  0.66277770  0.81611464  0.67471143  1
  O  O42  1  0.61772620  0.90516430  0.32282340  1
  O  O43  1  0.81296729  0.51444281  0.66450282  1
  O  O44  1  0.66224185  0.67047632  0.01878631  1
  O  O45  1  0.66187221  0.67227827  0.51991453  1
  O  O46  1  0.67284993  0.51359669  0.16477644  1
  O  O47  1  0.48540345  0.89338024  0.82704268  1
  O  O48  1  0.51362941  0.81678730  0.16796639  1
  O  O49  1  0.74580382  0.33789326  0.33945206  1
  O  O50  1  0.79109775  0.21194714  0.75099868  1
  O  O51  1  0.76096637  0.23982597  0.56911892  1
  O  O52  1  0.76364215  0.24502599  0.93388560  1
  O  O53  1  0.62814749  0.48711711  0.82579006  1
  O  O54  1  0.51193632  0.67046146  0.66768998  1
  O  O55  1  0.66361951  0.25123372  0.15879205  1
  O  O56  1  0.47997862  0.62102257  0.32409226  1
  O  O57  1  0.33719042  0.91765250  0.33849318  1
  O  O58  1  0.79060621  0.99974440  0.24995455  1
  O  O59  1  0.75759057  0.00720582  0.43078449  1
  O  O60  1  0.24360178  0.99720554  0.56770185  1
  O  O61  1  0.66052780  0.08713714  0.66321601  1
  O  O62  1  0.52290141  0.38354986  0.67452320  1
  O  O63  1  0.34094026  0.74558522  0.84108181  1
  O  O64  1  0.48593522  0.32581165  0.33285645  1
  O  O65  1  0.38124380  0.52178428  0.17573050  1
  O  O66  1  0.23838492  0.76854688  0.07224167  1
  O  O67  1  0.24286520  0.76105702  0.43409158  1
  O  O68  1  0.20694884  0.78740034  0.25424359  1
  O  O69  1  0.25218112  0.66408682  0.66143744  1
  O  O70  1  0.47903584  0.18073196  0.82460014  1
  O  O71  1  0.52256829  0.09514635  0.17792320  1
  O  O72  1  0.33566881  0.47659775  0.82908524  1
  O  O73  1  0.33848965  0.32258670  0.97949499  1
  O  O74  1  0.33129224  0.32717688  0.47969711  1
  O  O75  1  0.18660535  0.48700986  0.33312320  1
  O  O76  1  0.38299211  0.09422755  0.67665352  1
  O  O77  1  0.32896969  0.18293060  0.32930545  1
  O  O78  1  0.08452053  0.66173086  0.16043641  1
  O  O79  1  0.99908327  0.78991529  0.75031830  1
  O  O80  1  0.99134756  0.76397718  0.93253272  1
  O  O81  1  0.09546081  0.52278195  0.67863310  1
  O  O82  1  0.18393264  0.32853397  0.83363508  1
  O  O83  1  0.10225469  0.37807660  0.17653874  1
  O  O84  1  0.25532077  0.08151945  0.16099743  1
  O  O85  1  0.24146309  0.00258381  0.93087534  1
  O  O86  1  0.21167622  0.99895162  0.75005250  1
  O  O87  1  0.08438040  0.25014738  0.65721500  1
  O  O88  1  0.99973315  0.24245754  0.43141217  1
  O  O89  1  0.00001265  0.20930407  0.24983789  1
