# generated using pymatgen
data_LiMn2P2HO8
_symmetry_space_group_name_H-M   'P 1'
_cell_length_a   5.15284005
_cell_length_b   8.96893728
_cell_length_c   8.78069387
_cell_angle_alpha   78.12341733
_cell_angle_beta   77.39694194
_cell_angle_gamma   71.91810206
_symmetry_Int_Tables_number   1
_chemical_formula_structural   LiMn2P2HO8
_chemical_formula_sum   'Li2 Mn4 P4 H2 O16'
_cell_volume   372.27467110
_cell_formula_units_Z   2
loop_
 _symmetry_equiv_pos_site_id
 _symmetry_equiv_pos_as_xyz
  1  'x, y, z'
loop_
 _atom_site_type_symbol
 _atom_site_label
 _atom_site_symmetry_multiplicity
 _atom_site_fract_x
 _atom_site_fract_y
 _atom_site_fract_z
 _atom_site_occupancy
  Li  Li0  1  0.29001808  0.29572739  0.19634285  1
  Li  Li1  1  0.70998192  0.70427261  0.80365715  1
  Mn  Mn2  1  0.20208073  0.12125860  0.59262983  1
  Mn  Mn3  1  0.37719540  0.39209470  0.78269633  1
  Mn  Mn4  1  0.62280460  0.60790530  0.21730367  1
  Mn  Mn5  1  0.79791927  0.87874140  0.40737017  1
  P  P6  1  0.12222870  0.74786216  0.06340721  1
  P  P7  1  0.35746866  0.74277812  0.57380589  1
  P  P8  1  0.64253134  0.25722188  0.42619411  1
  P  P9  1  0.87777130  0.25213784  0.93659279  1
  H  H10  1  0.96843637  0.93966150  0.87697541  1
  H  H11  1  0.03156363  0.06033850  0.12302459  1
  O  O12  1  0.97672128  0.12842957  0.82116716  1
  O  O13  1  0.96639754  0.40452697  0.86712919  1
  O  O14  1  0.04635672  0.76604030  0.57828086  1
  O  O15  1  0.43967631  0.70892703  0.01376992  1
  O  O16  1  0.48034787  0.25609102  0.60067994  1
  O  O17  1  0.97146999  0.82436223  0.91294134  1
  O  O18  1  0.58108719  0.11845484  0.37017112  1
  O  O19  1  0.50983608  0.40843482  0.31925838  1
  O  O20  1  0.49016392  0.59156518  0.68074162  1
  O  O21  1  0.41891281  0.88154516  0.62982888  1
  O  O22  1  0.02853001  0.17563777  0.08705866  1
  O  O23  1  0.51965213  0.74390898  0.39932006  1
  O  O24  1  0.56032369  0.29107297  0.98623008  1
  O  O25  1  0.95364328  0.23395970  0.42171914  1
  O  O26  1  0.03360246  0.59547303  0.13287081  1
  O  O27  1  0.02327872  0.87157043  0.17883284  1
