# generated using pymatgen
data_Li2V2Si2O9
_symmetry_space_group_name_H-M   'P 1'
_cell_length_a   14.17530631
_cell_length_b   8.41531121
_cell_length_c   5.26541970
_cell_angle_alpha   89.99999260
_cell_angle_beta   89.99736438
_cell_angle_gamma   90.00250504
_symmetry_Int_Tables_number   1
_chemical_formula_structural   Li2V2Si2O9
_chemical_formula_sum   'Li8 V8 Si8 O36'
_cell_volume   628.10988300
_cell_formula_units_Z   4
loop_
 _symmetry_equiv_pos_site_id
 _symmetry_equiv_pos_as_xyz
  1  'x, y, z'
loop_
 _atom_site_type_symbol
 _atom_site_label
 _atom_site_symmetry_multiplicity
 _atom_site_fract_x
 _atom_site_fract_y
 _atom_site_fract_z
 _atom_site_occupancy
  Li  Li0  1  0.15687154  0.03655735  0.59893835  1
  Li  Li1  1  0.15690075  0.46345900  0.09899696  1
  Li  Li2  1  0.34315428  0.53674029  0.09929863  1
  Li  Li3  1  0.34316981  0.96316713  0.59933885  1
  Li  Li4  1  0.65689460  0.03663665  0.40090628  1
  Li  Li5  1  0.65689113  0.46334816  0.90091643  1
  Li  Li6  1  0.84316552  0.53671890  0.90081851  1
  Li  Li7  1  0.84315130  0.96334520  0.40083067  1
  V  V8  1  0.17239433  0.65851837  0.62462205  1
  V  V9  1  0.17238887  0.84145927  0.12463175  1
  V  V10  1  0.32756077  0.15846822  0.12461982  1
  V  V11  1  0.32756395  0.34148619  0.62463225  1
  V  V12  1  0.67239715  0.65850231  0.37538752  1
  V  V13  1  0.67236424  0.84147541  0.87538348  1
  V  V14  1  0.82759892  0.15849396  0.87536033  1
  V  V15  1  0.82759444  0.34150737  0.37534756  1
  Si  Si16  1  0.02707217  0.15522254  0.21464991  1
  Si  Si17  1  0.02705427  0.34475807  0.71463823  1
  Si  Si18  1  0.47292827  0.65517726  0.71482488  1
  Si  Si19  1  0.47294283  0.84482442  0.21481013  1
  Si  Si20  1  0.52699862  0.15518459  0.78528175  1
  Si  Si21  1  0.52698644  0.34479569  0.28528829  1
  Si  Si22  1  0.97295920  0.65521018  0.28518301  1
  Si  Si23  1  0.97299624  0.84484306  0.78519479  1
  O  O24  1  0.06794791  0.26173720  0.45484814  1
  O  O25  1  0.06794682  0.23829422  0.95481436  1
  O  O26  1  0.07619501  0.51621509  0.75822953  1
  O  O27  1  0.07620276  0.98382604  0.25821169  1
  O  O28  1  0.08864871  0.65168310  0.28852353  1
  O  O29  1  0.08864582  0.84831825  0.78854902  1
  O  O30  1  0.22868005  0.82846016  0.45571092  1
  O  O31  1  0.22868965  0.67153151  0.95568601  1
  O  O32  1  0.24999825  0.99993668  0.98942603  1
  O  O33  1  0.24998364  0.50001793  0.48942978  1
  O  O34  1  0.27131604  0.17149917  0.45578869  1
  O  O35  1  0.27132142  0.32847618  0.95580311  1
  O  O36  1  0.41134237  0.15164623  0.78863754  1
  O  O37  1  0.41135260  0.34836234  0.28863031  1
  O  O38  1  0.42378635  0.01620694  0.25831245  1
  O  O39  1  0.42380232  0.48378737  0.75832711  1
  O  O40  1  0.43207341  0.73831790  0.45511171  1
  O  O41  1  0.43207074  0.76169237  0.95507822  1
  O  O42  1  0.56791901  0.23833483  0.04502983  1
  O  O43  1  0.56791023  0.26167024  0.54501283  1
  O  O44  1  0.57620083  0.51620377  0.24180093  1
  O  O45  1  0.57617471  0.98380971  0.74178827  1
  O  O46  1  0.58865814  0.65166990  0.71148702  1
  O  O47  1  0.58865018  0.84832775  0.21146630  1
  O  O48  1  0.72866973  0.67152776  0.04427707  1
  O  O49  1  0.72866300  0.82845835  0.54429412  1
  O  O50  1  0.75000595  0.99995430  0.01057910  1
  O  O51  1  0.75000967  0.50002934  0.51060255  1
  O  O52  1  0.77131597  0.17155548  0.54426200  1
  O  O53  1  0.77132514  0.32845922  0.04422799  1
  O  O54  1  0.91134522  0.15167720  0.21136764  1
  O  O55  1  0.91134937  0.34833621  0.71136251  1
  O  O56  1  0.92381559  0.01623946  0.74170955  1
  O  O57  1  0.92380834  0.48381699  0.24171491  1
  O  O58  1  0.93209022  0.73833189  0.54496757  1
  O  O59  1  0.93208515  0.76168929  0.04503125  1
