# generated using pymatgen
data_Li3Cr4(PO4)6
_symmetry_space_group_name_H-M   'P 1'
_cell_length_a   8.35682842
_cell_length_b   8.63555970
_cell_length_c   11.91805848
_cell_angle_alpha   89.88145094
_cell_angle_beta   89.83822454
_cell_angle_gamma   90.11342187
_symmetry_Int_Tables_number   1
_chemical_formula_structural   Li3Cr4(PO4)6
_chemical_formula_sum   'Li6 Cr8 P12 O48'
_cell_volume   860.07034177
_cell_formula_units_Z   2
loop_
 _symmetry_equiv_pos_site_id
 _symmetry_equiv_pos_as_xyz
  1  'x, y, z'
loop_
 _atom_site_type_symbol
 _atom_site_label
 _atom_site_symmetry_multiplicity
 _atom_site_fract_x
 _atom_site_fract_y
 _atom_site_fract_z
 _atom_site_occupancy
  Li  Li0  1  0.19251900  0.78631418  0.82186750  1
  Li  Li1  1  0.31924852  0.28497128  0.68074460  1
  Li  Li2  1  0.42733714  0.59465436  0.19476132  1
  Li  Li3  1  0.81875110  0.21118697  0.17874804  1
  Li  Li4  1  0.91847114  0.90983027  0.69080613  1
  Li  Li5  1  0.91923348  0.50016241  0.34224628  1
  Cr  Cr6  1  0.25339786  0.02604458  0.11463074  1
  Cr  Cr7  1  0.24906751  0.46498452  0.88671904  1
  Cr  Cr8  1  0.25172200  0.52686194  0.39107370  1
  Cr  Cr9  1  0.25652187  0.96682922  0.61275125  1
  Cr  Cr10  1  0.74744436  0.03055200  0.38528990  1
  Cr  Cr11  1  0.75527584  0.47260412  0.61321370  1
  Cr  Cr12  1  0.75346443  0.53434347  0.11286352  1
  Cr  Cr13  1  0.74257054  0.97602684  0.89015620  1
  P  P14  1  0.03284484  0.24878538  0.50794166  1
  P  P15  1  0.11301529  0.38153075  0.14710675  1
  P  P16  1  0.11248206  0.10826910  0.85795038  1
  P  P17  1  0.39252809  0.88445359  0.35086046  1
  P  P18  1  0.38891875  0.60898073  0.64508987  1
  P  P19  1  0.46557322  0.75107361  0.99163808  1
  P  P20  1  0.53480528  0.24988781  0.00820712  1
  P  P21  1  0.61194907  0.38854997  0.35683658  1
  P  P22  1  0.60990965  0.11864776  0.64568741  1
  P  P23  1  0.88662103  0.88853499  0.14486207  1
  P  P24  1  0.89004348  0.61713125  0.85020831  1
  P  P25  1  0.96200307  0.75178149  0.49139955  1
  O  O26  1  0.05759182  0.87214883  0.55977059  1
  O  O27  1  0.06487409  0.89314821  0.10696148  1
  O  O28  1  0.05733867  0.66875102  0.39839971  1
  O  O29  1  0.07067432  0.58294777  0.82444516  1
  O  O30  1  0.08594996  0.36590252  0.41762720  1
  O  O31  1  0.11928623  0.20410352  0.15866627  1
  O  O32  1  0.12893972  0.99272003  0.75734463  1
  O  O33  1  0.13580459  0.42836565  0.02367420  1
  O  O34  1  0.17012153  0.26968893  0.81807784  1
  O  O35  1  0.18071766  0.17794009  0.56534607  1
  O  O36  1  0.22981299  0.47386577  0.22245883  1
  O  O37  1  0.22265361  0.04776705  0.95123236  1
  O  O38  1  0.27693464  0.55470010  0.55066087  1
  O  O39  1  0.28073345  0.97766000  0.27263072  1
  O  O40  1  0.32086025  0.67609341  0.93189933  1
  O  O41  1  0.33460319  0.77156506  0.68394363  1
  O  O42  1  0.35816601  0.91999722  0.47315352  1
  O  O43  1  0.36221665  0.49204556  0.74270644  1
  O  O44  1  0.37626708  0.70761435  0.33098433  1
  O  O45  1  0.40209448  0.86117553  0.08260877  1
  O  O46  1  0.43401853  0.08176881  0.67865234  1
  O  O47  1  0.43110059  0.17219976  0.10028758  1
  O  O48  1  0.43894986  0.38330144  0.39683998  1
  O  O49  1  0.43824620  0.37455155  0.94515504  1
  O  O50  1  0.55397209  0.62572692  0.05900492  1
  O  O51  1  0.56562619  0.60631368  0.60725338  1
  O  O52  1  0.57223041  0.82550599  0.89905244  1
  O  O53  1  0.56786255  0.92882690  0.32274266  1
  O  O54  1  0.59556344  0.13764525  0.91652351  1
  O  O55  1  0.61979467  0.29632592  0.65863037  1
  O  O56  1  0.62801948  0.49838644  0.25432389  1
  O  O57  1  0.63759475  0.07358603  0.52337091  1
  O  O58  1  0.67710785  0.22763745  0.31825788  1
  O  O59  1  0.68211703  0.32236757  0.06557483  1
  O  O60  1  0.72511826  0.02587163  0.72298196  1
  O  O61  1  0.73218007  0.44874786  0.44672295  1
  O  O62  1  0.77619661  0.94684943  0.04991458  1
  O  O63  1  0.78153761  0.52240491  0.77204500  1
  O  O64  1  0.81702783  0.83140177  0.43844346  1
  O  O65  1  0.84094694  0.72362774  0.18053415  1
  O  O66  1  0.85588787  0.57763972  0.97154374  1
  O  O67  1  0.86277993  0.00411435  0.24241938  1
  O  O68  1  0.87767721  0.79653040  0.83183278  1
  O  O69  1  0.89885285  0.64110948  0.58410544  1
  O  O70  1  0.93731994  0.42121392  0.18471785  1
  O  O71  1  0.92865830  0.32405486  0.60211287  1
  O  O72  1  0.93426379  0.10907303  0.89356664  1
  O  O73  1  0.93678061  0.12323295  0.44521035  1
