# generated using pymatgen
data_Li3Mn4(PO4)6
_symmetry_space_group_name_H-M   'P 1'
_cell_length_a   8.76351305
_cell_length_b   8.60378355
_cell_length_c   8.51115330
_cell_angle_alpha   90.27783510
_cell_angle_beta   60.11505764
_cell_angle_gamma   121.08264334
_symmetry_Int_Tables_number   1
_chemical_formula_structural   Li3Mn4(PO4)6
_chemical_formula_sum   'Li3 Mn4 P6 O24'
_cell_volume   448.14541059
_cell_formula_units_Z   1
loop_
 _symmetry_equiv_pos_site_id
 _symmetry_equiv_pos_as_xyz
  1  'x, y, z'
loop_
 _atom_site_type_symbol
 _atom_site_label
 _atom_site_symmetry_multiplicity
 _atom_site_fract_x
 _atom_site_fract_y
 _atom_site_fract_z
 _atom_site_occupancy
  Li  Li0  1  0.97770389  0.02764039  0.65291313  1
  Li  Li1  1  0.41325980  0.75141111  0.69349119  1
  Li  Li2  1  0.80526546  0.35818825  0.16337637  1
  Mn  Mn3  1  0.29036983  0.35638824  0.86332464  1
  Mn  Mn4  1  0.71991898  0.15340832  0.63592875  1
  Mn  Mn5  1  0.27892947  0.85204283  0.36322224  1
  Mn  Mn6  1  0.71153880  0.64394604  0.13794171  1
  P  P7  1  0.50829562  0.75028305  0.97005568  1
  P  P8  1  0.78058833  0.03587896  0.25470009  1
  P  P9  1  0.22512846  0.47371339  0.53190751  1
  P  P10  1  0.78791280  0.53207710  0.46345952  1
  P  P11  1  0.19843049  0.95302400  0.75668341  1
  P  P12  1  0.49469476  0.24969251  0.03326932  1
  O  O13  1  0.18972151  0.12611599  0.79684755  1
  O  O14  1  0.65099716  0.25833331  0.83528204  1
  O  O15  1  0.77333075  0.02707765  0.44054578  1
  O  O16  1  0.35845332  0.59584016  0.92042662  1
  O  O17  1  0.02885267  0.27523529  0.58281674  1
  O  O18  1  0.57764004  0.02039996  0.29445892  1
  O  O19  1  0.67408026  0.72225766  0.95871905  1
  O  O20  1  0.01100404  0.76376762  0.93234311  1
  O  O21  1  0.27127415  0.48401850  0.68763004  1
  O  O22  1  0.59657557  0.49449327  0.66077314  1
  O  O23  1  0.34488843  0.05561955  0.19279162  1
  O  O24  1  0.81950664  0.37077131  0.45248820  1
  O  O25  1  0.19215827  0.63644759  0.53680595  1
  O  O26  1  0.66033531  0.94084474  0.80291761  1
  O  O27  1  0.97334652  0.23584031  0.08891106  1
  O  O28  1  0.41412756  0.51247828  0.33430803  1
  O  O29  1  0.40174387  0.97492458  0.70797557  1
  O  O30  1  0.33291125  0.28166037  0.03967400  1
  O  O31  1  0.17340494  0.94099525  0.58546260  1
  O  O32  1  0.75556314  0.53822325  0.30097212  1
  O  O33  1  0.64694751  0.40558866  0.08096214  1
  O  O34  1  0.98781331  0.72711710  0.42220738  1
  O  O35  1  0.35053356  0.74449263  0.16579030  1
  O  O36  1  0.79535751  0.87339776  0.19805386  1
