# generated using pymatgen
data_Li3Fe2(SiO4)2
_symmetry_space_group_name_H-M   'P 1'
_cell_length_a   6.63999145
_cell_length_b   5.33396400
_cell_length_c   5.03224935
_cell_angle_alpha   89.33992134
_cell_angle_beta   90.09538095
_cell_angle_gamma   89.48343258
_symmetry_Int_Tables_number   1
_chemical_formula_structural   Li3Fe2(SiO4)2
_chemical_formula_sum   'Li3 Fe2 Si2 O8'
_cell_volume   178.21021802
_cell_formula_units_Z   1
loop_
 _symmetry_equiv_pos_site_id
 _symmetry_equiv_pos_as_xyz
  1  'x, y, z'
loop_
 _atom_site_type_symbol
 _atom_site_label
 _atom_site_symmetry_multiplicity
 _atom_site_fract_x
 _atom_site_fract_y
 _atom_site_fract_z
 _atom_site_occupancy
  Li  Li0  1  0.00655355  0.82564991  0.50053873  1
  Li  Li1  1  0.50302567  0.18568279  0.00529948  1
  Li  Li2  1  0.76046917  0.65383814  0.99668205  1
  Fe  Fe3  1  0.01921298  0.18232969  0.00366141  1
  Fe  Fe4  1  0.49952460  0.82521668  0.49963260  1
  Si  Si5  1  0.25262136  0.67512390  0.00208065  1
  Si  Si6  1  0.75214363  0.31422077  0.51306331  1
  O  O7  1  0.04132566  0.80584925  0.89034494  1
  O  O8  1  0.26290724  0.73346755  0.32480260  1
  O  O9  1  0.26599851  0.37877798  0.94110215  1
  O  O10  1  0.46027951  0.81657180  0.87694303  1
  O  O11  1  0.55607170  0.15636168  0.39822665  1
  O  O12  1  0.74930904  0.31328627  0.84093202  1
  O  O13  1  0.72977352  0.61434955  0.40578541  1
  O  O14  1  0.95345887  0.17971105  0.39883496  1
