# generated using pymatgen
data_Ba3Fe3O8
_symmetry_space_group_name_H-M   'P 1'
_cell_length_a   5.85804144
_cell_length_b   5.85804036
_cell_length_c   14.15879246
_cell_angle_alpha   90.00095299
_cell_angle_beta   89.99902628
_cell_angle_gamma   120.77463171
_symmetry_Int_Tables_number   1
_chemical_formula_structural   Ba3Fe3O8
_chemical_formula_sum   'Ba6 Fe6 O16'
_cell_volume   417.46346348
_cell_formula_units_Z   2
loop_
 _symmetry_equiv_pos_site_id
 _symmetry_equiv_pos_as_xyz
  1  'x, y, z'
loop_
 _atom_site_type_symbol
 _atom_site_label
 _atom_site_symmetry_multiplicity
 _atom_site_fract_x
 _atom_site_fract_y
 _atom_site_fract_z
 _atom_site_occupancy
  Ba  Ba0  1  0.33168343  0.66833523  0.10254321  1
  Ba  Ba1  1  0.33167823  0.66833761  0.39743859  1
  Ba  Ba2  1  0.99961799  0.00039726  0.25002009  1
  Ba  Ba3  1  0.99261821  0.00738286  0.74999283  1
  Ba  Ba4  1  0.67175896  0.32824321  0.58931398  1
  Ba  Ba5  1  0.67177766  0.32822279  0.91064651  1
  Fe  Fe6  1  0.35865008  0.64134571  0.83974529  1
  Fe  Fe7  1  0.35863402  0.64137004  0.66029872  1
  Fe  Fe8  1  0.98031577  0.01969192  0.01070197  1
  Fe  Fe9  1  0.98035166  0.01965323  0.48931338  1
  Fe  Fe10  1  0.66153561  0.33847672  0.34365994  1
  Fe  Fe11  1  0.66153510  0.33847855  0.15637385  1
  O  O12  1  0.04421451  0.51930495  0.75000320  1
  O  O13  1  0.15980584  0.32813816  0.58177796  1
  O  O14  1  0.15970940  0.32812387  0.91825759  1
  O  O15  1  0.48069569  0.95578589  0.75000158  1
  O  O16  1  0.50574666  0.49426005  0.75002608  1
  O  O17  1  0.32648816  0.15300152  0.07012098  1
  O  O18  1  0.32658716  0.15305255  0.42987166  1
  O  O19  1  0.67186015  0.84019667  0.58177598  1
  O  O20  1  0.67185472  0.84028766  0.91826369  1
  O  O21  1  0.50933856  0.49067259  0.24985865  1
  O  O22  1  0.50249140  0.03469105  0.25000072  1
  O  O23  1  0.84702129  0.67352726  0.07011939  1
  O  O24  1  0.84694846  0.67341992  0.42986957  1
  O  O25  1  0.96532519  0.49752676  0.24999903  1
  O  O26  1  0.82692479  0.17309292  0.41549181  1
  O  O27  1  0.82682930  0.17318406  0.08451076  1
