# generated using pymatgen
data_Li7Mn2(CoO4)3
_symmetry_space_group_name_H-M   'P 1'
_cell_length_a   3.03594934
_cell_length_b   7.54569791
_cell_length_c   9.93662275
_cell_angle_alpha   78.29180535
_cell_angle_beta   94.43164460
_cell_angle_gamma   82.32457376
_symmetry_Int_Tables_number   1
_chemical_formula_structural   Li7Mn2(CoO4)3
_chemical_formula_sum   'Li7 Mn2 Co3 O12'
_cell_volume   219.61714536
_cell_formula_units_Z   1
loop_
 _symmetry_equiv_pos_site_id
 _symmetry_equiv_pos_as_xyz
  1  'x, y, z'
loop_
 _atom_site_type_symbol
 _atom_site_label
 _atom_site_symmetry_multiplicity
 _atom_site_fract_x
 _atom_site_fract_y
 _atom_site_fract_z
 _atom_site_occupancy
  Li  Li0  1  0.91677347  0.16497128  0.25386090  1
  Li  Li1  1  0.41656053  0.16836272  0.74613910  1
  Li  Li2  1  0.24521124  0.49953824  0.25211972  1
  Li  Li3  1  0.74631110  0.50286640  0.74218683  1
  Li  Li4  1  0.58702190  0.83046660  0.25781317  1
  Li  Li5  1  0.08812176  0.83379476  0.74788028  1
  Li  Li6  1  0.16666700  0.66666700  0.50000000  1
  Mn  Mn7  1  0.00366346  0.99754557  0.00037186  1
  Mn  Mn8  1  0.32966954  0.33578743  0.99962814  1
  Co  Co9  1  0.50929218  0.98972406  0.49813844  1
  Co  Co10  1  0.82404082  0.34360894  0.50186156  1
  Co  Co11  1  0.66666700  0.66666700  0.00000000  1
  O  O12  1  0.42997978  0.08966926  0.11717889  1
  O  O13  1  0.92734447  0.09844188  0.60804400  1
  O  O14  1  0.76484879  0.42595256  0.11502732  1
  O  O15  1  0.27305654  0.40942655  0.61477434  1
  O  O16  1  0.09028805  0.75161433  0.11626050  1
  O  O17  1  0.60830635  0.78005275  0.61511936  1
  O  O18  1  0.40598953  0.23489212  0.39195600  1
  O  O19  1  0.90335422  0.24366474  0.88282111  1
  O  O20  1  0.72502665  0.55328025  0.38488064  1
  O  O21  1  0.24304495  0.58171867  0.88373950  1
  O  O22  1  0.06027646  0.92390645  0.38522566  1
  O  O23  1  0.56848421  0.90738044  0.88497268  1
