# generated using pymatgen
data_LiFe2(PO4)2
_symmetry_space_group_name_H-M   'P 1'
_cell_length_a   10.33518950
_cell_length_b   13.89348678
_cell_length_c   5.17604658
_cell_angle_alpha   90.00000000
_cell_angle_beta   90.00000000
_cell_angle_gamma   90.00000000
_symmetry_Int_Tables_number   1
_chemical_formula_structural   LiFe2(PO4)2
_chemical_formula_sum   'Li4 Fe8 P8 O32'
_cell_volume   743.23794203
_cell_formula_units_Z   4
loop_
 _symmetry_equiv_pos_site_id
 _symmetry_equiv_pos_as_xyz
  1  'x, y, z'
loop_
 _atom_site_type_symbol
 _atom_site_label
 _atom_site_symmetry_multiplicity
 _atom_site_fract_x
 _atom_site_fract_y
 _atom_site_fract_z
 _atom_site_occupancy
  Li  Li0  1  0.22262508  0.74932279  0.55229224  1
  Li  Li1  1  0.27737492  0.24932279  0.55229224  1
  Li  Li2  1  0.72262508  0.74932279  0.44770776  1
  Li  Li3  1  0.77737492  0.24932279  0.44770776  1
  Fe  Fe4  1  0.03743355  0.75363451  0.06158571  1
  Fe  Fe5  1  0.22382943  -0.00075604  0.55768754  1
  Fe  Fe6  1  0.27617057  0.49924396  0.55768754  1
  Fe  Fe7  1  0.46256645  0.25363451  0.06158571  1
  Fe  Fe8  1  0.53743355  0.75363451  0.93841429  1
  Fe  Fe9  1  0.72382943  -0.00075604  0.44231246  1
  Fe  Fe10  1  0.77617057  0.49924396  0.44231246  1
  Fe  Fe11  1  0.96256645  0.25363451  0.93841429  1
  P  P12  1  0.02973202  0.37566035  0.43785622  1
  P  P13  1  0.21615121  0.12865365  0.05491409  1
  P  P14  1  0.28384879  0.62865365  0.05491409  1
  P  P15  1  0.47026798  0.87566035  0.43785622  1
  P  P16  1  0.52973202  0.37566035  0.56214378  1
  P  P17  1  0.71615121  0.12865365  0.94508591  1
  P  P18  1  0.78384879  0.62865365  0.94508591  1
  P  P19  1  0.97026798  0.87566035  0.56214378  1
  O  O20  1  0.99222608  0.85812495  0.85616890  1
  O  O21  1  0.03303038  0.96988557  0.48071208  1
  O  O22  1  0.03876611  0.78710522  0.42185008  1
  O  O23  1  0.07170854  0.14906104  0.99285732  1
  O  O24  1  0.17619980  0.37243162  0.49761785  1
  O  O25  1  0.24376846  0.53503595  0.92651319  1
  O  O26  1  0.20550221  0.71697181  0.93697708  1
  O  O27  1  0.24431627  0.12890156  0.34858324  1
  O  O28  1  0.25568373  0.62890156  0.34858324  1
  O  O29  1  0.29449779  0.21697181  0.93697708  1
  O  O30  1  0.25623154  0.03503595  0.92651319  1
  O  O31  1  0.32380020  0.87243162  0.49761785  1
  O  O32  1  0.42829146  0.64906104  0.99285732  1
  O  O33  1  0.46123389  0.28710522  0.42185008  1
  O  O34  1  0.46696962  0.46988557  0.48071208  1
  O  O35  1  0.50777392  0.35812495  0.85616890  1
  O  O36  1  0.49222608  0.85812495  0.14383110  1
  O  O37  1  0.53303038  0.96988557  0.51928792  1
  O  O38  1  0.53876611  0.78710522  0.57814992  1
  O  O39  1  0.57170854  0.14906104  0.00714268  1
  O  O40  1  0.67619980  0.37243162  0.50238215  1
  O  O41  1  0.74376846  0.53503595  0.07348681  1
  O  O42  1  0.70550221  0.71697181  0.06302292  1
  O  O43  1  0.74431627  0.12890156  0.65141676  1
  O  O44  1  0.75568373  0.62890156  0.65141676  1
  O  O45  1  0.79449779  0.21697181  0.06302292  1
  O  O46  1  0.75623154  0.03503595  0.07348681  1
  O  O47  1  0.82380020  0.87243162  0.50238215  1
  O  O48  1  0.92829146  0.64906104  0.00714268  1
  O  O49  1  0.96123389  0.28710522  0.57814992  1
  O  O50  1  0.96696962  0.46988557  0.51928792  1
  O  O51  1  0.00777392  0.35812495  0.14383110  1
