# generated using pymatgen
data_Li3Cr4(PO4)6
_symmetry_space_group_name_H-M   'P 1'
_cell_length_a   8.46594743
_cell_length_b   8.48913852
_cell_length_c   8.54932351
_cell_angle_alpha   60.65896018
_cell_angle_beta   60.50983563
_cell_angle_gamma   61.00534460
_symmetry_Int_Tables_number   1
_chemical_formula_structural   Li3Cr4(PO4)6
_chemical_formula_sum   'Li3 Cr4 P6 O24'
_cell_volume   441.55446123
_cell_formula_units_Z   1
loop_
 _symmetry_equiv_pos_site_id
 _symmetry_equiv_pos_as_xyz
  1  'x, y, z'
loop_
 _atom_site_type_symbol
 _atom_site_label
 _atom_site_symmetry_multiplicity
 _atom_site_fract_x
 _atom_site_fract_y
 _atom_site_fract_z
 _atom_site_occupancy
  Li  Li0  1  0.51154024  0.00144805  0.98546055  1
  Li  Li1  1  0.25071268  0.13758259  0.34756907  1
  Li  Li2  1  0.99262210  0.51000058  0.49808884  1
  Cr  Cr3  1  0.63973380  0.13852417  0.14422445  1
  Cr  Cr4  1  0.85970475  0.36403010  0.35288513  1
  Cr  Cr5  1  0.13590340  0.63487157  0.64863989  1
  Cr  Cr6  1  0.36345817  0.86008262  0.85607665  1
  P  P7  1  0.25193724  0.45716075  0.03460158  1
  P  P8  1  0.96040830  0.03807724  0.75153885  1
  P  P9  1  0.54321629  0.74599727  0.46610120  1
  P  P10  1  0.45120824  0.25127009  0.53708244  1
  P  P11  1  0.04489050  0.95765298  0.25065382  1
  P  P12  1  0.74766386  0.54500697  0.96372553  1
  O  O13  1  0.81226948  0.52307743  0.11429601  1
  O  O14  1  0.68562692  0.38118467  0.01373551  1
  O  O15  1  0.87537335  0.99598867  0.20390295  1
  O  O16  1  0.95168500  0.22595285  0.57773016  1
  O  O17  1  0.41002266  0.25814654  0.06242049  1
  O  O18  1  0.73846259  0.58755595  0.44119677  1
  O  O19  1  0.53819464  0.91633181  0.27694955  1
  O  O20  1  0.99232887  0.87195640  0.69978331  1
  O  O21  1  0.23897758  0.93264596  0.08212150  1
  O  O22  1  0.62134441  0.31039272  0.47916297  1
  O  O23  1  0.90871883  0.56000062  0.76449472  1
  O  O24  1  0.46355863  0.19154887  0.38692451  1
  O  O25  1  0.51896562  0.81186023  0.61899337  1
  O  O26  1  0.09466816  0.43786781  0.23582769  1
  O  O27  1  0.37630914  0.68198946  0.52134534  1
  O  O28  1  0.76702545  0.06135270  0.91411663  1
  O  O29  1  0.02958141  0.12008616  0.29656326  1
  O  O30  1  0.44191854  0.09118376  0.73336147  1
  O  O31  1  0.25724408  0.41610567  0.56171744  1
  O  O32  1  0.58809319  0.74145435  0.93884999  1
  O  O33  1  0.06556678  0.76421825  0.41384813  1
  O  O34  1  0.12862431  0.00576674  0.79884695  1
  O  O35  1  0.31719619  0.61997495  0.98349104  1
  O  O36  1  0.18522557  0.48084744  0.88552927  1
