# generated using pymatgen
data_Sn2Ge2O7
_symmetry_space_group_name_H-M   'P 1'
_cell_length_a   13.26423952
_cell_length_b   6.97796255
_cell_length_c   6.90785531
_cell_angle_alpha   98.46967625
_cell_angle_beta   84.63336010
_cell_angle_gamma   99.08351738
_symmetry_Int_Tables_number   1
_chemical_formula_structural   Sn2Ge2O7
_chemical_formula_sum   'Sn8 Ge8 O28'
_cell_volume   622.85048618
_cell_formula_units_Z   4
loop_
 _symmetry_equiv_pos_site_id
 _symmetry_equiv_pos_as_xyz
  1  'x, y, z'
loop_
 _atom_site_type_symbol
 _atom_site_label
 _atom_site_symmetry_multiplicity
 _atom_site_fract_x
 _atom_site_fract_y
 _atom_site_fract_z
 _atom_site_occupancy
  Sn  Sn0  1  0.13176017  0.77493209  0.41820748  1
  Sn  Sn1  1  0.13719843  0.33089122  0.06276739  1
  Sn  Sn2  1  0.35967726  0.77100287  0.65583496  1
  Sn  Sn3  1  0.34556336  0.10606873  0.13186555  1
  Sn  Sn4  1  0.65443664  0.89393127  0.86813445  1
  Sn  Sn5  1  0.64032274  0.22899713  0.34416504  1
  Sn  Sn6  1  0.86280157  0.66910878  0.93723261  1
  Sn  Sn7  1  0.86823983  0.22506791  0.58179252  1
  Ge  Ge8  1  0.12656081  0.80633034  0.92280593  1
  Ge  Ge9  1  0.19601501  0.31673574  0.54987209  1
  Ge  Ge10  1  0.37077379  0.62329073  0.13918379  1
  Ge  Ge11  1  0.42340525  0.28039833  0.63995940  1
  Ge  Ge12  1  0.57659475  0.71960167  0.36004060  1
  Ge  Ge13  1  0.62922621  0.37670927  0.86081621  1
  Ge  Ge14  1  0.80398499  0.68326426  0.45012791  1
  Ge  Ge15  1  0.87343919  0.19366966  0.07719407  1
  O  O16  1  0.99616602  0.20428963  0.15031222  1
  O  O17  1  0.13753781  0.63837486  0.08749411  1
  O  O18  1  0.11707296  0.30622958  0.76730350  1
  O  O19  1  0.14432710  0.43565044  0.37838292  1
  O  O20  1  0.20224187  0.74324111  0.69987851  1
  O  O21  1  0.18203546  0.04275044  0.03260532  1
  O  O22  1  0.23579292  0.10143036  0.42492950  1
  O  O23  1  0.33030766  0.44428329  0.61446836  1
  O  O24  1  0.31888458  0.75466707  0.36076645  1
  O  O25  1  0.29814217  0.39122328  0.06586286  1
  O  O26  1  0.37102574  0.06971517  0.74535047  1
  O  O27  1  0.37174899  0.77553304  0.95610246  1
  O  O28  1  0.48868270  0.23090995  0.40887397  1
  O  O29  1  0.49271548  0.57458607  0.19073433  1
  O  O30  1  0.50728452  0.42541393  0.80926567  1
  O  O31  1  0.51131730  0.76909005  0.59112603  1
  O  O32  1  0.62825101  0.22446696  0.04389754  1
  O  O33  1  0.62897426  0.93028483  0.25464853  1
  O  O34  1  0.70185783  0.60877672  0.93413714  1
  O  O35  1  0.68111542  0.24533293  0.63923355  1
  O  O36  1  0.66969234  0.55571571  0.38553164  1
  O  O37  1  0.76420708  0.89856964  0.57507050  1
  O  O38  1  0.81796454  0.95724956  0.96739468  1
  O  O39  1  0.79775813  0.25675889  0.30012149  1
  O  O40  1  0.85567290  0.56434956  0.62161708  1
  O  O41  1  0.88292704  0.69377042  0.23269650  1
  O  O42  1  0.86246219  0.36162514  0.91250589  1
  O  O43  1  0.00383398  0.79571037  0.84968778  1
