# generated using pymatgen
data_NaGePCO7
_symmetry_space_group_name_H-M   'P 1'
_cell_length_a   8.98422595
_cell_length_b   6.32079228
_cell_length_c   5.13051686
_cell_angle_alpha   90.00000000
_cell_angle_beta   87.32249604
_cell_angle_gamma   90.00000000
_symmetry_Int_Tables_number   1
_chemical_formula_structural   NaGePCO7
_chemical_formula_sum   'Na2 Ge2 P2 C2 O14'
_cell_volume   291.03077921
_cell_formula_units_Z   2
loop_
 _symmetry_equiv_pos_site_id
 _symmetry_equiv_pos_as_xyz
  1  'x, y, z'
loop_
 _atom_site_type_symbol
 _atom_site_label
 _atom_site_symmetry_multiplicity
 _atom_site_fract_x
 _atom_site_fract_y
 _atom_site_fract_z
 _atom_site_occupancy
  Na  Na0  1  0.22497392  0.47746006  0.23760831  1
  Na  Na1  1  0.77502608  0.97746006  0.76239169  1
  Ge  Ge2  1  0.33904370  0.76466598  0.78341475  1
  Ge  Ge3  1  0.66095630  0.26466598  0.21658525  1
  P  P4  1  0.43524636  0.25518367  0.72705694  1
  P  P5  1  0.56475364  0.75518367  0.27294306  1
  C  C6  1  0.07993696  0.74373936  0.72431010  1
  C  C7  1  0.92006304  0.24373936  0.27568990  1
  O  O8  1  0.05436408  0.24058112  0.30998409  1
  O  O9  1  0.14425167  0.74891109  0.95494562  1
  O  O10  1  0.18871562  0.74460107  0.53182193  1
  O  O11  1  0.33438688  0.06291012  0.78714344  1
  O  O12  1  0.33880301  0.44977062  0.79756370  1
  O  O13  1  0.42068398  0.74686521  0.11824767  1
  O  O14  1  0.48150358  0.26315969  0.42782935  1
  O  O15  1  0.51849642  0.76315969  0.57217065  1
  O  O16  1  0.57931602  0.24686521  0.88175233  1
  O  O17  1  0.66119699  0.94977062  0.20243630  1
  O  O18  1  0.66561312  0.56291012  0.21285656  1
  O  O19  1  0.81128438  0.24460107  0.46817807  1
  O  O20  1  0.85574833  0.24891109  0.04505438  1
  O  O21  1  0.94563592  0.74058112  0.69001591  1
