# generated using pymatgen
data_Li4Nb2Fe3O10
_symmetry_space_group_name_H-M   'P 1'
_cell_length_a   5.41282695
_cell_length_b   5.27570088
_cell_length_c   8.17840680
_cell_angle_alpha   79.45384403
_cell_angle_beta   69.37549979
_cell_angle_gamma   100.93251027
_symmetry_Int_Tables_number   1
_chemical_formula_structural   Li4Nb2Fe3O10
_chemical_formula_sum   'Li4 Nb2 Fe3 O10'
_cell_volume   206.52740583
_cell_formula_units_Z   1
loop_
 _symmetry_equiv_pos_site_id
 _symmetry_equiv_pos_as_xyz
  1  'x, y, z'
loop_
 _atom_site_type_symbol
 _atom_site_label
 _atom_site_symmetry_multiplicity
 _atom_site_fract_x
 _atom_site_fract_y
 _atom_site_fract_z
 _atom_site_occupancy
  Li  Li0  1  0.15858424  0.51041434  0.60096294  1
  Li  Li1  1  0.37962682  0.46403651  0.21117983  1
  Li  Li2  1  0.62037318  0.53596349  0.78882017  1
  Li  Li3  1  0.84141576  0.48958566  0.39903706  1
  Nb  Nb4  1  0.58664475  0.96447371  0.30580294  1
  Nb  Nb5  1  0.41335525  0.03552629  0.69419706  1
  Fe  Fe6  1  0.00000000  0.50000000  0.00000000  1
  Fe  Fe7  1  0.19908248  0.99407961  0.11444483  1
  Fe  Fe8  1  0.80091752  0.00592039  0.88555517  1
  O  O9  1  0.23824225  0.73481676  0.33677951  1
  O  O10  1  0.01866167  0.75789952  0.77179381  1
  O  O11  1  0.43508805  0.22583118  0.45449247  1
  O  O12  1  0.59611181  0.22212562  0.07343626  1
  O  O13  1  0.20407265  0.24536703  0.83716329  1
  O  O14  1  0.79592735  0.75463297  0.16283671  1
  O  O15  1  0.40388819  0.77787438  0.92656374  1
  O  O16  1  0.56491195  0.77416882  0.54550753  1
  O  O17  1  0.98133833  0.24210048  0.22820619  1
  O  O18  1  0.76175775  0.26518324  0.66322049  1
