# generated using pymatgen
data_Ba2SrI6
_symmetry_space_group_name_H-M   'P 1'
_cell_length_a   10.87627640
_cell_length_b   9.77497890
_cell_length_c   15.43708447
_cell_angle_alpha   90.00000000
_cell_angle_beta   87.89643792
_cell_angle_gamma   90.00000000
_symmetry_Int_Tables_number   1
_chemical_formula_structural   Ba2SrI6
_chemical_formula_sum   'Ba8 Sr4 I24'
_cell_volume   1640.09340083
_cell_formula_units_Z   4
loop_
 _symmetry_equiv_pos_site_id
 _symmetry_equiv_pos_as_xyz
  1  'x, y, z'
loop_
 _atom_site_type_symbol
 _atom_site_label
 _atom_site_symmetry_multiplicity
 _atom_site_fract_x
 _atom_site_fract_y
 _atom_site_fract_z
 _atom_site_occupancy
  Ba  Ba0  1  0.11230043  0.78876476  0.59117522  1
  Ba  Ba1  1  0.14426001  0.60149214  0.21339340  1
  Ba  Ba2  1  0.35573999  0.10149214  0.28660660  1
  Ba  Ba3  1  0.38770057  0.28876476  0.90882478  1
  Ba  Ba4  1  0.61229943  0.71123524  0.09117522  1
  Ba  Ba5  1  0.64426001  0.89850786  0.71339340  1
  Ba  Ba6  1  0.85573999  0.39850786  0.78660660  1
  Ba  Ba7  1  0.88770057  0.21123524  0.40882478  1
  Sr  Sr8  1  0.14418736  0.84965473  0.92671215  1
  Sr  Sr9  1  0.35581264  0.34965473  0.57328785  1
  Sr  Sr10  1  0.64418736  0.65034527  0.42671215  1
  Sr  Sr11  1  0.85581264  0.15034527  0.07328785  1
  I  I12  1  0.06146215  0.17115710  0.91090060  1
  I  I13  1  0.07402628  0.23733187  0.20729411  1
  I  I14  1  0.05934521  0.88839672  0.36428636  1
  I  I15  1  0.18682969  0.54367158  0.98882494  1
  I  I16  1  0.15824623  0.44387881  0.42581301  1
  I  I17  1  0.17206977  0.45965085  0.72668398  1
  I  I18  1  0.32793023  0.95965085  0.77331602  1
  I  I19  1  0.31317031  0.04367158  0.51117506  1
  I  I20  1  0.34175377  0.94387881  0.07418699  1
  I  I21  1  0.44065479  0.38839672  0.13571364  1
  I  I22  1  0.42597372  0.73733187  0.29270589  1
  I  I23  1  0.43853785  0.67115710  0.58909940  1
  I  I24  1  0.56146215  0.32884290  0.41090060  1
  I  I25  1  0.57402628  0.26266813  0.70729411  1
  I  I26  1  0.55934521  0.61160328  0.86428636  1
  I  I27  1  0.65824623  0.05612119  0.92581301  1
  I  I28  1  0.68682969  0.95632842  0.48882494  1
  I  I29  1  0.67206977  0.04034915  0.22668398  1
  I  I30  1  0.82793023  0.54034915  0.27331602  1
  I  I31  1  0.84175377  0.55612119  0.57418699  1
  I  I32  1  0.81317031  0.45632842  0.01117506  1
  I  I33  1  0.94065479  0.11160328  0.63571364  1
  I  I34  1  0.92597372  0.76266813  0.79270589  1
  I  I35  1  0.93853785  0.82884290  0.08909940  1
