# generated using pymatgen
data_NaVPCO7
_symmetry_space_group_name_H-M   'P 1'
_cell_length_a   8.52385563
_cell_length_b   5.48482576
_cell_length_c   6.43589540
_cell_angle_alpha   90.00000000
_cell_angle_beta   90.00000000
_cell_angle_gamma   87.08007168
_symmetry_Int_Tables_number   1
_chemical_formula_structural   NaVPCO7
_chemical_formula_sum   'Na2 V2 P2 C2 O14'
_cell_volume   300.49945403
_cell_formula_units_Z   2
loop_
 _symmetry_equiv_pos_site_id
 _symmetry_equiv_pos_as_xyz
  1  'x, y, z'
loop_
 _atom_site_type_symbol
 _atom_site_label
 _atom_site_symmetry_multiplicity
 _atom_site_fract_x
 _atom_site_fract_y
 _atom_site_fract_z
 _atom_site_occupancy
  Na  Na0  1  0.08105925  0.77278538  0.25000000  1
  Na  Na1  1  0.91894075  0.22721462  0.75000000  1
  V  V2  1  0.33655024  0.77943536  0.75000000  1
  V  V3  1  0.66344976  0.22056464  0.25000000  1
  P  P4  1  0.43664440  0.74002300  0.25000000  1
  P  P5  1  0.56335560  0.25997700  0.75000000  1
  C  C6  1  0.05551053  0.69667903  0.75000000  1
  C  C7  1  0.94448947  0.30332097  0.25000000  1
  O  O8  1  0.08562941  0.34648172  0.25000000  1
  O  O9  1  0.11140408  0.91972308  0.75000000  1
  O  O10  1  0.17354857  0.52916679  0.75000000  1
  O  O11  1  0.32874359  0.78410331  0.05991761  1
  O  O12  1  0.32874359  0.78410331  0.44008239  1
  O  O13  1  0.42619814  0.08577758  0.75000000  1
  O  O14  1  0.50631631  0.47350509  0.25000000  1
  O  O15  1  0.49368369  0.52649491  0.75000000  1
  O  O16  1  0.57380186  0.91422242  0.25000000  1
  O  O17  1  0.67125641  0.21589669  0.55991761  1
  O  O18  1  0.67125641  0.21589669  0.94008239  1
  O  O19  1  0.82645143  0.47083321  0.25000000  1
  O  O20  1  0.88859592  0.08027692  0.25000000  1
  O  O21  1  0.91437059  0.65351828  0.75000000  1
