# generated using pymatgen
data_Li2MgCo13O28
_symmetry_space_group_name_H-M   'P 1'
_cell_length_a   8.17537043
_cell_length_b   8.65398789
_cell_length_c   7.54469339
_cell_angle_alpha   104.66572236
_cell_angle_beta   105.64676189
_cell_angle_gamma   100.90736612
_symmetry_Int_Tables_number   1
_chemical_formula_structural   Li2MgCo13O28
_chemical_formula_sum   'Li2 Mg1 Co13 O28'
_cell_volume   477.88180958
_cell_formula_units_Z   1
loop_
 _symmetry_equiv_pos_site_id
 _symmetry_equiv_pos_as_xyz
  1  'x, y, z'
loop_
 _atom_site_type_symbol
 _atom_site_label
 _atom_site_symmetry_multiplicity
 _atom_site_fract_x
 _atom_site_fract_y
 _atom_site_fract_z
 _atom_site_occupancy
  Li  Li0  1  0.21578770  0.29192959  0.57927852  1
  Li  Li1  1  0.78421230  0.70807041  0.42072148  1
  Mg  Mg2  1  0.50000000  0.50000000  0.50000000  1
  Co  Co3  1  0.78785107  0.21557001  0.92821862  1
  Co  Co4  1  0.92882632  0.07108020  0.64285346  1
  Co  Co5  1  0.57820877  0.43448797  0.86235839  1
  Co  Co6  1  0.36161088  0.64736966  0.78840048  1
  Co  Co7  1  0.71644294  0.28700915  0.57227774  1
  Co  Co8  1  0.84852627  0.13587017  0.28084106  1
  Co  Co9  1  0.15147373  0.86412983  0.71915894  1
  Co  Co10  1  0.63838912  0.35263034  0.21159952  1
  Co  Co11  1  0.28355706  0.71299085  0.42772226  1
  Co  Co12  1  0.00000000  0.00000000  0.00000000  1
  Co  Co13  1  0.42179123  0.56551203  0.13764161  1
  Co  Co14  1  0.07117368  0.92891980  0.35714654  1
  Co  Co15  1  0.21214893  0.78442999  0.07178138  1
  O  O16  1  0.00865324  0.18610763  0.91234295  1
  O  O17  1  0.56996792  0.24234953  0.94239201  1
  O  O18  1  0.34910642  0.45236346  0.86420879  1
  O  O19  1  0.71097924  0.09981126  0.65825111  1
  O  O20  1  0.79922167  0.40342628  0.84468346  1
  O  O21  1  0.15248277  0.05282750  0.62654080  1
  O  O22  1  0.58252038  0.62550192  0.79514065  1
  O  O23  1  0.22132029  0.97531281  0.98798912  1
  O  O24  1  0.13799285  0.67636629  0.80071352  1
  O  O25  1  0.93823849  0.25616879  0.55246415  1
  O  O26  1  0.49979151  0.30543518  0.60246240  1
  O  O27  1  0.07708675  0.11761115  0.27359514  1
  O  O28  1  0.26678850  0.53132203  0.52360563  1
  O  O29  1  0.36604893  0.83553232  0.69985791  1
  O  O30  1  0.73321150  0.46867797  0.47639437  1
  O  O31  1  0.92291325  0.88238885  0.72640486  1
  O  O32  1  0.63395107  0.16446768  0.30014209  1
  O  O33  1  0.50020849  0.69456482  0.39753760  1
  O  O34  1  0.77867971  0.02468719  0.01201088  1
  O  O35  1  0.06176151  0.74383121  0.44753585  1
  O  O36  1  0.86200715  0.32363371  0.19928648  1
  O  O37  1  0.41747962  0.37449808  0.20485935  1
  O  O38  1  0.28902076  0.90018774  0.34174889  1
  O  O39  1  0.84751723  0.94717250  0.37345920  1
  O  O40  1  0.65089358  0.54763654  0.13579121  1
  O  O41  1  0.20077833  0.59657372  0.15531654  1
  O  O42  1  0.43003208  0.75765047  0.05760799  1
  O  O43  1  0.99134676  0.81389237  0.08765705  1
