# generated using pymatgen
data_Na3Ni2P2(CO7)2
_symmetry_space_group_name_H-M   'P 1'
_cell_length_a   10.22929662
_cell_length_b   10.50188359
_cell_length_c   6.50215576
_cell_angle_alpha   90.00000000
_cell_angle_beta   90.00000000
_cell_angle_gamma   59.58384789
_symmetry_Int_Tables_number   1
_chemical_formula_structural   Na3Ni2P2(CO7)2
_chemical_formula_sum   'Na6 Ni4 P4 C4 O28'
_cell_volume   602.37158157
_cell_formula_units_Z   2
loop_
 _symmetry_equiv_pos_site_id
 _symmetry_equiv_pos_as_xyz
  1  'x, y, z'
loop_
 _atom_site_type_symbol
 _atom_site_label
 _atom_site_symmetry_multiplicity
 _atom_site_fract_x
 _atom_site_fract_y
 _atom_site_fract_z
 _atom_site_occupancy
  Na  Na0  1  0.00594147  0.24256568  0.46265762  1
  Na  Na1  1  0.49670670  0.25778852  0.98775797  1
  Na  Na2  1  0.49999434  0.25168878  0.51530016  1
  Na  Na3  1  0.50000566  0.74831122  0.01530016  1
  Na  Na4  1  0.50329330  0.74221148  0.48775797  1
  Na  Na5  1  0.99405853  0.75743432  0.96265762  1
  Ni  Ni6  1  0.27725786  0.06787310  0.75604355  1
  Ni  Ni7  1  0.21388695  0.43506522  0.25508132  1
  Ni  Ni8  1  0.78611305  0.56493478  0.75508132  1
  Ni  Ni9  1  0.72274214  0.93212690  0.25604355  1
  P  P10  1  0.35742308  0.06774158  0.25221404  1
  P  P11  1  0.14579032  0.42369177  0.75338181  1
  P  P12  1  0.85420968  0.57630823  0.25338181  1
  P  P13  1  0.64257692  0.93225842  0.75221404  1
  C  C14  1  0.81736555  0.10441115  0.24494633  1
  C  C15  1  0.31775964  0.60079207  0.25019504  1
  C  C16  1  0.68224036  0.39920793  0.75019504  1
  C  C17  1  0.18263445  0.89558885  0.74494633  1
  O  O18  1  0.09508203  0.03770628  0.74282844  1
  O  O19  1  0.27823817  0.04650213  0.06442038  1
  O  O20  1  0.26884301  0.05845561  0.43902597  1
  O  O21  1  0.13860818  0.28070499  0.74559217  1
  O  O22  1  0.01963256  0.44321038  0.25984713  1
  O  O23  1  0.47461318  0.06457804  0.75957328  1
  O  O24  1  0.35987729  0.21380663  0.24963078  1
  O  O25  1  0.23461232  0.43268330  0.94069615  1
  O  O26  1  0.23538086  0.43290140  0.56690768  1
  O  O27  1  0.67234003  0.14639851  0.24804072  1
  O  O28  1  0.17372260  0.64638556  0.24448335  1
  O  O29  1  0.40156965  0.45667288  0.25561132  1
  O  O30  1  0.62789164  0.31512257  0.75014396  1
  O  O31  1  0.13711422  0.80523586  0.74577584  1
  O  O32  1  0.86288578  0.19476414  0.24577584  1
  O  O33  1  0.37210836  0.68487743  0.25014396  1
  O  O34  1  0.59843035  0.54332712  0.75561132  1
  O  O35  1  0.82627740  0.35361444  0.74448335  1
  O  O36  1  0.32765997  0.85360149  0.74804072  1
  O  O37  1  0.76461914  0.56709860  0.06690768  1
  O  O38  1  0.76538768  0.56731670  0.44069615  1
  O  O39  1  0.64012271  0.78619337  0.74963078  1
  O  O40  1  0.52538682  0.93542196  0.25957328  1
  O  O41  1  0.98036744  0.55678962  0.75984713  1
  O  O42  1  0.86139182  0.71929501  0.24559217  1
  O  O43  1  0.72176183  0.95349787  0.56442038  1
  O  O44  1  0.73115699  0.94154439  0.93902597  1
  O  O45  1  0.90491797  0.96229372  0.24282844  1
