# generated using pymatgen
data_Li7Mn2(CoO4)3
_symmetry_space_group_name_H-M   'P 1'
_cell_length_a   3.02597514
_cell_length_b   7.80475178
_cell_length_c   10.10558848
_cell_angle_alpha   68.43604278
_cell_angle_beta   91.66401635
_cell_angle_gamma   82.70443982
_symmetry_Int_Tables_number   1
_chemical_formula_structural   Li7Mn2(CoO4)3
_chemical_formula_sum   'Li7 Mn2 Co3 O12'
_cell_volume   219.41927212
_cell_formula_units_Z   1
loop_
 _symmetry_equiv_pos_site_id
 _symmetry_equiv_pos_as_xyz
  1  'x, y, z'
loop_
 _atom_site_type_symbol
 _atom_site_label
 _atom_site_symmetry_multiplicity
 _atom_site_fract_x
 _atom_site_fract_y
 _atom_site_fract_z
 _atom_site_occupancy
  Li  Li0  1  0.83032810  0.33673536  0.08762543  1
  Li  Li1  1  0.16798427  0.66886838  0.41139168  1
  Li  Li2  1  0.49644817  0.00248254  0.74566133  1
  Li  Li3  1  0.17021883  0.66418446  0.92100567  1
  Li  Li4  1  0.49868273  0.99779862  0.25527532  1
  Li  Li5  1  0.83633790  0.32993064  0.57904057  1
  Li  Li6  1  0.33333300  0.33333300  0.33333300  1
  Mn  Mn7  1  0.99612179  0.99652508  0.00251181  1
  Mn  Mn8  1  0.67054521  0.67014192  0.66415519  1
  Co  Co9  1  0.33333300  0.33333300  0.83333300  1
  Co  Co10  1  0.68214536  0.65043679  0.17430243  1
  Co  Co11  1  0.98452164  0.01623021  0.49236457  1
  O  O12  1  0.37811261  0.17001718  0.03344407  1
  O  O13  1  0.73666866  0.51936903  0.35578498  1
  O  O14  1  0.05345495  0.84263113  0.69105040  1
  O  O15  1  0.76542845  0.50006009  0.86305923  1
  O  O16  1  0.06258143  0.82764333  0.19904318  1
  O  O17  1  0.39081351  0.15455029  0.53697422  1
  O  O18  1  0.27585249  0.51211571  0.12969178  1
  O  O19  1  0.60408557  0.83902367  0.46762382  1
  O  O20  1  0.90123855  0.16660691  0.80360777  1
  O  O21  1  0.61321205  0.82403587  0.97561660  1
  O  O22  1  0.92999834  0.14729797  0.31088202  1
  O  O23  1  0.28855339  0.49664882  0.63322193  1
