# generated using pymatgen
data_Ba2YCl7
_symmetry_space_group_name_H-M   'P 1'
_cell_length_a   7.17174317
_cell_length_b   13.87961732
_cell_length_c   12.48632881
_cell_angle_alpha   90.00000000
_cell_angle_beta   95.19223642
_cell_angle_gamma   90.00000000
_symmetry_Int_Tables_number   1
_chemical_formula_structural   Ba2YCl7
_chemical_formula_sum   'Ba8 Y4 Cl28'
_cell_volume   1237.80225145
_cell_formula_units_Z   4
loop_
 _symmetry_equiv_pos_site_id
 _symmetry_equiv_pos_as_xyz
  1  'x, y, z'
loop_
 _atom_site_type_symbol
 _atom_site_label
 _atom_site_symmetry_multiplicity
 _atom_site_fract_x
 _atom_site_fract_y
 _atom_site_fract_z
 _atom_site_occupancy
  Ba  Ba0  1  0.23830951  0.45810241  0.73875365  1
  Ba  Ba1  1  0.26866245  0.86085494  0.62097601  1
  Ba  Ba2  1  0.25578966  0.21754646  0.12204680  1
  Ba  Ba3  1  0.29340173  0.62716447  0.22700918  1
  Ba  Ba4  1  0.70659827  0.12716447  0.77299082  1
  Ba  Ba5  1  0.74421034  0.71754646  0.87795320  1
  Ba  Ba6  1  0.73133755  0.36085494  0.37902399  1
  Ba  Ba7  1  0.76169049  0.95810241  0.26124635  1
  Y  Y8  1  0.18960008  0.15506774  0.54471555  1
  Y  Y9  1  0.20803485  0.92376136  0.04098178  1
  Y  Y10  1  0.79196515  0.42376136  0.95901822  1
  Y  Y11  1  0.81039992  0.65506774  0.45528445  1
  Cl  Cl12  1  0.03516197  0.29680092  0.88996582  1
  Cl  Cl13  1  0.05412251  0.56119157  0.98195815  1
  Cl  Cl14  1  0.03762295  0.50472240  0.50090723  1
  Cl  Cl15  1  0.11383750  0.85009596  0.85315277  1
  Cl  Cl16  1  0.08522779  0.76594167  0.39294038  1
  Cl  Cl17  1  0.10527066  0.22773002  0.35437434  1
  Cl  Cl18  1  0.20754519  0.08636023  0.74300208  1
  Cl  Cl19  1  0.23065895  0.98851644  0.24179930  1
  Cl  Cl20  1  0.38488446  0.66533615  0.72912496  1
  Cl  Cl21  1  0.37879607  0.41213365  0.22592235  1
  Cl  Cl22  1  0.43266445  0.29536922  0.60400105  1
  Cl  Cl23  1  0.52030503  0.29622267  0.90552559  1
  Cl  Cl24  1  0.48244191  0.04457950  0.52830137  1
  Cl  Cl25  1  0.53118182  0.54945021  0.99125794  1
  Cl  Cl26  1  0.46881818  0.04945021  0.00874206  1
  Cl  Cl27  1  0.51755809  0.54457950  0.47169863  1
  Cl  Cl28  1  0.47969497  0.79622267  0.09447441  1
  Cl  Cl29  1  0.56733555  0.79536922  0.39599895  1
  Cl  Cl30  1  0.62120393  0.91213365  0.77407765  1
  Cl  Cl31  1  0.61511554  0.16533615  0.27087504  1
  Cl  Cl32  1  0.76934105  0.48851644  0.75820070  1
  Cl  Cl33  1  0.79245481  0.58636023  0.25699792  1
  Cl  Cl34  1  0.89472934  0.72773002  0.64562566  1
  Cl  Cl35  1  0.91477221  0.26594167  0.60705962  1
  Cl  Cl36  1  0.88616250  0.35009596  0.14684723  1
  Cl  Cl37  1  0.96237705  0.00472240  0.49909277  1
  Cl  Cl38  1  0.94587749  0.06119157  0.01804185  1
  Cl  Cl39  1  0.96483803  0.79680092  0.11003418  1
