# generated using pymatgen
data_LuSeO3
_symmetry_space_group_name_H-M   'P 1'
_cell_length_a   5.85703860
_cell_length_b   12.42827110
_cell_length_c   8.65812715
_cell_angle_alpha   90.00000000
_cell_angle_beta   105.81202993
_cell_angle_gamma   90.00000000
_symmetry_Int_Tables_number   1
_chemical_formula_structural   LuSeO3
_chemical_formula_sum   'Lu8 Se8 O24'
_cell_volume   606.40171999
_cell_formula_units_Z   8
loop_
 _symmetry_equiv_pos_site_id
 _symmetry_equiv_pos_as_xyz
  1  'x, y, z'
loop_
 _atom_site_type_symbol
 _atom_site_label
 _atom_site_symmetry_multiplicity
 _atom_site_fract_x
 _atom_site_fract_y
 _atom_site_fract_z
 _atom_site_occupancy
  Lu  Lu0  1  0.24241986  0.44063657  0.91527845  1
  Lu  Lu1  1  0.24241986  0.05936343  0.41527845  1
  Lu  Lu2  1  0.36374699  0.75442096  0.85597390  1
  Lu  Lu3  1  0.36374699  0.74557904  0.35597390  1
  Lu  Lu4  1  0.63625301  0.25442096  0.64402610  1
  Lu  Lu5  1  0.63625301  0.24557904  0.14402610  1
  Lu  Lu6  1  0.75758014  0.94063657  0.58472155  1
  Lu  Lu7  1  0.75758014  0.55936343  0.08472155  1
  Se  Se8  1  0.04689853  0.16100578  0.00374325  1
  Se  Se9  1  0.04689853  0.33899422  0.50374325  1
  Se  Se10  1  0.37063179  0.01529666  0.82708578  1
  Se  Se11  1  0.37063179  0.48470334  0.32708578  1
  Se  Se12  1  0.62936821  0.51529666  0.67291422  1
  Se  Se13  1  0.62936821  0.98470334  0.17291422  1
  Se  Se14  1  0.95310147  0.66100578  0.49625675  1
  Se  Se15  1  0.95310147  0.83899422  0.99625675  1
  O  O16  1  0.98961841  0.82826209  0.80505388  1
  O  O17  1  0.98961841  0.67173791  0.30505388  1
  O  O18  1  0.12833066  0.01829361  0.64571129  1
  O  O19  1  0.22068718  0.72881122  0.58709193  1
  O  O20  1  0.25402541  0.23918259  0.50347182  1
  O  O21  1  0.12833066  0.48170639  0.14571129  1
  O  O22  1  0.40332785  0.59344191  0.91898732  1
  O  O23  1  0.22068718  0.77118878  0.08709193  1
  O  O24  1  0.25402541  0.26081741  0.00347182  1
  O  O25  1  0.45006743  0.40484149  0.71568003  1
  O  O26  1  0.40332785  0.90655809  0.41898732  1
  O  O27  1  0.54993257  0.90484149  0.78431997  1
  O  O28  1  0.45006743  0.09515851  0.21568003  1
  O  O29  1  0.59667215  0.09344191  0.58101268  1
  O  O30  1  0.54993257  0.59515851  0.28431997  1
  O  O31  1  0.74597459  0.73918259  0.99652818  1
  O  O32  1  0.77931282  0.22881122  0.91290807  1
  O  O33  1  0.59667215  0.40655809  0.08101268  1
  O  O34  1  0.87166934  0.51829361  0.85428871  1
  O  O35  1  0.74597459  0.76081741  0.49652818  1
  O  O36  1  0.77931282  0.27118878  0.41290807  1
  O  O37  1  0.87166934  0.98170639  0.35428871  1
  O  O38  1  0.01038159  0.32826209  0.69494612  1
  O  O39  1  0.01038159  0.17173791  0.19494612  1
