# generated using pymatgen
data_LiSbTe2WO12
_symmetry_space_group_name_H-M   'P 1'
_cell_length_a   5.34219491
_cell_length_b   10.69453092
_cell_length_c   9.38181576
_cell_angle_alpha   28.78355169
_cell_angle_beta   52.33059090
_cell_angle_gamma   57.53169951
_symmetry_Int_Tables_number   1
_chemical_formula_structural   LiSbTe2WO12
_chemical_formula_sum   'Li1 Sb1 Te2 W1 O12'
_cell_volume   204.28786953
_cell_formula_units_Z   1
loop_
 _symmetry_equiv_pos_site_id
 _symmetry_equiv_pos_as_xyz
  1  'x, y, z'
loop_
 _atom_site_type_symbol
 _atom_site_label
 _atom_site_symmetry_multiplicity
 _atom_site_fract_x
 _atom_site_fract_y
 _atom_site_fract_z
 _atom_site_occupancy
  Li  Li0  1  0.76346450  0.99894177  0.76326459  1
  Sb  Sb1  1  0.00097749  0.49856896  0.99364566  1
  Te  Te2  1  0.49101495  0.50243422  0.49794288  1
  Te  Te3  1  0.50192334  0.00013787  0.49509329  1
  W  W4  1  0.98899343  0.00256213  0.99864815  1
  O  O5  1  0.38014943  0.30820181  0.12517755  1
  O  O6  1  0.23967310  0.10447935  0.64573745  1
  O  O7  1  0.13395409  0.30507367  0.74692647  1
  O  O8  1  0.87129880  0.17450299  0.26320589  1
  O  O9  1  0.36819578  0.80853558  0.12548499  1
  O  O10  1  0.73728141  0.37386341  0.38051523  1
  O  O11  1  0.25230385  0.63034175  0.60986655  1
  O  O12  1  0.63267184  0.19289598  0.85701175  1
  O  O13  1  0.12540605  0.81863158  0.74062178  1
  O  O14  1  0.85443332  0.70095556  0.23714400  1
  O  O15  1  0.74767333  0.88491674  0.35902006  1
  O  O16  1  0.61778728  0.69495565  0.86789171  1
