# generated using pymatgen
data_LiCrBO3
_symmetry_space_group_name_H-M   'P 1'
_cell_length_a   8.21791832
_cell_length_b   8.21889164
_cell_length_c   3.17296029
_cell_angle_alpha   90.00000000
_cell_angle_beta   90.00000000
_cell_angle_gamma   120.00536280
_symmetry_Int_Tables_number   1
_chemical_formula_structural   LiCrBO3
_chemical_formula_sum   'Li3 Cr3 B3 O9'
_cell_volume   185.58670959
_cell_formula_units_Z   3
loop_
 _symmetry_equiv_pos_site_id
 _symmetry_equiv_pos_as_xyz
  1  'x, y, z'
loop_
 _atom_site_type_symbol
 _atom_site_label
 _atom_site_symmetry_multiplicity
 _atom_site_fract_x
 _atom_site_fract_y
 _atom_site_fract_z
 _atom_site_occupancy
  Li  Li0  1  0.28935864  0.01814984  0.50000000  1
  Li  Li1  1  0.98183386  0.27115905  0.50000000  1
  Li  Li2  1  0.72885150  0.71066305  0.50000000  1
  Cr  Cr3  1  0.01742972  0.62335402  0.00000000  1
  Cr  Cr4  1  0.60591735  0.98253033  0.00000000  1
  Cr  Cr5  1  0.37646048  0.39404301  0.00000000  1
  B  B6  1  0.33337321  0.66681039  0.50000000  1
  B  B7  1  -0.00000060  -0.00003465  0.00000000  1
  B  B8  1  0.66678091  0.33330322  0.50000000  1
  O  O9  1  0.21585672  0.74352303  0.50000000  1
  O  O10  1  0.25644554  0.47236281  0.50000000  1
  O  O11  1  0.52767057  0.78416994  0.50000000  1
  O  O12  1  0.19535940  0.08217169  0.00000000  1
  O  O13  1  0.55653202  0.41707498  0.50000000  1
  O  O14  1  0.88688202  0.80469396  0.00000000  1
  O  O15  1  0.58291976  0.13951548  0.50000000  1
  O  O16  1  0.86045653  0.44336566  0.50000000  1
  O  O17  1  0.91787239  0.11314419  0.00000000  1
