# generated using pymatgen
data_Li2FeBO4
_symmetry_space_group_name_H-M   'P 1'
_cell_length_a   5.03906956
_cell_length_b   5.03906956
_cell_length_c   6.17436845
_cell_angle_alpha   90.00000000
_cell_angle_beta   90.00000000
_cell_angle_gamma   92.05930910
_symmetry_Int_Tables_number   1
_chemical_formula_structural   Li2FeBO4
_chemical_formula_sum   'Li4 Fe2 B2 O8'
_cell_volume   156.67967986
_cell_formula_units_Z   2
loop_
 _symmetry_equiv_pos_site_id
 _symmetry_equiv_pos_as_xyz
  1  'x, y, z'
loop_
 _atom_site_type_symbol
 _atom_site_label
 _atom_site_symmetry_multiplicity
 _atom_site_fract_x
 _atom_site_fract_y
 _atom_site_fract_z
 _atom_site_occupancy
  Li  Li0  1  0.30478528  0.69521472  0.50000000  1
  Li  Li1  1  0.17453348  0.17453348  0.75000000  1
  Li  Li2  1  0.82546652  0.82546652  0.25000000  1
  Li  Li3  1  0.69521472  0.30478528  0.00000000  1
  Fe  Fe4  1  0.31604965  0.68395035  0.00000000  1
  Fe  Fe5  1  0.68395035  0.31604965  0.50000000  1
  B  B6  1  0.18073117  0.18073117  0.25000000  1
  B  B7  1  0.81926883  0.81926883  0.75000000  1
  O  O8  1  0.21915263  0.88605392  0.24236104  1
  O  O9  1  0.11394608  0.78084737  0.75763896  1
  O  O10  1  0.29385016  0.30705638  0.04919609  1
  O  O11  1  0.69294362  0.70614984  0.95080391  1
  O  O12  1  0.70614984  0.69294362  0.54919609  1
  O  O13  1  0.30705638  0.29385016  0.45080391  1
  O  O14  1  0.88605392  0.21915263  0.25763896  1
  O  O15  1  0.78084737  0.11394608  0.74236104  1
