# generated using pymatgen
data_Ni2PO5
_symmetry_space_group_name_H-M   'P 1'
_cell_length_a   7.18161437
_cell_length_b   6.35960242
_cell_length_c   7.48946779
_cell_angle_alpha   89.99950597
_cell_angle_beta   90.00638821
_cell_angle_gamma   90.00097294
_symmetry_Int_Tables_number   1
_chemical_formula_structural   Ni2PO5
_chemical_formula_sum   'Ni8 P4 O20'
_cell_volume   342.06055960
_cell_formula_units_Z   4
loop_
 _symmetry_equiv_pos_site_id
 _symmetry_equiv_pos_as_xyz
  1  'x, y, z'
loop_
 _atom_site_type_symbol
 _atom_site_label
 _atom_site_symmetry_multiplicity
 _atom_site_fract_x
 _atom_site_fract_y
 _atom_site_fract_z
 _atom_site_occupancy
  Ni  Ni0  1  0.00000457  -0.00000598  0.00000157  1
  Ni  Ni1  1  0.00000487  0.50000585  0.00000225  1
  Ni  Ni2  1  0.14455706  0.25000622  0.72363809  1
  Ni  Ni3  1  0.35554430  0.74999531  0.22351441  1
  Ni  Ni4  1  0.49998662  0.00000548  0.50000606  1
  Ni  Ni5  1  0.49998611  0.49999470  0.50000330  1
  Ni  Ni6  1  0.64451148  0.25000556  0.77647310  1
  Ni  Ni7  1  0.85544589  0.74999245  0.27637012  1
  P  P8  1  0.11909961  0.75000244  0.63805631  1
  P  P9  1  0.38089206  0.24999948  0.13804886  1
  P  P10  1  0.61911313  0.75000042  0.86193990  1
  P  P11  1  0.88089495  0.24999633  0.36194849  1
  O  O12  1  0.05508299  0.25000395  0.47452974  1
  O  O13  1  0.09881626  0.74998223  0.13877499  1
  O  O14  1  0.13166562  0.94281085  0.76672090  1
  O  O15  1  0.13166770  0.55719743  0.76672918  1
  O  O16  1  0.19900312  0.25000293  0.02098380  1
  O  O17  1  0.30105720  0.74999641  0.52100250  1
  O  O18  1  0.36835340  0.05713786  0.26670132  1
  O  O19  1  0.36836186  0.44285667  0.26670358  1
  O  O20  1  0.40113617  0.25000659  0.63871293  1
  O  O21  1  0.44487150  0.74999700  0.97450378  1
  O  O22  1  0.55513379  0.25000295  0.02548583  1
  O  O23  1  0.59883167  0.74999590  0.36128395  1
  O  O24  1  0.63163402  0.55714351  0.73328919  1
  O  O25  1  0.63164259  0.94286233  0.73329231  1
  O  O26  1  0.69892822  0.25000394  0.47899397  1
  O  O27  1  0.80099650  0.74999756  0.97901525  1
  O  O28  1  0.86833226  0.05718676  0.23328548  1
  O  O29  1  0.86832975  0.44280295  0.23327808  1
  O  O30  1  0.90121662  0.25001864  0.86121639  1
  O  O31  1  0.94489810  0.74999528  0.52549437  1
