# generated using pymatgen
data_Li7Mn2(CoO4)3
_symmetry_space_group_name_H-M   'P 1'
_cell_length_a   3.02564727
_cell_length_b   8.04439647
_cell_length_c   9.83601865
_cell_angle_alpha   66.36240586
_cell_angle_beta   93.63109051
_cell_angle_gamma   90.57971598
_symmetry_Int_Tables_number   1
_chemical_formula_structural   Li7Mn2(CoO4)3
_chemical_formula_sum   'Li7 Mn2 Co3 O12'
_cell_volume   218.84698795
_cell_formula_units_Z   1
loop_
 _symmetry_equiv_pos_site_id
 _symmetry_equiv_pos_as_xyz
  1  'x, y, z'
loop_
 _atom_site_type_symbol
 _atom_site_label
 _atom_site_symmetry_multiplicity
 _atom_site_fract_x
 _atom_site_fract_y
 _atom_site_fract_z
 _atom_site_occupancy
  Li  Li0  1  -0.00018029  0.82307235  0.33995576  1
  Li  Li1  1  0.50414855  0.33877613  0.83091057  1
  Li  Li2  1  0.50047208  0.99984449  0.50099857  1
  Li  Li3  1  0.99974472  0.50194259  0.99935238  1
  Li  Li4  1  0.00014687  0.17419852  0.66079929  1
  Li  Li5  1  0.49554019  0.66118788  0.16858166  1
  Li  Li6  1  0.50029137  0.50007709  0.50079010  1
  Mn  Mn7  1  0.00359162  0.99908547  0.99922016  1
  Mn  Mn8  1  0.49780223  0.16816335  0.16964671  1
  Co  Co9  1  0.00030227  0.66231079  0.65773782  1
  Co  Co10  1  0.99486872  0.34029034  0.34275663  1
  Co  Co11  1  0.50404403  0.82974876  0.82992422  1
  O  O12  1  0.47168592  0.92702348  0.16391211  1
  O  O13  1  0.99625345  0.43980791  0.66977174  1
  O  O14  1  0.97771870  0.10625865  0.32896542  1
  O  O15  1  0.47268320  0.59696650  0.82436254  1
  O  O16  1  0.47607696  0.25662027  0.48785386  1
  O  O17  1  0.00777520  0.76143341  0.99207058  1
  O  O18  1  0.51983897  0.74438680  0.51237233  1
  O  O19  1  0.02741728  0.23799966  0.00616811  1
  O  O20  1  -0.00910963  0.89360700  0.67211834  1
  O  O21  1  0.52399525  0.40484146  0.17632631  1
  O  O22  1  0.52926622  0.07150841  0.83418675  1
  O  O23  1  0.00562613  0.56084872  0.33121803  1
