# generated using pymatgen
data_Li5Mn2P2(CO7)2
_symmetry_space_group_name_H-M   'P 1'
_cell_length_a   8.56513344
_cell_length_b   6.47285433
_cell_length_c   5.03060818
_cell_angle_alpha   89.91656046
_cell_angle_beta   86.79112568
_cell_angle_gamma   89.27372716
_symmetry_Int_Tables_number   1
_chemical_formula_structural   Li5Mn2P2(CO7)2
_chemical_formula_sum   'Li5 Mn2 P2 C2 O14'
_cell_volume   278.44151307
_cell_formula_units_Z   1
loop_
 _symmetry_equiv_pos_site_id
 _symmetry_equiv_pos_as_xyz
  1  'x, y, z'
loop_
 _atom_site_type_symbol
 _atom_site_label
 _atom_site_symmetry_multiplicity
 _atom_site_fract_x
 _atom_site_fract_y
 _atom_site_fract_z
 _atom_site_occupancy
  Li  Li0  1  0.10304802  0.23802781  0.75564673  1
  Li  Li1  1  0.27098303  0.46556992  0.23802498  1
  Li  Li2  1  0.73569157  0.52062572  0.75788445  1
  Li  Li3  1  0.73412600  0.97706941  0.75609497  1
  Li  Li4  1  0.91304361  0.75331348  0.26060772  1
  Mn  Mn5  1  0.33614540  0.75825228  0.79517155  1
  Mn  Mn6  1  0.65610753  0.24751028  0.21023901  1
  P  P7  1  0.41566122  0.25793517  0.71067881  1
  P  P8  1  0.58588731  0.74450666  0.28015332  1
  C  C9  1  0.03542123  0.74051127  0.73006497  1
  C  C10  1  0.95933089  0.25846398  0.27945854  1
  O  O11  1  0.06874095  0.74081273  0.97585764  1
  O  O12  1  0.09414589  0.28968172  0.36231415  1
  O  O13  1  0.14863055  0.73860948  0.54664440  1
  O  O14  1  0.31460574  0.06881552  0.78748874  1
  O  O15  1  0.31454253  0.44002037  0.83254432  1
  O  O16  1  0.43745717  0.28723846  0.40656627  1
  O  O17  1  0.42260151  0.73442543  0.17152285  1
  O  O18  1  0.58223937  0.24722218  0.82155813  1
  O  O19  1  0.57188886  0.74774485  0.59028781  1
  O  O20  1  0.69533474  0.56200589  0.17821382  1
  O  O21  1  0.68308069  0.93338121  0.17363197  1
  O  O22  1  0.84010015  0.23899097  0.45912339  1
  O  O23  1  0.89177336  0.74534860  0.65627124  1
  O  O24  1  0.92862868  0.24631759  0.03014123  1
