# generated using pymatgen
data_Li2Mn3FeO8
_symmetry_space_group_name_H-M   'P 1'
_cell_length_a   5.89958325
_cell_length_b   5.90713311
_cell_length_c   9.45122690
_cell_angle_alpha   89.99245979
_cell_angle_beta   90.00377311
_cell_angle_gamma   120.04234396
_symmetry_Int_Tables_number   1
_chemical_formula_structural   Li2Mn3FeO8
_chemical_formula_sum   'Li4 Mn6 Fe2 O16'
_cell_volume   285.12246928
_cell_formula_units_Z   2
loop_
 _symmetry_equiv_pos_site_id
 _symmetry_equiv_pos_as_xyz
  1  'x, y, z'
loop_
 _atom_site_type_symbol
 _atom_site_label
 _atom_site_symmetry_multiplicity
 _atom_site_fract_x
 _atom_site_fract_y
 _atom_site_fract_z
 _atom_site_occupancy
  Li  Li0  1  0.33336802  0.66671752  0.89099632  1
  Li  Li1  1  0.00011003  0.00011579  0.99764852  1
  Li  Li2  1  0.99988997  0.00000576  0.49764852  1
  Li  Li3  1  0.66663198  0.33334950  0.39099632  1
  Mn  Mn4  1  0.17093098  0.82889267  0.21491601  1
  Mn  Mn5  1  0.17091057  0.34203914  0.21495677  1
  Mn  Mn6  1  0.65808148  0.82902294  0.21475791  1
  Mn  Mn7  1  0.34191852  0.17094146  0.71475791  1
  Mn  Mn8  1  0.82906902  0.65796169  0.71491601  1
  Mn  Mn9  1  0.82908943  0.17112857  0.71495677  1
  Fe  Fe10  1  0.33365086  0.66683532  0.49376881  1
  Fe  Fe11  1  0.66634914  0.33318445  0.99376881  1
  O  O12  1  0.16281786  0.83810992  0.60269911  1
  O  O13  1  0.03959951  0.51980257  0.33673053  1
  O  O14  1  0.33535397  0.66768249  0.10053238  1
  O  O15  1  0.99833400  0.99914212  0.30820038  1
  O  O16  1  0.00166600  0.00080912  0.80820038  1
  O  O17  1  0.16280435  0.32473172  0.60269861  1
  O  O18  1  0.48075902  0.96037934  0.33656805  1
  O  O19  1  0.48072937  0.52035996  0.33661819  1
  O  O20  1  0.32470904  0.16239653  0.10282941  1
  O  O21  1  0.67529096  0.83768849  0.60282941  1
  O  O22  1  0.51924098  0.47962132  0.83656805  1
  O  O23  1  0.51927063  0.03963159  0.83661819  1
  O  O24  1  0.66464603  0.33232952  0.60053238  1
  O  O25  1  0.83718214  0.67529206  0.10269911  1
  O  O26  1  0.96040049  0.48020306  0.83673053  1
  O  O27  1  0.83719565  0.16192737  0.10269861  1
