# generated using pymatgen
data_Li3TiCr3O8
_symmetry_space_group_name_H-M   'P 1'
_cell_length_a   10.37326355
_cell_length_b   10.37326915
_cell_length_c   14.68851819
_cell_angle_alpha   19.26913937
_cell_angle_beta   19.26914020
_cell_angle_gamma   33.21249673
_symmetry_Int_Tables_number   1
_chemical_formula_structural   Li3TiCr3O8
_chemical_formula_sum   'Li3 Ti1 Cr3 O8'
_cell_volume   149.06836857
_cell_formula_units_Z   1
loop_
 _symmetry_equiv_pos_site_id
 _symmetry_equiv_pos_as_xyz
  1  'x, y, z'
loop_
 _atom_site_type_symbol
 _atom_site_label
 _atom_site_symmetry_multiplicity
 _atom_site_fract_x
 _atom_site_fract_y
 _atom_site_fract_z
 _atom_site_occupancy
  Li  Li0  1  0.00000172  0.50000202  0.49999731  1
  Li  Li1  1  0.49999798  0.99999728  0.50000369  1
  Li  Li2  1  0.50000093  0.49999907  0.50000000  1
  Ti  Ti3  1  0.00000784  0.99999216  0.00000000  1
  Cr  Cr4  1  0.99998268  0.50000720  0.00000288  1
  Cr  Cr5  1  0.49999280  0.00001632  -0.00000188  1
  Cr  Cr6  1  0.50002466  0.49997534  1.00000000  1
  O  O7  1  0.99995008  0.99995120  0.25951825  1
  O  O8  1  0.99995710  0.51497398  0.25084373  1
  O  O9  1  0.51497364  0.99995557  0.25084269  1
  O  O10  1  0.00004680  0.00004692  0.74048475  1
  O  O11  1  0.48494366  0.48495133  0.28087271  1
  O  O12  1  0.00004743  0.48502836  0.74915331  1
  O  O13  1  0.48502602  0.00004590  0.74915427  1
  O  O14  1  0.51504767  0.51505634  0.71912829  1
