# generated using pymatgen
data_La2Ti3O9
_symmetry_space_group_name_H-M   'P 1'
_cell_length_a   7.92044909
_cell_length_b   9.01208916
_cell_length_c   5.91399480
_cell_angle_alpha   108.23614106
_cell_angle_beta   91.22821227
_cell_angle_gamma   108.39917017
_symmetry_Int_Tables_number   1
_chemical_formula_structural   La2Ti3O9
_chemical_formula_sum   'La4 Ti6 O18'
_cell_volume   377.04258324
_cell_formula_units_Z   2
loop_
 _symmetry_equiv_pos_site_id
 _symmetry_equiv_pos_as_xyz
  1  'x, y, z'
loop_
 _atom_site_type_symbol
 _atom_site_label
 _atom_site_symmetry_multiplicity
 _atom_site_fract_x
 _atom_site_fract_y
 _atom_site_fract_z
 _atom_site_occupancy
  La  La0  1  0.18080501  0.57976547  0.80684653  1
  La  La1  1  0.19273207  0.21487917  0.12880909  1
  La  La2  1  0.80726793  0.78512083  0.87119091  1
  La  La3  1  0.81919499  0.42023453  0.19315347  1
  Ti  Ti4  1  0.07566359  0.85106132  0.42632662  1
  Ti  Ti5  1  0.48643862  0.99837848  0.76658579  1
  Ti  Ti6  1  0.48394289  0.66090751  0.33891519  1
  Ti  Ti7  1  0.51605711  0.33909249  0.66108481  1
  Ti  Ti8  1  0.51356138  0.00162152  0.23341421  1
  Ti  Ti9  1  0.92433641  0.14893868  0.57367338  1
  O  O10  1  0.00315588  0.99841586  0.71631803  1
  O  O11  1  0.01145044  0.69432492  0.11836975  1
  O  O12  1  0.02504790  0.69017897  0.57913661  1
  O  O13  1  0.32465831  0.95474137  0.98991571  1
  O  O14  1  0.32457089  0.94865899  0.45979427  1
  O  O15  1  0.28104115  0.49663013  0.18405297  1
  O  O16  1  0.32131165  0.39034292  0.61224485  1
  O  O17  1  0.46132256  0.76303376  0.65665775  1
  O  O18  1  0.52138651  0.77542478  0.12145069  1
  O  O19  1  0.47861349  0.22457522  0.87854931  1
  O  O20  1  0.53867744  0.23696624  0.34334225  1
  O  O21  1  0.67868835  0.60965708  0.38775515  1
  O  O22  1  0.71895885  0.50336987  0.81594703  1
  O  O23  1  0.67542911  0.05134101  0.54020573  1
  O  O24  1  0.67534169  0.04525863  0.01008429  1
  O  O25  1  0.97495210  0.30982103  0.42086339  1
  O  O26  1  0.98854956  0.30567508  0.88163025  1
  O  O27  1  0.99684412  0.00158414  0.28368197  1
