# generated using pymatgen
data_Li5Mn6O12
_symmetry_space_group_name_H-M   'P 1'
_cell_length_a   6.55207164
_cell_length_b   6.55719348
_cell_length_c   6.14229661
_cell_angle_alpha   76.73933231
_cell_angle_beta   67.61637045
_cell_angle_gamma   97.80142187
_symmetry_Int_Tables_number   1
_chemical_formula_structural   Li5Mn6O12
_chemical_formula_sum   'Li5 Mn6 O12'
_cell_volume   230.09138541
_cell_formula_units_Z   1
loop_
 _symmetry_equiv_pos_site_id
 _symmetry_equiv_pos_as_xyz
  1  'x, y, z'
loop_
 _atom_site_type_symbol
 _atom_site_label
 _atom_site_symmetry_multiplicity
 _atom_site_fract_x
 _atom_site_fract_y
 _atom_site_fract_z
 _atom_site_occupancy
  Li  Li0  1  0.50326337  0.00186938  0.24704182  1
  Li  Li1  1  0.16340363  0.66479762  0.25295818  1
  Li  Li2  1  0.50781229  0.00723667  0.75125429  1
  Li  Li3  1  0.15885371  0.65943033  0.74874571  1
  Li  Li4  1  0.83333300  0.33333300  0.25000000  1
  Mn  Mn5  1  0.00028515  0.99976497  0.99732590  1
  Mn  Mn6  1  0.99516298  0.00579674  0.50112181  1
  Mn  Mn7  1  0.34053153  0.33018235  0.99757370  1
  Mn  Mn8  1  0.32613547  0.33648365  0.50242630  1
  Mn  Mn9  1  0.67150402  0.66087026  0.99887819  1
  Mn  Mn10  1  0.66638185  0.66690203  0.50267410  1
  O  O11  1  0.25143864  0.01610253  0.09935560  1
  O  O12  1  0.24390409  0.02176918  0.60470206  1
  O  O13  1  0.10689222  0.32142550  0.35257420  1
  O  O14  1  0.55977478  0.34524050  0.14742580  1
  O  O15  1  0.10680601  0.31780720  0.87404183  1
  O  O16  1  0.55986099  0.34885980  0.62595817  1
  O  O17  1  0.41522836  0.65056447  0.40064440  1
  O  O18  1  0.42276191  0.64489782  0.89529794  1
  O  O19  1  0.91575549  0.67940822  0.10856482  1
  O  O20  1  0.91473203  0.69373295  0.60203832  1
  O  O21  1  0.75091051  0.98725878  0.39143518  1
  O  O22  1  0.75193497  0.97293405  0.89796168  1
