# generated using pymatgen
data_Ba2Ta2O7
_symmetry_space_group_name_H-M   'P 1'
_cell_length_a   7.77953422
_cell_length_b   7.77953422
_cell_length_c   7.77953422
_cell_angle_alpha   120.44776317
_cell_angle_beta   91.83452912
_cell_angle_gamma   117.46678312
_symmetry_Int_Tables_number   1
_chemical_formula_structural   Ba2Ta2O7
_chemical_formula_sum   'Ba4 Ta4 O14'
_cell_volume   337.70920358
_cell_formula_units_Z   2
loop_
 _symmetry_equiv_pos_site_id
 _symmetry_equiv_pos_as_xyz
  1  'x, y, z'
loop_
 _atom_site_type_symbol
 _atom_site_label
 _atom_site_symmetry_multiplicity
 _atom_site_fract_x
 _atom_site_fract_y
 _atom_site_fract_z
 _atom_site_occupancy
  Ba  Ba0  1  0.00000000  0.00000000  0.00000000  1
  Ba  Ba1  1  0.50000000  0.00000000  0.50000000  1
  Ba  Ba2  1  0.00000000  0.00000000  0.50000000  1
  Ba  Ba3  1  0.00000000  0.50000000  0.00000000  1
  Ta  Ta4  1  0.50000000  0.00000000  0.00000000  1
  Ta  Ta5  1  0.50000000  0.50000000  0.00000000  1
  Ta  Ta6  1  0.50000000  0.50000000  0.50000000  1
  Ta  Ta7  1  0.00000000  0.50000000  0.50000000  1
  O  O8  1  0.79888898  0.22820569  0.19178601  1
  O  O9  1  0.79999430  0.70959454  0.09039977  1
  O  O10  1  0.41629231  0.16629231  0.25000000  1
  O  O11  1  0.88080523  0.29040546  0.59039977  1
  O  O12  1  0.53641969  0.60710297  0.30821399  1
  O  O13  1  0.46358031  0.77179431  0.07068328  1
  O  O14  1  0.79888898  0.60710297  0.57068328  1
  O  O15  1  0.20111102  0.39289703  0.42931672  1
  O  O16  1  0.46358031  0.39289703  0.69178601  1
  O  O17  1  0.53641969  0.22820569  0.92931672  1
  O  O18  1  0.11919477  0.70959454  0.40960023  1
  O  O19  1  0.58370769  0.83370769  0.75000000  1
  O  O20  1  0.20000570  0.29040546  0.90960023  1
  O  O21  1  0.20111102  0.77179431  0.80821399  1
