# generated using pymatgen
data_Li3Ni(BO3)2
_symmetry_space_group_name_H-M   'P 1'
_cell_length_a   5.24363003
_cell_length_b   8.82893462
_cell_length_c   9.30953848
_cell_angle_alpha   90.00000000
_cell_angle_beta   92.34856462
_cell_angle_gamma   90.00000000
_symmetry_Int_Tables_number   1
_chemical_formula_structural   Li3Ni(BO3)2
_chemical_formula_sum   'Li12 Ni4 B8 O24'
_cell_volume   430.62926672
_cell_formula_units_Z   4
loop_
 _symmetry_equiv_pos_site_id
 _symmetry_equiv_pos_as_xyz
  1  'x, y, z'
loop_
 _atom_site_type_symbol
 _atom_site_label
 _atom_site_symmetry_multiplicity
 _atom_site_fract_x
 _atom_site_fract_y
 _atom_site_fract_z
 _atom_site_occupancy
  Li  Li0  1  0.15508736  0.97879109  0.65896707  1
  Li  Li1  1  0.16753730  0.65974578  0.62330455  1
  Li  Li2  1  0.17735812  0.99138450  0.11015173  1
  Li  Li3  1  0.33246270  0.15974578  0.87669545  1
  Li  Li4  1  0.32264188  0.49138450  0.38984827  1
  Li  Li5  1  0.34491264  0.47879109  0.84103293  1
  Li  Li6  1  0.65508736  0.52120891  0.15896707  1
  Li  Li7  1  0.67735812  0.50861550  0.61015173  1
  Li  Li8  1  0.66753730  0.84025422  0.12330455  1
  Li  Li9  1  0.82264188  0.00861550  0.88984827  1
  Li  Li10  1  0.83246270  0.34025422  0.37669545  1
  Li  Li11  1  0.84491264  0.02120891  0.34103293  1
  Ni  Ni12  1  0.14281107  0.31105935  0.12501351  1
  Ni  Ni13  1  0.35718893  0.81105935  0.37498649  1
  Ni  Ni14  1  0.64281107  0.18894065  0.62501351  1
  Ni  Ni15  1  0.85718893  0.68894065  0.87498649  1
  B  B16  1  0.17458978  0.31874224  0.62016472  1
  B  B17  1  0.16326653  0.65688926  0.13073804  1
  B  B18  1  0.32541022  0.81874224  0.87983528  1
  B  B19  1  0.33673347  0.15688926  0.36926196  1
  B  B20  1  0.66326653  0.84311074  0.63073804  1
  B  B21  1  0.67458978  0.18125776  0.12016472  1
  B  B22  1  0.83673347  0.34311074  0.86926196  1
  B  B23  1  0.82541022  0.68125776  0.37983528  1
  O  O24  1  0.09054570  0.32613845  0.92142391  1
  O  O25  1  0.08592941  0.67345415  0.40702173  1
  O  O26  1  0.18391089  0.94844761  0.88362111  1
  O  O27  1  0.21551144  0.02219766  0.35483380  1
  O  O28  1  0.20348940  0.28967131  0.32672202  1
  O  O29  1  0.21675655  0.67797125  0.84876535  1
  O  O30  1  0.28324345  0.17797125  0.65123465  1
  O  O31  1  0.29651060  0.78967131  0.17327798  1
  O  O32  1  0.28448856  0.52219766  0.14516620  1
  O  O33  1  0.31608911  0.44844761  0.61637889  1
  O  O34  1  0.40945430  0.82613845  0.57857609  1
  O  O35  1  0.41407059  0.17345415  0.09297827  1
  O  O36  1  0.58592941  0.82654585  0.90702173  1
  O  O37  1  0.59054570  0.17386155  0.42142391  1
  O  O38  1  0.68391089  0.55155239  0.38362111  1
  O  O39  1  0.71551144  0.47780234  0.85483380  1
  O  O40  1  0.70348940  0.21032869  0.82672202  1
  O  O41  1  0.71675655  0.82202875  0.34876535  1
  O  O42  1  0.78324345  0.32202875  0.15123465  1
  O  O43  1  0.79651060  0.71032869  0.67327798  1
  O  O44  1  0.78448856  0.97780234  0.64516620  1
  O  O45  1  0.81608911  0.05155239  0.11637889  1
  O  O46  1  0.91407059  0.32654585  0.59297827  1
  O  O47  1  0.90945430  0.67386155  0.07857609  1
