# generated using pymatgen
data_Li5MnO4
_symmetry_space_group_name_H-M   'P 1'
_cell_length_a   8.84405219
_cell_length_b   9.47431011
_cell_length_c   9.46759164
_cell_angle_alpha   90.00000000
_cell_angle_beta   90.00000000
_cell_angle_gamma   90.00000000
_symmetry_Int_Tables_number   1
_chemical_formula_structural   Li5MnO4
_chemical_formula_sum   'Li40 Mn8 O32'
_cell_volume   793.30174584
_cell_formula_units_Z   8
loop_
 _symmetry_equiv_pos_site_id
 _symmetry_equiv_pos_as_xyz
  1  'x, y, z'
loop_
 _atom_site_type_symbol
 _atom_site_label
 _atom_site_symmetry_multiplicity
 _atom_site_fract_x
 _atom_site_fract_y
 _atom_site_fract_z
 _atom_site_occupancy
  Li  Li0  1  0.11298929  0.60681892  0.13932640  1
  Li  Li1  1  0.11298929  0.89318108  0.63932640  1
  Li  Li2  1  0.11259296  0.11750244  0.83835646  1
  Li  Li3  1  0.11259296  0.38249756  0.33835646  1
  Li  Li4  1  0.12411837  0.85834316  0.37971969  1
  Li  Li5  1  0.12411837  0.64165684  0.87971969  1
  Li  Li6  1  0.15619164  0.86953560  0.11185879  1
  Li  Li7  1  0.15619164  0.63046440  0.61185879  1
  Li  Li8  1  0.16604844  0.11827752  0.39103476  1
  Li  Li9  1  0.16604844  0.38172248  0.89103476  1
  Li  Li10  1  0.33395156  0.88172348  0.89103476  1
  Li  Li11  1  0.33395156  0.61827652  0.39103476  1
  Li  Li12  1  0.34380836  0.13046440  0.61185879  1
  Li  Li13  1  0.34380836  0.36953560  0.11185879  1
  Li  Li14  1  0.37588163  0.14165684  0.87971969  1
  Li  Li15  1  0.37588163  0.35834316  0.37971969  1
  Li  Li16  1  0.38740704  0.61750244  0.83835646  1
  Li  Li17  1  0.38740704  0.88249756  0.33835646  1
  Li  Li18  1  0.38701071  0.10681892  0.13932640  1
  Li  Li19  1  0.38701071  0.39318108  0.63932640  1
  Li  Li20  1  0.61298929  0.60681892  0.36067360  1
  Li  Li21  1  0.61298929  0.89318108  0.86067360  1
  Li  Li22  1  0.61259296  0.11750244  0.66164354  1
  Li  Li23  1  0.61259296  0.38249756  0.16164354  1
  Li  Li24  1  0.62411837  0.64165684  0.62028031  1
  Li  Li25  1  0.62411837  0.85834316  0.12028031  1
  Li  Li26  1  0.65619164  0.63046440  0.88814121  1
  Li  Li27  1  0.65619164  0.86953560  0.38814121  1
  Li  Li28  1  0.66604844  0.11827752  0.10896524  1
  Li  Li29  1  0.66604844  0.38172248  0.60896524  1
  Li  Li30  1  0.83395156  0.61827652  0.10896524  1
  Li  Li31  1  0.83395156  0.88172348  0.60896524  1
  Li  Li32  1  0.84380836  0.36953560  0.38814121  1
  Li  Li33  1  0.84380836  0.13046440  0.88814121  1
  Li  Li34  1  0.87588163  0.14165684  0.62028031  1
  Li  Li35  1  0.87588163  0.35834316  0.12028031  1
  Li  Li36  1  0.88740704  0.61750244  0.66164354  1
  Li  Li37  1  0.88740704  0.88249756  0.16164354  1
  Li  Li38  1  0.88701071  0.10681892  0.36067360  1
  Li  Li39  1  0.88701071  0.39318108  0.86067360  1
  Mn  Mn40  1  0.09470518  0.14037232  0.11825670  1
  Mn  Mn41  1  0.09470518  0.35962768  0.61825670  1
  Mn  Mn42  1  0.40529482  0.64037232  0.11825670  1
  Mn  Mn43  1  0.40529482  0.85962768  0.61825670  1
  Mn  Mn44  1  0.59470518  0.14037232  0.38174330  1
  Mn  Mn45  1  0.59470518  0.35962768  0.88174330  1
  Mn  Mn46  1  0.90529482  0.64037232  0.38174330  1
  Mn  Mn47  1  0.90529482  0.85962768  0.88174330  1
  O  O48  1  0.00619906  0.24121227  0.48048167  1
  O  O49  1  0.00619906  0.25878773  0.98048167  1
  O  O50  1  0.04172215  0.00037378  0.25131616  1
  O  O51  1  0.04172215  0.49962622  0.75131616  1
  O  O52  1  0.22848181  0.02762396  0.99646343  1
  O  O53  1  0.22848181  0.47237604  0.49646343  1
  O  O54  1  0.23878626  0.24574208  0.23965301  1
  O  O55  1  0.23878626  0.25425792  0.73965301  1
  O  O56  1  0.26121374  0.74574208  0.23965301  1
  O  O57  1  0.26121374  0.75425792  0.73965301  1
  O  O58  1  0.27151819  0.52762396  0.99646343  1
  O  O59  1  0.27151819  0.97237604  0.49646343  1
  O  O60  1  0.45827785  0.50037378  0.25131616  1
  O  O61  1  0.45827785  0.99962622  0.75131616  1
  O  O62  1  0.49380094  0.74121227  0.48048167  1
  O  O63  1  0.49380094  0.75878773  0.98048167  1
  O  O64  1  0.50619906  0.24121227  0.01951833  1
  O  O65  1  0.50619906  0.25878773  0.51951833  1
  O  O66  1  0.54172215  0.00037378  0.24868384  1
  O  O67  1  0.54172215  0.49962622  0.74868384  1
  O  O68  1  0.72848181  0.02762396  0.50353657  1
  O  O69  1  0.72848181  0.47237604  0.00353657  1
  O  O70  1  0.73878626  0.24574208  0.26034699  1
  O  O71  1  0.73878626  0.25425792  0.76034699  1
  O  O72  1  0.76121374  0.74574208  0.26034699  1
  O  O73  1  0.76121374  0.75425792  0.76034699  1
  O  O74  1  0.77151819  0.52762396  0.50353657  1
  O  O75  1  0.77151819  0.97237604  0.00353657  1
  O  O76  1  0.95827785  0.99962622  0.74868384  1
  O  O77  1  0.95827785  0.50037378  0.24868384  1
  O  O78  1  0.99380094  0.74121227  0.01951833  1
  O  O79  1  0.99380094  0.75878773  0.51951833  1
