# generated using pymatgen
data_MnP2O7
_symmetry_space_group_name_H-M   'P 1'
_cell_length_a   7.90759746
_cell_length_b   15.70898748
_cell_length_c   7.81168765
_cell_angle_alpha   90.00000000
_cell_angle_beta   88.75116647
_cell_angle_gamma   90.00000000
_symmetry_Int_Tables_number   1
_chemical_formula_structural   MnP2O7
_chemical_formula_sum   'Mn8 P16 O56'
_cell_volume   970.14007876
_cell_formula_units_Z   8
loop_
 _symmetry_equiv_pos_site_id
 _symmetry_equiv_pos_as_xyz
  1  'x, y, z'
loop_
 _atom_site_type_symbol
 _atom_site_label
 _atom_site_symmetry_multiplicity
 _atom_site_fract_x
 _atom_site_fract_y
 _atom_site_fract_z
 _atom_site_occupancy
  Mn  Mn0  1  0.15908307  0.37411900  0.98047639  1
  Mn  Mn1  1  0.15908307  0.12588100  0.48047639  1
  Mn  Mn2  1  0.34789332  0.63353976  0.51005252  1
  Mn  Mn3  1  0.34789332  0.86646024  0.01005252  1
  Mn  Mn4  1  0.65210668  0.13353976  0.98994748  1
  Mn  Mn5  1  0.65210668  0.36646024  0.48994748  1
  Mn  Mn6  1  0.84091693  0.87411900  0.51952361  1
  Mn  Mn7  1  0.84091693  0.62588100  0.01952361  1
  P  P8  1  0.03727376  0.32190356  0.59944974  1
  P  P9  1  0.03727376  0.17809644  0.09944974  1
  P  P10  1  0.22387051  0.56630421  0.90184352  1
  P  P11  1  0.22387051  0.93369579  0.40184352  1
  P  P12  1  0.28106415  0.07104761  0.86986969  1
  P  P13  1  0.28106415  0.42895239  0.36986969  1
  P  P14  1  0.45759587  0.82769527  0.60860525  1
  P  P15  1  0.45759587  0.67230473  0.10860525  1
  P  P16  1  0.54240413  0.32769527  0.89139475  1
  P  P17  1  0.54240413  0.17230473  0.39139475  1
  P  P18  1  0.71893585  0.57104761  0.63013031  1
  P  P19  1  0.71893585  0.92895239  0.13013031  1
  P  P20  1  0.77612949  0.06630421  0.59815648  1
  P  P21  1  0.77612949  0.43369579  0.09815648  1
  P  P22  1  0.96272624  0.82190356  0.90055026  1
  P  P23  1  0.96272624  0.67809644  0.40055026  1
  O  O24  1  0.04314393  0.22954059  0.54618374  1
  O  O25  1  0.04314393  0.27045941  0.04618374  1
  O  O26  1  0.06662255  0.91828440  0.51282263  1
  O  O27  1  0.06662255  0.58171560  0.01282263  1
  O  O28  1  0.12141440  0.11386331  0.96535470  1
  O  O29  1  0.12141440  0.38613669  0.46535470  1
  O  O30  1  0.13722151  0.32912296  0.76114791  1
  O  O31  1  0.13722151  0.17087704  0.26114791  1
  O  O32  1  0.14578192  0.85171491  0.88027785  1
  O  O33  1  0.14578192  0.64828509  0.38027785  1
  O  O34  1  0.21544584  0.06462468  0.68815852  1
  O  O35  1  0.21544584  0.43537532  0.18815852  1
  O  O36  1  0.23243540  0.61875341  0.73746609  1
  O  O37  1  0.23243540  0.88124659  0.23746609  1
  O  O38  1  0.24888074  0.47168687  0.85918235  1
  O  O39  1  0.24888074  0.02831313  0.35918235  1
  O  O40  1  0.32247645  0.98738731  0.95635169  1
  O  O41  1  0.32247645  0.51261269  0.45635069  1
  O  O42  1  0.33969597  0.75429990  0.56390029  1
  O  O43  1  0.33969597  0.74570010  0.06390029  1
  O  O44  1  0.37725623  0.91140394  0.52611675  1
  O  O45  1  0.43632207  0.12950725  0.87440858  1
  O  O46  1  0.37725623  0.58859606  0.02611675  1
  O  O47  1  0.37032343  0.31575790  0.98158831  1
  O  O48  1  0.43632207  0.37049275  0.37440858  1
  O  O49  1  0.37032343  0.18424210  0.48158831  1
  O  O50  1  0.48027610  0.84475828  0.79977233  1
  O  O51  1  0.48027610  0.65524172  0.29977233  1
  O  O52  1  0.51972390  0.34475828  0.70022767  1
  O  O53  1  0.51972390  0.15524172  0.20022767  1
  O  O54  1  0.62967657  0.81575790  0.51841169  1
  O  O55  1  0.56367793  0.62950725  0.62559142  1
  O  O56  1  0.62967657  0.68424210  0.01841169  1
  O  O57  1  0.62274377  0.41140394  0.97388325  1
  O  O58  1  0.56367793  0.87049275  0.12559142  1
  O  O59  1  0.62274377  0.08859606  0.47388325  1
  O  O60  1  0.66030403  0.25429990  0.93609971  1
  O  O61  1  0.66030403  0.24570010  0.43609971  1
  O  O62  1  0.67752355  0.48738731  0.54364831  1
  O  O63  1  0.67752355  0.01261269  0.04364831  1
  O  O64  1  0.75111926  0.97168687  0.64081765  1
  O  O65  1  0.75111926  0.52831313  0.14081765  1
  O  O66  1  0.76756460  0.11875341  0.76253391  1
  O  O67  1  0.76756460  0.38124659  0.26253391  1
  O  O68  1  0.78455416  0.56462468  0.81184148  1
  O  O69  1  0.78455416  0.93537532  0.31184148  1
  O  O70  1  0.85421808  0.35171491  0.61972215  1
  O  O71  1  0.85421808  0.14828509  0.11972215  1
  O  O72  1  0.86277849  0.82912296  0.73885209  1
  O  O73  1  0.86277849  0.67087704  0.23885209  1
  O  O74  1  0.87858560  0.61386331  0.53464530  1
  O  O75  1  0.87858560  0.88613669  0.03464530  1
  O  O76  1  0.93337745  0.41828440  0.98717737  1
  O  O77  1  0.93337745  0.08171560  0.48717737  1
  O  O78  1  0.95685607  0.72954059  0.95381626  1
  O  O79  1  0.95685607  0.77045941  0.45381626  1
