# generated using pymatgen
data_Mn2PO5
_symmetry_space_group_name_H-M   'P 1'
_cell_length_a   5.10144281
_cell_length_b   6.94198802
_cell_length_c   6.50027122
_cell_angle_alpha   110.07009584
_cell_angle_beta   104.82459614
_cell_angle_gamma   101.50528324
_symmetry_Int_Tables_number   1
_chemical_formula_structural   Mn2PO5
_chemical_formula_sum   'Mn4 P2 O10'
_cell_volume   198.28899536
_cell_formula_units_Z   2
loop_
 _symmetry_equiv_pos_site_id
 _symmetry_equiv_pos_as_xyz
  1  'x, y, z'
loop_
 _atom_site_type_symbol
 _atom_site_label
 _atom_site_symmetry_multiplicity
 _atom_site_fract_x
 _atom_site_fract_y
 _atom_site_fract_z
 _atom_site_occupancy
  Mn  Mn0  1  0.16620411  0.62347129  0.26370713  1
  Mn  Mn1  1  0.36679872  0.25775814  0.95522830  1
  Mn  Mn2  1  0.63320128  0.74224186  0.04477170  1
  Mn  Mn3  1  0.83379589  0.37652871  0.73629287  1
  P  P4  1  0.16563219  0.18520426  0.38629233  1
  P  P5  1  0.83436781  0.81479574  0.61370767  1
  O  O6  1  0.08246450  0.74141436  0.55271971  1
  O  O7  1  0.22737179  0.53726805  0.95765728  1
  O  O8  1  0.05510319  0.94221449  0.22001917  1
  O  O9  1  0.40946716  0.21901946  0.61340433  1
  O  O10  1  0.29241100  0.32391193  0.27113952  1
  O  O11  1  0.70758900  0.67608807  0.72886048  1
  O  O12  1  0.59053284  0.78098054  0.38659567  1
  O  O13  1  0.94489681  0.05778551  0.77998083  1
  O  O14  1  0.77262821  0.46273195  0.04234272  1
  O  O15  1  0.91753550  0.25858564  0.44728029  1
