# generated using pymatgen
data_Li7Mn2(CoO4)3
_symmetry_space_group_name_H-M   'P 1'
_cell_length_a   3.02729203
_cell_length_b   7.53148598
_cell_length_c   9.71028478
_cell_angle_alpha   91.42105873
_cell_angle_beta   84.47984853
_cell_angle_gamma   82.21281811
_symmetry_Int_Tables_number   1
_chemical_formula_structural   Li7Mn2(CoO4)3
_chemical_formula_sum   'Li7 Mn2 Co3 O12'
_cell_volume   218.17491019
_cell_formula_units_Z   1
loop_
 _symmetry_equiv_pos_site_id
 _symmetry_equiv_pos_as_xyz
  1  'x, y, z'
loop_
 _atom_site_type_symbol
 _atom_site_label
 _atom_site_symmetry_multiplicity
 _atom_site_fract_x
 _atom_site_fract_y
 _atom_site_fract_z
 _atom_site_occupancy
  Li  Li0  1  0.74714953  0.25155708  0.25614270  1
  Li  Li1  1  0.92263208  0.41638508  0.74802219  1
  Li  Li2  1  0.08235300  0.58365675  0.25318086  1
  Li  Li3  1  0.25233614  0.75033380  0.74607195  1
  Li  Li4  1  0.40982877  0.91461496  0.25443687  1
  Li  Li5  1  0.58479433  0.08376665  0.74201240  1
  Li  Li6  1  0.16651809  0.16661464  0.49974055  1
  Mn  Mn7  1  0.99533750  0.00277231  0.00039471  1
  Mn  Mn8  1  0.67117440  0.66363800  0.99969494  1
  Co  Co9  1  0.33357950  0.33372450  -0.00004924  1
  Co  Co10  1  0.51099428  0.48924031  0.49826485  1
  Co  Co11  1  0.82262086  0.84357347  0.50183258  1
  O  O12  1  0.35184611  0.13225210  0.11705171  1
  O  O13  1  0.53130085  0.31744057  0.61575039  1
  O  O14  1  0.68223548  0.45645005  0.11391639  1
  O  O15  1  0.85565250  0.63459421  0.60949531  1
  O  O16  1  0.01754467  0.79429943  0.11821865  1
  O  O17  1  0.19668488  0.94838759  0.61544319  1
  O  O18  1  0.13679869  0.38558214  0.38442990  1
  O  O19  1  0.31329431  0.53499001  0.88387222  1
  O  O20  1  0.47666132  0.69930078  0.39097093  1
  O  O21  1  0.64782614  0.87233858  0.88259660  1
  O  O22  1  0.80324831  0.01517243  0.38414579  1
  O  O23  1  0.98758827  0.20931455  0.88436356  1
