# generated using pymatgen
data_NaBiCSO7
_symmetry_space_group_name_H-M   'P 1'
_cell_length_a   9.42468687
_cell_length_b   7.07063296
_cell_length_c   5.72711645
_cell_angle_alpha   90.00000000
_cell_angle_beta   90.52707748
_cell_angle_gamma   90.00000000
_symmetry_Int_Tables_number   1
_chemical_formula_structural   NaBiCSO7
_chemical_formula_sum   'Na2 Bi2 C2 S2 O14'
_cell_volume   381.63031054
_cell_formula_units_Z   2
loop_
 _symmetry_equiv_pos_site_id
 _symmetry_equiv_pos_as_xyz
  1  'x, y, z'
loop_
 _atom_site_type_symbol
 _atom_site_label
 _atom_site_symmetry_multiplicity
 _atom_site_fract_x
 _atom_site_fract_y
 _atom_site_fract_z
 _atom_site_occupancy
  Na  Na0  1  0.20615308  0.49186194  0.24665872  1
  Na  Na1  1  0.79384692  0.99186194  0.75334128  1
  Bi  Bi2  1  0.35088802  0.76380467  0.78014843  1
  Bi  Bi3  1  0.64911198  0.26380467  0.21985157  1
  C  C4  1  0.07083156  0.73437533  0.72161256  1
  C  C5  1  0.92916844  0.23437533  0.27838744  1
  S  S6  1  0.41455473  0.25954374  0.72199103  1
  S  S7  1  0.58544527  0.75954374  0.27800897  1
  O  O8  1  0.05773385  0.25113472  0.30581825  1
  O  O9  1  0.13614741  0.73650314  0.93297819  1
  O  O10  1  0.16313955  0.71787058  0.54397883  1
  O  O11  1  0.32487764  0.09530601  0.78996521  1
  O  O12  1  0.35170685  0.42811410  0.84215044  1
  O  O13  1  0.43480622  0.73113000  0.19677932  1
  O  O14  1  0.41500658  0.28820477  0.46553981  1
  O  O15  1  0.58499342  0.78820477  0.53446019  1
  O  O16  1  0.56519378  0.23113000  0.80322068  1
  O  O17  1  0.64829315  0.92811410  0.15784956  1
  O  O18  1  0.67512236  0.59530601  0.21003479  1
  O  O19  1  0.83686045  0.21787058  0.45602117  1
  O  O20  1  0.86385259  0.23650314  0.06702181  1
  O  O21  1  0.94226615  0.75113472  0.69418175  1
