# generated using pymatgen
data_Mg2Mn3O7
_symmetry_space_group_name_H-M   'P 1'
_cell_length_a   6.54769246
_cell_length_b   6.10507966
_cell_length_c   7.84723857
_cell_angle_alpha   99.35138257
_cell_angle_beta   114.13506929
_cell_angle_gamma   103.79357804
_symmetry_Int_Tables_number   1
_chemical_formula_structural   Mg2Mn3O7
_chemical_formula_sum   'Mg4 Mn6 O14'
_cell_volume   265.77987248
_cell_formula_units_Z   2
loop_
 _symmetry_equiv_pos_site_id
 _symmetry_equiv_pos_as_xyz
  1  'x, y, z'
loop_
 _atom_site_type_symbol
 _atom_site_label
 _atom_site_symmetry_multiplicity
 _atom_site_fract_x
 _atom_site_fract_y
 _atom_site_fract_z
 _atom_site_occupancy
  Mg  Mg0  1  0.30473302  0.67780061  0.46869212  1
  Mg  Mg1  1  0.34208487  0.84180554  0.06865581  1
  Mg  Mg2  1  0.65791513  0.15819446  0.93134419  1
  Mg  Mg3  1  0.69526698  0.32219939  0.53130788  1
  Mn  Mn4  1  0.21406053  0.22481096  0.64424072  1
  Mn  Mn5  1  0.08068598  0.07956191  0.22602071  1
  Mn  Mn6  1  0.63937433  0.64059017  0.92136205  1
  Mn  Mn7  1  0.36062567  0.35940983  0.07863795  1
  Mn  Mn8  1  0.91931402  0.92043809  0.77397929  1
  Mn  Mn9  1  0.78593947  0.77518904  0.35575928  1
  O  O10  1  0.12290123  0.89980439  0.41030830  1
  O  O11  1  0.31504056  0.53642484  0.88660679  1
  O  O12  1  0.13296828  0.34864221  0.43052695  1
  O  O13  1  0.02117026  0.22656540  0.01654824  1
  O  O14  1  0.29933418  0.08461379  0.87538374  1
  O  O15  1  0.57188308  0.82986887  0.74324120  1
  O  O16  1  0.43660139  0.65351214  0.27272727  1
  O  O17  1  0.56339861  0.34648786  0.72727273  1
  O  O18  1  0.42811692  0.17013113  0.25675880  1
  O  O19  1  0.70066582  0.91538621  0.12461626  1
  O  O20  1  0.97882974  0.77343460  0.98345176  1
  O  O21  1  0.86703172  0.65135779  0.56947305  1
  O  O22  1  0.68495944  0.46357516  0.11339321  1
  O  O23  1  0.87709877  0.10019561  0.58969170  1
