# generated using pymatgen
data_LiVB2O5
_symmetry_space_group_name_H-M   'P 1'
_cell_length_a   6.94083157
_cell_length_b   9.63027159
_cell_length_c   5.80959932
_cell_angle_alpha   90.00000000
_cell_angle_beta   73.33935759
_cell_angle_gamma   90.00000000
_symmetry_Int_Tables_number   1
_chemical_formula_structural   LiVB2O5
_chemical_formula_sum   'Li4 V4 B8 O20'
_cell_volume   372.02373083
_cell_formula_units_Z   4
loop_
 _symmetry_equiv_pos_site_id
 _symmetry_equiv_pos_as_xyz
  1  'x, y, z'
loop_
 _atom_site_type_symbol
 _atom_site_label
 _atom_site_symmetry_multiplicity
 _atom_site_fract_x
 _atom_site_fract_y
 _atom_site_fract_z
 _atom_site_occupancy
  Li  Li0  1  0.21578810  0.44226712  0.33582751  1
  Li  Li1  1  0.21578810  0.05773288  0.83582751  1
  Li  Li2  1  0.78421190  0.94226712  0.16417249  1
  Li  Li3  1  0.78421190  0.55773288  0.66417249  1
  V  V4  1  0.24400054  0.82381568  0.21058231  1
  V  V5  1  0.24400054  0.67618432  0.71058231  1
  V  V6  1  0.75599946  0.32381568  0.28941769  1
  V  V7  1  0.75599946  0.17618432  0.78941769  1
  B  B8  1  0.09013063  0.11579215  0.32744525  1
  B  B9  1  0.09013063  0.38420785  0.82744525  1
  B  B10  1  0.45345541  0.08793699  0.26217798  1
  B  B11  1  0.54654459  0.58793699  0.23782202  1
  B  B12  1  0.45345541  0.41206301  0.76217798  1
  B  B13  1  0.54654459  0.91206301  0.73782202  1
  B  B14  1  0.90986937  0.61579215  0.17255475  1
  B  B15  1  0.90986937  0.88420785  0.67255475  1
  O  O16  1  0.07363707  0.70001334  0.07394661  1
  O  O17  1  0.07670520  0.99848882  0.20141928  1
  O  O18  1  0.07363707  0.79998666  0.57394661  1
  O  O19  1  0.07670520  0.50151118  0.70141928  1
  O  O20  1  0.27270649  0.16166446  0.35696141  1
  O  O21  1  0.37301425  0.66396951  0.33098847  1
  O  O22  1  0.27270649  0.33833554  0.85696141  1
  O  O23  1  0.46521727  0.94789381  0.25615025  1
  O  O24  1  0.37301425  0.83603049  0.83098847  1
  O  O25  1  0.53478273  0.44789381  0.24384975  1
  O  O26  1  0.46521727  0.55210619  0.75615025  1
  O  O27  1  0.62698575  0.16396951  0.16901153  1
  O  O28  1  0.53478273  0.05210619  0.74384975  1
  O  O29  1  0.72729351  0.66166446  0.14303859  1
  O  O30  1  0.62698575  0.33603049  0.66901153  1
  O  O31  1  0.72729351  0.83833554  0.64303859  1
  O  O32  1  0.92329480  0.49848882  0.29858072  1
  O  O33  1  0.92636293  0.20001334  0.42605339  1
  O  O34  1  0.92329480  0.00151118  0.79858072  1
  O  O35  1  0.92636293  0.29998666  0.92605339  1
