# generated using pymatgen
data_LiAlFeO3
_symmetry_space_group_name_H-M   'P 1'
_cell_length_a   5.52847416
_cell_length_b   5.94636767
_cell_length_c   5.93339791
_cell_angle_alpha   59.70473289
_cell_angle_beta   124.78466200
_cell_angle_gamma   91.74963764
_symmetry_Int_Tables_number   1
_chemical_formula_structural   LiAlFeO3
_chemical_formula_sum   'Li2 Al2 Fe2 O6'
_cell_volume   128.90008605
_cell_formula_units_Z   2
loop_
 _symmetry_equiv_pos_site_id
 _symmetry_equiv_pos_as_xyz
  1  'x, y, z'
loop_
 _atom_site_type_symbol
 _atom_site_label
 _atom_site_symmetry_multiplicity
 _atom_site_fract_x
 _atom_site_fract_y
 _atom_site_fract_z
 _atom_site_occupancy
  Li  Li0  1  0.74144729  0.57420102  0.49287806  1
  Li  Li1  1  0.25855271  0.42579898  0.50712194  1
  Al  Al2  1  0.75178577  0.91782149  0.83676561  1
  Al  Al3  1  0.24821423  0.08217851  0.16323439  1
  Fe  Fe4  1  0.76159763  0.25976207  0.17284584  1
  Fe  Fe5  1  0.23840237  0.74023793  0.82715416  1
  O  O6  1  0.74678413  0.61290293  0.13637835  1
  O  O7  1  0.71716296  0.91868198  0.50841848  1
  O  O8  1  0.78607884  0.21041171  0.86503170  1
  O  O9  1  0.21392116  0.78958829  0.13496830  1
  O  O10  1  0.28283704  0.08131802  0.49158152  1
  O  O11  1  0.25321587  0.38709707  0.86362165  1
