# generated using pymatgen
data_Li4CrH8SO7
_symmetry_space_group_name_H-M   'P 1'
_cell_length_a   5.35777613
_cell_length_b   13.15411975
_cell_length_c   10.54289272
_cell_angle_alpha   90.00000000
_cell_angle_beta   105.07097997
_cell_angle_gamma   90.00000000
_symmetry_Int_Tables_number   1
_chemical_formula_structural   Li4CrH8SO7
_chemical_formula_sum   'Li16 Cr4 H32 S4 O28'
_cell_volume   717.47273258
_cell_formula_units_Z   4
loop_
 _symmetry_equiv_pos_site_id
 _symmetry_equiv_pos_as_xyz
  1  'x, y, z'
loop_
 _atom_site_type_symbol
 _atom_site_label
 _atom_site_symmetry_multiplicity
 _atom_site_fract_x
 _atom_site_fract_y
 _atom_site_fract_z
 _atom_site_occupancy
  Li  Li0  1  0.01302344  0.30164510  0.75920510  1
  Li  Li1  1  0.25151247  0.95098808  0.99205981  1
  Li  Li2  1  0.24871027  0.71972956  0.97770877  1
  Li  Li3  1  0.01302344  0.19835490  0.25920510  1
  Li  Li4  1  0.25151247  0.54901192  0.49205981  1
  Li  Li5  1  0.24871027  0.78027044  0.47770877  1
  Li  Li6  1  0.49826765  0.21677880  0.77769789  1
  Li  Li7  1  0.50173235  0.71677880  0.72230211  1
  Li  Li8  1  0.49826765  0.28322120  0.27769789  1
  Li  Li9  1  0.50173235  0.78322120  0.22230211  1
  Li  Li10  1  0.75128973  0.21972956  0.52229123  1
  Li  Li11  1  0.74848753  0.45098808  0.50794019  1
  Li  Li12  1  0.98697656  0.80164510  0.74079490  1
  Li  Li13  1  0.75128973  0.28027044  0.02229123  1
  Li  Li14  1  0.74848753  0.04901192  0.00794019  1
  Li  Li15  1  0.98697656  0.69835490  0.24079490  1
  Cr  Cr16  1  0.24967920  0.31424856  0.51659837  1
  Cr  Cr17  1  0.24967920  0.18575144  0.01659837  1
  Cr  Cr18  1  0.75032080  0.81424856  0.98340163  1
  Cr  Cr19  1  0.75032080  0.68575144  0.48340163  1
  H  H20  1  0.13586393  0.64180680  0.67084109  1
  H  H21  1  0.21473723  0.54074639  0.85344410  1
  H  H22  1  0.25139589  0.06838867  0.82044713  1
  H  H23  1  0.14568596  0.14160860  0.62052649  1
  H  H24  1  0.33450662  0.36245272  0.93793064  1
  H  H25  1  0.23350809  0.45934599  0.68595687  1
  H  H26  1  0.39565586  0.88058296  0.80411998  1
  H  H27  1  0.13586393  0.85819320  0.17084109  1
  H  H28  1  0.21473723  0.95925361  0.35344410  1
  H  H29  1  0.25139589  0.43161133  0.32044713  1
  H  H30  1  0.14568596  0.35839140  0.12052649  1
  H  H31  1  0.51979281  0.53856290  0.86069933  1
  H  H32  1  0.33450662  0.13754728  0.43793064  1
  H  H33  1  0.23350809  0.04065401  0.18595687  1
  H  H34  1  0.48020719  0.03856290  0.63930067  1
  H  H35  1  0.60434414  0.38058296  0.69588002  1
  H  H36  1  0.39565586  0.61941704  0.30411998  1
  H  H37  1  0.51979281  0.96143710  0.36069933  1
  H  H38  1  0.76649191  0.95934599  0.81404313  1
  H  H39  1  0.66549338  0.86245272  0.56206936  1
  H  H40  1  0.48020719  0.46143710  0.13930067  1
  H  H41  1  0.85431404  0.64160860  0.87947351  1
  H  H42  1  0.74860411  0.56838867  0.67955287  1
  H  H43  1  0.78526277  0.04074639  0.64655590  1
  H  H44  1  0.86413607  0.14180680  0.82915891  1
  H  H45  1  0.60434414  0.11941704  0.19588002  1
  H  H46  1  0.76649191  0.54065401  0.31404313  1
  H  H47  1  0.66549338  0.63754728  0.06206936  1
  H  H48  1  0.85431404  0.85839140  0.37947351  1
  H  H49  1  0.74860411  0.93161133  0.17955287  1
  H  H50  1  0.78526277  0.45925361  0.14655590  1
  H  H51  1  0.86413607  0.35819320  0.32915891  1
  S  S52  1  0.09422283  0.97360999  0.59539079  1
  S  S53  1  0.09422283  0.52639001  0.09539079  1
  S  S54  1  0.90577717  0.47360999  0.90460921  1
  S  S55  1  0.90577717  0.02639001  0.40460921  1
  O  O56  1  0.10776363  0.69738026  0.60699609  1
  O  O57  1  0.11246623  0.42403938  0.61417318  1
  O  O58  1  0.13163654  0.21505437  0.63632184  1
  O  O59  1  0.38090700  0.29497213  0.91372106  1
  O  O60  1  0.37476689  0.08159226  0.90508105  1
  O  O61  1  0.35776667  0.57912897  0.82903525  1
  O  O62  1  0.39044451  0.81934930  0.85526214  1
  O  O63  1  0.10776363  0.80261974  0.10699609  1
  O  O64  1  0.11246623  0.07596062  0.11417318  1
  O  O65  1  0.13163654  0.28494563  0.13632184  1
  O  O66  1  0.38090700  0.20502787  0.41372106  1
  O  O67  1  0.37476689  0.41840774  0.40508105  1
  O  O68  1  0.35776667  0.92087103  0.32903525  1
  O  O69  1  0.39044451  0.68065070  0.35526214  1
  O  O70  1  0.60955549  0.31934930  0.64473786  1
  O  O71  1  0.64223333  0.07912897  0.67096475  1
  O  O72  1  0.62523311  0.58159226  0.59491895  1
  O  O73  1  0.61909300  0.79497213  0.58627894  1
  O  O74  1  0.86836346  0.71505437  0.86367816  1
  O  O75  1  0.88753377  0.92403938  0.88582682  1
  O  O76  1  0.89223637  0.19738026  0.89300391  1
  O  O77  1  0.60955549  0.18065070  0.14473786  1
  O  O78  1  0.64223333  0.42087103  0.17096475  1
  O  O79  1  0.62523311  0.91840774  0.09491895  1
  O  O80  1  0.61909300  0.70502787  0.08627894  1
  O  O81  1  0.86836346  0.78494563  0.36367816  1
  O  O82  1  0.88753377  0.57596062  0.38582682  1
  O  O83  1  0.89223637  0.30261974  0.39300391  1
