# generated using pymatgen
data_Lu4(B2O5)3
_symmetry_space_group_name_H-M   'P 1'
_cell_length_a   4.37326405
_cell_length_b   6.18111815
_cell_length_c   18.67674835
_cell_angle_alpha   84.18370593
_cell_angle_beta   90.00000000
_cell_angle_gamma   69.28253646
_symmetry_Int_Tables_number   1
_chemical_formula_structural   Lu4(B2O5)3
_chemical_formula_sum   'Lu8 B12 O30'
_cell_volume   469.43738726
_cell_formula_units_Z   2
loop_
 _symmetry_equiv_pos_site_id
 _symmetry_equiv_pos_as_xyz
  1  'x, y, z'
loop_
 _atom_site_type_symbol
 _atom_site_label
 _atom_site_symmetry_multiplicity
 _atom_site_fract_x
 _atom_site_fract_y
 _atom_site_fract_z
 _atom_site_occupancy
  Lu  Lu0  1  0.34278372  0.72538246  0.80176570  1
  Lu  Lu1  1  0.33096070  0.73191867  0.59970027  1
  Lu  Lu2  1  0.93183281  0.72538246  0.30176570  1
  Lu  Lu3  1  0.93712064  0.73191867  0.09970027  1
  Lu  Lu4  1  0.06287936  0.26808133  0.90029973  1
  Lu  Lu5  1  0.06816719  0.27461754  0.69823430  1
  Lu  Lu6  1  0.66903930  0.26808133  0.40029973  1
  Lu  Lu7  1  0.65721628  0.27461754  0.19823430  1
  B  B8  1  0.80258418  0.80639928  0.91293971  1
  B  B9  1  0.79628501  0.86228845  0.69412801  1
  B  B10  1  0.35810368  0.66269602  0.97456220  1
  B  B11  1  0.39101653  0.80639928  0.41293971  1
  B  B12  1  0.34142654  0.86228845  0.19412801  1
  B  B13  1  0.97920030  0.66269602  0.47456220  1
  B  B14  1  0.02079970  0.33730398  0.52543780  1
  B  B15  1  0.65857346  0.13771155  0.80587199  1
  B  B16  1  0.60898347  0.19360072  0.58706029  1
  B  B17  1  0.64189632  0.33730398  0.02543780  1
  B  B18  1  0.20371499  0.13771155  0.30587199  1
  B  B19  1  0.19741582  0.19360072  0.08706029  1
  O  O20  1  0.84297960  0.96963075  0.62105472  1
  O  O21  1  0.45434158  0.83263571  0.92870372  1
  O  O22  1  0.46536411  0.86782118  0.69668486  1
  O  O23  1  0.00320723  0.74630147  0.98074153  1
  O  O24  1  0.18738964  0.96963075  0.12105472  1
  O  O25  1  0.71302272  0.83263571  0.42870372  1
  O  O26  1  0.92855668  0.63599097  0.86129746  1
  O  O27  1  0.66681470  0.86782118  0.19668486  1
  O  O28  1  0.25049130  0.74630147  0.48074153  1
  O  O29  1  0.05202377  0.63212435  0.70415431  1
  O  O30  1  0.90870811  0.58408390  0.54994192  1
  O  O31  1  0.49279101  0.41591610  0.95005808  1
  O  O32  1  0.43545234  0.63599097  0.36129746  1
  O  O33  1  0.31585187  0.63212435  0.20415431  1
  O  O34  1  0.68414813  0.36787565  0.79584569  1
  O  O35  1  0.56454766  0.36400903  0.63870254  1
  O  O36  1  0.50720899  0.58408390  0.04994192  1
  O  O37  1  0.09129189  0.41591610  0.45005808  1
  O  O38  1  0.94797623  0.36787565  0.29584569  1
  O  O39  1  0.74950870  0.25369853  0.51925847  1
  O  O40  1  0.33318530  0.13217882  0.80331514  1
  O  O41  1  0.07144332  0.36400903  0.13870254  1
  O  O42  1  0.28697728  0.16736429  0.57129628  1
  O  O43  1  0.81261036  0.03036925  0.87894528  1
  O  O44  1  0.87021530  0.00000000  0.75000000  1
  O  O45  1  0.99679277  0.25369853  0.01925847  1
  O  O46  1  0.53463589  0.13217882  0.30331514  1
  O  O47  1  0.54565842  0.16736429  0.07129628  1
  O  O48  1  0.15702040  0.03036925  0.37894528  1
  O  O49  1  0.12978470  0.00000000  0.25000000  1
