# generated using pymatgen
data_P4H3(WO8)2
_symmetry_space_group_name_H-M   'P 1'
_cell_length_a   5.01380070
_cell_length_b   8.31863480
_cell_length_c   7.49035286
_cell_angle_alpha   89.20037155
_cell_angle_beta   104.34694978
_cell_angle_gamma   89.43217052
_symmetry_Int_Tables_number   1
_chemical_formula_structural   P4H3(WO8)2
_chemical_formula_sum   'P4 H3 W2 O16'
_cell_volume   302.60612185
_cell_formula_units_Z   1
loop_
 _symmetry_equiv_pos_site_id
 _symmetry_equiv_pos_as_xyz
  1  'x, y, z'
loop_
 _atom_site_type_symbol
 _atom_site_label
 _atom_site_symmetry_multiplicity
 _atom_site_fract_x
 _atom_site_fract_y
 _atom_site_fract_z
 _atom_site_occupancy
  P  P0  1  0.11792988  0.33885670  0.25964919  1
  P  P1  1  0.37714547  0.85070071  0.22709915  1
  P  P2  1  0.61245504  0.15029592  0.76578619  1
  P  P3  1  0.88255437  0.66121660  0.74306408  1
  H  H4  1  0.45180249  0.39619279  0.49950627  1
  H  H5  1  0.55943615  0.62569911  0.49383538  1
  H  H6  1  0.95925121  0.00684777  0.98533072  1
  W  W7  1  0.99739271  0.99828721  0.49689514  1
  W  W8  1  0.49992240  0.50023448  0.00115101  1
  O  O9  1  0.13991243  0.55928390  0.81908474  1
  O  O10  1  0.05199860  0.16721173  0.31316827  1
  O  O11  1  0.23225911  0.84379054  0.39209298  1
  O  O12  1  0.26169501  0.42900207  0.44057493  1
  O  O13  1  0.32608220  0.07161862  0.67358027  1
  O  O14  1  0.55951449  0.32295666  0.81266497  1
  O  O15  1  0.22791258  0.94774009  0.06340235  1
  O  O16  1  0.30699608  0.33007856  0.12610111  1
  O  O17  1  0.69656343  0.67035370  0.87853271  1
  O  O18  1  0.75045347  0.04768678  0.93474036  1
  O  O19  1  0.44287161  0.67529902  0.19130730  1
  O  O20  1  0.66954320  0.92894757  0.32421578  1
  O  O21  1  0.72961337  0.57172439  0.56237386  1
  O  O22  1  0.77102033  0.15454585  0.61083851  1
  O  O23  1  0.94549264  0.83220855  0.68571077  1
  O  O24  1  0.85906374  0.43912069  0.18119296  1
