# generated using pymatgen
data_Mg2Mn3O8
_symmetry_space_group_name_H-M   'P 1'
_cell_length_a   5.96727951
_cell_length_b   5.96727951
_cell_length_c   5.96727951
_cell_angle_alpha   58.83913647
_cell_angle_beta   58.83913647
_cell_angle_gamma   58.83913647
_symmetry_Int_Tables_number   1
_chemical_formula_structural   Mg2Mn3O8
_chemical_formula_sum   'Mg2 Mn3 O8'
_cell_volume   146.26757527
_cell_formula_units_Z   1
loop_
 _symmetry_equiv_pos_site_id
 _symmetry_equiv_pos_as_xyz
  1  'x, y, z'
loop_
 _atom_site_type_symbol
 _atom_site_label
 _atom_site_symmetry_multiplicity
 _atom_site_fract_x
 _atom_site_fract_y
 _atom_site_fract_z
 _atom_site_occupancy
  Mg  Mg0  1  0.11921082  0.11921082  0.11921082  1
  Mg  Mg1  1  0.49993047  0.49993047  0.49993047  1
  Mn  Mn2  1  0.50202687  0.99332909  0.50202687  1
  Mn  Mn3  1  0.50202687  0.50202687  0.99332909  1
  Mn  Mn4  1  0.99332909  0.50202687  0.50202687  1
  O  O5  1  0.26123073  0.26123073  0.26123073  1
  O  O6  1  0.71014978  0.25571895  0.25571895  1
  O  O7  1  0.25571895  0.25571895  0.71014978  1
  O  O8  1  0.25571895  0.71014978  0.25571895  1
  O  O9  1  0.74700476  0.74700476  0.29681688  1
  O  O10  1  0.74700476  0.29681688  0.74700476  1
  O  O11  1  0.29681688  0.74700476  0.74700476  1
  O  O12  1  0.73482905  0.73482905  0.73482905  1
