# generated using pymatgen
data_Na3Li3Mn2P2(CO7)2
_symmetry_space_group_name_H-M   'P 1'
_cell_length_a   8.81447566
_cell_length_b   6.63555426
_cell_length_c   5.10516120
_cell_angle_alpha   89.65903817
_cell_angle_beta   89.68140341
_cell_angle_gamma   90.74608951
_symmetry_Int_Tables_number   1
_chemical_formula_structural   Na3Li3Mn2P2(CO7)2
_chemical_formula_sum   'Na3 Li3 Mn2 P2 C2 O14'
_cell_volume   298.56007555
_cell_formula_units_Z   1
loop_
 _symmetry_equiv_pos_site_id
 _symmetry_equiv_pos_as_xyz
  1  'x, y, z'
loop_
 _atom_site_type_symbol
 _atom_site_label
 _atom_site_symmetry_multiplicity
 _atom_site_fract_x
 _atom_site_fract_y
 _atom_site_fract_z
 _atom_site_occupancy
  Na  Na0  1  0.08281254  0.25673164  0.75885387  1
  Na  Na1  1  0.25488139  0.00079082  0.24674484  1
  Na  Na2  1  0.91566324  0.74720844  0.24150025  1
  Li  Li3  1  0.26865655  0.48563186  0.23352060  1
  Li  Li4  1  0.73334736  0.51272085  0.76619512  1
  Li  Li5  1  0.73293280  0.98819274  0.76745193  1
  Mn  Mn6  1  0.36158741  0.74657264  0.77798909  1
  Mn  Mn7  1  0.64113080  0.24906656  0.22152545  1
  P  P8  1  0.41526861  0.25395005  0.69898011  1
  P  P9  1  0.58911259  0.74485174  0.29677924  1
  C  C10  1  0.05202731  0.74770055  0.73647982  1
  C  C11  1  0.94486062  0.25709153  0.26653079  1
  O  O12  1  0.09144553  0.27115081  0.28601346  1
  O  O13  1  0.11778680  0.74909602  0.96377328  1
  O  O14  1  0.13626398  0.74388926  0.52657392  1
  O  O15  1  0.32480533  0.06168112  0.78260906  1
  O  O16  1  0.32403948  0.43241148  0.81203508  1
  O  O17  1  0.41919785  0.26931771  0.39313013  1
  O  O18  1  0.42240336  0.73433961  0.20064005  1
  O  O19  1  0.58241695  0.25184289  0.79768764  1
  O  O20  1  0.58757050  0.74793160  0.60468245  1
  O  O21  1  0.68294008  0.56396931  0.19772472  1
  O  O22  1  0.67475098  0.93452780  0.19015306  1
  O  O23  1  0.85900008  0.24838570  0.47567765  1
  O  O24  1  0.88101179  0.25101643  0.03696318  1
  O  O25  1  0.90408707  0.74993384  0.71978720  1
