# generated using pymatgen
data_InFe29O40
_symmetry_space_group_name_H-M   'P 1'
_cell_length_a   10.55692640
_cell_length_b   8.63402101
_cell_length_c   10.55692640
_cell_angle_alpha   114.13744110
_cell_angle_beta   80.37370736
_cell_angle_gamma   114.13744110
_symmetry_Int_Tables_number   1
_chemical_formula_structural   InFe29O40
_chemical_formula_sum   'In1 Fe29 O40'
_cell_volume   801.34171559
_cell_formula_units_Z   1
loop_
 _symmetry_equiv_pos_site_id
 _symmetry_equiv_pos_as_xyz
  1  'x, y, z'
loop_
 _atom_site_type_symbol
 _atom_site_label
 _atom_site_symmetry_multiplicity
 _atom_site_fract_x
 _atom_site_fract_y
 _atom_site_fract_z
 _atom_site_occupancy
  In  In0  1  0.05000000  0.07500000  0.85000000  1
  Fe  Fe1  1  0.09833676  0.40384794  0.69945584  1
  Fe  Fe2  1  0.00127560  0.00442002  0.49835702  1
  Fe  Fe3  1  0.20054416  0.79448981  0.89833676  1
  Fe  Fe4  1  0.35177412  0.52621628  0.95014223  1
  Fe  Fe5  1  0.15014223  0.72392595  0.54822588  1
  Fe  Fe6  1  0.00166324  0.50605435  0.00054416  1
  Fe  Fe7  1  0.30219899  0.20053808  0.59994129  1
  Fe  Fe8  1  0.40164298  0.09685557  0.80127560  1
  Fe  Fe9  1  0.19754883  0.29858602  0.39966206  1
  Fe  Fe10  1  0.09872440  0.40478741  0.20164298  1
  Fe  Fe11  1  0.25171418  0.87953515  0.25057603  1
  Fe  Fe12  1  0.45057603  0.67104089  0.64828582  1
  Fe  Fe13  1  0.69835702  0.79393700  0.89872440  1
  Fe  Fe14  1  0.59966206  0.40107604  0.70245117  1
  Fe  Fe15  1  0.49964451  0.99897757  0.49972431  1
  Fe  Fe16  1  0.30005871  0.20165991  0.10219899  1
  Fe  Fe17  1  0.40027569  0.60066695  0.29964451  1
  Fe  Fe18  1  0.74822588  0.12429993  0.74985777  1
  Fe  Fe19  1  0.55000000  0.32500000  0.35000000  1
  Fe  Fe20  1  0.79994129  0.69940321  0.59780101  1
  Fe  Fe21  1  0.50033794  0.99896280  0.99754883  1
  Fe  Fe22  1  0.60035549  0.89960874  0.20027569  1
  Fe  Fe23  1  0.89945584  0.59560890  0.80166324  1
  Fe  Fe24  1  0.69972431  0.80074674  0.40035549  1
  Fe  Fe25  1  0.84828582  0.27724494  0.44942397  1
  Fe  Fe26  1  0.64942397  0.47218003  0.05171418  1
  Fe  Fe27  1  0.90245117  0.60137514  0.30033794  1
  Fe  Fe28  1  0.79780101  0.19839880  0.10005871  1
  Fe  Fe29  1  0.94985777  0.92555683  0.15177412  1
  O  O30  1  0.99530053  0.74977037  0.99596502  1
  O  O31  1  0.19596502  0.54619465  0.90469947  1
  O  O32  1  0.10469947  0.65850482  0.70403498  1
  O  O33  1  0.11200847  0.15145288  0.68048366  1
  O  O34  1  0.21951634  0.06055658  0.91200847  1
  O  O35  1  0.00756637  0.25157221  0.48845261  1
  O  O36  1  0.41154739  0.85599415  0.80756637  1
  O  O37  1  0.09243363  0.65555323  0.21154739  1
  O  O38  1  0.29594631  0.43265491  0.58955693  1
  O  O39  1  0.49453437  0.23852833  0.00936780  1
  O  O40  1  0.20936780  0.07084046  0.40546563  1
  O  O41  1  0.30654619  0.95932753  0.59290208  1
  O  O42  1  0.11191127  0.15613882  0.20317373  1
  O  O43  1  0.40317373  0.34703392  0.78808873  1
  O  O44  1  0.20744986  0.54201879  0.39311828  1
  O  O45  1  0.49564233  0.23947754  0.51517268  1
  O  O46  1  0.69682627  0.05577245  0.91191127  1
  O  O47  1  0.59311828  0.15109949  0.69255014  1
  O  O48  1  0.38482732  0.35616580  0.29564233  1
  O  O49  1  0.30709792  0.44721867  0.10654619  1
  O  O50  1  0.68845261  0.53688040  0.89243363  1
  O  O51  1  0.50273362  0.75510140  0.49111869  1
  O  O52  1  0.40888131  0.84763222  0.30273362  1
  O  O53  1  0.60546563  0.63462516  0.69063220  1
  O  O54  1  0.31044307  0.96329140  0.09594631  1
  O  O55  1  0.88048366  0.82903078  0.78799153  1
  O  O56  1  0.78955693  0.45690202  0.60405369  1
  O  O57  1  0.59726638  0.66124909  0.20888131  1
  O  O58  1  0.69111869  0.03601729  0.39726638  1
  O  O59  1  0.79290208  0.93357355  0.59345381  1
  O  O60  1  0.71517268  0.57569515  0.40435767  1
  O  O61  1  0.90403498  0.34553016  0.79530053  1
  O  O62  1  0.60435767  0.12866152  0.18482732  1
  O  O63  1  0.50688172  0.76543207  0.00744986  1
  O  O64  1  0.98808873  0.74105382  0.49682627  1
  O  O65  1  0.89255014  0.84145065  0.30688172  1
  O  O66  1  0.79345381  0.95987926  0.10709792  1
  O  O67  1  0.89063220  0.35600604  0.29453437  1
  O  O68  1  0.80405469  0.44715166  0.11044307  1
  O  O69  1  0.98799153  0.25895976  0.01951634  1
