# generated using pymatgen
data_Li5Ti2Mn5O12
_symmetry_space_group_name_H-M   'P 1'
_cell_length_a   5.29735297
_cell_length_b   5.29735263
_cell_length_c   10.06315159
_cell_angle_alpha   85.12817594
_cell_angle_beta   94.87182534
_cell_angle_gamma   59.98190338
_symmetry_Int_Tables_number   1
_chemical_formula_structural   Li5Ti2Mn5O12
_chemical_formula_sum   'Li5 Ti2 Mn5 O12'
_cell_volume   240.95878556
_cell_formula_units_Z   1
loop_
 _symmetry_equiv_pos_site_id
 _symmetry_equiv_pos_as_xyz
  1  'x, y, z'
loop_
 _atom_site_type_symbol
 _atom_site_label
 _atom_site_symmetry_multiplicity
 _atom_site_fract_x
 _atom_site_fract_y
 _atom_site_fract_z
 _atom_site_occupancy
  Li  Li0  1  0.15663948  0.66309510  0.50662632  1
  Li  Li1  1  0.33558735  0.84436310  0.99274506  1
  Li  Li2  1  0.66309510  0.15663948  0.99337368  1
  Li  Li3  1  0.84436310  0.33558735  0.50725494  1
  Li  Li4  1  0.91524207  0.91524207  0.75000000  1
  Ti  Ti5  1  0.24279427  0.24279427  0.75000000  1
  Ti  Ti6  1  0.74728312  0.74728312  0.25000000  1
  Mn  Mn7  1  0.08028264  0.08028264  0.25000000  1
  Mn  Mn8  1  0.99627480  0.51475787  0.99205540  1
  Mn  Mn9  1  0.51475787  0.99627480  0.50794460  1
  Mn  Mn10  1  0.41846767  0.41846767  0.25000000  1
  Mn  Mn11  1  0.57531651  0.57531651  0.75000000  1
  O  O12  1  0.98777479  0.21256929  0.87082786  1
  O  O13  1  0.21256929  0.98777479  0.62917214  1
  O  O14  1  0.09755603  0.40336537  0.36518972  1
  O  O15  1  0.40336537  0.09755603  0.13481028  1
  O  O16  1  0.29976003  0.51795695  0.86648872  1
  O  O17  1  0.51795695  0.29976003  0.63351128  1
  O  O18  1  0.48480064  0.71174858  0.36984421  1
  O  O19  1  0.71174858  0.48480064  0.13015579  1
  O  O20  1  0.59760497  0.88902637  0.86171914  1
  O  O21  1  0.88902637  0.59760497  0.63828086  1
  O  O22  1  0.79110586  0.01662615  0.37096910  1
  O  O23  1  0.01662615  0.79110586  0.12903090  1
