# generated using pymatgen
data_Li7Mn2(CoO4)3
_symmetry_space_group_name_H-M   'P 1'
_cell_length_a   3.02343241
_cell_length_b   14.49875304
_cell_length_c   5.05134463
_cell_angle_alpha   87.33707737
_cell_angle_beta   91.69305373
_cell_angle_gamma   81.42170236
_symmetry_Int_Tables_number   1
_chemical_formula_structural   Li7Mn2(CoO4)3
_chemical_formula_sum   'Li7 Mn2 Co3 O12'
_cell_volume   218.56797118
_cell_formula_units_Z   1
loop_
 _symmetry_equiv_pos_site_id
 _symmetry_equiv_pos_as_xyz
  1  'x, y, z'
loop_
 _atom_site_type_symbol
 _atom_site_label
 _atom_site_symmetry_multiplicity
 _atom_site_fract_x
 _atom_site_fract_y
 _atom_site_fract_z
 _atom_site_occupancy
  Li  Li0  1  0.82805495  0.16769434  0.33561789  1
  Li  Li1  1  0.15912614  0.33415458  0.17041804  1
  Li  Li2  1  0.49985546  0.50028657  -0.00012685  1
  Li  Li3  1  0.84158628  0.66661114  0.82965918  1
  Li  Li4  1  0.17151803  0.83218800  0.66546245  1
  Li  Li5  1  0.50045312  0.99935194  0.49996308  1
  Li  Li6  1  -0.00010154  0.50069683  0.49996831  1
  Mn  Mn7  1  0.00864871  0.99817401  0.00173065  1
  Mn  Mn8  1  0.32630616  0.16945860  0.82842204  1
  Co  Co9  1  0.64664533  0.34253167  0.66225136  1
  Co  Co10  1  0.34308447  0.65891621  0.33460584  1
  Co  Co11  1  0.67561759  0.82983781  0.17381560  1
  O  O12  1  0.38532633  0.08539936  0.14835770  1
  O  O13  1  0.71955514  0.25412315  0.96583407  1
  O  O14  1  0.05942737  0.41125964  0.82335241  1
  O  O15  1  0.40535920  0.59354292  0.63297221  1
  O  O16  1  0.71821396  0.74846565  0.47983136  1
  O  O17  1  0.09598987  0.91499686  0.31555887  1
  O  O18  1  0.27256432  0.25215391  0.51722642  1
  O  O19  1  0.59313169  0.40822450  0.36557618  1
  O  O20  1  0.93439835  0.58970066  0.17607541  1
  O  O21  1  0.24480452  0.74694649  0.03505721  1
  O  O22  1  0.62427324  0.91273977  0.85563642  1
  O  O23  1  0.94616131  0.08254539  0.68273415  1
