# generated using pymatgen
data_Li7W5O16
_symmetry_space_group_name_H-M   'P 1'
_cell_length_a   6.05342957
_cell_length_b   6.09647455
_cell_length_c   9.92142411
_cell_angle_alpha   89.80663276
_cell_angle_beta   90.16178368
_cell_angle_gamma   120.33276060
_symmetry_Int_Tables_number   1
_chemical_formula_structural   Li7W5O16
_chemical_formula_sum   'Li7 W5 O16'
_cell_volume   316.02107021
_cell_formula_units_Z   1
loop_
 _symmetry_equiv_pos_site_id
 _symmetry_equiv_pos_as_xyz
  1  'x, y, z'
loop_
 _atom_site_type_symbol
 _atom_site_label
 _atom_site_symmetry_multiplicity
 _atom_site_fract_x
 _atom_site_fract_y
 _atom_site_fract_z
 _atom_site_occupancy
  Li  Li0  1  0.16671755  0.82573896  0.21273627  1
  Li  Li1  1  0.34717029  0.67753006  0.91275664  1
  Li  Li2  1  0.00850164  0.00136157  0.99738916  1
  Li  Li3  1  0.03316471  0.01994344  0.47910304  1
  Li  Li4  1  0.16764907  0.34018692  0.21192082  1
  Li  Li5  1  0.32831342  0.16716605  0.71499902  1
  Li  Li6  1  0.66164012  0.32967899  0.40059339  1
  W  W7  1  0.30376827  0.64429575  0.47513682  1
  W  W8  1  0.65320413  0.82576969  0.22179706  1
  W  W9  1  0.66160898  0.32752713  0.99391961  1
  W  W10  1  0.82525699  0.66127737  0.71205807  1
  W  W11  1  0.82857296  0.17443061  0.71210586  1
  O  O12  1  0.13417087  0.79731280  0.60147313  1
  O  O13  1  0.03363582  0.51990524  0.35910233  1
  O  O14  1  0.36356362  0.68240624  0.10907845  1
  O  O15  1  0.98990417  0.99334239  0.29229170  1
  O  O16  1  0.99314450  0.99746739  0.81092706  1
  O  O17  1  0.14831521  0.32531410  0.59133014  1
  O  O18  1  0.50250747  0.96472742  0.35516101  1
  O  O19  1  0.49803888  0.53046183  0.35304017  1
  O  O20  1  0.35007817  0.17823895  0.07184516  1
  O  O21  1  0.65439433  0.81820833  0.59914615  1
  O  O22  1  0.54745472  0.50026971  0.84357365  1
  O  O23  1  0.54201412  0.05318228  0.85125433  1
  O  O24  1  0.65884194  0.33344810  0.60341525  1
  O  O25  1  0.81138987  0.64732049  0.08558511  1
  O  O26  1  0.97166544  0.49555815  0.84734022  1
  O  O27  1  0.81531374  0.16823203  0.08875935  1
