# generated using pymatgen
data_Ho2WO6
_symmetry_space_group_name_H-M   'P 1'
_cell_length_a   10.01150039
_cell_length_b   9.86348269
_cell_length_c   10.01134733
_cell_angle_alpha   76.58890369
_cell_angle_beta   112.82835757
_cell_angle_gamma   148.55568010
_symmetry_Int_Tables_number   1
_chemical_formula_structural   Ho2WO6
_chemical_formula_sum   'Ho8 W4 O24'
_cell_volume   465.13042762
_cell_formula_units_Z   4
loop_
 _symmetry_equiv_pos_site_id
 _symmetry_equiv_pos_as_xyz
  1  'x, y, z'
loop_
 _atom_site_type_symbol
 _atom_site_label
 _atom_site_symmetry_multiplicity
 _atom_site_fract_x
 _atom_site_fract_y
 _atom_site_fract_z
 _atom_site_occupancy
  Ho  Ho0  1  0.35509620  0.24999006  0.10509647  1
  Ho  Ho1  1  0.88421578  0.25001057  0.63420514  1
  Ho  Ho2  1  0.90205882  0.95796214  0.28467539  1
  Ho  Ho3  1  0.17329685  0.45796994  0.05590113  1
  Ho  Ho4  1  0.82670186  0.54202920  0.94409660  1
  Ho  Ho5  1  0.09793506  0.04202880  0.71532038  1
  Ho  Ho6  1  0.11578449  0.74999116  0.36579303  1
  Ho  Ho7  1  0.64489927  0.75000361  0.89490354  1
  W  W8  1  0.63276600  0.12724103  0.19916863  1
  W  W9  1  0.57191727  0.37274794  0.50552406  1
  W  W10  1  0.42809016  0.62726000  0.49448057  1
  W  W11  1  0.36723710  0.87276463  0.80082897  1
  O  O12  1  0.99669491  0.10437902  0.07498649  1
  O  O13  1  0.80016212  0.27355509  0.06028115  1
  O  O14  1  0.73822505  0.42684985  0.15947018  1
  O  O15  1  0.86977378  0.32523366  0.38983489  1
  O  O16  1  0.56460436  0.17476857  0.54453024  1
  O  O17  1  0.23258079  0.07310365  0.31137906  1
  O  O18  1  0.52939058  0.60436995  0.10768142  1
  O  O19  1  0.76580358  0.59008658  0.37929450  1
  O  O20  1  0.71083028  0.09014569  0.82428041  1
  O  O21  1  0.83345432  0.61724527  0.68456948  1
  O  O22  1  0.43268124  0.11725507  0.78379242  1
  O  O23  1  0.28672798  0.22645649  0.52660320  1
  O  O24  1  0.71326149  0.77352673  0.47339493  1
  O  O25  1  0.56731872  0.88274609  0.21620724  1
  O  O26  1  0.16655045  0.38275549  0.31543992  1
  O  O27  1  0.28917309  0.90985878  0.17571879  1
  O  O28  1  0.23419589  0.40991168  0.62070554  1
  O  O29  1  0.47060182  0.39562373  0.89231429  1
  O  O30  1  0.76742023  0.92689503  0.68861900  1
  O  O31  1  0.43539642  0.82523400  0.45547254  1
  O  O32  1  0.13022496  0.67476591  0.61016456  1
  O  O33  1  0.26177371  0.57315294  0.84052815  1
  O  O34  1  0.19985673  0.72646209  0.93972502  1
  O  O35  1  0.00329866  0.89561858  0.92501268  1
