# generated using pymatgen
data_Li2V(BO2)5
_symmetry_space_group_name_H-M   'P 1'
_cell_length_a   7.26204991
_cell_length_b   15.40250511
_cell_length_c   7.29046506
_cell_angle_alpha   90.00000000
_cell_angle_beta   90.88070758
_cell_angle_gamma   90.00000000
_symmetry_Int_Tables_number   1
_chemical_formula_structural   Li2V(BO2)5
_chemical_formula_sum   'Li8 V4 B20 O40'
_cell_volume   815.36959984
_cell_formula_units_Z   4
loop_
 _symmetry_equiv_pos_site_id
 _symmetry_equiv_pos_as_xyz
  1  'x, y, z'
loop_
 _atom_site_type_symbol
 _atom_site_label
 _atom_site_symmetry_multiplicity
 _atom_site_fract_x
 _atom_site_fract_y
 _atom_site_fract_z
 _atom_site_occupancy
  Li  Li0  1  0.09881529  0.16867878  0.99990790  1
  Li  Li1  1  0.09881529  0.33132122  0.49990790  1
  Li  Li2  1  0.30514627  0.92599489  0.59052226  1
  Li  Li3  1  0.30514627  0.57400511  0.09052226  1
  Li  Li4  1  0.69485373  0.42599489  0.90947774  1
  Li  Li5  1  0.69485373  0.07400511  0.40947774  1
  Li  Li6  1  0.90118471  0.66867878  0.50009210  1
  Li  Li7  1  0.90118471  0.83132122  0.00009210  1
  V  V8  1  0.15202889  0.12409542  0.53557417  1
  V  V9  1  0.15202889  0.37590458  0.03557417  1
  V  V10  1  0.84797111  0.62409542  0.96442583  1
  V  V11  1  0.84797111  0.87590458  0.46442583  1
  B  B12  1  0.20207780  0.02599852  0.90873540  1
  B  B13  1  0.20207780  0.47400148  0.40873540  1
  B  B14  1  0.21656365  0.77662841  0.52132487  1
  B  B15  1  0.21656365  0.72337159  0.02132487  1
  B  B16  1  0.24722938  0.50424344  0.73338062  1
  B  B17  1  0.24722938  0.99575656  0.23338062  1
  B  B18  1  0.31800903  0.62044849  0.50531369  1
  B  B19  1  0.31800903  0.87955151  0.00531369  1
  B  B20  1  0.45760471  0.25809436  0.50108175  1
  B  B21  1  0.45760471  0.24190564  0.00108175  1
  B  B22  1  0.54239529  0.75809436  0.99891825  1
  B  B23  1  0.54239529  0.74190564  0.49891825  1
  B  B24  1  0.68199097  0.12044849  0.99468631  1
  B  B25  1  0.68199097  0.37955151  0.49468631  1
  B  B26  1  0.75277062  0.00424344  0.76661938  1
  B  B27  1  0.75277062  0.49575656  0.26661938  1
  B  B28  1  0.78343635  0.27662841  0.97867513  1
  B  B29  1  0.78343635  0.22337159  0.47867513  1
  B  B30  1  0.79792220  0.52599852  0.59126460  1
  B  B31  1  0.79792220  0.97400148  0.09126460  1
  O  O32  1  0.09309027  0.84237702  0.53880009  1
  O  O33  1  0.09309027  0.65762298  0.03880009  1
  O  O34  1  0.15031703  0.08866111  0.78727828  1
  O  O35  1  0.15031703  0.41133889  0.28727828  1
  O  O36  1  0.17049483  0.80902219  0.99376097  1
  O  O37  1  0.17094924  0.45145535  0.59394444  1
  O  O38  1  0.17049483  0.69097781  0.49376097  1
  O  O39  1  0.17094924  0.04854465  0.09394444  1
  O  O40  1  0.24979714  0.47629262  0.91230090  1
  O  O41  1  0.24979714  0.02370738  0.41230090  1
  O  O42  1  0.27725657  0.23277559  0.50946026  1
  O  O43  1  0.27646570  0.94725946  0.86225817  1
  O  O44  1  0.27725657  0.26722441  0.00946026  1
  O  O45  1  0.27646570  0.55274054  0.36225817  1
  O  O46  1  0.31792423  0.58300282  0.69018628  1
  O  O47  1  0.31792423  0.91699718  0.19018628  1
  O  O48  1  0.40290667  0.80262351  0.53727491  1
  O  O49  1  0.40290667  0.69737649  0.03727491  1
  O  O50  1  0.50203850  0.34262805  0.53068879  1
  O  O51  1  0.49796150  0.84262805  0.96931121  1
  O  O52  1  0.50203850  0.15737195  0.03068879  1
  O  O53  1  0.49796150  0.65737195  0.46931121  1
  O  O54  1  0.59709333  0.30262351  0.96272509  1
  O  O55  1  0.59709333  0.19737649  0.46272509  1
  O  O56  1  0.68207677  0.08300282  0.80981372  1
  O  O57  1  0.68207677  0.41699718  0.30981372  1
  O  O58  1  0.72353430  0.44725946  0.63774183  1
  O  O59  1  0.72274343  0.73277559  0.99053974  1
  O  O60  1  0.72353430  0.05274054  0.13774183  1
  O  O61  1  0.72274343  0.76722441  0.49053974  1
  O  O62  1  0.75020286  0.97629262  0.58769910  1
  O  O63  1  0.75020286  0.52370738  0.08769910  1
  O  O64  1  0.82905076  0.95145535  0.90605556  1
  O  O65  1  0.82950517  0.30902219  0.50623903  1
  O  O66  1  0.82905076  0.54854465  0.40605556  1
  O  O67  1  0.82950517  0.19097781  0.00623903  1
  O  O68  1  0.84968297  0.58866111  0.71272172  1
  O  O69  1  0.84968297  0.91133889  0.21272172  1
  O  O70  1  0.90690973  0.34237702  0.96119991  1
  O  O71  1  0.90690973  0.15762298  0.46119991  1
