# generated using pymatgen
data_Ni3(PO4)2
_symmetry_space_group_name_H-M   'P 1'
_cell_length_a   8.70088046
_cell_length_b   11.11555824
_cell_length_c   6.10636983
_cell_angle_alpha   90.00000000
_cell_angle_beta   99.96827007
_cell_angle_gamma   90.00000000
_symmetry_Int_Tables_number   1
_chemical_formula_structural   Ni3(PO4)2
_chemical_formula_sum   'Ni12 P8 O32'
_cell_volume   581.66292466
_cell_formula_units_Z   4
loop_
 _symmetry_equiv_pos_site_id
 _symmetry_equiv_pos_as_xyz
  1  'x, y, z'
loop_
 _atom_site_type_symbol
 _atom_site_label
 _atom_site_symmetry_multiplicity
 _atom_site_fract_x
 _atom_site_fract_y
 _atom_site_fract_z
 _atom_site_occupancy
  Ni  Ni0  1  0.07581810  0.61364750  0.62236989  1
  Ni  Ni1  1  0.07581810  0.88635250  0.12236989  1
  Ni  Ni2  1  0.27456238  0.91747510  0.66574662  1
  Ni  Ni3  1  0.27456238  0.58252490  0.16574662  1
  Ni  Ni4  1  0.36367328  0.30568167  0.61693437  1
  Ni  Ni5  1  0.36367328  0.19431833  0.11693437  1
  Ni  Ni6  1  0.63632672  0.80568167  0.88306563  1
  Ni  Ni7  1  0.63632672  0.69431833  0.38306563  1
  Ni  Ni8  1  0.72543762  0.41747510  0.83425338  1
  Ni  Ni9  1  0.72543762  0.08252490  0.33425338  1
  Ni  Ni10  1  0.92418190  0.11364750  0.87763011  1
  Ni  Ni11  1  0.92418190  0.38635250  0.37763011  1
  P  P12  1  0.09261389  0.36472954  0.88916920  1
  P  P13  1  0.09261389  0.13527046  0.38916920  1
  P  P14  1  0.39610440  0.58627598  0.69388549  1
  P  P15  1  0.39610440  0.91372402  0.19388549  1
  P  P16  1  0.60389560  0.08627598  0.80611451  1
  P  P17  1  0.60389560  0.41372402  0.30611451  1
  P  P18  1  0.90738611  0.86472954  0.61083080  1
  P  P19  1  0.90738611  0.63527046  0.11083080  1
  O  O20  1  0.06054725  0.79401374  0.60354731  1
  O  O21  1  0.07296770  0.43513062  0.66479370  1
  O  O22  1  0.06054725  0.70598626  0.10354731  1
  O  O23  1  0.07296770  0.06486938  0.16479370  1
  O  O24  1  0.13390664  0.05936352  0.59997348  1
  O  O25  1  0.13390664  0.44063648  0.09997348  1
  O  O26  1  0.23037414  0.27821720  0.87061914  1
  O  O27  1  0.27006932  0.91616184  0.98008023  1
  O  O28  1  0.23037414  0.22178280  0.37061914  1
  O  O29  1  0.29503483  0.62546074  0.86639780  1
  O  O30  1  0.27006932  0.58383816  0.48008023  1
  O  O31  1  0.29503483  0.87453926  0.36639780  1
  O  O32  1  0.47550819  0.46139858  0.74357438  1
  O  O33  1  0.48113948  0.18297597  0.83077796  1
  O  O34  1  0.47550819  0.03860142  0.24357438  1
  O  O35  1  0.51886052  0.68297597  0.66922204  1
  O  O36  1  0.48113948  0.31702403  0.33077796  1
  O  O37  1  0.52449181  0.96139858  0.75642562  1
  O  O38  1  0.51886052  0.81702403  0.16922204  1
  O  O39  1  0.52449181  0.53860142  0.25642562  1
  O  O40  1  0.70496517  0.12546074  0.63360220  1
  O  O41  1  0.72993068  0.41616184  0.51991977  1
  O  O42  1  0.70496517  0.37453926  0.13360220  1
  O  O43  1  0.76962586  0.77821720  0.62938086  1
  O  O44  1  0.72993068  0.08383816  0.01991977  1
  O  O45  1  0.76962586  0.72178280  0.12938086  1
  O  O46  1  0.86609336  0.55936352  0.90002652  1
  O  O47  1  0.86609336  0.94063648  0.40002652  1
  O  O48  1  0.92703230  0.93513062  0.83520630  1
  O  O49  1  0.93945275  0.29401374  0.89645269  1
  O  O50  1  0.92703230  0.56486938  0.33520630  1
  O  O51  1  0.93945275  0.20598626  0.39645269  1
