# generated using pymatgen
data_Li7Ni5O12
_symmetry_space_group_name_H-M   'P 1'
_cell_length_a   4.99010619
_cell_length_b   4.99010583
_cell_length_c   9.47664570
_cell_angle_alpha   85.06421631
_cell_angle_beta   94.93578477
_cell_angle_gamma   60.77189443
_symmetry_Int_Tables_number   1
_chemical_formula_structural   Li7Ni5O12
_chemical_formula_sum   'Li7 Ni5 O12'
_cell_volume   202.93412539
_cell_formula_units_Z   1
loop_
 _symmetry_equiv_pos_site_id
 _symmetry_equiv_pos_as_xyz
  1  'x, y, z'
loop_
 _atom_site_type_symbol
 _atom_site_label
 _atom_site_symmetry_multiplicity
 _atom_site_fract_x
 _atom_site_fract_y
 _atom_site_fract_z
 _atom_site_occupancy
  Li  Li0  1  0.25854317  0.25854317  0.75000000  1
  Li  Li1  1  0.17663442  0.65530408  0.51008900  1
  Li  Li2  1  0.32645480  0.83674080  0.99054416  1
  Li  Li3  1  0.65530408  0.17663442  0.98991100  1
  Li  Li4  1  0.83674080  0.32645480  0.50945584  1
  Li  Li5  1  0.74595256  0.74595256  0.25000000  1
  Li  Li6  1  0.91877575  0.91877575  0.75000000  1
  Ni  Ni7  1  0.07594706  0.07594706  0.25000000  1
  Ni  Ni8  1  0.00336308  0.50395472  0.99546148  1
  Ni  Ni9  1  0.50395472  0.00336308  0.50453852  1
  Ni  Ni10  1  0.41304281  0.41304281  0.25000000  1
  Ni  Ni11  1  0.58567562  0.58567562  0.75000000  1
  O  O12  1  0.93807721  0.25620111  0.87324341  1
  O  O13  1  0.25620111  0.93807721  0.62675659  1
  O  O14  1  0.15944975  0.34207554  0.37436993  1
  O  O15  1  0.34207554  0.15944975  0.12563007  1
  O  O16  1  0.30144284  0.55132373  0.86746192  1
  O  O17  1  0.55132373  0.30144284  0.63253808  1
  O  O18  1  0.42249131  0.71906333  0.35895279  1
  O  O19  1  0.71906333  0.42249131  0.14104721  1
  O  O20  1  0.65110026  0.83545587  0.88012474  1
  O  O21  1  0.83545587  0.65110026  0.61987526  1
  O  O22  1  0.75463338  0.06829679  0.36946809  1
  O  O23  1  0.06829679  0.75463338  0.13053191  1
