# generated using pymatgen
data_Mn5Fe(PO4)6
_symmetry_space_group_name_H-M   'P 1'
_cell_length_a   8.60992984
_cell_length_b   8.57458890
_cell_length_c   8.57458951
_cell_angle_alpha   59.99999644
_cell_angle_beta   60.13568961
_cell_angle_gamma   60.13569176
_symmetry_Int_Tables_number   1
_chemical_formula_structural   Mn5Fe(PO4)6
_chemical_formula_sum   'Mn5 Fe1 P6 O24'
_cell_volume   448.53768070
_cell_formula_units_Z   1
loop_
 _symmetry_equiv_pos_site_id
 _symmetry_equiv_pos_as_xyz
  1  'x, y, z'
loop_
 _atom_site_type_symbol
 _atom_site_label
 _atom_site_symmetry_multiplicity
 _atom_site_fract_x
 _atom_site_fract_y
 _atom_site_fract_z
 _atom_site_occupancy
  Mn  Mn0  1  0.99685645  0.00104818  0.00104818  1
  Mn  Mn1  1  0.06980153  0.64339949  0.64339949  1
  Mn  Mn2  1  0.50125488  0.49958137  0.49958137  1
  Mn  Mn3  1  0.43142993  0.85619002  0.85619002  1
  Mn  Mn4  1  0.93165649  0.35611417  0.35611417  1
  Fe  Fe5  1  0.56643229  0.14452257  0.14452257  1
  P  P6  1  0.24782161  0.25054533  0.54295287  1
  P  P7  1  0.24782161  0.95868119  0.25054533  1
  P  P8  1  0.24782161  0.54295287  0.95868119  1
  P  P9  1  0.75299014  0.46075463  0.03732420  1
  P  P10  1  0.75299014  0.03732420  0.74893103  1
  P  P11  1  0.75299014  0.74893103  0.46075463  1
  O  O12  1  0.06526141  0.11966056  0.30192204  1
  O  O13  1  0.06526141  0.51315599  0.11966056  1
  O  O14  1  0.06526141  0.30192204  0.51315599  1
  O  O15  1  0.23543879  0.08515347  0.73897081  1
  O  O16  1  0.43030734  0.19812311  0.38382340  1
  O  O17  1  0.25783401  0.42045107  0.55949179  1
  O  O18  1  0.23543879  0.94043793  0.08515347  1
  O  O19  1  0.25783401  0.76222313  0.42045107  1
  O  O20  1  0.56879698  0.62057459  0.00954237  1
  O  O21  1  0.25783401  0.55949179  0.76222313  1
  O  O22  1  0.76774563  0.26567028  0.05427588  1
  O  O23  1  0.56879698  0.00954237  0.80108606  1
  O  O24  1  0.43030734  0.98774615  0.19812311  1
  O  O25  1  0.23543879  0.73897081  0.94043793  1
  O  O26  1  0.73926375  0.44643125  0.23306201  1
  O  O27  1  0.43030734  0.38382340  0.98774615  1
  O  O28  1  0.73926375  0.23306201  0.58124298  1
  O  O29  1  0.76774563  0.05427588  0.91230822  1
  O  O30  1  0.73926375  0.58124298  0.44643125  1
  O  O31  1  0.56879698  0.80108606  0.62057459  1
  O  O32  1  0.76774563  0.91230822  0.26567028  1
  O  O33  1  0.93539714  0.69393643  0.49607243  1
  O  O34  1  0.93539714  0.49607243  0.87459400  1
  O  O35  1  0.93539714  0.87459400  0.69393643  1
