# generated using pymatgen
data_Ba3La2Br12
_symmetry_space_group_name_H-M   'P 1'
_cell_length_a   12.42147240
_cell_length_b   12.42147240
_cell_length_c   7.55899606
_cell_angle_alpha   90.00000000
_cell_angle_beta   90.00000000
_cell_angle_gamma   90.00000000
_symmetry_Int_Tables_number   1
_chemical_formula_structural   Ba3La2Br12
_chemical_formula_sum   'Ba6 La4 Br24'
_cell_volume   1166.30000208
_cell_formula_units_Z   2
loop_
 _symmetry_equiv_pos_site_id
 _symmetry_equiv_pos_as_xyz
  1  'x, y, z'
loop_
 _atom_site_type_symbol
 _atom_site_label
 _atom_site_symmetry_multiplicity
 _atom_site_fract_x
 _atom_site_fract_y
 _atom_site_fract_z
 _atom_site_occupancy
  Ba  Ba0  1  0.00000000  0.00000000  0.00000000  1
  Ba  Ba1  1  0.18272646  0.68272646  0.50000000  1
  Ba  Ba2  1  0.31727354  0.18272646  0.50000000  1
  Ba  Ba3  1  0.50000000  0.50000000  0.00000000  1
  Ba  Ba4  1  0.68272646  0.81727354  0.50000000  1
  Ba  Ba5  1  0.81727354  0.31727354  0.50000000  1
  La  La6  1  0.13570411  0.36429589  0.00000000  1
  La  La7  1  0.36429589  0.86429589  0.00000000  1
  La  La8  1  0.63570411  0.13570411  0.00000000  1
  La  La9  1  0.86429589  0.63570411  0.00000000  1
  Br  Br10  1  0.00000000  0.50000000  0.25707685  1
  Br  Br11  1  0.00000000  0.50000000  0.74292315  1
  Br  Br12  1  0.05642164  0.20856797  0.26980685  1
  Br  Br13  1  0.05642164  0.20856797  0.73019315  1
  Br  Br14  1  0.19210684  0.69210684  0.00000000  1
  Br  Br15  1  0.20856797  0.94357836  0.26980685  1
  Br  Br16  1  0.20856797  0.94357836  0.73019315  1
  Br  Br17  1  0.29143203  0.44357836  0.26980685  1
  Br  Br18  1  0.29143203  0.44357836  0.73019315  1
  Br  Br19  1  0.30789316  0.19210684  0.00000000  1
  Br  Br20  1  0.44357836  0.70856797  0.26980685  1
  Br  Br21  1  0.44357836  0.70856797  0.73019315  1
  Br  Br22  1  0.50000000  0.00000000  0.74292315  1
  Br  Br23  1  0.50000000  0.00000000  0.25707685  1
  Br  Br24  1  0.55642164  0.29143203  0.26980685  1
  Br  Br25  1  0.55642164  0.29143203  0.73019315  1
  Br  Br26  1  0.69210684  0.80789316  0.00000000  1
  Br  Br27  1  0.70856797  0.55642164  0.26980685  1
  Br  Br28  1  0.70856797  0.55642164  0.73019315  1
  Br  Br29  1  0.79143203  0.05642164  0.26980685  1
  Br  Br30  1  0.79143203  0.05642164  0.73019315  1
  Br  Br31  1  0.80789316  0.30789316  0.00000000  1
  Br  Br32  1  0.94357836  0.79143203  0.26980685  1
  Br  Br33  1  0.94357836  0.79143203  0.73019315  1
