# generated using pymatgen
data_Na4Co2C4SO16
_symmetry_space_group_name_H-M   'P 1'
_cell_length_a   9.92532432
_cell_length_b   9.89686619
_cell_length_c   9.95457662
_cell_angle_alpha   120.00348551
_cell_angle_beta   59.71322514
_cell_angle_gamma   119.70973962
_symmetry_Int_Tables_number   1
_chemical_formula_structural   Na4Co2C4SO16
_chemical_formula_sum   'Na8 Co4 C8 S2 O32'
_cell_volume   691.39808209
_cell_formula_units_Z   2
loop_
 _symmetry_equiv_pos_site_id
 _symmetry_equiv_pos_as_xyz
  1  'x, y, z'
loop_
 _atom_site_type_symbol
 _atom_site_label
 _atom_site_symmetry_multiplicity
 _atom_site_fract_x
 _atom_site_fract_y
 _atom_site_fract_z
 _atom_site_occupancy
  Na  Na0  1  0.91007918  0.16007918  0.33992082  1
  Na  Na1  1  0.90999569  0.15999569  0.90999569  1
  Na  Na2  1  0.91007216  0.58992784  0.33992784  1
  Na  Na3  1  0.33992784  0.16007216  0.91007216  1
  Na  Na4  1  0.66119560  0.83880440  0.08880440  1
  Na  Na5  1  0.34000431  0.59000431  0.34000431  1
  Na  Na6  1  0.33992082  0.58992082  0.91007918  1
  Na  Na7  1  0.08880440  0.41119560  0.66119560  1
  Co  Co8  1  0.49754954  0.00319335  0.00093303  1
  Co  Co9  1  0.49680665  0.00245046  0.50470979  1
  Co  Co10  1  0.50470979  0.49906697  0.49680665  1
  Co  Co11  1  0.00093303  0.99529021  0.49754954  1
  C  C12  1  0.71387781  0.14296881  0.71401640  1
  C  C13  1  0.64598389  0.21244379  0.28278079  1
  C  C14  1  0.28278079  0.21632089  0.64598389  1
  C  C15  1  0.28367911  0.21721921  0.28755621  1
  C  C16  1  0.71401640  0.78492640  0.71387781  1
  C  C17  1  0.71507360  0.78598360  0.35703119  1
  C  C18  1  0.35703119  0.78612219  0.71507360  1
  C  C19  1  0.28755621  0.85401611  0.28367911  1
  S  S20  1  0.87500000  0.62500000  0.87500000  1
  S  S21  1  0.12500000  0.37500000  0.12500000  1
  O  O22  1  0.86052140  0.15480386  0.69083356  1
  O  O23  1  0.64918920  0.10024173  0.31396135  1
  O  O24  1  0.68736808  0.14188298  0.59945374  1
  O  O25  1  0.64942151  0.17881250  0.13813550  1
  O  O26  1  0.59745430  0.13829316  0.85487397  1
  O  O27  1  0.93743573  0.56232245  0.93400576  1
  O  O28  1  0.93767755  0.56256427  0.69088096  1
  O  O29  1  0.64981846  0.35649922  0.39266969  1
  O  O30  1  0.39266969  0.18598894  0.64981846  1
  O  O31  1  0.31401106  0.10733031  0.14350078  1
  O  O32  1  0.93400576  0.80911904  0.93743573  1
  O  O33  1  0.69088096  0.56599424  0.93767755  1
  O  O34  1  0.68596589  0.64512603  0.36170684  1
  O  O35  1  0.85487397  0.81403411  0.59745430  1
  O  O36  1  0.39125649  0.36186450  0.32118750  1
  O  O37  1  0.13813550  0.10874351  0.64942151  1
  O  O38  1  0.59945374  0.64493884  0.68736808  1
  O  O39  1  0.85506116  0.90054626  0.35811702  1
  O  O40  1  0.31396135  0.36290882  0.64918920  1
  O  O41  1  0.13709118  0.18603865  0.39975827  1
  O  O42  1  0.30969566  0.43640763  0.06304167  1
  O  O43  1  0.06359237  0.19030434  0.06367029  1
  O  O44  1  0.69083356  0.89655210  0.86052140  1
  O  O45  1  0.60344790  0.80916644  0.34519614  1
  O  O46  1  0.34519614  0.63947860  0.60344790  1
  O  O47  1  0.06367029  0.43695833  0.06359237  1
  O  O48  1  0.06304167  0.43632971  0.30969566  1
  O  O49  1  0.39975827  0.85081080  0.13709118  1
  O  O50  1  0.35811702  0.81263192  0.85506116  1
  O  O51  1  0.32118750  0.85057849  0.39125649  1
  O  O52  1  0.36170684  0.90254570  0.68596589  1
  O  O53  1  0.14350078  0.85018154  0.31401106  1
