# generated using pymatgen
data_Li4VGa3O8
_symmetry_space_group_name_H-M   'P 1'
_cell_length_a   5.52476077
_cell_length_b   6.48463268
_cell_length_c   5.09538955
_cell_angle_alpha   89.94434838
_cell_angle_beta   89.95703507
_cell_angle_gamma   90.01826713
_symmetry_Int_Tables_number   1
_chemical_formula_structural   Li4VGa3O8
_chemical_formula_sum   'Li4 V1 Ga3 O8'
_cell_volume   182.54750453
_cell_formula_units_Z   1
loop_
 _symmetry_equiv_pos_site_id
 _symmetry_equiv_pos_as_xyz
  1  'x, y, z'
loop_
 _atom_site_type_symbol
 _atom_site_label
 _atom_site_symmetry_multiplicity
 _atom_site_fract_x
 _atom_site_fract_y
 _atom_site_fract_z
 _atom_site_occupancy
  Li  Li0  1  0.08187702  0.62482122  0.50308896  1
  Li  Li1  1  0.41947720  0.12416264  0.00328785  1
  Li  Li2  1  0.58339498  0.87401562  0.50328097  1
  Li  Li3  1  0.91628781  0.37659972  0.00319247  1
  V  V4  1  0.08361206  0.12769526  0.50274354  1
  Ga  Ga5  1  0.41758253  0.62657872  0.99932254  1
  Ga  Ga6  1  0.58244661  0.37715285  0.49973987  1
  Ga  Ga7  1  0.91631868  0.87055628  0.99809387  1
  O  O8  1  0.06776988  0.11032050  0.11968866  1
  O  O9  1  0.09382537  0.63796674  0.10813626  1
  O  O10  1  0.41846659  0.13876299  0.60841804  1
  O  O11  1  0.42798704  0.61250169  0.63082154  1
  O  O12  1  0.56797252  0.38888392  0.13103486  1
  O  O13  1  0.59256181  0.86058868  0.10774560  1
  O  O14  1  0.90354310  0.36854838  0.60873165  1
  O  O15  1  0.92687780  0.88084479  0.63027233  1
