# generated using pymatgen
data_Li3V4CuO12
_symmetry_space_group_name_H-M   'P 1'
_cell_length_a   6.86515774
_cell_length_b   6.86515843
_cell_length_c   5.86640360
_cell_angle_alpha   74.08733726
_cell_angle_beta   105.91266222
_cell_angle_gamma   96.71929469
_symmetry_Int_Tables_number   1
_chemical_formula_structural   Li3V4CuO12
_chemical_formula_sum   'Li3 V4 Cu1 O12'
_cell_volume   255.44068473
_cell_formula_units_Z   1
loop_
 _symmetry_equiv_pos_site_id
 _symmetry_equiv_pos_as_xyz
  1  'x, y, z'
loop_
 _atom_site_type_symbol
 _atom_site_label
 _atom_site_symmetry_multiplicity
 _atom_site_fract_x
 _atom_site_fract_y
 _atom_site_fract_z
 _atom_site_occupancy
  Li  Li0  1  0.09506801  0.09506801  0.75000000  1
  Li  Li1  1  0.24331638  0.24331638  0.25000000  1
  Li  Li2  1  0.75666455  0.75666455  0.75000000  1
  V  V3  1  0.20051778  0.61032225  0.76981489  1
  V  V4  1  0.38907362  0.79936675  0.26878951  1
  V  V5  1  0.61032225  0.20051778  0.73018511  1
  V  V6  1  0.79936675  0.38907362  0.23121049  1
  Cu  Cu7  1  0.90766747  0.90766747  0.25000000  1
  O  O8  1  0.01578836  0.78368339  0.65072911  1
  O  O9  1  0.09877249  0.37353249  0.82635445  1
  O  O10  1  0.21347791  0.98153603  0.15927726  1
  O  O11  1  0.35987225  0.64216150  0.56035949  1
  O  O12  1  0.37353249  0.09877249  0.67364555  1
  O  O13  1  0.36014345  0.63919281  0.06068849  1
  O  O14  1  0.64216150  0.35987225  0.93964051  1
  O  O15  1  0.62860220  0.90123832  0.32791525  1
  O  O16  1  0.63919281  0.36014345  0.43931151  1
  O  O17  1  0.78368339  0.01578836  0.84927089  1
  O  O18  1  0.90123832  0.62860220  0.17208475  1
  O  O19  1  0.98153603  0.21347791  0.34072274  1
