# generated using pymatgen
data_Li2TiFe3O8
_symmetry_space_group_name_H-M   'P 1'
_cell_length_a   5.92918785
_cell_length_b   5.94103117
_cell_length_c   9.58573608
_cell_angle_alpha   90.12061526
_cell_angle_beta   89.93957824
_cell_angle_gamma   120.06608824
_symmetry_Int_Tables_number   1
_chemical_formula_structural   Li2TiFe3O8
_chemical_formula_sum   'Li4 Ti2 Fe6 O16'
_cell_volume   292.22850377
_cell_formula_units_Z   2
loop_
 _symmetry_equiv_pos_site_id
 _symmetry_equiv_pos_as_xyz
  1  'x, y, z'
loop_
 _atom_site_type_symbol
 _atom_site_label
 _atom_site_symmetry_multiplicity
 _atom_site_fract_x
 _atom_site_fract_y
 _atom_site_fract_z
 _atom_site_occupancy
  Li  Li0  1  0.33376835  0.66943423  0.89564506  1
  Li  Li1  1  0.99957936  0.99785851  0.99463125  1
  Li  Li2  1  0.00042064  0.99827915  0.49463125  1
  Li  Li3  1  0.66623165  0.33566588  0.39564506  1
  Ti  Ti4  1  0.33158997  0.66318706  0.49480041  1
  Ti  Ti5  1  0.66841003  0.33159709  0.99480041  1
  Fe  Fe6  1  0.17121398  0.82945302  0.21515848  1
  Fe  Fe7  1  0.17019409  0.34148285  0.21449163  1
  Fe  Fe8  1  0.65869775  0.82889228  0.21590575  1
  Fe  Fe9  1  0.34130225  0.17019553  0.71590575  1
  Fe  Fe10  1  0.82878602  0.65823904  0.71515848  1
  Fe  Fe11  1  0.82980591  0.17128975  0.71449163  1
  O  O12  1  0.16805334  0.83108566  0.59500690  1
  O  O13  1  0.03851377  0.51901114  0.34294137  1
  O  O14  1  0.33587726  0.66861799  0.10433870  1
  O  O15  1  0.00003884  -0.00031404  0.30630344  1
  O  O16  1  0.99996116  0.99964712  0.80630344  1
  O  O17  1  0.16751535  0.33604408  0.59436388  1
  O  O18  1  0.47974123  0.96068622  0.34284410  1
  O  O19  1  0.47863412  0.52020168  0.34401343  1
  O  O20  1  0.33845551  0.17044428  0.09347660  1
  O  O21  1  0.66154449  0.83198878  0.59347660  1
  O  O22  1  0.52025877  0.48094599  0.84284410  1
  O  O23  1  0.52136588  0.04156756  0.84401343  1
  O  O24  1  0.66412274  0.33274173  0.60433870  1
  O  O25  1  0.83194666  0.66303233  0.09500690  1
  O  O26  1  0.96148623  0.48049737  0.84294137  1
  O  O27  1  0.83248465  0.16852973  0.09436388  1
