# generated using pymatgen
data_Li7Mn2(CoO4)3
_symmetry_space_group_name_H-M   'P 1'
_cell_length_a   3.03057250
_cell_length_b   12.04901027
_cell_length_c   6.39096511
_cell_angle_alpha   104.50549838
_cell_angle_beta   76.72593003
_cell_angle_gamma   87.74592701
_symmetry_Int_Tables_number   1
_chemical_formula_structural   Li7Mn2(CoO4)3
_chemical_formula_sum   'Li7 Mn2 Co3 O12'
_cell_volume   218.72905603
_cell_formula_units_Z   1
loop_
 _symmetry_equiv_pos_site_id
 _symmetry_equiv_pos_as_xyz
  1  'x, y, z'
loop_
 _atom_site_type_symbol
 _atom_site_label
 _atom_site_symmetry_multiplicity
 _atom_site_fract_x
 _atom_site_fract_y
 _atom_site_fract_z
 _atom_site_occupancy
  Li  Li0  1  0.74575303  0.25103109  0.25304358  1
  Li  Li1  1  0.75416901  0.58046865  0.91236045  1
  Li  Li2  1  0.24718128  0.41859239  0.08745405  1
  Li  Li3  1  0.25504131  0.74904282  0.74374746  1
  Li  Li4  1  0.75108090  0.91640952  0.58344913  1
  Li  Li5  1  0.24709775  0.08448024  0.42011812  1
  Li  Li6  1  0.49992161  0.49943613  0.50021381  1
  Mn  Mn7  1  -0.00016175  0.00231169  0.99905589  1
  Mn  Mn8  1  0.50180272  0.83051885  0.16834991  1
  Co  Co9  1  0.99767705  0.34054702  0.66106796  1
  Co  Co10  1  0.00420733  0.65758399  0.33939527  1
  Co  Co11  1  0.49957253  0.16932825  0.83102700  1
  O  O12  1  0.36332343  0.12540124  0.10702317  1
  O  O13  1  0.36363235  0.44746617  0.78186400  1
  O  O14  1  0.86843378  0.28835673  0.93011376  1
  O  O15  1  0.87691981  0.63067201  0.60118809  1
  O  O16  1  0.36173680  0.78512202  0.44231151  1
  O  O17  1  0.85870076  0.95632788  0.27884359  1
  O  O18  1  0.12112524  0.36838306  0.39953553  1
  O  O19  1  0.13258247  0.70750101  0.06541907  1
  O  O20  1  0.63329415  0.55135604  0.21917565  1
  O  O21  1  0.64129109  0.87689937  0.88935101  1
  O  O22  1  0.13924611  0.04800075  0.72205259  1
  O  O23  1  0.63637125  0.21476307  0.56383941  1
