# generated using pymatgen
data_Li4Mn3O8
_symmetry_space_group_name_H-M   'P 1'
_cell_length_a   6.07526765
_cell_length_b   10.71079980
_cell_length_c   10.71229375
_cell_angle_alpha   31.13591292
_cell_angle_beta   28.23812908
_cell_angle_gamma   51.16881850
_symmetry_Int_Tables_number   1
_chemical_formula_structural   Li4Mn3O8
_chemical_formula_sum   'Li4 Mn3 O8'
_cell_volume   145.73353423
_cell_formula_units_Z   1
loop_
 _symmetry_equiv_pos_site_id
 _symmetry_equiv_pos_as_xyz
  1  'x, y, z'
loop_
 _atom_site_type_symbol
 _atom_site_label
 _atom_site_symmetry_multiplicity
 _atom_site_fract_x
 _atom_site_fract_y
 _atom_site_fract_z
 _atom_site_occupancy
  Li  Li0  1  0.00004626  0.00006858  0.00020380  1
  Li  Li1  1  0.35848819  0.35809306  0.00008857  1
  Li  Li2  1  0.49999138  0.49911558  0.99983812  1
  Li  Li3  1  0.64183984  0.64099440  0.99982383  1
  Mn  Mn4  1  0.50065215  0.99991667  0.00014082  1
  Mn  Mn5  1  0.50063487  0.49996736  0.50007887  1
  Mn  Mn6  1  0.50054575  0.99992262  0.50015712  1
  O  O7  1  0.23441428  0.23326318  0.99947412  1
  O  O8  1  0.22078934  0.74455052  0.99926566  1
  O  O9  1  0.22069135  0.21941507  0.52446846  1
  O  O10  1  0.27085617  0.74448563  0.47444840  1
  O  O11  1  0.76672468  0.76658728  0.00078616  1
  O  O12  1  0.78108539  0.25511222  0.00056136  1
  O  O13  1  0.78110257  0.78081758  0.47487112  1
  O  O14  1  0.73046878  0.25530225  0.52595660  1
