# generated using pymatgen
data_NaLi5Fe2P2(CO7)2
_symmetry_space_group_name_H-M   'P 1'
_cell_length_a   8.62378891
_cell_length_b   13.09003797
_cell_length_c   5.01866708
_cell_angle_alpha   89.99911029
_cell_angle_beta   87.45933964
_cell_angle_gamma   90.49617363
_symmetry_Int_Tables_number   1
_chemical_formula_structural   NaLi5Fe2P2(CO7)2
_chemical_formula_sum   'Na2 Li10 Fe4 P4 C4 O28'
_cell_volume   565.95770454
_cell_formula_units_Z   2
loop_
 _symmetry_equiv_pos_site_id
 _symmetry_equiv_pos_as_xyz
  1  'x, y, z'
loop_
 _atom_site_type_symbol
 _atom_site_label
 _atom_site_symmetry_multiplicity
 _atom_site_fract_x
 _atom_site_fract_y
 _atom_site_fract_z
 _atom_site_occupancy
  Na  Na0  1  0.08623027  0.62258910  0.75437569  1
  Na  Na1  1  0.25425276  0.00086814  0.24761760  1
  Li  Li2  1  0.08427765  0.13160800  0.75168970  1
  Li  Li3  1  0.27009737  0.24460209  0.23982121  1
  Li  Li4  1  0.26624186  0.50204486  0.23750267  1
  Li  Li5  1  0.27199715  0.73881704  0.22653809  1
  Li  Li6  1  0.73108026  0.25883780  0.76189478  1
  Li  Li7  1  0.73034843  0.48956817  0.77102070  1
  Li  Li8  1  0.73451001  0.75595530  0.77076153  1
  Li  Li9  1  0.73419920  0.99554863  0.75670768  1
  Li  Li10  1  0.90783976  0.87039506  0.25126733  1
  Li  Li11  1  0.91482591  0.37476285  0.24939396  1
  Fe  Fe12  1  0.34845731  0.37379785  0.78746795  1
  Fe  Fe13  1  0.35268128  0.87395498  0.77414540  1
  Fe  Fe14  1  0.65315524  0.12572928  0.21197537  1
  Fe  Fe15  1  0.65011230  0.62461334  0.22390099  1
  P  P16  1  0.41745623  0.62417882  0.70833025  1
  P  P17  1  0.40989514  0.12810410  0.70193687  1
  P  P18  1  0.59084886  0.37360676  0.29436231  1
  P  P19  1  0.59207645  0.87413724  0.29035247  1
  C  C20  1  0.04254404  0.37668444  0.72019773  1
  C  C21  1  0.04207670  0.87240533  0.73257350  1
  C  C22  1  0.95064317  0.62469532  0.26987860  1
  C  C23  1  0.95424283  0.13025925  0.28350892  1
  O  O24  1  0.09861319  0.14062448  0.33904214  1
  O  O25  1  0.10091264  0.62348893  0.28054211  1
  O  O26  1  0.08441641  0.87343652  0.97733560  1
  O  O27  1  0.08798455  0.37729693  0.96344457  1
  O  O28  1  0.14780118  0.86741639  0.53959728  1
  O  O29  1  0.14479082  0.37880335  0.52181826  1
  O  O30  1  0.30964721  0.03232311  0.77774640  1
  O  O31  1  0.31074856  0.21886425  0.81693645  1
  O  O32  1  0.32437197  0.52874428  0.81027126  1
  O  O33  1  0.32192908  0.71624448  0.81462276  1
  O  O34  1  0.42745338  0.13781518  0.39273486  1
  O  O35  1  0.42446143  0.62496346  0.39501050  1
  O  O36  1  0.42444809  0.37382707  0.19110446  1
  O  O37  1  0.42756930  0.86653684  0.18163269  1
  O  O38  1  0.57415294  0.12492381  0.81420954  1
  O  O39  1  0.58510879  0.62540679  0.80637179  1
  O  O40  1  0.57864204  0.37324571  0.60613959  1
  O  O41  1  0.57801896  0.87649916  0.60229201  1
  O  O42  1  0.68935677  0.28099615  0.19071538  1
  O  O43  1  0.68919684  0.46666515  0.19065472  1
  O  O44  1  0.69683184  0.78388494  0.19574050  1
  O  O45  1  0.68405296  0.97002246  0.18588936  1
  O  O46  1  0.84942177  0.12369235  0.47880839  1
  O  O47  1  0.86124634  0.62455071  0.48489732  1
  O  O48  1  0.91201768  0.12612095  0.03805593  1
  O  O49  1  0.88504713  0.62587080  0.04140139  1
  O  O50  1  0.89644422  0.87561845  0.67452427  1
  O  O51  1  0.89522574  0.37435455  0.67124016  1
