# generated using pymatgen
data_FePO4
_symmetry_space_group_name_H-M   'P 1'
_cell_length_a   8.42728596
_cell_length_b   8.66291259
_cell_length_c   8.66291214
_cell_angle_alpha   60.00000241
_cell_angle_beta   59.07069787
_cell_angle_gamma   59.07069838
_symmetry_Int_Tables_number   1
_chemical_formula_structural   FePO4
_chemical_formula_sum   'Fe6 P6 O24'
_cell_volume   440.81392862
_cell_formula_units_Z   6
loop_
 _symmetry_equiv_pos_site_id
 _symmetry_equiv_pos_as_xyz
  1  'x, y, z'
loop_
 _atom_site_type_symbol
 _atom_site_label
 _atom_site_symmetry_multiplicity
 _atom_site_fract_x
 _atom_site_fract_y
 _atom_site_fract_z
 _atom_site_occupancy
  Fe  Fe0  1  0.00000000  0.00000000  0.00000000  1
  Fe  Fe1  1  0.06078808  0.64640431  0.64640431  1
  Fe  Fe2  1  0.56078808  0.14640431  0.14640431  1
  Fe  Fe3  1  0.50000000  0.50000000  0.50000000  1
  Fe  Fe4  1  0.43921192  0.85359569  0.85359569  1
  Fe  Fe5  1  0.93921192  0.35359569  0.35359569  1
  P  P6  1  0.25000000  0.25000000  0.54813441  1
  P  P7  1  0.25000000  0.95186559  0.25000000  1
  P  P8  1  0.25000000  0.54813441  0.95186559  1
  P  P9  1  0.75000000  0.45186559  0.04813441  1
  P  P10  1  0.75000000  0.04813441  0.75000000  1
  P  P11  1  0.75000000  0.75000000  0.45186559  1
  O  O12  1  0.06469598  0.10709161  0.32342816  1
  O  O13  1  0.06469598  0.50478525  0.10709161  1
  O  O14  1  0.06469598  0.32342816  0.50478525  1
  O  O15  1  0.21586557  0.09535049  0.75052159  1
  O  O16  1  0.43530402  0.17657184  0.39290839  1
  O  O17  1  0.28413443  0.40464951  0.56173765  1
  O  O18  1  0.21586557  0.93826235  0.09535049  1
  O  O19  1  0.28413443  0.74947841  0.40464951  1
  O  O20  1  0.56469598  0.60709161  0.00478525  1
  O  O21  1  0.28413443  0.56173765  0.74947841  1
  O  O22  1  0.78413443  0.24947841  0.06173765  1
  O  O23  1  0.56469598  0.00478525  0.82342816  1
  O  O24  1  0.43530402  0.99521475  0.17657184  1
  O  O25  1  0.21586557  0.75052159  0.93826235  1
  O  O26  1  0.71586557  0.43826235  0.25052159  1
  O  O27  1  0.43530402  0.39290839  0.99521475  1
  O  O28  1  0.71586557  0.25052159  0.59535049  1
  O  O29  1  0.78413443  0.06173765  0.90464951  1
  O  O30  1  0.71586557  0.59535049  0.43826235  1
  O  O31  1  0.56469598  0.82342816  0.60709161  1
  O  O32  1  0.78413443  0.90464951  0.24947841  1
  O  O33  1  0.93530402  0.67657184  0.49521475  1
  O  O34  1  0.93530402  0.49521475  0.89290839  1
  O  O35  1  0.93530402  0.89290839  0.67657184  1
