# generated using pymatgen
data_Co(CuO2)4
_symmetry_space_group_name_H-M   'P 1'
_cell_length_a   6.10389400
_cell_length_b   6.08722204
_cell_length_c   6.90741488
_cell_angle_alpha   74.36827280
_cell_angle_beta   49.20875723
_cell_angle_gamma   55.71346163
_symmetry_Int_Tables_number   1
_chemical_formula_structural   Co(CuO2)4
_chemical_formula_sum   'Co1 Cu4 O8'
_cell_volume   158.53781369
_cell_formula_units_Z   1
loop_
 _symmetry_equiv_pos_site_id
 _symmetry_equiv_pos_as_xyz
  1  'x, y, z'
loop_
 _atom_site_type_symbol
 _atom_site_label
 _atom_site_symmetry_multiplicity
 _atom_site_fract_x
 _atom_site_fract_y
 _atom_site_fract_z
 _atom_site_occupancy
  Co  Co0  1  0.49971740  0.50003087  0.00024344  1
  Cu  Cu1  1  0.00012247  0.50001646  0.49985739  1
  Cu  Cu2  1  0.99990477  -0.00001498  0.00009522  1
  Cu  Cu3  1  0.50002056  0.00002004  0.00001003  1
  Cu  Cu4  1  0.00004723  0.50001622  -0.00000203  1
  O  O5  1  0.46326440  0.31528480  0.84636912  1
  O  O6  1  0.96054993  0.29103345  0.76805202  1
  O  O7  1  0.53669048  0.73885902  0.76279144  1
  O  O8  1  0.95751167  0.81550941  0.85712572  1
  O  O9  1  0.04244645  0.18446949  0.14289226  1
  O  O10  1  0.46330451  0.26121923  0.23712643  1
  O  O11  1  0.03968872  0.70884103  0.23181247  1
  O  O12  1  0.53673239  0.68471496  0.15362649  1
