# generated using pymatgen
data_Li3Co3(Ge3O8)2
_symmetry_space_group_name_H-M   'P 1'
_cell_length_a   8.40941316
_cell_length_b   8.42074996
_cell_length_c   8.42091493
_cell_angle_alpha   90.00000000
_cell_angle_beta   90.06049440
_cell_angle_gamma   90.00000000
_symmetry_Int_Tables_number   1
_chemical_formula_structural   Li3Co3(Ge3O8)2
_chemical_formula_sum   'Li6 Co6 Ge12 O32'
_cell_volume   596.31467922
_cell_formula_units_Z   2
loop_
 _symmetry_equiv_pos_site_id
 _symmetry_equiv_pos_as_xyz
  1  'x, y, z'
loop_
 _atom_site_type_symbol
 _atom_site_label
 _atom_site_symmetry_multiplicity
 _atom_site_fract_x
 _atom_site_fract_y
 _atom_site_fract_z
 _atom_site_occupancy
  Li  Li0  1  0.99940386  0.99969261  0.00009173  1
  Li  Li1  1  0.00059614  0.49969261  0.49990827  1
  Li  Li2  1  0.12317239  0.87420907  0.37337496  1
  Li  Li3  1  0.37261790  0.12464796  0.87616083  1
  Li  Li4  1  0.62738210  0.62464796  0.62383917  1
  Li  Li5  1  0.87682761  0.37420907  0.12662504  1
  Co  Co6  1  0.24723184  0.24887864  0.24872132  1
  Co  Co7  1  0.25116101  0.75237333  0.74789214  1
  Co  Co8  1  0.50317024  0.49751299  0.99796426  1
  Co  Co9  1  0.49682976  0.99751299  0.50203574  1
  Co  Co10  1  0.74883899  0.25237333  0.75210786  1
  Co  Co11  1  0.75276816  0.74887864  0.25127868  1
  Ge  Ge12  1  0.12645516  0.12472546  0.62947776  1
  Ge  Ge13  1  0.12099510  0.62830251  0.13056046  1
  Ge  Ge14  1  0.12390783  0.36859722  0.87655019  1
  Ge  Ge15  1  0.37494704  0.37506274  0.62793750  1
  Ge  Ge16  1  0.37081705  0.62736980  0.37711902  1
  Ge  Ge17  1  0.36758884  0.87871556  0.12378700  1
  Ge  Ge18  1  0.62918295  0.12736980  0.12288098  1
  Ge  Ge19  1  0.63241116  0.37871556  0.37621300  1
  Ge  Ge20  1  0.62505296  0.87506274  0.87206250  1
  Ge  Ge21  1  0.87900490  0.12830251  0.36943954  1
  Ge  Ge22  1  0.87354484  0.62472546  0.87052224  1
  Ge  Ge23  1  0.87609217  0.86859722  0.62344981  1
  O  O24  1  0.12932934  0.39462003  0.10170674  1
  O  O25  1  0.14005816  0.36122617  0.63902153  1
  O  O26  1  0.14784400  0.85475804  0.12066827  1
  O  O27  1  0.10705159  0.89880424  0.62801657  1
  O  O28  1  0.10356592  0.12784095  0.39573398  1
  O  O29  1  0.12071588  0.14807400  0.85549485  1
  O  O30  1  0.14525739  0.62087093  0.35120600  1
  O  O31  1  0.11248014  0.61163064  0.88830857  1
  O  O32  1  0.39499479  0.10325480  0.12784170  1
  O  O33  1  0.38869720  0.38798734  0.38839212  1
  O  O34  1  0.35274994  0.14387414  0.62224958  1
  O  O35  1  0.35699584  0.37853152  0.85270592  1
  O  O36  1  0.36395832  0.63767149  0.13736970  1
  O  O37  1  0.37834877  0.85228235  0.35563334  1
  O  O38  1  0.37223684  0.60626586  0.60235664  1
  O  O39  1  0.39867426  0.87222062  0.89328823  1
  O  O40  1  0.63604168  0.13767149  0.36263030  1
  O  O41  1  0.62776316  0.10626586  0.89764336  1
  O  O42  1  0.62165123  0.35228235  0.14436666  1
  O  O43  1  0.60132574  0.37222062  0.60671177  1
  O  O44  1  0.60500521  0.60325480  0.37215830  1
  O  O45  1  0.64725006  0.64387414  0.87775042  1
  O  O46  1  0.61130280  0.88798734  0.11160788  1
  O  O47  1  0.64300416  0.87853152  0.64729408  1
  O  O48  1  0.85474261  0.12087093  0.14879400  1
  O  O49  1  0.88751986  0.11163064  0.61169143  1
  O  O50  1  0.85215600  0.35475804  0.37933173  1
  O  O51  1  0.89294841  0.39880424  0.87198343  1
  O  O52  1  0.89643408  0.62784095  0.10426602  1
  O  O53  1  0.87928412  0.64807400  0.64450515  1
  O  O54  1  0.87067066  0.89462003  0.39829326  1
  O  O55  1  0.85994184  0.86122617  0.86097847  1
