# generated using pymatgen
data_Li2MnSnO4
_symmetry_space_group_name_H-M   'P 1'
_cell_length_a   5.32015140
_cell_length_b   10.65644753
_cell_length_c   10.17952239
_cell_angle_alpha   17.20638103
_cell_angle_beta   30.40221428
_cell_angle_gamma   34.52352963
_symmetry_Int_Tables_number   1
_chemical_formula_structural   Li2MnSnO4
_chemical_formula_sum   'Li2 Mn1 Sn1 O4'
_cell_volume   86.39553778
_cell_formula_units_Z   1
loop_
 _symmetry_equiv_pos_site_id
 _symmetry_equiv_pos_as_xyz
  1  'x, y, z'
loop_
 _atom_site_type_symbol
 _atom_site_label
 _atom_site_symmetry_multiplicity
 _atom_site_fract_x
 _atom_site_fract_y
 _atom_site_fract_z
 _atom_site_occupancy
  Li  Li0  1  0.00000000  0.00000000  0.00000000  1
  Li  Li1  1  0.00000000  0.50000000  0.00000000  1
  Mn  Mn2  1  0.50000000  0.50000000  0.50000000  1
  Sn  Sn3  1  0.50000000  0.00000000  0.50000000  1
  O  O4  1  0.20428843  1.00000000  0.26262708  1
  O  O5  1  0.27611074  0.50000000  0.23248857  1
  O  O6  1  0.79571157  0.00000000  0.73737292  1
  O  O7  1  0.72388926  0.50000000  0.76751143  1
