# generated using pymatgen
data_Li4Cu3Ni3(WO8)2
_symmetry_space_group_name_H-M   'P 1'
_cell_length_a   5.93719733
_cell_length_b   5.77878735
_cell_length_c   9.86205711
_cell_angle_alpha   89.99618386
_cell_angle_beta   86.67937982
_cell_angle_gamma   119.12543662
_symmetry_Int_Tables_number   1
_chemical_formula_structural   Li4Cu3Ni3(WO8)2
_chemical_formula_sum   'Li4 Cu3 Ni3 W2 O16'
_cell_volume   294.92980709
_cell_formula_units_Z   1
loop_
 _symmetry_equiv_pos_site_id
 _symmetry_equiv_pos_as_xyz
  1  'x, y, z'
loop_
 _atom_site_type_symbol
 _atom_site_label
 _atom_site_symmetry_multiplicity
 _atom_site_fract_x
 _atom_site_fract_y
 _atom_site_fract_z
 _atom_site_occupancy
  Li  Li0  1  0.32678242  0.66321813  0.90818802  1
  Li  Li1  1  0.99769349  0.99908022  0.98658469  1
  Li  Li2  1  0.01440062  0.00725589  0.48780544  1
  Li  Li3  1  0.68696868  0.34337198  0.41360064  1
  Cu  Cu4  1  0.17534828  0.83812247  0.21139561  1
  Cu  Cu5  1  0.17512407  0.33724970  0.21148714  1
  Cu  Cu6  1  0.33687887  0.16820605  0.71253362  1
  Ni  Ni7  1  0.65889459  0.82942827  0.21547523  1
  Ni  Ni8  1  0.83218558  0.66251428  0.71249778  1
  Ni  Ni9  1  0.83220850  0.16987014  0.71251189  1
  W  W10  1  0.37479510  0.68745412  0.48916048  1
  W  W11  1  0.67738166  0.33872782  0.97877996  1
  O  O12  1  0.16355968  0.82347293  0.58424667  1
  O  O13  1  0.06189238  0.53104717  0.33338003  1
  O  O14  1  0.32629164  0.66312157  0.11802575  1
  O  O15  1  0.00443674  0.00219527  0.29803646  1
  O  O16  1  0.00743531  0.00411057  0.79888523  1
  O  O17  1  0.16257589  0.34037484  0.58399312  1
  O  O18  1  0.50904842  0.98060571  0.36476503  1
  O  O19  1  0.50895287  0.52833759  0.36495410  1
  O  O20  1  0.30653424  0.15317978  0.09299164  1
  O  O21  1  0.65554827  0.82762657  0.59921450  1
  O  O22  1  0.50279169  0.46898305  0.85087678  1
  O  O23  1  0.50411048  0.03340815  0.85082045  1
  O  O24  1  0.65972149  0.32959319  0.61835780  1
  O  O25  1  0.78483041  0.64156723  0.07868621  1
  O  O26  1  0.96876892  0.48463397  0.85171938  1
  O  O27  1  0.78484071  0.14354234  0.07886735  1
