# generated using pymatgen
data_Mn5Sb(PO4)6
_symmetry_space_group_name_H-M   'P 1'
_cell_length_a   8.70714934
_cell_length_b   8.67769000
_cell_length_c   8.67769010
_cell_angle_alpha   59.99999635
_cell_angle_beta   60.11185743
_cell_angle_gamma   60.11185906
_symmetry_Int_Tables_number   1
_chemical_formula_structural   Mn5Sb(PO4)6
_chemical_formula_sum   'Mn5 Sb1 P6 O24'
_cell_volume   464.40989380
_cell_formula_units_Z   1
loop_
 _symmetry_equiv_pos_site_id
 _symmetry_equiv_pos_as_xyz
  1  'x, y, z'
loop_
 _atom_site_type_symbol
 _atom_site_label
 _atom_site_symmetry_multiplicity
 _atom_site_fract_x
 _atom_site_fract_y
 _atom_site_fract_z
 _atom_site_occupancy
  Mn  Mn0  1  0.01707543  0.99430786  0.99430786  1
  Mn  Mn1  1  0.06358026  0.64547325  0.64547325  1
  Mn  Mn2  1  0.49803200  0.50065567  0.50065567  1
  Mn  Mn3  1  0.43778567  0.85407178  0.85407178  1
  Mn  Mn4  1  0.93208098  0.35597267  0.35597267  1
  Sb  Sb5  1  0.56762154  0.14412649  0.14412649  1
  P  P6  1  0.24637884  0.25243233  0.54574829  1
  P  P7  1  0.24637884  0.95544054  0.25243233  1
  P  P8  1  0.24637884  0.54574829  0.95544054  1
  P  P9  1  0.74763008  0.46081764  0.04483416  1
  P  P10  1  0.74763008  0.04483416  0.74671812  1
  P  P11  1  0.74763008  0.74671812  0.46081764  1
  O  O12  1  0.07161607  0.11402182  0.30803235  1
  O  O13  1  0.07161607  0.50633076  0.11402182  1
  O  O14  1  0.07161607  0.30803235  0.50633076  1
  O  O15  1  0.23814824  0.08416228  0.73423614  1
  O  O16  1  0.43287324  0.19182537  0.38475457  1
  O  O17  1  0.26950964  0.41171980  0.55647952  1
  O  O18  1  0.23814824  0.94345333  0.08416228  1
  O  O19  1  0.26950964  0.76229105  0.41171980  1
  O  O20  1  0.56711746  0.61428733  0.01272045  1
  O  O21  1  0.26950964  0.55647952  0.76229105  1
  O  O22  1  0.75962226  0.26069386  0.06185970  1
  O  O23  1  0.56711746  0.01272045  0.80587476  1
  O  O24  1  0.43287324  0.99054682  0.19182537  1
  O  O25  1  0.23814824  0.73423614  0.94345333  1
  O  O26  1  0.73234345  0.43636518  0.24128341  1
  O  O27  1  0.43287324  0.38475457  0.99054682  1
  O  O28  1  0.73234345  0.24128341  0.59000796  1
  O  O29  1  0.75962226  0.06185970  0.91782318  1
  O  O30  1  0.73234345  0.59000796  0.43636518  1
  O  O31  1  0.56711746  0.80587476  0.61428733  1
  O  O32  1  0.75962226  0.91782318  0.26069386  1
  O  O33  1  0.92937042  0.69720167  0.48422856  1
  O  O34  1  0.92937042  0.48422856  0.88919934  1
  O  O35  1  0.92937042  0.88919934  0.69720167  1
