# generated using pymatgen
data_V3O7
_symmetry_space_group_name_H-M   'P 1'
_cell_length_a   10.19667592
_cell_length_b   10.19667592
_cell_length_c   10.19667592
_cell_angle_alpha   91.83957615
_cell_angle_beta   91.83957615
_cell_angle_gamma   159.35740508
_symmetry_Int_Tables_number   1
_chemical_formula_structural   V3O7
_chemical_formula_sum   'V9 O21'
_cell_volume   367.70207519
_cell_formula_units_Z   3
loop_
 _symmetry_equiv_pos_site_id
 _symmetry_equiv_pos_as_xyz
  1  'x, y, z'
loop_
 _atom_site_type_symbol
 _atom_site_label
 _atom_site_symmetry_multiplicity
 _atom_site_fract_x
 _atom_site_fract_y
 _atom_site_fract_z
 _atom_site_occupancy
  V  V0  1  0.81623807  0.18376193  0.00000000  1
  V  V1  1  0.00000000  0.00000000  0.00000000  1
  V  V2  1  0.36459372  0.00000000  0.36459372  1
  V  V3  1  0.63540628  0.00000000  0.63540628  1
  V  V4  1  0.18376193  0.18376193  0.36752386  1
  V  V5  1  0.81623807  0.81623807  0.63247614  1
  V  V6  1  0.18376193  0.81623807  0.00000000  1
  V  V7  1  0.00000000  0.36459372  0.36459372  1
  V  V8  1  0.00000000  0.63540628  0.63540628  1
  O  O9  1  0.90052329  0.09947671  0.00000000  1
  O  O10  1  0.70730816  0.29269184  0.00000000  1
  O  O11  1  0.90670424  0.29109645  0.19779969  1
  O  O12  1  0.50000000  0.50000000  0.00000000  1
  O  O13  1  0.90658920  0.50000000  0.40658920  1
  O  O14  1  0.50000000  0.09341080  0.59341080  1
  O  O15  1  0.29109645  0.09329576  0.38439221  1
  O  O16  1  0.70890355  0.09329576  0.80220031  1
  O  O17  1  0.09947671  0.09947671  0.19895243  1
  O  O18  1  0.90670424  0.70890355  0.61560779  1
  O  O19  1  0.70730816  0.70730816  0.41461531  1
  O  O20  1  0.29269184  0.70730816  0.00000000  1
  O  O21  1  0.29269184  0.29269184  0.58538469  1
  O  O22  1  0.09329576  0.29109645  0.38439221  1
  O  O23  1  0.09947671  0.90052329  0.00000000  1
  O  O24  1  0.90052329  0.90052329  0.80104757  1
  O  O25  1  0.70890355  0.90670424  0.61560779  1
  O  O26  1  0.29109645  0.90670424  0.19779969  1
  O  O27  1  0.50000000  0.90658920  0.40658920  1
  O  O28  1  0.09341080  0.50000000  0.59341080  1
  O  O29  1  0.09329576  0.70890355  0.80220031  1
