# generated using pymatgen
data_Li7Mn2(CoO4)3
_symmetry_space_group_name_H-M   'P 1'
_cell_length_a   3.02163623
_cell_length_b   7.80980365
_cell_length_c   10.09199360
_cell_angle_alpha   68.43492898
_cell_angle_beta   91.60547927
_cell_angle_gamma   82.28886268
_symmetry_Int_Tables_number   1
_chemical_formula_structural   Li7Mn2(CoO4)3
_chemical_formula_sum   'Li7 Mn2 Co3 O12'
_cell_volume   218.70711161
_cell_formula_units_Z   1
loop_
 _symmetry_equiv_pos_site_id
 _symmetry_equiv_pos_as_xyz
  1  'x, y, z'
loop_
 _atom_site_type_symbol
 _atom_site_label
 _atom_site_symmetry_multiplicity
 _atom_site_fract_x
 _atom_site_fract_y
 _atom_site_fract_z
 _atom_site_occupancy
  Li  Li0  1  0.83526354  0.33230972  0.08734893  1
  Li  Li1  1  0.16548420  0.66554333  0.42018171  1
  Li  Li2  1  0.50368104  0.99798325  0.74306054  1
  Li  Li3  1  0.16317185  0.66769666  0.91415913  1
  Li  Li4  1  0.49746013  0.00170702  0.25681786  1
  Li  Li5  1  0.83545586  0.33534354  0.57808760  1
  Li  Li6  1  0.99952505  0.00101477  0.49976855  1
  Mn  Mn7  1  0.00842808  0.99763296  0.00156125  1
  Mn  Mn8  1  0.32853396  0.33818665  0.82930517  1
  Co  Co9  1  0.34071462  0.31812931  0.33883174  1
  Co  Co10  1  0.65080729  0.68362205  0.65897401  1
  Co  Co11  1  0.67444702  0.66065288  0.17235110  1
  O  O12  1  0.38584728  0.16996294  0.03060368  1
  O  O13  1  0.72149948  0.49660650  0.36451187  1
  O  O14  1  0.06028572  0.82182257  0.70366598  1
  O  O15  1  0.71737154  0.50880374  0.85731254  1
  O  O16  1  0.10152075  0.83109852  0.20212371  1
  O  O17  1  0.40263132  0.18730568  0.52150971  1
  O  O18  1  0.24084854  0.49256003  0.14308198  1
  O  O19  1  0.59647340  0.81538969  0.47707473  1
  O  O20  1  0.94805021  0.16510889  0.79817681  1
  O  O21  1  0.62381996  0.82579641  0.97236330  1
  O  O22  1  0.92905375  0.17884927  0.29609816  1
  O  O23  1  0.26962540  0.50687362  0.63302995  1
