# generated using pymatgen
data_K2NdPCO7
_symmetry_space_group_name_H-M   'P 1'
_cell_length_a   10.10280086
_cell_length_b   7.33579480
_cell_length_c   5.78147135
_cell_angle_alpha   90.00000000
_cell_angle_beta   93.14045742
_cell_angle_gamma   90.00000000
_symmetry_Int_Tables_number   1
_chemical_formula_structural   K2NdPCO7
_chemical_formula_sum   'K4 Nd2 P2 C2 O14'
_cell_volume   427.83336151
_cell_formula_units_Z   2
loop_
 _symmetry_equiv_pos_site_id
 _symmetry_equiv_pos_as_xyz
  1  'x, y, z'
loop_
 _atom_site_type_symbol
 _atom_site_label
 _atom_site_symmetry_multiplicity
 _atom_site_fract_x
 _atom_site_fract_y
 _atom_site_fract_z
 _atom_site_occupancy
  K  K0  1  0.21363315  0.01264509  0.24428169  1
  K  K1  1  0.21363315  0.48735491  0.24428169  1
  K  K2  1  0.78636685  0.51264509  0.75571831  1
  K  K3  1  0.78636685  0.98735491  0.75571831  1
  Nd  Nd4  1  0.37738802  0.75000000  0.78249352  1
  Nd  Nd5  1  0.62261198  0.25000000  0.21750648  1
  P  P6  1  0.42665435  0.25000000  0.70869384  1
  P  P7  1  0.57334565  0.75000000  0.29130616  1
  C  C8  1  0.09352882  0.75000000  0.73182568  1
  C  C9  1  0.90647118  0.25000000  0.26817432  1
  O  O10  1  0.03107301  0.25000000  0.30394645  1
  O  O11  1  0.15370711  0.75000000  0.93904253  1
  O  O12  1  0.17439292  0.75000000  0.55771926  1
  O  O13  1  0.35613716  0.07506387  0.78943476  1
  O  O14  1  0.35613716  0.42493613  0.78943476  1
  O  O15  1  0.42687664  0.75000000  0.18361857  1
  O  O16  1  0.43139568  0.25000000  0.43840551  1
  O  O17  1  0.56860432  0.75000000  0.56159449  1
  O  O18  1  0.57312336  0.25000000  0.81638143  1
  O  O19  1  0.64386284  0.57506387  0.21056524  1
  O  O20  1  0.64386284  0.92493613  0.21056524  1
  O  O21  1  0.82560708  0.25000000  0.44228074  1
  O  O22  1  0.84629289  0.25000000  0.06095747  1
  O  O23  1  0.96892699  0.75000000  0.69605355  1
