# generated using pymatgen
data_Li3MnP2HO8
_symmetry_space_group_name_H-M   'P 1'
_cell_length_a   5.16263219
_cell_length_b   6.26306734
_cell_length_c   5.12903645
_cell_angle_alpha   90.22822100
_cell_angle_beta   114.73525684
_cell_angle_gamma   90.25541954
_symmetry_Int_Tables_number   1
_chemical_formula_structural   Li3MnP2HO8
_chemical_formula_sum   'Li3 Mn1 P2 H1 O8'
_cell_volume   150.62135670
_cell_formula_units_Z   1
loop_
 _symmetry_equiv_pos_site_id
 _symmetry_equiv_pos_as_xyz
  1  'x, y, z'
loop_
 _atom_site_type_symbol
 _atom_site_label
 _atom_site_symmetry_multiplicity
 _atom_site_fract_x
 _atom_site_fract_y
 _atom_site_fract_z
 _atom_site_occupancy
  Li  Li0  1  0.28789743  0.77569973  0.63328144  1
  Li  Li1  1  0.00000000  0.50000000  0.00000000  1
  Li  Li2  1  0.71210257  0.22430027  0.36671856  1
  Mn  Mn3  1  0.00000000  0.00000000  0.00000000  1
  P  P4  1  0.35907656  0.25666095  0.63776724  1
  P  P5  1  0.64092344  0.74333905  0.36223276  1
  H  H6  1  0.50000000  0.50000000  0.00000000  1
  O  O7  1  0.24489359  0.06888004  0.75253059  1
  O  O8  1  0.30080525  0.47193109  0.76948213  1
  O  O9  1  0.21130973  0.26565021  0.30654613  1
  O  O10  1  0.31153484  0.75972782  0.26112305  1
  O  O11  1  0.68846616  0.24027218  0.73887695  1
  O  O12  1  0.78869027  0.73434979  0.69345387  1
  O  O13  1  0.69919475  0.52806891  0.23051787  1
  O  O14  1  0.75510641  0.93111996  0.24746941  1
