# generated using pymatgen
data_NbS2
_symmetry_space_group_name_H-M   'P 1'
_cell_length_a   3.38488281
_cell_length_b   5.86270142
_cell_length_c   14.23822825
_cell_angle_alpha   89.98884773
_cell_angle_beta   89.97636544
_cell_angle_gamma   30.08677309
_symmetry_Int_Tables_number   1
_chemical_formula_structural   NbS2
_chemical_formula_sum   'Nb2 S4'
_cell_volume   141.64607361
_cell_formula_units_Z   2
loop_
 _symmetry_equiv_pos_site_id
 _symmetry_equiv_pos_as_xyz
  1  'x, y, z'
loop_
 _atom_site_type_symbol
 _atom_site_label
 _atom_site_symmetry_multiplicity
 _atom_site_fract_x
 _atom_site_fract_y
 _atom_site_fract_z
 _atom_site_occupancy
  Nb  Nb0  1  0.99994134  0.00005972  0.00000105  1
  Nb  Nb1  1  0.00007483  0.99995347  0.50000164  1
  S  S2  1  0.00101319  0.33291343  0.10838961  1
  S  S3  1  0.99892930  0.66715886  0.89160755  1
  S  S4  1  0.99826835  0.66729684  0.60836982  1
  S  S5  1  0.00187398  0.33261668  0.39163032  1
