# generated using pymatgen
data_Mn3V(PO4)6
_symmetry_space_group_name_H-M   'P 1'
_cell_length_a   8.68065072
_cell_length_b   8.68065088
_cell_length_c   8.68065063
_cell_angle_alpha   58.25951469
_cell_angle_beta   58.25951440
_cell_angle_gamma   58.25951185
_symmetry_Int_Tables_number   1
_chemical_formula_structural   Mn3V(PO4)6
_chemical_formula_sum   'Mn3 V1 P6 O24'
_cell_volume   444.09166945
_cell_formula_units_Z   1
loop_
 _symmetry_equiv_pos_site_id
 _symmetry_equiv_pos_as_xyz
  1  'x, y, z'
loop_
 _atom_site_type_symbol
 _atom_site_label
 _atom_site_symmetry_multiplicity
 _atom_site_fract_x
 _atom_site_fract_y
 _atom_site_fract_z
 _atom_site_occupancy
  Mn  Mn0  1  0.14425065  0.14425065  0.14425065  1
  Mn  Mn1  1  0.35663927  0.35663927  0.35663927  1
  Mn  Mn2  1  0.64399749  0.64399749  0.64399749  1
  V  V3  1  0.86000637  0.86000637  0.86000637  1
  P  P4  1  0.03497482  0.74978280  0.46436733  1
  P  P5  1  0.46436733  0.03497482  0.74978280  1
  P  P6  1  0.74978280  0.46436733  0.03497482  1
  P  P7  1  0.25523434  0.53089575  0.96607602  1
  P  P8  1  0.53089575  0.96607602  0.25523434  1
  P  P9  1  0.96607602  0.25523434  0.53089575  1
  O  O10  1  0.14232348  0.27121805  0.51441836  1
  O  O11  1  0.27121805  0.51441836  0.14232348  1
  O  O12  1  0.05984637  0.92616854  0.27908965  1
  O  O13  1  0.51441836  0.14232348  0.27121805  1
  O  O14  1  0.22046990  0.57289584  0.44410642  1
  O  O15  1  0.00268735  0.78016861  0.64125660  1
  O  O16  1  0.27908965  0.05984637  0.92616854  1
  O  O17  1  0.44410642  0.22046990  0.57289584  1
  O  O18  1  0.57289584  0.44410642  0.22046990  1
  O  O19  1  0.22705526  0.35895174  0.98806609  1
  O  O20  1  0.07321931  0.71525620  0.93737469  1
  O  O21  1  0.35895174  0.98806609  0.22705526  1
  O  O22  1  0.64125660  0.00268735  0.78016861  1
  O  O23  1  0.92616854  0.27908965  0.05984637  1
  O  O24  1  0.78016861  0.64125660  0.00268735  1
  O  O25  1  0.42719394  0.55930663  0.78004027  1
  O  O26  1  0.55930663  0.78004027  0.42719394  1
  O  O27  1  0.71525620  0.93737469  0.07321931  1
  O  O28  1  0.98806609  0.22705526  0.35895174  1
  O  O29  1  0.78004027  0.42719394  0.55930663  1
  O  O30  1  0.48654178  0.86054859  0.72556950  1
  O  O31  1  0.93737469  0.07321931  0.71525620  1
  O  O32  1  0.72556950  0.48654178  0.86054859  1
  O  O33  1  0.86054859  0.72556950  0.48654178  1
