# generated using pymatgen
data_Li7Mn2(CoO4)3
_symmetry_space_group_name_H-M   'P 1'
_cell_length_a   2.95986305
_cell_length_b   5.05925644
_cell_length_c   14.59774991
_cell_angle_alpha   98.68334264
_cell_angle_beta   85.17727569
_cell_angle_gamma   91.56809114
_symmetry_Int_Tables_number   1
_chemical_formula_structural   Li7Mn2(CoO4)3
_chemical_formula_sum   'Li7 Mn2 Co3 O12'
_cell_volume   215.30247877
_cell_formula_units_Z   1
loop_
 _symmetry_equiv_pos_site_id
 _symmetry_equiv_pos_as_xyz
  1  'x, y, z'
loop_
 _atom_site_type_symbol
 _atom_site_label
 _atom_site_symmetry_multiplicity
 _atom_site_fract_x
 _atom_site_fract_y
 _atom_site_fract_z
 _atom_site_occupancy
  Li  Li0  1  0.91463266  0.41567369  0.16506620  1
  Li  Li1  1  0.24318325  0.73943538  0.50868003  1
  Li  Li2  1  0.59361097  0.08195817  0.82300086  1
  Li  Li3  1  0.41777106  0.92247640  0.16818661  1
  Li  Li4  1  0.73403500  0.25555057  0.51038403  1
  Li  Li5  1  0.09427903  0.58643793  0.82432953  1
  Li  Li6  1  0.66686760  0.66730628  0.66704615  1
  Mn  Mn7  1  0.00373403  0.00015131  0.99723542  1
  Mn  Mn8  1  0.83051508  0.83160284  0.33563673  1
  Co  Co9  1  0.32986637  0.33254864  0.33639109  1
  Co  Co10  1  0.50458196  0.50041255  0.99747130  1
  Co  Co11  1  0.16691861  0.16698531  0.66667205  1
  O  O12  1  0.43133285  0.21925444  0.07662055  1
  O  O13  1  0.79377701  0.54982740  0.41230098  1
  O  O14  1  0.12802035  0.91254550  0.74086616  1
  O  O15  1  0.92389538  0.71188167  0.07374717  1
  O  O16  1  0.30183780  0.00593780  0.40929430  1
  O  O17  1  0.63925612  0.35702242  0.74027176  1
  O  O18  1  0.35953883  0.65398274  0.25978438  1
  O  O19  1  0.69613806  0.97894171  0.59348212  1
  O  O20  1  0.08050995  0.29208001  0.92365293  1
  O  O21  1  0.86873771  0.11453023  0.25861762  1
  O  O22  1  0.20513589  0.42124574  0.59168997  1
  O  O23  1  0.57182446  0.78221126  0.91957205  1
