# generated using pymatgen
data_Li3V12O29
_symmetry_space_group_name_H-M   'P 1'
_cell_length_a   14.34635252
_cell_length_b   14.34635252
_cell_length_c   10.38060567
_cell_angle_alpha   76.17348306
_cell_angle_beta   103.82651694
_cell_angle_gamma   165.19193274
_symmetry_Int_Tables_number   1
_chemical_formula_structural   Li3V12O29
_chemical_formula_sum   'Li3 V12 O29'
_cell_volume   529.96037353
_cell_formula_units_Z   1
loop_
 _symmetry_equiv_pos_site_id
 _symmetry_equiv_pos_as_xyz
  1  'x, y, z'
loop_
 _atom_site_type_symbol
 _atom_site_label
 _atom_site_symmetry_multiplicity
 _atom_site_fract_x
 _atom_site_fract_y
 _atom_site_fract_z
 _atom_site_occupancy
  Li  Li0  1  0.00727189  0.99272811  0.32491165  1
  Li  Li1  1  0.73310925  0.26689075  0.48129151  1
  Li  Li2  1  0.99352259  0.00647741  0.67396091  1
  V  V3  1  0.06358523  0.93641477  0.07884689  1
  V  V4  1  0.14684050  0.85315950  0.33835400  1
  V  V5  1  0.17722604  0.82277396  0.01628177  1
  V  V6  1  0.30254680  0.69745320  0.20478845  1
  V  V7  1  0.39104669  0.60895331  0.46706768  1
  V  V8  1  0.41537915  0.58462085  0.14407484  1
  V  V9  1  0.58475185  0.41524815  0.85631722  1
  V  V10  1  0.60903113  0.39096887  0.53340356  1
  V  V11  1  0.69613746  0.30386254  0.78930996  1
  V  V12  1  0.82327677  0.17672323  0.97892135  1
  V  V13  1  0.85339337  0.14660663  0.65974680  1
  V  V14  1  0.93590030  0.06409970  0.92052392  1
  O  O15  1  0.09893996  0.90106004  0.91477179  1
  O  O16  1  0.06275351  0.93724649  0.24047359  1
  O  O17  1  0.12276833  0.87723167  0.50689464  1
  O  O18  1  0.14109290  0.85890710  0.16247443  1
  O  O19  1  0.19287720  0.80712280  0.84131087  1
  O  O20  1  0.20638971  0.79361029  0.39823011  1
  O  O21  1  0.23604462  0.76395538  0.11958021  1
  O  O22  1  0.29952534  0.70047466  0.36057666  1
  O  O23  1  0.36823719  0.63176281  0.63474581  1
  O  O24  1  0.33537701  0.66462299  0.03548658  1
  O  O25  1  0.37746429  0.62253571  0.28652400  1
  O  O26  1  0.43111691  0.56888309  0.96282454  1
  O  O27  1  0.45026172  0.54973828  0.51452693  1
  O  O28  1  0.47034098  0.52965902  0.25019194  1
  O  O29  1  0.52977078  0.47022922  0.75025017  1
  O  O30  1  0.00045240  0.99954760  0.00216036  1
  O  O31  1  0.54976315  0.45023685  0.48384266  1
  O  O32  1  0.56996397  0.43003603  0.03765994  1
  O  O33  1  0.62098081  0.37901919  0.71198001  1
  O  O34  1  0.66491203  0.33508797  0.96490817  1
  O  O35  1  0.63386902  0.36613098  0.36488150  1
  O  O36  1  0.69964545  0.30035455  0.63130352  1
  O  O37  1  0.76579697  0.23420303  0.88045052  1
  O  O38  1  0.79479901  0.20520099  0.60573566  1
  O  O39  1  0.80711376  0.19288624  0.16189799  1
  O  O40  1  0.86061122  0.13938878  0.83775421  1
  O  O41  1  0.87676340  0.12323660  0.49016175  1
  O  O42  1  0.93896139  0.06103861  0.76123595  1
  O  O43  1  0.90157696  0.09842304  0.08606398  1
