# generated using pymatgen
data_Li2V3CuO8
_symmetry_space_group_name_H-M   'P 1'
_cell_length_a   8.50330856
_cell_length_b   8.35747068
_cell_length_c   8.39637882
_cell_angle_alpha   89.97353066
_cell_angle_beta   89.99974580
_cell_angle_gamma   90.01028801
_symmetry_Int_Tables_number   1
_chemical_formula_structural   Li2V3CuO8
_chemical_formula_sum   'Li8 V12 Cu4 O32'
_cell_volume   596.69825966
_cell_formula_units_Z   4
loop_
 _symmetry_equiv_pos_site_id
 _symmetry_equiv_pos_as_xyz
  1  'x, y, z'
loop_
 _atom_site_type_symbol
 _atom_site_label
 _atom_site_symmetry_multiplicity
 _atom_site_fract_x
 _atom_site_fract_y
 _atom_site_fract_z
 _atom_site_occupancy
  Li  Li0  1  0.12537196  0.87930348  0.37318115  1
  Li  Li1  1  0.24676547  0.75328371  0.74768571  1
  Li  Li2  1  0.25281496  0.24674690  0.24769476  1
  Li  Li3  1  0.37502487  0.12122798  0.87341960  1
  Li  Li4  1  0.62514837  0.62068483  0.62693733  1
  Li  Li5  1  0.74679077  0.74664159  0.25229171  1
  Li  Li6  1  0.75285774  0.25335421  0.75236930  1
  Li  Li7  1  0.87469063  0.37893247  0.12647156  1
  V  V8  1  0.13223449  0.63139576  0.12299549  1
  V  V9  1  0.12392925  0.36708348  0.88475396  1
  V  V10  1  0.11698138  0.12498666  0.61499188  1
  V  V11  1  0.38273117  0.87434526  0.11423100  1
  V  V12  1  0.37593611  0.63325324  0.38496963  1
  V  V13  1  0.36770899  0.36800385  0.62262185  1
  V  V14  1  0.63221745  0.86856018  0.87704205  1
  V  V15  1  0.62373880  0.13299125  0.11529473  1
  V  V16  1  0.61710830  0.37482347  0.38525895  1
  V  V17  1  0.88283203  0.62567498  0.88561520  1
  V  V18  1  0.87576189  0.86687910  0.61506653  1
  V  V19  1  0.86778320  0.13186195  0.37710053  1
  Cu  Cu20  1  0.99797319  0.50716509  0.49353344  1
  Cu  Cu21  1  0.50213192  0.49248770  0.99335536  1
  Cu  Cu22  1  0.49805475  0.99256751  0.50636855  1
  Cu  Cu23  1  0.00231042  0.00743616  0.00686870  1
  O  O24  1  0.10187105  0.13074062  0.39567438  1
  O  O25  1  0.09790459  0.89507186  0.63159288  1
  O  O26  1  0.11615828  0.61149313  0.88264760  1
  O  O27  1  0.12907212  0.39393613  0.10102460  1
  O  O28  1  0.11960181  0.14948846  0.86042326  1
  O  O29  1  0.13354208  0.36833445  0.63896520  1
  O  O30  1  0.15251482  0.61990907  0.35511779  1
  O  O31  1  0.14829897  0.85582886  0.12189248  1
  O  O32  1  0.35193940  0.14353683  0.62195108  1
  O  O33  1  0.34763927  0.38021934  0.85472763  1
  O  O34  1  0.36643275  0.63149112  0.13897070  1
  O  O35  1  0.38050675  0.85048238  0.36049565  1
  O  O36  1  0.37105413  0.60598170  0.60107787  1
  O  O37  1  0.38394301  0.38865121  0.38260356  1
  O  O38  1  0.40220912  0.10482994  0.13135350  1
  O  O39  1  0.39801286  0.87002174  0.89560269  1
  O  O40  1  0.60181511  0.36944412  0.60436901  1
  O  O41  1  0.59781173  0.60503899  0.36861050  1
  O  O42  1  0.61614288  0.88848112  0.11742174  1
  O  O43  1  0.62920663  0.10609303  0.89910402  1
  O  O44  1  0.61934132  0.35048849  0.13972170  1
  O  O45  1  0.63360317  0.13138749  0.36105982  1
  O  O46  1  0.65246587  0.88029614  0.64472491  1
  O  O47  1  0.64822879  0.64415494  0.87809290  1
  O  O48  1  0.85188665  0.35633135  0.37778185  1
  O  O49  1  0.84762065  0.11996006  0.14506560  1
  O  O50  1  0.86638245  0.86851639  0.86103117  1
  O  O51  1  0.88040159  0.64959399  0.63957900  1
  O  O52  1  0.87129096  0.89396537  0.39906302  1
  O  O53  1  0.88383896  0.11130856  0.61736024  1
  O  O54  1  0.90230558  0.39520524  0.86843707  1
  O  O55  1  0.89806055  0.63010608  0.10441659  1
