# generated using pymatgen
data_Li6CoNi9O20
_symmetry_space_group_name_H-M   'P 1'
_cell_length_a   2.83093609
_cell_length_b   11.71624078
_cell_length_c   11.56409000
_cell_angle_alpha   114.16392669
_cell_angle_beta   82.99507366
_cell_angle_gamma   90.03248935
_symmetry_Int_Tables_number   1
_chemical_formula_structural   Li6CoNi9O20
_chemical_formula_sum   'Li6 Co1 Ni9 O20'
_cell_volume   346.82051172
_cell_formula_units_Z   1
loop_
 _symmetry_equiv_pos_site_id
 _symmetry_equiv_pos_as_xyz
  1  'x, y, z'
loop_
 _atom_site_type_symbol
 _atom_site_label
 _atom_site_symmetry_multiplicity
 _atom_site_fract_x
 _atom_site_fract_y
 _atom_site_fract_z
 _atom_site_occupancy
  Li  Li0  1  0.19282683  0.36809847  0.61463280  1
  Li  Li1  1  0.80151004  0.64839075  0.39626597  1
  Li  Li2  1  0.60717317  0.03190153  0.78536720  1
  Li  Li3  1  0.80813576  0.13590742  0.38261124  1
  Li  Li4  1  0.99186424  0.26409258  0.01738876  1
  Li  Li5  1  0.99848996  0.75160925  0.00373403  1
  Co  Co6  1  0.40000000  0.70000000  0.20000000  1
  Ni  Ni7  1  0.19760450  0.60004833  0.60433873  1
  Ni  Ni8  1  0.19926901  0.10295532  0.60065051  1
  Ni  Ni9  1  0.40000000  0.20000000  0.20000000  1
  Ni  Ni10  1  0.99911280  0.49963460  0.00153349  1
  Ni  Ni11  1  0.60073099  0.29704468  0.79934949  1
  Ni  Ni12  1  0.80178935  0.40177781  0.39611613  1
  Ni  Ni13  1  0.99821165  0.99822219  0.00388387  1
  Ni  Ni14  1  0.60239550  0.79995167  0.79566127  1
  Ni  Ni15  1  0.80088720  0.90036540  0.39846651  1
  O  O16  1  0.49082033  0.12515332  0.01707863  1
  O  O17  1  0.51394583  0.86842545  0.97365204  1
  O  O18  1  0.10063291  0.40117720  0.79992296  1
  O  O19  1  0.09902179  0.91104876  0.80261683  1
  O  O20  1  0.10579564  0.69054413  0.78837202  1
  O  O21  1  0.31123395  0.77705446  0.37999520  1
  O  O22  1  0.48876605  0.62294554  0.02000480  1
  O  O23  1  0.10612622  0.18213189  0.78795629  1
  O  O24  1  0.28703067  0.02949286  0.42386171  1
  O  O25  1  0.28605417  0.53157455  0.42634796  1
  O  O26  1  0.30917967  0.27484668  0.38292137  1
  O  O27  1  0.51296933  0.37050714  0.97613829  1
  O  O28  1  0.69387378  0.21786811  0.61204371  1
  O  O29  1  0.90107957  0.09302780  0.19745786  1
  O  O30  1  0.69420436  0.70945587  0.61162798  1
  O  O31  1  0.70097821  0.48895124  0.59738317  1
  O  O32  1  0.69936709  0.99882280  0.60007704  1
  O  O33  1  0.89938152  0.59325662  0.19848925  1
  O  O34  1  0.90061848  0.80674338  0.20151075  1
  O  O35  1  0.89892043  0.30697220  0.20254214  1
