# generated using pymatgen
data_V3Co(PO4)4
_symmetry_space_group_name_H-M   'P 1'
_cell_length_a   4.89357677
_cell_length_b   10.02238371
_cell_length_c   5.89183603
_cell_angle_alpha   90.00000000
_cell_angle_beta   90.00000000
_cell_angle_gamma   90.49832345
_symmetry_Int_Tables_number   1
_chemical_formula_structural   V3Co(PO4)4
_chemical_formula_sum   'V3 Co1 P4 O16'
_cell_volume   288.95596031
_cell_formula_units_Z   1
loop_
 _symmetry_equiv_pos_site_id
 _symmetry_equiv_pos_as_xyz
  1  'x, y, z'
loop_
 _atom_site_type_symbol
 _atom_site_label
 _atom_site_symmetry_multiplicity
 _atom_site_fract_x
 _atom_site_fract_y
 _atom_site_fract_z
 _atom_site_occupancy
  V  V0  1  0.47969467  0.22953264  0.75000000  1
  V  V1  1  0.54410861  0.77702993  0.25000000  1
  V  V2  1  0.97684567  0.26888019  0.25000000  1
  Co  Co3  1  0.03679773  0.72350227  0.75000000  1
  P  P4  1  0.10725612  0.59936089  0.25000000  1
  P  P5  1  0.40926888  0.09398579  0.25000000  1
  P  P6  1  0.56042116  0.90517458  0.75000000  1
  P  P7  1  0.91435006  0.40418477  0.75000000  1
  O  O8  1  0.14774577  0.44904715  0.25000000  1
  O  O9  1  0.26543134  0.67166876  0.05073884  1
  O  O10  1  0.26543134  0.67166876  0.44926116  1
  O  O11  1  0.22002565  0.37656630  0.75000000  1
  O  O12  1  0.25545054  0.88912592  0.75000000  1
  O  O13  1  0.26313161  0.16756962  0.04662140  1
  O  O14  1  0.26313161  0.16756962  0.45337860  1
  O  O15  1  0.33769436  0.94387762  0.25000000  1
  O  O16  1  0.65188719  0.05073544  0.75000000  1
  O  O17  1  0.70228743  0.82975179  0.54088072  1
  O  O18  1  0.70228743  0.82975179  0.95911928  1
  O  O19  1  0.71648770  0.11710486  0.25000000  1
  O  O20  1  0.79955181  0.62924409  0.25000000  1
  O  O21  1  0.76663714  0.32720583  0.54641510  1
  O  O22  1  0.76663714  0.32720583  0.95358490  1
  O  O23  1  0.84743704  0.55025657  0.75000000  1
