# generated using pymatgen
data_Li3Co2(PO4)3
_symmetry_space_group_name_H-M   'P 1'
_cell_length_a   8.83090014
_cell_length_b   8.83089976
_cell_length_c   8.83090057
_cell_angle_alpha   56.19527264
_cell_angle_beta   56.19527129
_cell_angle_gamma   56.19527087
_symmetry_Int_Tables_number   1
_chemical_formula_structural   Li3Co2(PO4)3
_chemical_formula_sum   'Li6 Co4 P6 O24'
_cell_volume   444.08218434
_cell_formula_units_Z   2
loop_
 _symmetry_equiv_pos_site_id
 _symmetry_equiv_pos_as_xyz
  1  'x, y, z'
loop_
 _atom_site_type_symbol
 _atom_site_label
 _atom_site_symmetry_multiplicity
 _atom_site_fract_x
 _atom_site_fract_y
 _atom_site_fract_z
 _atom_site_occupancy
  Li  Li0  1  0.07925926  0.33163687  0.73587070  1
  Li  Li1  1  0.33163687  0.73587070  0.07925926  1
  Li  Li2  1  0.73587070  0.07925926  0.33163687  1
  Li  Li3  1  0.26412930  0.92074074  0.66836313  1
  Li  Li4  1  0.66836313  0.26412930  0.92074074  1
  Li  Li5  1  0.92074074  0.66836313  0.26412930  1
  Co  Co6  1  0.14765383  0.14765383  0.14765383  1
  Co  Co7  1  0.34721959  0.34721959  0.34721959  1
  Co  Co8  1  0.65278041  0.65278041  0.65278041  1
  Co  Co9  1  0.85234617  0.85234617  0.85234617  1
  P  P10  1  0.04244835  0.74216056  0.46167051  1
  P  P11  1  0.46167051  0.04244835  0.74216056  1
  P  P12  1  0.74216056  0.46167051  0.04244835  1
  P  P13  1  0.25783944  0.53832949  0.95755165  1
  P  P14  1  0.53832949  0.95755165  0.25783944  1
  P  P15  1  0.95755165  0.25783944  0.53832949  1
  O  O16  1  0.16088733  0.21523123  0.53215134  1
  O  O17  1  0.21523123  0.53215134  0.16088733  1
  O  O18  1  0.53215134  0.16088733  0.21523123  1
  O  O19  1  0.17438910  0.52513857  0.49410340  1
  O  O20  1  0.12696368  0.87605529  0.25350968  1
  O  O21  1  0.01325673  0.79506001  0.61566470  1
  O  O22  1  0.25350968  0.12696368  0.87605529  1
  O  O23  1  0.49410340  0.17438910  0.52513857  1
  O  O24  1  0.52513857  0.49410340  0.17438910  1
  O  O25  1  0.20493999  0.38433530  0.98674327  1
  O  O26  1  0.12394471  0.74649032  0.87303632  1
  O  O27  1  0.38433530  0.98674327  0.20493999  1
  O  O28  1  0.61566470  0.01325673  0.79506001  1
  O  O29  1  0.87605529  0.25350968  0.12696368  1
  O  O30  1  0.79506001  0.61566470  0.01325673  1
  O  O31  1  0.47486143  0.50589660  0.82561090  1
  O  O32  1  0.50589660  0.82561090  0.47486143  1
  O  O33  1  0.74649032  0.87303632  0.12394471  1
  O  O34  1  0.98674327  0.20493999  0.38433530  1
  O  O35  1  0.87303632  0.12394471  0.74649032  1
  O  O36  1  0.82561090  0.47486143  0.50589660  1
  O  O37  1  0.46784866  0.83911267  0.78476877  1
  O  O38  1  0.78476877  0.46784866  0.83911267  1
  O  O39  1  0.83911267  0.78476877  0.46784866  1
