# generated using pymatgen
data_V3Ni(PO4)6
_symmetry_space_group_name_H-M   'P 1'
_cell_length_a   8.76018415
_cell_length_b   8.76018403
_cell_length_c   8.76018361
_cell_angle_alpha   58.48845859
_cell_angle_beta   58.48846062
_cell_angle_gamma   58.48846192
_symmetry_Int_Tables_number   1
_chemical_formula_structural   V3Ni(PO4)6
_chemical_formula_sum   'V3 Ni1 P6 O24'
_cell_volume   458.92420659
_cell_formula_units_Z   1
loop_
 _symmetry_equiv_pos_site_id
 _symmetry_equiv_pos_as_xyz
  1  'x, y, z'
loop_
 _atom_site_type_symbol
 _atom_site_label
 _atom_site_symmetry_multiplicity
 _atom_site_fract_x
 _atom_site_fract_y
 _atom_site_fract_z
 _atom_site_occupancy
  V  V0  1  0.13940126  0.13940126  0.13940126  1
  V  V1  1  0.35894955  0.35894955  0.35894955  1
  V  V2  1  0.63915863  0.63915863  0.63915863  1
  Ni  Ni3  1  0.85819396  0.85819396  0.85819396  1
  P  P4  1  0.03217310  0.74966494  0.46901352  1
  P  P5  1  0.46901352  0.03217310  0.74966494  1
  P  P6  1  0.74966494  0.46901352  0.03217310  1
  P  P7  1  0.24922296  0.53217684  0.96757678  1
  P  P8  1  0.53217684  0.96757678  0.24922296  1
  P  P9  1  0.96757678  0.24922296  0.53217684  1
  O  O10  1  0.13809012  0.29166113  0.49321993  1
  O  O11  1  0.29166113  0.49321993  0.13809012  1
  O  O12  1  0.05827568  0.92929711  0.28531592  1
  O  O13  1  0.49321993  0.13809012  0.29166113  1
  O  O14  1  0.21643518  0.57770802  0.42353452  1
  O  O15  1  0.02377597  0.76194497  0.63800987  1
  O  O16  1  0.28531592  0.05827568  0.92929711  1
  O  O17  1  0.42353452  0.21643518  0.57770802  1
  O  O18  1  0.57770802  0.42353452  0.21643518  1
  O  O19  1  0.22379399  0.35580026  0.99528497  1
  O  O20  1  0.08026984  0.71260594  0.95032266  1
  O  O21  1  0.35580026  0.99528497  0.22379399  1
  O  O22  1  0.63800987  0.02377597  0.76194497  1
  O  O23  1  0.92929711  0.28531592  0.05827568  1
  O  O24  1  0.76194497  0.63800987  0.02377597  1
  O  O25  1  0.43126573  0.55613718  0.78515710  1
  O  O26  1  0.55613718  0.78515710  0.43126573  1
  O  O27  1  0.71260594  0.95032266  0.08026984  1
  O  O28  1  0.99528497  0.22379399  0.35580026  1
  O  O29  1  0.78515710  0.43126573  0.55613718  1
  O  O30  1  0.49571145  0.85659149  0.72426041  1
  O  O31  1  0.95032266  0.08026984  0.71260594  1
  O  O32  1  0.72426041  0.49571145  0.85659149  1
  O  O33  1  0.85659149  0.72426041  0.49571145  1
