# generated using pymatgen
data_Li7Mn2(CoO4)3
_symmetry_space_group_name_H-M   'P 1'
_cell_length_a   3.02427580
_cell_length_b   6.00546413
_cell_length_c   12.41069094
_cell_angle_alpha   103.31861604
_cell_angle_beta   88.50739448
_cell_angle_gamma   93.61263388
_symmetry_Int_Tables_number   1
_chemical_formula_structural   Li7Mn2(CoO4)3
_chemical_formula_sum   'Li7 Mn2 Co3 O12'
_cell_volume   218.89141980
_cell_formula_units_Z   1
loop_
 _symmetry_equiv_pos_site_id
 _symmetry_equiv_pos_as_xyz
  1  'x, y, z'
loop_
 _atom_site_type_symbol
 _atom_site_label
 _atom_site_symmetry_multiplicity
 _atom_site_fract_x
 _atom_site_fract_y
 _atom_site_fract_z
 _atom_site_occupancy
  Li  Li0  1  0.00082269  0.49834588  0.99728361  1
  Li  Li1  1  0.50200508  0.33616798  0.17013352  1
  Li  Li2  1  0.49953346  0.66296269  0.83033314  1
  Li  Li3  1  0.99655623  0.82263367  0.66326684  1
  Li  Li4  1  0.49999926  0.00010576  0.50004765  1
  Li  Li5  1  0.00198428  0.17836596  0.33872820  1
  Li  Li6  1  0.50084898  0.49980306  0.50062422  1
  Mn  Mn7  1  0.98951974  0.00186520  0.99877385  1
  Mn  Mn8  1  0.50324049  0.83287060  0.17073750  1
  Co  Co9  1  0.01108001  0.65869727  0.34234073  1
  Co  Co10  1  0.00051919  0.34161226  0.65958123  1
  Co  Co11  1  0.49365419  0.16482710  0.82742020  1
  O  O12  1  0.45783058  0.24276520  0.99020863  1
  O  O13  1  0.96987441  0.07272970  0.16073195  1
  O  O14  1  0.00843924  0.39748606  0.81815948  1
  O  O15  1  0.47608443  0.56265893  0.66588023  1
  O  O16  1  0.00045197  0.74488362  0.48526480  1
  O  O17  1  0.47479111  0.90372512  0.33036055  1
  O  O18  1  0.53208205  0.75770862  0.00717005  1
  O  O19  1  0.03048920  0.59822752  0.18217939  1
  O  O20  1  0.98105482  0.93251978  0.83777111  1
  O  O21  1  0.53496592  0.09627171  0.67112374  1
  O  O22  1  0.00160508  0.25514493  0.51644695  1
  O  O23  1  0.53256757  0.43762136  0.33543244  1
