# generated using pymatgen
data_SrTiO3
_symmetry_space_group_name_H-M   'P 1'
_cell_length_a   5.62886656
_cell_length_b   5.62884174
_cell_length_c   13.88603769
_cell_angle_alpha   89.99983062
_cell_angle_beta   90.00029341
_cell_angle_gamma   120.00042310
_symmetry_Int_Tables_number   1
_chemical_formula_structural   SrTiO3
_chemical_formula_sum   'Sr6 Ti6 O18'
_cell_volume   381.01941952
_cell_formula_units_Z   6
loop_
 _symmetry_equiv_pos_site_id
 _symmetry_equiv_pos_as_xyz
  1  'x, y, z'
loop_
 _atom_site_type_symbol
 _atom_site_label
 _atom_site_symmetry_multiplicity
 _atom_site_fract_x
 _atom_site_fract_y
 _atom_site_fract_z
 _atom_site_occupancy
  Sr  Sr0  1  0.33331742  0.66670029  0.10071864  1
  Sr  Sr1  1  0.00001947  0.00004323  0.24999886  1
  Sr  Sr2  1  0.00000965  0.00000193  0.74999942  1
  Sr  Sr3  1  0.33332312  0.66664218  0.39927920  1
  Sr  Sr4  1  0.66667574  0.33334761  0.60071966  1
  Sr  Sr5  1  0.66667969  0.33338902  0.89928124  1
  Ti  Ti6  1  0.33333116  0.66671607  0.84605993  1
  Ti  Ti7  1  0.00000241  0.00005153  0.00000064  1
  Ti  Ti8  1  0.99999754  0.99997782  0.49999639  1
  Ti  Ti9  1  0.33333485  0.66663907  0.65393897  1
  Ti  Ti10  1  0.66666450  0.33337275  0.15394033  1
  Ti  Ti11  1  0.66665798  0.33331460  0.34606024  1
  O  O12  1  0.16464818  0.83532850  0.91843461  1
  O  O13  1  0.16465012  0.83532685  0.58156583  1
  O  O14  1  0.02189903  0.51093425  0.75000072  1
  O  O15  1  0.48903060  0.97809811  0.75000150  1
  O  O16  1  0.16466510  0.32932391  0.91843212  1
  O  O17  1  0.16466479  0.32931729  0.58156487  1
  O  O18  1  0.48906408  0.51097586  0.74999883  1
  O  O19  1  0.32931926  0.16464975  0.08156476  1
  O  O20  1  0.32931503  0.16465709  0.41843513  1
  O  O21  1  0.67067917  0.83534400  0.58156695  1
  O  O22  1  0.67067529  0.83533678  0.91843350  1
  O  O23  1  0.51093034  0.48903682  0.24999872  1
  O  O24  1  0.51096154  0.02191721  0.25000203  1
  O  O25  1  0.83533046  0.67067973  0.41843514  1
  O  O26  1  0.83533944  0.67068053  0.08156349  1
  O  O27  1  0.97809406  0.48907148  0.25000210  1
  O  O28  1  0.83534567  0.16466440  0.41843470  1
  O  O29  1  0.83534331  0.16466032  0.08157049  1
