# generated using pymatgen
data_TiO2
_symmetry_space_group_name_H-M   'P 1'
_cell_length_a   4.61023728
_cell_length_b   5.56601043
_cell_length_c   14.96758265
_cell_angle_alpha   90.00000000
_cell_angle_beta   90.00000000
_cell_angle_gamma   90.00000000
_symmetry_Int_Tables_number   1
_chemical_formula_structural   TiO2
_chemical_formula_sum   'Ti12 O24'
_cell_volume   384.07758219
_cell_formula_units_Z   12
loop_
 _symmetry_equiv_pos_site_id
 _symmetry_equiv_pos_as_xyz
  1  'x, y, z'
loop_
 _atom_site_type_symbol
 _atom_site_label
 _atom_site_symmetry_multiplicity
 _atom_site_fract_x
 _atom_site_fract_y
 _atom_site_fract_z
 _atom_site_occupancy
  Ti  Ti0  1  0.00156233  0.34979610  0.08349669  1
  Ti  Ti1  1  0.00000000  0.03612118  0.25000000  1
  Ti  Ti2  1  0.99843767  0.34979610  0.41650331  1
  Ti  Ti3  1  0.00000000  0.96387882  0.75000000  1
  Ti  Ti4  1  0.00156233  0.65020390  0.58349669  1
  Ti  Ti5  1  0.99843767  0.65020390  0.91650331  1
  Ti  Ti6  1  0.49843767  0.15020390  0.58349669  1
  Ti  Ti7  1  0.50000000  0.53612118  0.25000000  1
  Ti  Ti8  1  0.50000000  0.46387882  0.75000000  1
  Ti  Ti9  1  0.50156233  0.15020390  0.91650331  1
  Ti  Ti10  1  0.50156233  0.84979610  0.41650331  1
  Ti  Ti11  1  0.49843767  0.84979610  0.08349669  1
  O  O12  1  0.20551785  0.63220053  0.03013344  1
  O  O13  1  0.20551785  0.36779947  0.53013344  1
  O  O14  1  0.27460515  0.16613940  0.69586107  1
  O  O15  1  0.27460515  0.83386060  0.19586107  1
  O  O16  1  0.21147683  0.08675148  0.36333635  1
  O  O17  1  0.21147683  0.91324852  0.86333635  1
  O  O18  1  0.28852317  0.58675148  0.36333635  1
  O  O19  1  0.28852317  0.41324852  0.86333635  1
  O  O20  1  0.22539485  0.33386060  0.19586107  1
  O  O21  1  0.22539485  0.66613940  0.69586107  1
  O  O22  1  0.29448215  0.86779947  0.53013344  1
  O  O23  1  0.29448215  0.13220053  0.03013344  1
  O  O24  1  0.70551785  0.13220053  0.46986656  1
  O  O25  1  0.70551785  0.86779947  0.96986656  1
  O  O26  1  0.77460515  0.33386060  0.30413893  1
  O  O27  1  0.77460515  0.66613940  0.80413893  1
  O  O28  1  0.71147683  0.58675148  0.13666365  1
  O  O29  1  0.71147683  0.41324852  0.63666365  1
  O  O30  1  0.78852317  0.08675148  0.13666365  1
  O  O31  1  0.78852317  0.91324852  0.63666365  1
  O  O32  1  0.72539485  0.16613940  0.80413893  1
  O  O33  1  0.72539485  0.83386060  0.30413893  1
  O  O34  1  0.79448215  0.36779947  0.96986656  1
  O  O35  1  0.79448215  0.63220053  0.46986656  1
