# generated using pymatgen
data_Na2LiCuPCO7
_symmetry_space_group_name_H-M   'P 1'
_cell_length_a   5.20636456
_cell_length_b   6.67556005
_cell_length_c   8.81355951
_cell_angle_alpha   90.00063896
_cell_angle_beta   92.74321174
_cell_angle_gamma   89.99998632
_symmetry_Int_Tables_number   1
_chemical_formula_structural   Na2LiCuPCO7
_chemical_formula_sum   'Na4 Li2 Cu2 P2 C2 O14'
_cell_volume   305.96775775
_cell_formula_units_Z   2
loop_
 _symmetry_equiv_pos_site_id
 _symmetry_equiv_pos_as_xyz
  1  'x, y, z'
loop_
 _atom_site_type_symbol
 _atom_site_label
 _atom_site_symmetry_multiplicity
 _atom_site_fract_x
 _atom_site_fract_y
 _atom_site_fract_z
 _atom_site_occupancy
  Na  Na0  1  0.26399435  0.99558117  0.73993561  1
  Na  Na1  1  0.26399247  0.50441801  0.73993767  1
  Na  Na2  1  0.73600806  0.49557909  0.26006105  1
  Na  Na3  1  0.73600386  0.00441485  0.26006384  1
  Li  Li4  1  0.83903313  0.24999673  0.87855138  1
  Li  Li5  1  0.16097574  0.74999621  0.12144867  1
  Cu  Cu6  1  0.77967262  0.75000289  0.64703498  1
  Cu  Cu7  1  0.22032263  0.24999354  0.35296176  1
  P  P8  1  0.69315401  0.25001040  0.58556620  1
  P  P9  1  0.30686594  0.74999532  0.41440480  1
  C  C10  1  0.73231041  0.75000120  0.94578715  1
  C  C11  1  0.26766746  0.24999509  0.05419660  1
  O  O12  1  0.21560979  0.24999680  0.90869778  1
  O  O13  1  0.93051345  0.75000511  0.85828262  1
  O  O14  1  0.50185154  0.75000684  0.88836256  1
  O  O15  1  0.76725981  0.06670115  0.68944572  1
  O  O16  1  0.76724274  0.43331541  0.68944526  1
  O  O17  1  0.17471452  0.74999751  0.56589910  1
  O  O18  1  0.39240133  0.25000110  0.55472945  1
  O  O19  1  0.60759670  0.74999891  0.44527324  1
  O  O20  1  0.82526662  0.25000653  0.43411656  1
  O  O21  1  0.23276176  0.56669545  0.31055691  1
  O  O22  1  0.23275626  0.93329724  0.31055730  1
  O  O23  1  0.49815700  0.24999445  0.11165607  1
  O  O24  1  0.06947857  0.24999260  0.14171518  1
  O  O25  1  0.78441322  0.74999241  0.09132054  1
