# generated using pymatgen
data_Li4Fe2Co3Ni3O16
_symmetry_space_group_name_H-M   'P 1'
_cell_length_a   5.78121935
_cell_length_b   5.69493862
_cell_length_c   9.41408496
_cell_angle_alpha   89.95482476
_cell_angle_beta   91.42213441
_cell_angle_gamma   119.58005754
_symmetry_Int_Tables_number   1
_chemical_formula_structural   Li4Fe2Co3Ni3O16
_chemical_formula_sum   'Li4 Fe2 Co3 Ni3 O16'
_cell_volume   269.44365075
_cell_formula_units_Z   1
loop_
 _symmetry_equiv_pos_site_id
 _symmetry_equiv_pos_as_xyz
  1  'x, y, z'
loop_
 _atom_site_type_symbol
 _atom_site_label
 _atom_site_symmetry_multiplicity
 _atom_site_fract_x
 _atom_site_fract_y
 _atom_site_fract_z
 _atom_site_occupancy
  Li  Li0  1  0.32436919  0.66171608  0.89474688  1
  Li  Li1  1  0.99638463  -0.00178942  0.99575238  1
  Li  Li2  1  0.00760161  0.00339434  0.49815501  1
  Li  Li3  1  0.66778084  0.33461629  0.39510964  1
  Fe  Fe4  1  0.34578391  0.67313599  0.49226285  1
  Fe  Fe5  1  0.66366581  0.33153223  0.98601462  1
  Co  Co6  1  0.16580467  0.82988948  0.21300783  1
  Co  Co7  1  0.16577046  0.33630839  0.21322652  1
  Co  Co8  1  0.34028048  0.16994688  0.71292697  1
  Ni  Ni9  1  0.65879076  0.82972528  0.21376273  1
  Ni  Ni10  1  0.83165744  0.66213611  0.71467317  1
  Ni  Ni11  1  0.83168552  0.16930203  0.71454516  1
  O  O12  1  0.18440202  0.85311662  0.60129682  1
  O  O13  1  0.03793680  0.51924031  0.32918611  1
  O  O14  1  0.32098462  0.66067202  0.10848539  1
  O  O15  1  0.00558894  0.00279042  0.30932600  1
  O  O16  1  0.00951866  0.00443469  0.80629123  1
  O  O17  1  0.18482362  0.33156098  0.60145185  1
  O  O18  1  0.47259742  0.96246931  0.33213081  1
  O  O19  1  0.47350266  0.51219967  0.33195949  1
  O  O20  1  0.31592005  0.15776567  0.10950201  1
  O  O21  1  0.68717078  0.84364052  0.60001651  1
  O  O22  1  0.49969392  0.46854129  0.83903034  1
  O  O23  1  0.49997386  0.03069390  0.83844086  1
  O  O24  1  0.66263820  0.33153810  0.61199392  1
  O  O25  1  0.84392884  0.67507523  0.10429968  1
  O  O26  1  0.95896812  0.47896986  0.83578099  1
  O  O27  1  0.84277615  0.16767672  0.10446424  1
