# generated using pymatgen
data_BaSiO3
_symmetry_space_group_name_H-M   'P 1'
_cell_length_a   7.89097115
_cell_length_b   6.42593211
_cell_length_c   12.76680584
_cell_angle_alpha   90.00000000
_cell_angle_beta   84.38722329
_cell_angle_gamma   90.00000000
_symmetry_Int_Tables_number   1
_chemical_formula_structural   BaSiO3
_chemical_formula_sum   'Ba8 Si8 O24'
_cell_volume   644.26072949
_cell_formula_units_Z   8
loop_
 _symmetry_equiv_pos_site_id
 _symmetry_equiv_pos_as_xyz
  1  'x, y, z'
loop_
 _atom_site_type_symbol
 _atom_site_label
 _atom_site_symmetry_multiplicity
 _atom_site_fract_x
 _atom_site_fract_y
 _atom_site_fract_z
 _atom_site_occupancy
  Ba  Ba0  1  0.08544933  0.60167260  0.12599928  1
  Ba  Ba1  1  0.07976151  0.90754600  0.66282874  1
  Ba  Ba2  1  0.41455067  0.10167260  0.37400072  1
  Ba  Ba3  1  0.42023849  0.40754600  0.83717126  1
  Ba  Ba4  1  0.57976151  0.59245400  0.16282874  1
  Ba  Ba5  1  0.58544933  0.89832740  0.62599928  1
  Ba  Ba6  1  0.92023849  0.09245400  0.33717126  1
  Ba  Ba7  1  0.91455067  0.39832740  0.87400072  1
  Si  Si8  1  0.16210231  0.64863127  0.38669655  1
  Si  Si9  1  0.24081391  0.41402689  0.58893992  1
  Si  Si10  1  0.33789769  0.14863127  0.11330345  1
  Si  Si11  1  0.25918609  0.91402689  0.91106008  1
  Si  Si12  1  0.74081391  0.08597311  0.08893992  1
  Si  Si13  1  0.66210231  0.85136873  0.88669655  1
  Si  Si14  1  0.75918609  0.58597311  0.41106008  1
  Si  Si15  1  0.83789769  0.35136873  0.61330345  1
  O  O16  1  0.03611007  0.41092854  0.64771693  1
  O  O17  1  0.14928498  0.86437012  0.45138339  1
  O  O18  1  0.21478096  0.15993750  0.22201399  1
  O  O19  1  0.28074978  0.95005971  0.03958742  1
  O  O20  1  0.16999690  0.10495611  0.85478151  1
  O  O21  1  0.21925022  0.45005971  0.46041258  1
  O  O22  1  0.16920100  0.68818141  0.90371811  1
  O  O23  1  0.28521904  0.65993750  0.27798601  1
  O  O24  1  0.35071502  0.36437012  0.04861661  1
  O  O25  1  0.33079900  0.18818141  0.59628189  1
  O  O26  1  0.33000310  0.60495611  0.64521849  1
  O  O27  1  0.53611007  0.08907146  0.14771693  1
  O  O28  1  0.46388993  0.91092854  0.85228307  1
  O  O29  1  0.66999690  0.39504389  0.35478151  1
  O  O30  1  0.66920100  0.81181859  0.40371811  1
  O  O31  1  0.64928498  0.63562988  0.95138339  1
  O  O32  1  0.71478096  0.34006250  0.72201399  1
  O  O33  1  0.83079900  0.31181859  0.09628189  1
  O  O34  1  0.78074978  0.54994029  0.53958742  1
  O  O35  1  0.83000310  0.89504389  0.14521849  1
  O  O36  1  0.71925022  0.04994029  0.96041258  1
  O  O37  1  0.78521904  0.84006250  0.77798601  1
  O  O38  1  0.85071502  0.13562988  0.54861661  1
  O  O39  1  0.96388993  0.58907146  0.35228307  1
