# generated using pymatgen
data_Na3Ni2P2(CO7)2
_symmetry_space_group_name_H-M   'P 1'
_cell_length_a   8.92364179
_cell_length_b   10.36336658
_cell_length_c   6.55048399
_cell_angle_alpha   89.89899522
_cell_angle_beta   90.91708496
_cell_angle_gamma   88.51752004
_symmetry_Int_Tables_number   1
_chemical_formula_structural   Na3Ni2P2(CO7)2
_chemical_formula_sum   'Na6 Ni4 P4 C4 O28'
_cell_volume   605.50024499
_cell_formula_units_Z   2
loop_
 _symmetry_equiv_pos_site_id
 _symmetry_equiv_pos_as_xyz
  1  'x, y, z'
loop_
 _atom_site_type_symbol
 _atom_site_label
 _atom_site_symmetry_multiplicity
 _atom_site_fract_x
 _atom_site_fract_y
 _atom_site_fract_z
 _atom_site_occupancy
  Na  Na0  1  0.25488723  0.12353736  0.03106294  1
  Na  Na1  1  0.25253696  0.61983854  0.00974157  1
  Na  Na2  1  0.25156616  0.62334076  0.48520459  1
  Na  Na3  1  0.74511277  0.37646264  0.96893706  1
  Na  Na4  1  0.74843384  0.87665924  0.51479541  1
  Na  Na5  1  0.74746304  0.88016146  0.99025843  1
  Ni  Ni6  1  0.34688268  0.38777796  0.74452898  1
  Ni  Ni7  1  0.34362651  0.89350178  0.74583912  1
  Ni  Ni8  1  0.65311732  0.11222204  0.25547102  1
  Ni  Ni9  1  0.65637349  0.60649822  0.25416088  1
  P  P10  1  0.42735499  0.36131711  0.24864108  1
  P  P11  1  0.42289778  0.85664897  0.25028145  1
  P  P12  1  0.57264501  0.13868289  0.75135892  1
  P  P13  1  0.57710222  0.64335103  0.74971855  1
  C  C14  1  0.07512823  0.35621295  0.74606168  1
  C  C15  1  0.07271263  0.85721377  0.75244622  1
  C  C16  1  0.92487177  0.14378705  0.25393832  1
  C  C17  1  0.92728737  0.64278623  0.24755378  1
  O  O18  1  0.06293729  0.16155492  0.24975087  1
  O  O19  1  0.06560353  0.66216301  0.24341536  1
  O  O20  1  0.13327674  0.47041808  0.74107825  1
  O  O21  1  0.13040741  0.97018942  0.75126116  1
  O  O22  1  0.17401173  0.26202142  0.74787992  1
  O  O23  1  0.17417948  0.76319956  0.74851483  1
  O  O24  1  0.32347656  0.39621431  0.06167707  1
  O  O25  1  0.33170108  0.40111241  0.43424414  1
  O  O26  1  0.32226337  0.89306013  0.06243912  1
  O  O27  1  0.32380394  0.88448476  0.43704159  1
  O  O28  1  0.42298349  0.06700806  0.75924161  1
  O  O29  1  0.42823933  0.56979826  0.74801463  1
  O  O30  1  0.46528851  0.21427678  0.24272287  1
  O  O31  1  0.46159050  0.70736402  0.24516032  1
  O  O32  1  0.53471149  0.28572322  0.75727713  1
  O  O33  1  0.53840950  0.79263598  0.75483968  1
  O  O34  1  0.57701651  0.43299194  0.24075839  1
  O  O35  1  0.57176067  0.93020174  0.25198537  1
  O  O36  1  0.66829892  0.09888759  0.56575586  1
  O  O37  1  0.67652344  0.10378569  0.93832293  1
  O  O38  1  0.67619606  0.61551524  0.56295841  1
  O  O39  1  0.67773663  0.60693987  0.93756088  1
  O  O40  1  0.82598827  0.23797858  0.25212008  1
  O  O41  1  0.82582052  0.73680044  0.25148517  1
  O  O42  1  0.86672326  0.02958192  0.25892175  1
  O  O43  1  0.86959259  0.52981058  0.24873884  1
  O  O44  1  0.93706271  0.33844508  0.75024913  1
  O  O45  1  0.93439647  0.83783699  0.75658464  1
