# generated using pymatgen
data_LaTiNO2
_symmetry_space_group_name_H-M   'P 1'
_cell_length_a   5.56376655
_cell_length_b   8.06911916
_cell_length_c   5.57518365
_cell_angle_alpha   90.08900800
_cell_angle_beta   90.00000000
_cell_angle_gamma   90.00000000
_symmetry_Int_Tables_number   1
_chemical_formula_structural   LaTiNO2
_chemical_formula_sum   'La4 Ti4 N4 O8'
_cell_volume   250.29586904
_cell_formula_units_Z   4
loop_
 _symmetry_equiv_pos_site_id
 _symmetry_equiv_pos_as_xyz
  1  'x, y, z'
loop_
 _atom_site_type_symbol
 _atom_site_label
 _atom_site_symmetry_multiplicity
 _atom_site_fract_x
 _atom_site_fract_y
 _atom_site_fract_z
 _atom_site_occupancy
  La  La0  1  0.49351955  0.24202560  0.00148338  1
  La  La1  1  0.49556797  0.75767309  0.99461825  1
  La  La2  1  0.99351955  0.75797440  0.49851662  1
  La  La3  1  0.99556797  0.24232691  0.50538175  1
  Ti  Ti4  1  0.49265352  0.00254347  0.48542268  1
  Ti  Ti5  1  0.49633048  0.48502544  0.50261327  1
  Ti  Ti6  1  0.99265352  0.99745653  0.01457732  1
  Ti  Ti7  1  0.99633048  0.51497456  0.99738673  1
  N  N8  1  0.70370567  0.99995115  0.19885985  1
  N  N9  1  0.49925174  0.25328458  0.50843382  1
  N  N10  1  0.20370567  0.00004885  0.30114015  1
  N  N11  1  0.99925174  0.74671542  0.99156618  1
  O  O12  1  0.80349984  0.49905010  0.30468756  1
  O  O13  1  0.82056037  0.99982756  0.68986002  1
  O  O14  1  0.69079571  0.49845522  0.80871994  1
  O  O15  1  0.50405614  0.74922373  0.51896758  1
  O  O16  1  0.30349984  0.50094990  0.19531244  1
  O  O17  1  0.32056037  0.00017244  0.81013998  1
  O  O18  1  0.19079571  0.50154478  0.69128006  1
  O  O19  1  0.00405614  0.25077627  0.98103242  1
