# generated using pymatgen
data_Li4Ti3Mn3Nb2O16
_symmetry_space_group_name_H-M   'P 1'
_cell_length_a   6.14074429
_cell_length_b   6.05280301
_cell_length_c   9.92688078
_cell_angle_alpha   90.00011614
_cell_angle_beta   90.94612160
_cell_angle_gamma   119.52757560
_symmetry_Int_Tables_number   1
_chemical_formula_structural   Li4Ti3Mn3Nb2O16
_chemical_formula_sum   'Li4 Ti3 Mn3 Nb2 O16'
_cell_volume   320.98932362
_cell_formula_units_Z   1
loop_
 _symmetry_equiv_pos_site_id
 _symmetry_equiv_pos_as_xyz
  1  'x, y, z'
loop_
 _atom_site_type_symbol
 _atom_site_label
 _atom_site_symmetry_multiplicity
 _atom_site_fract_x
 _atom_site_fract_y
 _atom_site_fract_z
 _atom_site_occupancy
  Li  Li0  1  0.32293138  0.66147546  0.90605400  1
  Li  Li1  1  0.00509290  0.00256335  0.98642959  1
  Li  Li2  1  0.01486608  0.00743586  0.49267391  1
  Li  Li3  1  0.65453225  0.32727627  0.40758058  1
  Ti  Ti4  1  0.35603873  0.17803050  0.73574776  1
  Ti  Ti5  1  0.18802236  0.84301739  0.21969042  1
  Ti  Ti6  1  0.18791624  0.34509259  0.21974167  1
  Mn  Mn7  1  0.66613697  0.83305072  0.21027101  1
  Mn  Mn8  1  0.83081710  0.66248783  0.70562253  1
  Mn  Mn9  1  0.83083262  0.16836462  0.70562502  1
  Nb  Nb10  1  0.33135027  0.66568158  0.49747459  1
  Nb  Nb11  1  0.70028570  0.35015084  0.98890062  1
  O  O12  1  0.18246583  0.83595619  0.58824663  1
  O  O13  1  0.04046589  0.52022280  0.33345607  1
  O  O14  1  0.29999534  0.65000216  0.10900066  1
  O  O15  1  0.02085985  0.01043625  0.30512476  1
  O  O16  1  0.02347119  0.01174527  0.79949486  1
  O  O17  1  0.18247815  0.34652293  0.58824751  1
  O  O18  1  0.45824225  0.96020828  0.33838932  1
  O  O19  1  0.45823050  0.49804306  0.33839534  1
  O  O20  1  0.32621267  0.16309305  0.10589392  1
  O  O21  1  0.66330985  0.83166860  0.57161152  1
  O  O22  1  0.49627014  0.46394932  0.85189712  1
  O  O23  1  0.49626384  0.03233997  0.85189784  1
  O  O24  1  0.62456011  0.31228832  0.60896198  1
  O  O25  1  0.84201895  0.66569128  0.09188559  1
  O  O26  1  0.95431659  0.47716435  0.85763230  1
  O  O27  1  0.84201624  0.17634316  0.09189086  1
