# generated using pymatgen
data_Ti3(WO6)2
_symmetry_space_group_name_H-M   'P 1'
_cell_length_a   9.24458702
_cell_length_b   12.97369521
_cell_length_c   9.40564908
_cell_angle_alpha   90.00000000
_cell_angle_beta   90.00000000
_cell_angle_gamma   90.21834031
_symmetry_Int_Tables_number   1
_chemical_formula_structural   Ti3(WO6)2
_chemical_formula_sum   'Ti12 W8 O48'
_cell_volume   1128.07201032
_cell_formula_units_Z   4
loop_
 _symmetry_equiv_pos_site_id
 _symmetry_equiv_pos_as_xyz
  1  'x, y, z'
loop_
 _atom_site_type_symbol
 _atom_site_label
 _atom_site_symmetry_multiplicity
 _atom_site_fract_x
 _atom_site_fract_y
 _atom_site_fract_z
 _atom_site_occupancy
  Ti  Ti0  1  0.02785980  0.48959447  0.25231205  1
  Ti  Ti1  1  0.10836390  0.85659214  0.38416485  1
  Ti  Ti2  1  0.11196313  0.14023939  0.10937886  1
  Ti  Ti3  1  0.39163610  0.64340786  0.88416485  1
  Ti  Ti4  1  0.38803687  0.35976061  0.60937886  1
  Ti  Ti5  1  0.47214020  0.01040553  0.75231205  1
  Ti  Ti6  1  0.52785980  0.98959447  0.24768795  1
  Ti  Ti7  1  0.61196313  0.64023939  0.39062114  1
  Ti  Ti8  1  0.60836390  0.35659214  0.11583515  1
  Ti  Ti9  1  0.88803687  0.85976061  0.89062114  1
  Ti  Ti10  1  0.89163610  0.14340786  0.61583515  1
  Ti  Ti11  1  0.97214020  0.51040553  0.74768795  1
  W  W12  1  0.25310250  0.88219553  0.02739229  1
  W  W13  1  0.24689750  0.61780447  0.52739229  1
  W  W14  1  0.75310250  0.38219553  0.47260771  1
  W  W15  1  0.74689750  0.11780447  0.97260771  1
  W  W16  1  0.25054727  0.37998152  0.96851729  1
  W  W17  1  0.24945273  0.12001848  0.46851729  1
  W  W18  1  0.75054727  0.87998152  0.53148271  1
  W  W19  1  0.74945273  0.62001848  0.03148271  1
  O  O20  1  0.08781472  0.43508960  0.86396948  1
  O  O21  1  0.08233925  0.88578521  0.90845403  1
  O  O22  1  0.08355732  0.60824073  0.65913428  1
  O  O23  1  0.08158412  0.16478671  0.57268955  1
  O  O24  1  0.11838220  0.57752426  0.37579147  1
  O  O25  1  0.13446073  0.84883382  0.19152478  1
  O  O26  1  0.15607996  0.98417401  0.44192185  1
  O  O27  1  0.15678457  0.25027022  0.99379907  1
  O  O28  1  0.16193137  0.16702745  0.29336964  1
  O  O29  1  0.16638453  0.42908497  0.14420716  1
  O  O30  1  0.21626505  0.75970252  0.48250182  1
  O  O31  1  0.28373495  0.74029748  0.98250182  1
  O  O32  1  0.21961435  0.03081868  0.06014312  1
  O  O33  1  0.28038565  0.46918132  0.56014312  1
  O  O34  1  0.33361547  0.07091503  0.64420716  1
  O  O35  1  0.33806863  0.33297255  0.79336964  1
  O  O36  1  0.34392104  0.51582599  0.94192185  1
  O  O37  1  0.34321543  0.24972978  0.49379907  1
  O  O38  1  0.36553927  0.65116618  0.69152478  1
  O  O39  1  0.38161780  0.92247574  0.87579147  1
  O  O40  1  0.41644268  0.89175927  0.15913428  1
  O  O41  1  0.41766075  0.61421479  0.40845403  1
  O  O42  1  0.41841588  0.33521329  0.07268955  1
  O  O43  1  0.41218528  0.06491040  0.36396948  1
  O  O44  1  0.58781472  0.93508960  0.63603052  1
  O  O45  1  0.58158412  0.66478671  0.92731045  1
  O  O46  1  0.58233925  0.38578521  0.59154597  1
  O  O47  1  0.58355732  0.10824073  0.84086572  1
  O  O48  1  0.61838220  0.07752426  0.12420853  1
  O  O49  1  0.63446073  0.34883382  0.30847522  1
  O  O50  1  0.65678457  0.75027022  0.50620093  1
  O  O51  1  0.65607896  0.48417401  0.05807815  1
  O  O52  1  0.66193137  0.66702745  0.20663036  1
  O  O53  1  0.66638453  0.92908497  0.35579284  1
  O  O54  1  0.71961435  0.53081868  0.43985688  1
  O  O55  1  0.78038565  0.96918132  0.93985688  1
  O  O56  1  0.71626505  0.25970252  0.01749818  1
  O  O57  1  0.78373495  0.24029748  0.51749818  1
  O  O58  1  0.83361547  0.57091503  0.85579284  1
  O  O59  1  0.83806863  0.83297255  0.70663036  1
  O  O60  1  0.84321543  0.74972978  0.00620093  1
  O  O61  1  0.84392104  0.01582599  0.55807815  1
  O  O62  1  0.86553927  0.15116618  0.80847522  1
  O  O63  1  0.88161780  0.42247574  0.62420853  1
  O  O64  1  0.91841588  0.83521329  0.42731045  1
  O  O65  1  0.91644268  0.39175927  0.34086572  1
  O  O66  1  0.91766075  0.11421479  0.09154597  1
  O  O67  1  0.91218528  0.56491040  0.13603052  1
