# generated using pymatgen
data_Ti3CuNi2(PO4)6
_symmetry_space_group_name_H-M   'P 1'
_cell_length_a   8.46612697
_cell_length_b   8.46612761
_cell_length_c   8.46612711
_cell_angle_alpha   61.24031003
_cell_angle_beta   61.24030557
_cell_angle_gamma   61.24030578
_symmetry_Int_Tables_number   1
_chemical_formula_structural   Ti3CuNi2(PO4)6
_chemical_formula_sum   'Ti3 Cu1 Ni2 P6 O24'
_cell_volume   441.04900897
_cell_formula_units_Z   1
loop_
 _symmetry_equiv_pos_site_id
 _symmetry_equiv_pos_as_xyz
  1  'x, y, z'
loop_
 _atom_site_type_symbol
 _atom_site_label
 _atom_site_symmetry_multiplicity
 _atom_site_fract_x
 _atom_site_fract_y
 _atom_site_fract_z
 _atom_site_occupancy
  Ti  Ti0  1  0.14226284  0.14226284  0.14226284  1
  Ti  Ti1  1  0.35500238  0.35500238  0.35500238  1
  Ti  Ti2  1  0.64493907  0.64493907  0.64493907  1
  Cu  Cu3  1  0.85544407  0.85544407  0.85544407  1
  Ni  Ni4  1  0.99716362  0.99716362  0.99716362  1
  Ni  Ni5  1  0.49864298  0.49864298  0.49864298  1
  P  P6  1  0.25041098  0.54557180  0.95305533  1
  P  P7  1  0.54557180  0.95305533  0.25041098  1
  P  P8  1  0.95305533  0.25041098  0.54557180  1
  P  P9  1  0.04775446  0.75224819  0.45537379  1
  P  P10  1  0.45537379  0.04775446  0.75224819  1
  P  P11  1  0.75224819  0.45537379  0.04775446  1
  O  O12  1  0.11106527  0.33053784  0.48630736  1
  O  O13  1  0.33053784  0.48630736  0.11106527  1
  O  O14  1  0.05856764  0.90893713  0.25408108  1
  O  O15  1  0.48630736  0.11106527  0.33053784  1
  O  O16  1  0.01763792  0.81871292  0.60554100  1
  O  O17  1  0.24525790  0.58943727  0.43098012  1
  O  O18  1  0.25408108  0.05856764  0.90893713  1
  O  O19  1  0.43098012  0.24525790  0.58943727  1
  O  O20  1  0.18217730  0.38177396  0.00234204  1
  O  O21  1  0.58943727  0.43098012  0.24525790  1
  O  O22  1  0.09696428  0.73995043  0.94716256  1
  O  O23  1  0.38177396  0.00234204  0.18217730  1
  O  O24  1  0.60554100  0.01763792  0.81871292  1
  O  O25  1  0.90893713  0.25408108  0.05856764  1
  O  O26  1  0.41272654  0.55367867  0.75663676  1
  O  O27  1  0.81871292  0.60554100  0.01763792  1
  O  O28  1  0.55367867  0.75663676  0.41272654  1
  O  O29  1  0.73995043  0.94716256  0.09696428  1
  O  O30  1  0.75663676  0.41272654  0.55367867  1
  O  O31  1  0.00234204  0.18217730  0.38177396  1
  O  O32  1  0.50524565  0.88240206  0.68400778  1
  O  O33  1  0.94716256  0.09696428  0.73995043  1
  O  O34  1  0.68400778  0.50524565  0.88240206  1
  O  O35  1  0.88240206  0.68400778  0.50524565  1
