# generated using pymatgen
data_LiMnPO4
_symmetry_space_group_name_H-M   'P 1'
_cell_length_a   6.48591044
_cell_length_b   9.42873277
_cell_length_c   5.01923914
_cell_angle_alpha   90.00000000
_cell_angle_beta   90.00000000
_cell_angle_gamma   90.00217454
_symmetry_Int_Tables_number   1
_chemical_formula_structural   LiMnPO4
_chemical_formula_sum   'Li4 Mn4 P4 O16'
_cell_volume   306.94613019
_cell_formula_units_Z   4
loop_
 _symmetry_equiv_pos_site_id
 _symmetry_equiv_pos_as_xyz
  1  'x, y, z'
loop_
 _atom_site_type_symbol
 _atom_site_label
 _atom_site_symmetry_multiplicity
 _atom_site_fract_x
 _atom_site_fract_y
 _atom_site_fract_z
 _atom_site_occupancy
  Li  Li0  1  0.25000493  0.66651901  0.04514951  1
  Li  Li1  1  0.25000493  0.16651901  0.45485049  1
  Li  Li2  1  0.74999507  0.33348099  0.95485049  1
  Li  Li3  1  0.74999507  0.83348099  0.54514951  1
  Mn  Mn4  1  0.00000000  0.00000000  0.00000000  1
  Mn  Mn5  1  0.00000000  0.50000000  0.50000000  1
  Mn  Mn6  1  0.50000000  0.00000000  0.00000000  1
  Mn  Mn7  1  0.50000000  0.50000000  0.50000000  1
  P  P8  1  0.25002415  0.32077096  0.97779930  1
  P  P9  1  0.25002415  0.82077096  0.52220070  1
  P  P10  1  0.74997585  0.67922904  0.02220070  1
  P  P11  1  0.74997585  0.17922904  0.47779930  1
  O  O12  1  0.05249072  0.37926103  0.84700701  1
  O  O13  1  0.05249072  0.87926103  0.65299299  1
  O  O14  1  0.25000370  0.15452162  0.93290764  1
  O  O15  1  0.25000673  0.35998865  0.28181971  1
  O  O16  1  0.25000673  0.85998865  0.21818029  1
  O  O17  1  0.25000370  0.65452162  0.56709236  1
  O  O18  1  0.44749547  0.37926304  0.84701062  1
  O  O19  1  0.44749547  0.87926304  0.65298938  1
  O  O20  1  0.55250453  0.12073696  0.34701062  1
  O  O21  1  0.55250453  0.62073696  0.15298938  1
  O  O22  1  0.74999327  0.64001135  0.71818029  1
  O  O23  1  0.74999327  0.14001135  0.78181971  1
  O  O24  1  0.74999630  0.34547838  0.43290764  1
  O  O25  1  0.74999630  0.84547838  0.06709236  1
  O  O26  1  0.94750928  0.12073897  0.34700701  1
  O  O27  1  0.94750928  0.62073897  0.15299299  1
