# generated using pymatgen
data_NaTi2(PO4)3
_symmetry_space_group_name_H-M   'P 1'
_cell_length_a   12.25892213
_cell_length_b   8.71007011
_cell_length_c   8.79649153
_cell_angle_alpha   90.08791047
_cell_angle_beta   90.08893482
_cell_angle_gamma   89.28073550
_symmetry_Int_Tables_number   1
_chemical_formula_structural   NaTi2(PO4)3
_chemical_formula_sum   'Na4 Ti8 P12 O48'
_cell_volume   939.17858934
_cell_formula_units_Z   4
loop_
 _symmetry_equiv_pos_site_id
 _symmetry_equiv_pos_as_xyz
  1  'x, y, z'
loop_
 _atom_site_type_symbol
 _atom_site_label
 _atom_site_symmetry_multiplicity
 _atom_site_fract_x
 _atom_site_fract_y
 _atom_site_fract_z
 _atom_site_occupancy
  Na  Na0  1  0.16728158  0.29404355  0.20238487  1
  Na  Na1  1  0.31914254  0.17912445  0.71468783  1
  Na  Na2  1  0.68587808  0.58101929  0.44834548  1
  Na  Na3  1  0.81344598  0.91836662  0.94868689  1
  Ti  Ti4  1  0.10715143  0.24843092  0.53201785  1
  Ti  Ti5  1  0.11703260  0.75062905  0.03156425  1
  Ti  Ti6  1  0.39368784  0.25479923  0.03295772  1
  Ti  Ti7  1  0.38228499  0.74952007  0.53242868  1
  Ti  Ti8  1  0.60778614  0.73874841  0.97186267  1
  Ti  Ti9  1  0.61471538  0.23856548  0.46988015  1
  Ti  Ti10  1  0.89207856  0.75832959  0.47105636  1
  Ti  Ti11  1  0.88515783  0.26088327  0.96851831  1
  P  P12  1  0.00507880  0.97319012  0.74823468  1
  P  P13  1  0.99872775  0.02857823  0.24696071  1
  P  P14  1  0.14561418  0.61197515  0.39076541  1
  P  P15  1  0.14456226  0.39438574  0.88479832  1
  P  P16  1  0.35557022  0.10735815  0.38749698  1
  P  P17  1  0.35489104  0.88534388  0.89423904  1
  P  P18  1  0.49586581  0.52954566  0.24896931  1
  P  P19  1  0.49977438  0.46816754  0.74794686  1
  P  P20  1  0.64630920  0.11111352  0.11063348  1
  P  P21  1  0.64464634  0.88672936  0.61435115  1
  P  P22  1  0.85516755  0.61263701  0.11496969  1
  P  P23  1  0.85381509  0.39001144  0.61063718  1
  O  O24  1  0.03619113  0.68474910  0.44106698  1
  O  O25  1  0.03864443  0.32620904  0.94876389  1
  O  O26  1  0.06854965  0.86834186  0.85817106  1
  O  O27  1  0.06532211  0.13900809  0.34838490  1
  O  O28  1  0.08237756  0.92836710  0.16053116  1
  O  O29  1  0.08744862  0.06514705  0.65388723  1
  O  O30  1  0.14026646  0.43542396  0.41309821  1
  O  O31  1  0.14315256  0.56938879  0.90443950  1
  O  O32  1  0.16426727  0.63852651  0.21906449  1
  O  O33  1  0.16328518  0.35019002  0.71630759  1
  O  O34  1  0.23601514  0.67872067  0.49242803  1
  O  O35  1  0.24002547  0.32123860  0.97791031  1
  O  O36  1  0.26368279  0.81553138  0.99130737  1
  O  O37  1  0.26060097  0.18060143  0.48079809  1
  O  O38  1  0.33762725  0.15464618  0.21970528  1
  O  O39  1  0.33648256  0.86839191  0.72092447  1
  O  O40  1  0.35436518  0.93200673  0.40683534  1
  O  O41  1  0.36090702  0.05994067  0.92696543  1
  O  O42  1  0.41560064  0.44078473  0.14686571  1
  O  O43  1  0.41871205  0.57554662  0.66480774  1
  O  O44  1  0.43027332  0.63169603  0.35907119  1
  O  O45  1  0.43146177  0.35148720  0.83931346  1
  O  O46  1  0.46340621  0.80886848  0.94164184  1
  O  O47  1  0.46295939  0.17156676  0.45148264  1
  O  O48  1  0.53837349  0.19107235  0.06062306  1
  O  O49  1  0.53659333  0.81729130  0.56000176  1
  O  O50  1  0.56983101  0.63567514  0.15471288  1
  O  O51  1  0.57132934  0.37654904  0.63578875  1
  O  O52  1  0.57347217  0.42011959  0.33490713  1
  O  O53  1  0.57764544  0.55892091  0.85203030  1
  O  O54  1  0.64204645  0.93698865  0.08274351  1
  O  O55  1  0.64508136  0.06364074  0.59230434  1
  O  O56  1  0.66296432  0.14174554  0.28211209  1
  O  O57  1  0.66490546  0.85070556  0.78410624  1
  O  O58  1  0.73706293  0.81692776  0.51440528  1
  O  O59  1  0.73913378  0.17609137  0.01104999  1
  O  O60  1  0.76246743  0.32311800  0.50965172  1
  O  O61  1  0.76284640  0.68247413  0.01494710  1
  O  O62  1  0.83392719  0.64371735  0.28525710  1
  O  O63  1  0.83686738  0.35792293  0.78148951  1
  O  O64  1  0.85646359  0.43640950  0.08946418  1
  O  O65  1  0.85672014  0.56476806  0.58516416  1
  O  O66  1  0.91937112  0.93200286  0.34130741  1
  O  O67  1  0.92502047  0.07914016  0.83452645  1
  O  O68  1  0.93322732  0.86966384  0.64732875  1
  O  O69  1  0.93095295  0.12853686  0.13752818  1
  O  O70  1  0.96278896  0.68482234  0.06307528  1
  O  O71  1  0.96347569  0.31491940  0.56127199  1
