# generated using pymatgen
data_Cr2O3
_symmetry_space_group_name_H-M   'P 1'
_cell_length_a   5.12923538
_cell_length_b   5.29484851
_cell_length_c   7.30859884
_cell_angle_alpha   90.00000000
_cell_angle_beta   90.00000000
_cell_angle_gamma   90.00000000
_symmetry_Int_Tables_number   1
_chemical_formula_structural   Cr2O3
_chemical_formula_sum   'Cr8 O12'
_cell_volume   198.49075926
_cell_formula_units_Z   4
loop_
 _symmetry_equiv_pos_site_id
 _symmetry_equiv_pos_as_xyz
  1  'x, y, z'
loop_
 _atom_site_type_symbol
 _atom_site_label
 _atom_site_symmetry_multiplicity
 _atom_site_fract_x
 _atom_site_fract_y
 _atom_site_fract_z
 _atom_site_occupancy
  Cr  Cr0  1  0.24986321  0.46761221  0.60678392  1
  Cr  Cr1  1  0.24986321  0.03238879  0.39321608  1
  Cr  Cr2  1  0.25013679  0.53238879  0.10678392  1
  Cr  Cr3  1  0.25013679  0.96761121  0.89321608  1
  Cr  Cr4  1  0.74986321  0.03238879  0.10678392  1
  Cr  Cr5  1  0.74986321  0.46761221  0.89321608  1
  Cr  Cr6  1  0.75013679  0.53238879  0.39321608  1
  Cr  Cr7  1  0.75013679  0.96761121  0.60678392  1
  O  O8  1  0.04937901  0.25000000  0.00000000  1
  O  O9  1  0.10782101  0.39297255  0.34863425  1
  O  O10  1  0.10782101  0.10702745  0.65136575  1
  O  O11  1  0.39217899  0.60702745  0.84863425  1
  O  O12  1  0.39217899  0.89297255  0.15136575  1
  O  O13  1  0.45062099  0.75000000  0.50000000  1
  O  O14  1  0.54937901  0.25000000  0.50000000  1
  O  O15  1  0.60782101  0.39297255  0.15136575  1
  O  O16  1  0.60782101  0.10702745  0.84863425  1
  O  O17  1  0.89217899  0.60702745  0.65136575  1
  O  O18  1  0.89217899  0.89297255  0.34863425  1
  O  O19  1  0.95062099  0.75000000  0.00000000  1
