# generated using pymatgen
data_Li3P3(WO6)2
_symmetry_space_group_name_H-M   'P 1'
_cell_length_a   9.26827580
_cell_length_b   9.26827544
_cell_length_c   9.26827620
_cell_angle_alpha   55.93929721
_cell_angle_beta   55.93929494
_cell_angle_gamma   55.93929793
_symmetry_Int_Tables_number   1
_chemical_formula_structural   Li3P3(WO6)2
_chemical_formula_sum   'Li6 P6 W4 O24'
_cell_volume   509.99036008
_cell_formula_units_Z   2
loop_
 _symmetry_equiv_pos_site_id
 _symmetry_equiv_pos_as_xyz
  1  'x, y, z'
loop_
 _atom_site_type_symbol
 _atom_site_label
 _atom_site_symmetry_multiplicity
 _atom_site_fract_x
 _atom_site_fract_y
 _atom_site_fract_z
 _atom_site_occupancy
  Li  Li0  1  0.07573058  0.33905120  0.73590344  1
  Li  Li1  1  0.33905120  0.73590344  0.07573058  1
  Li  Li2  1  0.73590344  0.07573058  0.33905120  1
  Li  Li3  1  0.26409656  0.92426942  0.66094880  1
  Li  Li4  1  0.66094880  0.26409656  0.92426942  1
  Li  Li5  1  0.92426942  0.66094880  0.26409656  1
  P  P6  1  0.04241874  0.74971897  0.45567090  1
  P  P7  1  0.45567090  0.04241874  0.74971897  1
  P  P8  1  0.74971897  0.45567090  0.04241874  1
  P  P9  1  0.25028103  0.54432910  0.95758126  1
  P  P10  1  0.54432910  0.95758126  0.25028103  1
  P  P11  1  0.95758126  0.25028103  0.54432910  1
  W  W12  1  0.34667812  0.34667812  0.34667812  1
  W  W13  1  0.65332188  0.65332188  0.65332188  1
  W  W14  1  0.14426651  0.14426651  0.14426651  1
  W  W15  1  0.85573349  0.85573349  0.85573349  1
  O  O16  1  0.14747806  0.20391013  0.55110658  1
  O  O17  1  0.20391013  0.55110658  0.14747806  1
  O  O18  1  0.55110658  0.14747806  0.20391013  1
  O  O19  1  0.15591954  0.53664418  0.49824742  1
  O  O20  1  0.14575326  0.86236554  0.25471145  1
  O  O21  1  0.00578012  0.80707209  0.60002219  1
  O  O22  1  0.25471145  0.14575326  0.86236554  1
  O  O23  1  0.49824742  0.15591954  0.53664418  1
  O  O24  1  0.53664418  0.49824742  0.15591954  1
  O  O25  1  0.19292791  0.39997781  0.99421988  1
  O  O26  1  0.13763446  0.74528855  0.85424674  1
  O  O27  1  0.39997781  0.99421988  0.19292791  1
  O  O28  1  0.60002219  0.00578012  0.80707209  1
  O  O29  1  0.86236554  0.25471145  0.14575326  1
  O  O30  1  0.80707209  0.60002219  0.00578012  1
  O  O31  1  0.46335582  0.50175258  0.84408046  1
  O  O32  1  0.50175258  0.84408046  0.46335582  1
  O  O33  1  0.74528855  0.85424674  0.13763446  1
  O  O34  1  0.99421988  0.19292791  0.39997781  1
  O  O35  1  0.85424674  0.13763446  0.74528855  1
  O  O36  1  0.84408046  0.46335582  0.50175258  1
  O  O37  1  0.44889342  0.85252194  0.79608987  1
  O  O38  1  0.79608987  0.44889342  0.85252194  1
  O  O39  1  0.85252194  0.79608987  0.44889342  1
