# generated using pymatgen
data_VO2
_symmetry_space_group_name_H-M   'P 1'
_cell_length_a   5.11241607
_cell_length_b   5.11241543
_cell_length_c   6.27354445
_cell_angle_alpha   90.00000000
_cell_angle_beta   90.00000000
_cell_angle_gamma   67.33298675
_symmetry_Int_Tables_number   1
_chemical_formula_structural   VO2
_chemical_formula_sum   'V4 O8'
_cell_volume   151.30529314
_cell_formula_units_Z   4
loop_
 _symmetry_equiv_pos_site_id
 _symmetry_equiv_pos_as_xyz
  1  'x, y, z'
loop_
 _atom_site_type_symbol
 _atom_site_label
 _atom_site_symmetry_multiplicity
 _atom_site_fract_x
 _atom_site_fract_y
 _atom_site_fract_z
 _atom_site_occupancy
  V  V0  1  0.00000000  0.00000000  0.00000000  1
  V  V1  1  0.00000000  0.00000000  0.50000000  1
  V  V2  1  0.35433294  0.35433294  0.25000000  1
  V  V3  1  0.64566706  0.64566706  0.75000000  1
  O  O4  1  0.23593343  0.23593343  0.03409712  1
  O  O5  1  0.23593343  0.23593343  0.46590288  1
  O  O6  1  0.20994611  0.74006311  0.25000000  1
  O  O7  1  0.25993689  0.79005389  0.75000000  1
  O  O8  1  0.74006311  0.20994611  0.25000000  1
  O  O9  1  0.79005389  0.25993689  0.75000000  1
  O  O10  1  0.76406657  0.76406657  0.96590288  1
  O  O11  1  0.76406657  0.76406657  0.53409712  1
