# generated using pymatgen
data_Li9Mn2Co5O16
_symmetry_space_group_name_H-M   'P 1'
_cell_length_a   3.00466954
_cell_length_b   10.09689338
_cell_length_c   9.79967432
_cell_angle_alpha   102.60718226
_cell_angle_beta   87.12184470
_cell_angle_gamma   91.32905287
_symmetry_Int_Tables_number   1
_chemical_formula_structural   Li9Mn2Co5O16
_chemical_formula_sum   'Li9 Mn2 Co5 O16'
_cell_volume   289.74392356
_cell_formula_units_Z   1
loop_
 _symmetry_equiv_pos_site_id
 _symmetry_equiv_pos_as_xyz
  1  'x, y, z'
loop_
 _atom_site_type_symbol
 _atom_site_label
 _atom_site_symmetry_multiplicity
 _atom_site_fract_x
 _atom_site_fract_y
 _atom_site_fract_z
 _atom_site_occupancy
  Li  Li0  1  0.99830375  0.12309861  0.74907464  1
  Li  Li1  1  0.49962742  0.50585015  0.49831803  1
  Li  Li2  1  0.00340204  0.87151638  0.24908097  1
  Li  Li3  1  0.50000000  0.25000000  0.00000000  1
  Li  Li4  1  0.50037258  0.99414985  0.50168197  1
  Li  Li5  1  0.00169625  0.37690139  0.25092536  1
  Li  Li6  1  0.50000000  0.75000000  0.00000000  1
  Li  Li7  1  0.99659796  0.62848362  0.75091903  1
  Li  Li8  1  -0.00000000  0.75000000  0.50000000  1
  Mn  Mn9  1  0.00442901  0.99854823  0.99700346  1
  Mn  Mn10  1  -0.00442901  0.50145177  0.00299654  1
  Co  Co11  1  0.49706943  0.37625066  0.74851715  1
  Co  Co12  1  0.50293057  0.12374934  0.25148285  1
  Co  Co13  1  0.49263013  0.86970670  0.73796249  1
  Co  Co14  1  -0.00000000  0.25000000  0.50000000  1
  Co  Co15  1  0.50736987  0.63029330  0.26203751  1
  O  O16  1  0.47424380  0.04667781  0.86721634  1
  O  O17  1  0.00584117  0.43023397  0.62610320  1
  O  O18  1  0.49667942  0.79496763  0.36075343  1
  O  O19  1  0.00826116  0.17772390  0.12465818  1
  O  O20  1  0.97025302  0.93229543  0.63383665  1
  O  O21  1  0.50520843  0.30218508  0.37735584  1
  O  O22  1  0.97690006  0.67812341  0.12778992  1
  O  O23  1  0.46392947  0.55378980  0.87478941  1
  O  O24  1  0.49479157  0.19781392  0.62264416  1
  O  O25  1  0.02974698  0.56770457  0.36616335  1
  O  O26  1  0.53607053  0.94620920  0.12521059  1
  O  O27  1  -0.00826116  0.32227510  0.87534182  1
  O  O28  1  -0.00584117  0.06976603  0.37389680  1
  O  O29  1  0.52575620  0.45332219  0.13278366  1
  O  O30  1  0.02309994  0.82187559  0.87221008  1
  O  O31  1  0.50332058  0.70503137  0.63924657  1
