# generated using pymatgen
data_Ni4P2O9
_symmetry_space_group_name_H-M   'P 1'
_cell_length_a   8.46451783
_cell_length_b   6.34730313
_cell_length_c   13.26822776
_cell_angle_alpha   90.00102188
_cell_angle_beta   89.99743154
_cell_angle_gamma   89.99868812
_symmetry_Int_Tables_number   1
_chemical_formula_structural   Ni4P2O9
_chemical_formula_sum   'Ni16 P8 O36'
_cell_volume   712.86022165
_cell_formula_units_Z   4
loop_
 _symmetry_equiv_pos_site_id
 _symmetry_equiv_pos_as_xyz
  1  'x, y, z'
loop_
 _atom_site_type_symbol
 _atom_site_label
 _atom_site_symmetry_multiplicity
 _atom_site_fract_x
 _atom_site_fract_y
 _atom_site_fract_z
 _atom_site_occupancy
  Ni  Ni0  1  0.07322476  0.75000938  0.41636298  1
  Ni  Ni1  1  0.14501968  0.24999273  0.06434975  1
  Ni  Ni2  1  0.14350859  0.51544393  0.85415793  1
  Ni  Ni3  1  0.14350806  0.98457433  0.85414632  1
  Ni  Ni4  1  0.35650309  0.01545912  0.35416602  1
  Ni  Ni5  1  0.35650252  0.48457240  0.35415183  1
  Ni  Ni6  1  0.35495607  0.74998397  0.56434384  1
  Ni  Ni7  1  0.42677627  0.25000562  0.91636448  1
  Ni  Ni8  1  0.57321269  0.75000617  0.08363582  1
  Ni  Ni9  1  0.64506268  0.24999522  0.43565096  1
  Ni  Ni10  1  0.64350277  0.51543909  0.64583985  1
  Ni  Ni11  1  0.64350234  0.98457014  0.64584845  1
  Ni  Ni12  1  0.85648463  0.01544651  0.14583993  1
  Ni  Ni13  1  0.85648339  0.48457088  0.14584882  1
  Ni  Ni14  1  0.85495695  0.74999335  0.93565914  1
  Ni  Ni15  1  0.92678282  0.24999958  0.58363401  1
  P  P16  1  0.00608580  0.25001127  0.34461683  1
  P  P17  1  0.16591155  0.74998892  0.07635488  1
  P  P18  1  0.33409105  0.24998868  0.57635683  1
  P  P19  1  0.49392853  0.75000955  0.84462199  1
  P  P20  1  0.50607102  0.25000649  0.15538113  1
  P  P21  1  0.66590386  0.74998756  0.42364003  1
  P  P22  1  0.83408829  0.24998487  0.92364224  1
  P  P23  1  0.99392166  0.75000302  0.65538143  1
  O  O24  1  0.09610970  0.54559516  0.12409080  1
  O  O25  1  0.09610395  0.95440911  0.12408643  1
  O  O26  1  0.10903225  0.74999959  0.96082380  1
  O  O27  1  0.09163559  0.74999304  0.75568822  1
  O  O28  1  0.11076418  0.04941890  0.35062499  1
  O  O29  1  0.11074874  0.45056964  0.35062500  1
  O  O30  1  0.11517296  0.74999529  0.56792108  1
  O  O31  1  0.15679131  0.25000650  0.58604081  1
  O  O32  1  0.19357708  0.24999998  0.91757437  1
  O  O33  1  0.30642307  0.74999927  0.41757313  1
  O  O34  1  0.34319762  0.75000339  0.08603186  1
  O  O35  1  0.38482733  0.24999791  0.06792482  1
  O  O36  1  0.38925101  0.54941825  0.85063207  1
  O  O37  1  0.38925523  0.95057490  0.85063218  1
  O  O38  1  0.40836518  0.24999860  0.25568977  1
  O  O39  1  0.39097637  0.25000051  0.46082991  1
  O  O40  1  0.40388008  0.04559191  0.62409433  1
  O  O41  1  0.40388000  0.45440667  0.62408589  1
  O  O42  1  0.59612587  0.54559471  0.37590946  1
  O  O43  1  0.59612201  0.95441022  0.37591358  1
  O  O44  1  0.60902455  0.74999939  0.53917467  1
  O  O45  1  0.59164830  0.74999377  0.74431053  1
  O  O46  1  0.61075631  0.04941693  0.14936759  1
  O  O47  1  0.61074182  0.45057280  0.14937007  1
  O  O48  1  0.61516603  0.74999721  0.93208015  1
  O  O49  1  0.65679026  0.25001076  0.91396326  1
  O  O50  1  0.69358565  0.24999309  0.58243139  1
  O  O51  1  0.80640948  0.74999124  0.08243138  1
  O  O52  1  0.84321340  0.75000713  0.41395610  1
  O  O53  1  0.88484903  0.25000089  0.43208188  1
  O  O54  1  0.88924859  0.54942151  0.64936771  1
  O  O55  1  0.88925222  0.95057341  0.64937075  1
  O  O56  1  0.90836288  0.24999885  0.24431496  1
  O  O57  1  0.89095883  0.24999714  0.03917075  1
  O  O58  1  0.90388232  0.04559085  0.87590562  1
  O  O59  1  0.90388173  0.45440874  0.87591520  1
