# generated using pymatgen
data_Li9Mn2Co5O16
_symmetry_space_group_name_H-M   'P 1'
_cell_length_a   3.02697744
_cell_length_b   9.99806215
_cell_length_c   9.77727445
_cell_angle_alpha   92.73843359
_cell_angle_beta   83.00996351
_cell_angle_gamma   91.99370857
_symmetry_Int_Tables_number   1
_chemical_formula_structural   Li9Mn2Co5O16
_chemical_formula_sum   'Li9 Mn2 Co5 O16'
_cell_volume   293.23851917
_cell_formula_units_Z   1
loop_
 _symmetry_equiv_pos_site_id
 _symmetry_equiv_pos_as_xyz
  1  'x, y, z'
loop_
 _atom_site_type_symbol
 _atom_site_label
 _atom_site_symmetry_multiplicity
 _atom_site_fract_x
 _atom_site_fract_y
 _atom_site_fract_z
 _atom_site_occupancy
  Li  Li0  1  0.86839079  0.18894844  0.25215618  1
  Li  Li1  1  0.12603965  0.31326946  0.74620226  1
  Li  Li2  1  0.37099012  0.43663568  0.25399844  1
  Li  Li3  1  0.62942447  0.56090031  0.74285195  1
  Li  Li4  1  0.87057553  0.68909969  0.25714805  1
  Li  Li5  1  0.12900988  0.81336432  0.74600156  1
  Li  Li6  1  0.37396035  0.93673054  0.25379774  1
  Li  Li7  1  0.63160921  0.06105156  0.74784382  1
  Li  Li8  1  0.25000000  0.62500000  0.50000000  1
  Mn  Mn9  1  0.01076319  0.99795418  0.00042102  1
  Mn  Mn10  1  0.48923681  0.25204582  -0.00042102  1
  Co  Co11  1  0.25000000  0.12500000  0.50000000  1
  Co  Co12  1  0.74969305  0.38340271  0.50079865  1
  Co  Co13  1  -0.00800440  0.50246421  -0.00106064  1
  Co  Co14  1  0.50800440  0.74753579  0.00106064  1
  Co  Co15  1  0.75030695  0.86659729  0.49920135  1
  O  O16  1  0.40790489  0.09709775  0.11851632  1
  O  O17  1  0.70105486  0.22594004  0.60897556  1
  O  O18  1  0.89794418  0.34867595  0.11614565  1
  O  O19  1  0.16418653  0.46038108  0.61408000  1
  O  O20  1  0.44593030  0.59645872  0.11711923  1
  O  O21  1  0.69116470  0.73721358  0.61483477  1
  O  O22  1  0.96204789  0.84252984  0.11529074  1
  O  O23  1  0.15782323  0.97283919  0.61341526  1
  O  O24  1  0.34217677  0.27716081  0.38658474  1
  O  O25  1  0.53795211  0.40747016  0.88470926  1
  O  O26  1  0.80883530  0.51278642  0.38516523  1
  O  O27  1  0.05406970  0.65354128  0.88288077  1
  O  O28  1  0.33581347  0.78961892  0.38592000  1
  O  O29  1  0.60205582  0.90132405  0.88385435  1
  O  O30  1  0.79894514  0.02405996  0.39102444  1
  O  O31  1  0.09209511  0.15290225  0.88148368  1
