# generated using pymatgen
data_Mn3(OF2)2
_symmetry_space_group_name_H-M   'P 1'
_cell_length_a   4.87926344
_cell_length_b   14.38597288
_cell_length_c   3.15738210
_cell_angle_alpha   90.00000000
_cell_angle_beta   90.00000000
_cell_angle_gamma   90.00000000
_symmetry_Int_Tables_number   1
_chemical_formula_structural   Mn3(OF2)2
_chemical_formula_sum   'Mn6 O4 F8'
_cell_volume   221.62596868
_cell_formula_units_Z   2
loop_
 _symmetry_equiv_pos_site_id
 _symmetry_equiv_pos_as_xyz
  1  'x, y, z'
loop_
 _atom_site_type_symbol
 _atom_site_label
 _atom_site_symmetry_multiplicity
 _atom_site_fract_x
 _atom_site_fract_y
 _atom_site_fract_z
 _atom_site_occupancy
  Mn  Mn0  1  0.93891053  0.00965342  0.00000000  1
  Mn  Mn1  1  0.06108947  0.32368058  0.00000000  1
  Mn  Mn2  1  0.00000000  0.66666700  0.00000000  1
  Mn  Mn3  1  0.50000000  0.16666700  0.50000000  1
  Mn  Mn4  1  0.56108947  0.50965342  0.50000000  1
  Mn  Mn5  1  0.43891053  0.82368058  0.50000000  1
  O  O6  1  0.22847330  0.26308126  0.50000000  1
  O  O7  1  0.27152670  0.76308126  0.00000000  1
  O  O8  1  0.72847330  0.57025274  0.00000000  1
  O  O9  1  0.77152670  0.07025274  0.50000000  1
  F  F10  1  0.19968312  0.60102622  0.50000000  1
  F  F11  1  0.14475472  0.94123810  0.50000000  1
  F  F12  1  0.30031688  0.10102622  0.00000000  1
  F  F13  1  0.35524528  0.44123810  0.00000000  1
  F  F14  1  0.69968312  0.23230778  0.00000000  1
  F  F15  1  0.64475472  0.89209490  0.00000000  1
  F  F16  1  0.85524528  0.39209490  0.50000000  1
  F  F17  1  0.80031688  0.73230778  0.50000000  1
