# generated using pymatgen
data_LiBi6B3O14
_symmetry_space_group_name_H-M   'P 1'
_cell_length_a   8.74146980
_cell_length_b   16.15482239
_cell_length_c   9.34007771
_cell_angle_alpha   90.00000000
_cell_angle_beta   88.74759632
_cell_angle_gamma   90.00000000
_symmetry_Int_Tables_number   1
_chemical_formula_structural   LiBi6B3O14
_chemical_formula_sum   'Li4 Bi24 B12 O56'
_cell_volume   1318.66165708
_cell_formula_units_Z   4
loop_
 _symmetry_equiv_pos_site_id
 _symmetry_equiv_pos_as_xyz
  1  'x, y, z'
loop_
 _atom_site_type_symbol
 _atom_site_label
 _atom_site_symmetry_multiplicity
 _atom_site_fract_x
 _atom_site_fract_y
 _atom_site_fract_z
 _atom_site_occupancy
  Li  Li0  1  0.17848078  0.60848292  0.93846065  1
  Li  Li1  1  0.32151922  0.10848292  0.56153935  1
  Li  Li2  1  0.67848078  0.89151708  0.43846065  1
  Li  Li3  1  0.82151922  0.39151708  0.06153935  1
  Bi  Bi4  1  0.05728546  0.98813316  0.28742265  1
  Bi  Bi5  1  0.04593382  0.82724961  0.94144386  1
  Bi  Bi6  1  0.07386073  0.33479685  0.33312722  1
  Bi  Bi7  1  0.14331646  0.67839476  0.30163611  1
  Bi  Bi8  1  0.19757723  0.50301684  0.56918074  1
  Bi  Bi9  1  0.22130053  0.35607677  0.93204559  1
  Bi  Bi10  1  0.27869947  0.85607677  0.56795441  1
  Bi  Bi11  1  0.30242277  0.00301684  0.93081926  1
  Bi  Bi12  1  0.35668354  0.17839476  0.19836389  1
  Bi  Bi13  1  0.42613927  0.83479685  0.16687278  1
  Bi  Bi14  1  0.44271454  0.48813316  0.21257735  1
  Bi  Bi15  1  0.45406618  0.32724961  0.55855614  1
  Bi  Bi16  1  0.54593382  0.67275039  0.44144386  1
  Bi  Bi17  1  0.55728546  0.51186684  0.78742265  1
  Bi  Bi18  1  0.57386073  0.16520315  0.83312722  1
  Bi  Bi19  1  0.64331646  0.82160524  0.80163611  1
  Bi  Bi20  1  0.69757723  0.99698316  0.06918074  1
  Bi  Bi21  1  0.72130053  0.14392323  0.43204559  1
  Bi  Bi22  1  0.77869947  0.64392323  0.06795441  1
  Bi  Bi23  1  0.80242277  0.49698316  0.43081926  1
  Bi  Bi24  1  0.85668354  0.32160524  0.69836389  1
  Bi  Bi25  1  0.92613927  0.66520315  0.66687278  1
  Bi  Bi26  1  0.95406618  0.17275039  0.05855614  1
  Bi  Bi27  1  0.94271454  0.01186684  0.71257735  1
  B  B28  1  0.06359532  0.50270223  0.14281356  1
  B  B29  1  0.06884947  0.16996156  0.46794999  1
  B  B30  1  0.18874277  0.19131817  0.77684789  1
  B  B31  1  0.31125723  0.69131817  0.72315211  1
  B  B32  1  0.43115053  0.66996156  0.03205001  1
  B  B33  1  0.43640468  0.00270223  0.35718644  1
  B  B34  1  0.56359532  0.99729777  0.64281356  1
  B  B35  1  0.56884947  0.33003844  0.96794999  1
  B  B36  1  0.68874277  0.30868183  0.27684789  1
  B  B37  1  0.81125723  0.80868183  0.22315211  1
  B  B38  1  0.93115053  0.83003844  0.53205001  1
  B  B39  1  0.93640468  0.49729777  0.85718644  1
  O  O40  1  0.00709806  0.58909942  0.45145557  1
  O  O41  1  0.03323976  0.58549756  0.11197021  1
  O  O42  1  0.04156811  0.08634094  0.48541722  1
  O  O43  1  0.05112568  0.77389941  0.50841000  1
  O  O44  1  0.04135877  0.54719419  0.78601452  1
  O  O45  1  0.08336516  0.25185746  0.82371314  1
  O  O46  1  0.15547352  0.27187649  0.12336523  1
  O  O47  1  0.15760431  0.09252421  0.13352170  1
  O  O48  1  0.15067938  0.10899990  0.79500923  1
  O  O49  1  0.15336274  0.91863804  0.78518680  1
  O  O50  1  0.19712324  0.90841290  0.10514759  1
  O  O51  1  0.16912845  0.71535678  0.77954988  1
  O  O52  1  0.20484174  0.47023161  0.09825939  1
  O  O53  1  0.20918646  0.20181860  0.42201592  1
  O  O54  1  0.29081354  0.70181860  0.07798408  1
  O  O55  1  0.29515826  0.97023161  0.40174061  1
  O  O56  1  0.30287776  0.40841290  0.39485241  1
  O  O57  1  0.34239569  0.59252421  0.36647830  1
  O  O58  1  0.33087155  0.21535678  0.72045012  1
  O  O59  1  0.34452648  0.77187649  0.37663477  1
  O  O60  1  0.34663726  0.41863804  0.71481320  1
  O  O61  1  0.34932062  0.60899990  0.70499077  1
  O  O62  1  0.45843189  0.58634094  0.01458278  1
  O  O63  1  0.41663484  0.75185746  0.67628686  1
  O  O64  1  0.46676024  0.08549756  0.38802979  1
  O  O65  1  0.45864123  0.04719419  0.71398548  1
  O  O66  1  0.44887432  0.27389941  0.99159000  1
  O  O67  1  0.49290194  0.08909942  0.04854443  1
  O  O68  1  0.50709806  0.91090058  0.95145557  1
  O  O69  1  0.55112568  0.72610059  0.00841000  1
  O  O70  1  0.54135877  0.95280581  0.28601452  1
  O  O71  1  0.53323976  0.91450244  0.61197021  1
  O  O72  1  0.58336516  0.24814254  0.32371314  1
  O  O73  1  0.54156811  0.41365906  0.98541722  1
  O  O74  1  0.65067938  0.39100010  0.29500923  1
  O  O75  1  0.65336274  0.58136196  0.28518680  1
  O  O76  1  0.65547352  0.22812351  0.62336523  1
  O  O77  1  0.66912845  0.78464322  0.27954988  1
  O  O78  1  0.65760431  0.40747579  0.63352170  1
  O  O79  1  0.69712324  0.59158710  0.60514759  1
  O  O80  1  0.70484174  0.02976839  0.59825939  1
  O  O81  1  0.70918646  0.29818140  0.92201592  1
  O  O82  1  0.79081354  0.79818140  0.57798408  1
  O  O83  1  0.79515826  0.52976839  0.90174061  1
  O  O84  1  0.83087155  0.28464322  0.22045012  1
  O  O85  1  0.80287676  0.09158710  0.89485241  1
  O  O86  1  0.84663726  0.08136196  0.21481320  1
  O  O87  1  0.84932062  0.89100010  0.20499077  1
  O  O88  1  0.84239569  0.90747579  0.86647830  1
  O  O89  1  0.84452648  0.72812351  0.87663477  1
  O  O90  1  0.91663484  0.74814254  0.17628686  1
  O  O91  1  0.95864123  0.45280581  0.21398548  1
  O  O92  1  0.94887432  0.22610059  0.49159000  1
  O  O93  1  0.95843189  0.91365906  0.51458278  1
  O  O94  1  0.96676024  0.41450244  0.88802979  1
  O  O95  1  0.99290194  0.41090058  0.54854443  1
