# generated using pymatgen
data_V2O3F
_symmetry_space_group_name_H-M   'P 1'
_cell_length_a   4.58979705
_cell_length_b   10.37512827
_cell_length_c   5.53971427
_cell_angle_alpha   81.76812213
_cell_angle_beta   90.00000000
_cell_angle_gamma   90.00000000
_symmetry_Int_Tables_number   1
_chemical_formula_structural   V2O3F
_chemical_formula_sum   'V8 O12 F4'
_cell_volume   261.08171338
_cell_formula_units_Z   4
loop_
 _symmetry_equiv_pos_site_id
 _symmetry_equiv_pos_as_xyz
  1  'x, y, z'
loop_
 _atom_site_type_symbol
 _atom_site_label
 _atom_site_symmetry_multiplicity
 _atom_site_fract_x
 _atom_site_fract_y
 _atom_site_fract_z
 _atom_site_occupancy
  V  V0  1  0.50000000  0.25000000  0.75000000  1
  V  V1  1  0.51817755  0.98753956  0.50403312  1
  V  V2  1  0.50000000  0.75000000  0.25000000  1
  V  V3  1  0.48182245  0.51246044  0.99596688  1
  V  V4  1  0.00000000  0.25000000  0.25000000  1
  V  V5  1  0.00000000  0.75000000  0.75000000  1
  V  V6  1  0.98182245  0.48753956  0.50403312  1
  V  V7  1  0.01817755  0.01246044  0.99596688  1
  O  O8  1  0.79438450  0.57043527  0.77495376  1
  O  O9  1  0.80530493  0.32445576  0.52525727  1
  O  O10  1  0.79326204  0.07667039  0.27445509  1
  O  O11  1  0.69469507  0.82445576  0.52525727  1
  O  O12  1  0.70561550  0.07043527  0.77495376  1
  O  O13  1  0.70673796  0.57667039  0.27445509  1
  O  O14  1  0.29326204  0.92332961  0.22554491  1
  O  O15  1  0.29438450  0.42956473  0.72504624  1
  O  O16  1  0.30530493  0.67554424  0.97474273  1
  O  O17  1  0.20561550  0.92956473  0.72504624  1
  O  O18  1  0.19469507  0.17554424  0.97474273  1
  O  O19  1  0.20673796  0.42332961  0.22554491  1
  F  F20  1  0.80684612  0.82958880  0.02695017  1
  F  F21  1  0.69315388  0.32958880  0.02695017  1
  F  F22  1  0.30684612  0.17041120  0.47304983  1
  F  F23  1  0.19315388  0.67041120  0.47304983  1
