# generated using pymatgen
data_Al(HO)3
_symmetry_space_group_name_H-M   'P 1'
_cell_length_a   5.14359111
_cell_length_b   8.67664691
_cell_length_c   4.78946914
_cell_angle_alpha   90.00000000
_cell_angle_beta   83.75112791
_cell_angle_gamma   90.00000000
_symmetry_Int_Tables_number   1
_chemical_formula_structural   Al(HO)3
_chemical_formula_sum   'Al4 H12 O12'
_cell_volume   212.47981329
_cell_formula_units_Z   4
loop_
 _symmetry_equiv_pos_site_id
 _symmetry_equiv_pos_as_xyz
  1  'x, y, z'
loop_
 _atom_site_type_symbol
 _atom_site_label
 _atom_site_symmetry_multiplicity
 _atom_site_fract_x
 _atom_site_fract_y
 _atom_site_fract_z
 _atom_site_occupancy
  Al  Al0  1  0.03667691  0.33286653  0.99817186  1
  Al  Al1  1  0.46332309  0.83286653  0.00182814  1
  Al  Al2  1  0.53667691  0.16713347  0.99817186  1
  Al  Al3  1  0.96332309  0.66713347  0.00182814  1
  H  H4  1  0.19878395  0.80031481  0.58818461  1
  H  H5  1  0.15684637  0.03495288  0.22537564  1
  H  H6  1  0.28792023  0.59988723  0.31104690  1
  H  H7  1  0.21207977  0.09988723  0.68895310  1
  H  H8  1  0.34315363  0.53495288  0.77462436  1
  H  H9  1  0.30121605  0.30031481  0.41181539  1
  H  H10  1  0.69878395  0.69968519  0.58818461  1
  H  H11  1  0.65684637  0.46504712  0.22537564  1
  H  H12  1  0.78792023  0.90011277  0.31104690  1
  H  H13  1  0.71207977  0.40011277  0.68895310  1
  H  H14  1  0.84315363  0.96504712  0.77462436  1
  H  H15  1  0.80121605  0.19968519  0.41181539  1
  O  O16  1  0.15736878  0.50986511  0.78838718  1
  O  O17  1  0.16184793  0.82817216  0.78892560  1
  O  O18  1  0.26047819  0.19854280  0.76705703  1
  O  O19  1  0.23952181  0.69854280  0.23294297  1
  O  O20  1  0.33815207  0.32817216  0.21107440  1
  O  O21  1  0.34263122  0.00986511  0.21161282  1
  O  O22  1  0.65736878  0.99013489  0.78838718  1
  O  O23  1  0.66184793  0.67182784  0.78892560  1
  O  O24  1  0.76047819  0.30145720  0.76705703  1
  O  O25  1  0.73952181  0.80145720  0.23294297  1
  O  O26  1  0.83815207  0.17182784  0.21107440  1
  O  O27  1  0.84263122  0.49013489  0.21161282  1
