# generated using pymatgen
data_Li4V3Cr5O16
_symmetry_space_group_name_H-M   'P 1'
_cell_length_a   5.86838598
_cell_length_b   5.91503096
_cell_length_c   9.53334528
_cell_angle_alpha   90.05439707
_cell_angle_beta   89.27393785
_cell_angle_gamma   120.25930570
_symmetry_Int_Tables_number   1
_chemical_formula_structural   Li4V3Cr5O16
_chemical_formula_sum   'Li4 V3 Cr5 O16'
_cell_volume   285.80343845
_cell_formula_units_Z   1
loop_
 _symmetry_equiv_pos_site_id
 _symmetry_equiv_pos_as_xyz
  1  'x, y, z'
loop_
 _atom_site_type_symbol
 _atom_site_label
 _atom_site_symmetry_multiplicity
 _atom_site_fract_x
 _atom_site_fract_y
 _atom_site_fract_z
 _atom_site_occupancy
  Li  Li0  1  0.33601202  0.66837694  0.89159071  1
  Li  Li1  1  0.00474011  0.00231654  0.99697676  1
  Li  Li2  1  0.99608635  0.99821455  0.49570618  1
  Li  Li3  1  0.67324561  0.33678317  0.39129380  1
  V  V4  1  0.83085953  0.66301788  0.71274973  1
  V  V5  1  0.66071309  0.83064748  0.21117732  1
  V  V6  1  0.83200517  0.16915449  0.71183486  1
  Cr  Cr7  1  0.17158778  0.83257186  0.21398385  1
  Cr  Cr8  1  0.32980267  0.66476035  0.48375780  1
  Cr  Cr9  1  0.17182271  0.33912046  0.21407353  1
  Cr  Cr10  1  0.33950777  0.16917216  0.71418796  1
  Cr  Cr11  1  0.66164401  0.33030433  0.98457706  1
  O  O12  1  0.14922293  0.82513668  0.60369182  1
  O  O13  1  0.04182593  0.52102993  0.34065474  1
  O  O14  1  0.35522579  0.67746314  0.10311473  1
  O  O15  1  0.98692346  0.99345937  0.30992678  1
  O  O16  1  0.99337516  0.99704570  0.81255272  1
  O  O17  1  0.15120404  0.32483676  0.60334558  1
  O  O18  1  0.49339409  0.96012339  0.33853134  1
  O  O19  1  0.49337785  0.53320720  0.33855344  1
  O  O20  1  0.32380439  0.16188073  0.09795904  1
  O  O21  1  0.66573988  0.83398372  0.60783974  1
  O  O22  1  0.52959819  0.48865298  0.83781202  1
  O  O23  1  0.52757734  0.04029065  0.83819672  1
  O  O24  1  0.67428633  0.33659467  0.60202950  1
  O  O25  1  0.82158993  0.67217568  0.10658528  1
  O  O26  1  0.96340819  0.48046585  0.83850314  1
  O  O27  1  0.82141668  0.14951334  0.10663382  1
