# generated using pymatgen
data_VFeP2(O4F)2
_symmetry_space_group_name_H-M   'P 1'
_cell_length_a   5.10250328
_cell_length_b   5.28119807
_cell_length_c   7.38743780
_cell_angle_alpha   109.24397360
_cell_angle_beta   106.17831440
_cell_angle_gamma   96.01067048
_symmetry_Int_Tables_number   1
_chemical_formula_structural   VFeP2(O4F)2
_chemical_formula_sum   'V1 Fe1 P2 O8 F2'
_cell_volume   176.21377296
_cell_formula_units_Z   1
loop_
 _symmetry_equiv_pos_site_id
 _symmetry_equiv_pos_as_xyz
  1  'x, y, z'
loop_
 _atom_site_type_symbol
 _atom_site_label
 _atom_site_symmetry_multiplicity
 _atom_site_fract_x
 _atom_site_fract_y
 _atom_site_fract_z
 _atom_site_occupancy
  V  V0  1  0.00000000  0.00000000  0.00000000  1
  Fe  Fe1  1  0.50000000  0.50000000  0.50000000  1
  P  P2  1  0.43021788  0.11550898  0.75896136  1
  P  P3  1  0.56978212  0.88449102  0.24103864  1
  O  O4  1  0.27307882  0.14133017  0.91776779  1
  O  O5  1  0.34603916  0.81983733  0.60723574  1
  O  O6  1  0.36193675  0.32809511  0.66617343  1
  O  O7  1  0.24827855  0.81341735  0.11721734  1
  O  O8  1  0.75172145  0.18658265  0.88278266  1
  O  O9  1  0.63806325  0.67190489  0.33382657  1
  O  O10  1  0.65396084  0.18016267  0.39276426  1
  O  O11  1  0.72692118  0.85866983  0.08223221  1
  F  F12  1  0.13375840  0.30412988  0.24960758  1
  F  F13  1  0.86624160  0.69587012  0.75039242  1
