# generated using pymatgen
data_Li2V3NiO8
_symmetry_space_group_name_H-M   'P 1'
_cell_length_a   5.86875012
_cell_length_b   5.86877805
_cell_length_c   9.73247873
_cell_angle_alpha   89.99948949
_cell_angle_beta   89.99955154
_cell_angle_gamma   119.99951127
_symmetry_Int_Tables_number   1
_chemical_formula_structural   Li2V3NiO8
_chemical_formula_sum   'Li4 V6 Ni2 O16'
_cell_volume   290.30167221
_cell_formula_units_Z   2
loop_
 _symmetry_equiv_pos_site_id
 _symmetry_equiv_pos_as_xyz
  1  'x, y, z'
loop_
 _atom_site_type_symbol
 _atom_site_label
 _atom_site_symmetry_multiplicity
 _atom_site_fract_x
 _atom_site_fract_y
 _atom_site_fract_z
 _atom_site_occupancy
  Li  Li0  1  0.33335205  0.66669753  0.89513452  1
  Li  Li1  1  -0.00000079  0.00002647  0.99605684  1
  Li  Li2  1  0.00000649  0.00005520  0.49604406  1
  Li  Li3  1  0.66665428  0.33331634  0.39513981  1
  V  V4  1  0.14638257  0.80747351  0.21354412  1
  V  V5  1  0.19254531  0.33892724  0.21354268  1
  V  V6  1  0.85366478  0.66107969  0.71353768  1
  V  V7  1  0.66108116  0.85360716  0.21353108  1
  V  V8  1  0.33891037  0.19260797  0.71354602  1
  V  V9  1  0.80740355  0.14632923  0.71352590  1
  Ni  Ni10  1  0.33338584  0.66673595  0.49176012  1
  Ni  Ni11  1  0.66668312  0.33330689  0.99172973  1
  O  O12  1  0.17495373  0.85484869  0.60800658  1
  O  O13  1  0.03533413  0.52956401  0.33158509  1
  O  O14  1  0.33333893  0.66667194  0.10012001  1
  O  O15  1  0.99999000  0.00000502  0.31147118  1
  O  O16  1  0.99998102  0.99999347  0.81146520  1
  O  O17  1  0.14517566  0.32014662  0.60801784  1
  O  O18  1  0.49420375  0.96464818  0.33158325  1
  O  O19  1  0.47042499  0.50576871  0.33157537  1
  O  O20  1  0.32013418  0.14522299  0.10801857  1
  O  O21  1  0.67987141  0.82507965  0.60801229  1
  O  O22  1  0.50578670  0.47045717  0.83156675  1
  O  O23  1  0.52952692  0.03535575  0.83158559  1
  O  O24  1  0.66666812  0.33335142  0.60011954  1
  O  O25  1  0.82509548  0.67988404  0.10801915  1
  O  O26  1  0.96466833  0.49420945  0.83157996  1
  O  O27  1  0.85477790  0.17492971  0.10802107  1
