# generated using pymatgen
data_BaYF5
_symmetry_space_group_name_H-M   'P 1'
_cell_length_a   3.90692579
_cell_length_b   5.52511938
_cell_length_c   7.81141367
_cell_angle_alpha   69.28533705
_cell_angle_beta   89.99627265
_cell_angle_gamma   44.99560489
_symmetry_Int_Tables_number   1
_chemical_formula_structural   BaYF5
_chemical_formula_sum   'Ba1 Y1 F5'
_cell_volume   103.23587256
_cell_formula_units_Z   1
loop_
 _symmetry_equiv_pos_site_id
 _symmetry_equiv_pos_as_xyz
  1  'x, y, z'
loop_
 _atom_site_type_symbol
 _atom_site_label
 _atom_site_symmetry_multiplicity
 _atom_site_fract_x
 _atom_site_fract_y
 _atom_site_fract_z
 _atom_site_occupancy
  Ba  Ba0  1  0.48716041  0.51289826  0.50007982  1
  Y  Y1  1  0.98874366  0.51089979  0.00003211  1
  F  F2  1  0.67650908  0.32338511  0.18552128  1
  F  F3  1  0.30016975  0.69962167  0.81464826  1
  F  F4  1  0.67499671  0.82487964  0.18534129  1
  F  F5  1  0.30168232  0.19795311  0.81444387  1
  F  F6  1  0.48682407  0.01379141  0.49993336  1
