# generated using pymatgen
data_Ti3Fe2Cu(PO4)6
_symmetry_space_group_name_H-M   'P 1'
_cell_length_a   8.52973586
_cell_length_b   8.52973591
_cell_length_c   8.52973569
_cell_angle_alpha   61.18826824
_cell_angle_beta   61.18826621
_cell_angle_gamma   61.18826526
_symmetry_Int_Tables_number   1
_chemical_formula_structural   Ti3Fe2Cu(PO4)6
_chemical_formula_sum   'Ti3 Fe2 Cu1 P6 O24'
_cell_volume   450.55573556
_cell_formula_units_Z   1
loop_
 _symmetry_equiv_pos_site_id
 _symmetry_equiv_pos_as_xyz
  1  'x, y, z'
loop_
 _atom_site_type_symbol
 _atom_site_label
 _atom_site_symmetry_multiplicity
 _atom_site_fract_x
 _atom_site_fract_y
 _atom_site_fract_z
 _atom_site_occupancy
  Ti  Ti0  1  0.14220283  0.14220283  0.14220283  1
  Ti  Ti1  1  0.35531372  0.35531372  0.35531372  1
  Ti  Ti2  1  0.64517409  0.64517409  0.64517409  1
  Fe  Fe3  1  0.99630723  0.99630723  0.99630723  1
  Fe  Fe4  1  0.49883431  0.49883431  0.49883431  1
  Cu  Cu5  1  0.85484368  0.85484368  0.85484368  1
  P  P6  1  0.04559515  0.75206183  0.45745401  1
  P  P7  1  0.45745401  0.04559515  0.75206183  1
  P  P8  1  0.25062296  0.54329832  0.95560472  1
  P  P9  1  0.54329832  0.95560472  0.25062296  1
  P  P10  1  0.95560472  0.25062296  0.54329832  1
  P  P11  1  0.75206183  0.45745401  0.04559515  1
  O  O12  1  0.11409741  0.32666452  0.48720041  1
  O  O13  1  0.32666452  0.48720041  0.11409741  1
  O  O14  1  0.05778623  0.90980920  0.25789795  1
  O  O15  1  0.48720041  0.11409741  0.32666452  1
  O  O16  1  0.01847166  0.81368813  0.60821261  1
  O  O17  1  0.24053599  0.58873143  0.43229474  1
  O  O18  1  0.25789795  0.05778623  0.90980920  1
  O  O19  1  0.43229474  0.24053599  0.58873143  1
  O  O20  1  0.18529812  0.37993705  0.00194512  1
  O  O21  1  0.58873143  0.43229474  0.24053599  1
  O  O22  1  0.09688338  0.73563325  0.94867849  1
  O  O23  1  0.37993705  0.00194512  0.18529812  1
  O  O24  1  0.60821261  0.01847166  0.81368813  1
  O  O25  1  0.90980920  0.25789795  0.05778623  1
  O  O26  1  0.41349486  0.55237681  0.76135871  1
  O  O27  1  0.81368813  0.60821261  0.01847166  1
  O  O28  1  0.55237681  0.76135871  0.41349486  1
  O  O29  1  0.73563325  0.94867849  0.09688338  1
  O  O30  1  0.76135871  0.41349486  0.55237681  1
  O  O31  1  0.00194512  0.18529812  0.37993705  1
  O  O32  1  0.50393422  0.88007385  0.68768301  1
  O  O33  1  0.94867849  0.09688338  0.73563325  1
  O  O34  1  0.68768301  0.50393422  0.88007385  1
  O  O35  1  0.88007385  0.68768301  0.50393422  1
