# generated using pymatgen
data_VOF
_symmetry_space_group_name_H-M   'P 1'
_cell_length_a   4.71399400
_cell_length_b   9.99988529
_cell_length_c   6.22460696
_cell_angle_alpha   71.69493706
_cell_angle_beta   90.00000000
_cell_angle_gamma   90.00000000
_symmetry_Int_Tables_number   1
_chemical_formula_structural   VOF
_chemical_formula_sum   'V8 O8 F8'
_cell_volume   278.57629976
_cell_formula_units_Z   8
loop_
 _symmetry_equiv_pos_site_id
 _symmetry_equiv_pos_as_xyz
  1  'x, y, z'
loop_
 _atom_site_type_symbol
 _atom_site_label
 _atom_site_symmetry_multiplicity
 _atom_site_fract_x
 _atom_site_fract_y
 _atom_site_fract_z
 _atom_site_occupancy
  V  V0  1  0.47103647  0.23257578  0.62895392  1
  V  V1  1  0.49568255  0.74952461  0.37902378  1
  V  V2  1  0.53663346  0.26670308  0.12220666  1
  V  V3  1  0.49608015  0.75085715  0.86802026  1
  V  V4  1  0.03663346  0.48329692  0.75279334  1
  V  V5  1  0.99568255  0.00047539  0.49597622  1
  V  V6  1  0.99608015  0.99914285  0.00697874  1
  V  V7  1  0.97103647  0.51742422  0.24604608  1
  O  O8  1  0.82193792  0.41174213  0.04531446  1
  O  O9  1  0.80940832  0.90567298  0.29366148  1
  O  O10  1  0.68061093  0.66122503  0.16377941  1
  O  O11  1  0.68893403  0.15552405  0.42196722  1
  O  O12  1  0.32193792  0.33825787  0.82968554  1
  O  O13  1  0.30940832  0.84432702  0.58133852  1
  O  O14  1  0.18061093  0.08877497  0.71122059  1
  O  O15  1  0.18893403  0.59447595  0.45303278  1
  F  F16  1  0.79122810  0.39557527  0.55109904  1
  F  F17  1  0.79477196  0.89888521  0.80332567  1
  F  F18  1  0.70531270  0.14922299  0.92698417  1
  F  F19  1  0.70836441  0.64537433  0.67937129  1
  F  F20  1  0.29477196  0.85111479  0.07167433  1
  F  F21  1  0.29122810  0.35442473  0.32390096  1
  F  F22  1  0.20531270  0.60077701  0.94801583  1
  F  F23  1  0.20836441  0.10462567  0.19562871  1
