# generated using pymatgen
data_Fe5(OF4)2
_symmetry_space_group_name_H-M   'P 1'
_cell_length_a   4.81939059
_cell_length_b   7.98772798
_cell_length_c   10.08367206
_cell_angle_alpha   108.05289715
_cell_angle_beta   90.00000000
_cell_angle_gamma   90.00000000
_symmetry_Int_Tables_number   1
_chemical_formula_structural   Fe5(OF4)2
_chemical_formula_sum   'Fe10 O4 F16'
_cell_volume   369.07102289
_cell_formula_units_Z   2
loop_
 _symmetry_equiv_pos_site_id
 _symmetry_equiv_pos_as_xyz
  1  'x, y, z'
loop_
 _atom_site_type_symbol
 _atom_site_label
 _atom_site_symmetry_multiplicity
 _atom_site_fract_x
 _atom_site_fract_y
 _atom_site_fract_z
 _atom_site_occupancy
  Fe  Fe0  1  0.46347492  0.30871154  0.88794509  1
  Fe  Fe1  1  0.52221172  0.10160356  0.29446410  1
  Fe  Fe2  1  0.49300726  0.91563344  0.70151148  1
  Fe  Fe3  1  0.48484803  0.68728503  0.08980047  1
  Fe  Fe4  1  0.52545506  0.50696544  0.49674989  1
  Fe  Fe5  1  0.02221172  0.59839644  0.80553590  1
  Fe  Fe6  1  0.02545506  0.19303456  0.60325011  1
  Fe  Fe7  1  0.99300726  0.78436656  0.39848852  1
  Fe  Fe8  1  0.96347492  0.39128846  0.21205491  1
  Fe  Fe9  1  0.98484803  0.01271497  0.01019953  1
  O  O10  1  0.81062166  0.55091884  0.36849230  1
  O  O11  1  0.79242152  0.16893732  0.19080835  1
  O  O12  1  0.31062166  0.14908116  0.73150770  1
  O  O13  1  0.29242152  0.53106268  0.90919165  1
  F  F14  1  0.80169616  0.75177733  0.97438469  1
  F  F15  1  0.81337645  0.95797657  0.57453716  1
  F  F16  1  0.79525358  0.37676594  0.78019525  1
  F  F17  1  0.70165023  0.08161093  0.88890626  1
  F  F18  1  0.71119626  0.66870714  0.69149694  1
  F  F19  1  0.70688685  0.44370904  0.06492310  1
  F  F20  1  0.68544693  0.86554297  0.27329042  1
  F  F21  1  0.69245136  0.24437653  0.47972768  1
  F  F22  1  0.31337645  0.74202343  0.52546284  1
  F  F23  1  0.29525358  0.32323406  0.31980475  1
  F  F24  1  0.30169616  0.94822267  0.12561531  1
  F  F25  1  0.19245136  0.45562347  0.62027232  1
  F  F26  1  0.21119626  0.03129286  0.40850306  1
  F  F27  1  0.18544693  0.83445703  0.82670958  1
  F  F28  1  0.20688685  0.25629096  0.03507690  1
  F  F29  1  0.20165023  0.61838907  0.21109374  1
