# generated using pymatgen
data_Ho2P4O13
_symmetry_space_group_name_H-M   'P 1'
_cell_length_a   6.87492697
_cell_length_b   6.87492697
_cell_length_c   12.99407539
_cell_angle_alpha   76.02094068
_cell_angle_beta   103.97905932
_cell_angle_gamma   120.95165643
_symmetry_Int_Tables_number   1
_chemical_formula_structural   Ho2P4O13
_chemical_formula_sum   'Ho4 P8 O26'
_cell_volume   506.00092586
_cell_formula_units_Z   2
loop_
 _symmetry_equiv_pos_site_id
 _symmetry_equiv_pos_as_xyz
  1  'x, y, z'
loop_
 _atom_site_type_symbol
 _atom_site_label
 _atom_site_symmetry_multiplicity
 _atom_site_fract_x
 _atom_site_fract_y
 _atom_site_fract_z
 _atom_site_occupancy
  Ho  Ho0  1  0.30890014  0.69518535  0.94866299  1
  Ho  Ho1  1  0.30481465  0.69109986  0.44866299  1
  Ho  Ho2  1  0.69518535  0.30890014  0.55133701  1
  Ho  Ho3  1  0.69109986  0.30481465  0.05133701  1
  P  P4  1  0.23945014  0.77300021  0.65963520  1
  P  P5  1  0.22699979  0.76054986  0.15963520  1
  P  P6  1  0.15985111  0.13644179  0.86613099  1
  P  P7  1  0.13644179  0.15985111  0.63386901  1
  P  P8  1  0.86355821  0.84014889  0.36613099  1
  P  P9  1  0.84014889  0.86355821  0.13386901  1
  P  P10  1  0.77300021  0.23945014  0.84036480  1
  P  P11  1  0.76054986  0.22699979  0.34036480  1
  O  O12  1  0.12240714  0.89654258  0.89676869  1
  O  O13  1  0.10007244  0.90657906  0.65320871  1
  O  O14  1  0.10345742  0.87759286  0.39676869  1
  O  O15  1  0.09342094  0.89992756  0.15320871  1
  O  O16  1  0.30668684  0.70520903  0.77604621  1
  O  O17  1  0.07554231  0.57400012  0.59488094  1
  O  O18  1  0.43754699  0.92611203  0.59345987  1
  O  O19  1  0.32494265  0.31555498  0.93996691  1
  O  O20  1  0.29479097  0.69331316  0.27604621  1
  O  O21  1  0.42599988  0.92445769  0.09488094  1
  O  O22  1  0.07388797  0.56245301  0.09345987  1
  O  O23  1  0.24438144  0.24438144  0.75000000  1
  O  O24  1  0.31555498  0.32494265  0.56003309  1
  O  O25  1  0.68444502  0.67505735  0.43996691  1
  O  O26  1  0.75561856  0.75561856  0.25000000  1
  O  O27  1  0.92611203  0.43754699  0.90654013  1
  O  O28  1  0.57400012  0.07554231  0.90511906  1
  O  O29  1  0.70520903  0.30668684  0.72395379  1
  O  O30  1  0.67505735  0.68444502  0.06003309  1
  O  O31  1  0.56245301  0.07388797  0.40654013  1
  O  O32  1  0.92445769  0.42599988  0.40511906  1
  O  O33  1  0.69331316  0.29479097  0.22395379  1
  O  O34  1  0.90657906  0.10007244  0.84679129  1
  O  O35  1  0.89654258  0.12240714  0.60323131  1
  O  O36  1  0.89992756  0.09342094  0.34679129  1
  O  O37  1  0.87759286  0.10345742  0.10323131  1
