# generated using pymatgen
data_Li5V6O5F19
_symmetry_space_group_name_H-M   'P 1'
_cell_length_a   7.67544220
_cell_length_b   7.44621043
_cell_length_c   16.37059005
_cell_angle_alpha   97.04559820
_cell_angle_beta   96.86653523
_cell_angle_gamma   87.70297469
_symmetry_Int_Tables_number   1
_chemical_formula_structural   Li5V6O5F19
_chemical_formula_sum   'Li10 V12 O10 F38'
_cell_volume   921.59558847
_cell_formula_units_Z   2
loop_
 _symmetry_equiv_pos_site_id
 _symmetry_equiv_pos_as_xyz
  1  'x, y, z'
loop_
 _atom_site_type_symbol
 _atom_site_label
 _atom_site_symmetry_multiplicity
 _atom_site_fract_x
 _atom_site_fract_y
 _atom_site_fract_z
 _atom_site_occupancy
  Li  Li0  1  0.74515979  0.67960119  0.13261946  1
  Li  Li1  1  0.96118761  0.67704228  0.84582583  1
  Li  Li2  1  0.73742398  0.64156674  0.47240195  1
  Li  Li3  1  0.37977692  0.88025854  0.55030005  1
  Li  Li4  1  0.86957076  0.17135921  0.48607526  1
  Li  Li5  1  0.41717117  0.72334008  0.82554285  1
  Li  Li6  1  0.90664707  0.22821932  0.82763071  1
  Li  Li7  1  0.29793054  0.35799676  0.54303177  1
  Li  Li8  1  0.24676813  0.18069593  0.13537211  1
  Li  Li9  1  0.46700481  0.17946328  0.84646010  1
  V  V10  1  0.83629283  0.86403128  0.33262438  1
  V  V11  1  0.50890554  0.97104499  0.00499350  1
  V  V12  1  -0.00040586  0.97063017  0.99802085  1
  V  V13  1  0.33144281  0.83724225  0.32737537  1
  V  V14  1  0.83386936  0.33553451  0.32575456  1
  V  V15  1  0.64318891  0.67283180  0.67170705  1
  V  V16  1  0.33726305  0.36546241  0.33510659  1
  V  V17  1  0.16297502  0.69164158  0.66461089  1
  V  V18  1  0.66520141  0.18986652  0.66205805  1
  V  V19  1  0.00941193  0.47313881  0.00495184  1
  V  V20  1  0.50067263  0.46962041  0.99765780  1
  V  V21  1  0.13609898  0.17331261  0.67097235  1
  O  O22  1  0.55853869  0.75475503  0.02185087  1
  O  O23  1  0.96814847  0.74221732  0.97335392  1
  O  O24  1  0.37551558  0.59206593  0.35315090  1
  O  O25  1  0.42640251  0.70829568  0.69102861  1
  O  O26  1  0.87392519  0.09168196  0.35620159  1
  O  O27  1  0.92535581  0.20996997  0.69274598  1
  O  O28  1  0.13458276  0.91231562  0.64720692  1
  O  O29  1  0.62589741  0.41083987  0.64710651  1
  O  O30  1  0.05780594  0.25689202  0.02173612  1
  O  O31  1  0.46854660  0.24469864  0.97367761  1
  F  F32  1  0.75699256  0.85806213  0.22112630  1
  F  F33  1  0.96495310  0.58238397  0.11059736  1
  F  F34  1  0.88865824  0.80742682  0.44385198  1
  F  F35  1  0.58513388  0.88128217  0.35756741  1
  F  F36  1  0.70167942  0.92969123  0.68652941  1
  F  F37  1  0.90585615  0.63218167  0.64326286  1
  F  F38  1  0.78515032  0.59139002  0.31255613  1
  F  F39  1  0.51459059  0.93811743  0.88300822  1
  F  F40  1  0.58463419  0.70478816  0.55363754  1
  F  F41  1  0.58405485  0.48739279  0.11060969  1
  F  F42  1  0.35960502  0.77889504  0.22284539  1
  F  F43  1  0.73666055  0.65307550  0.78130890  1
  F  F44  1  0.30860421  0.90443635  0.43849136  1
  F  F45  1  0.86281857  0.27521725  0.21955207  1
  F  F46  1  0.80582633  0.40011057  0.44256047  1
  F  F47  1  0.26419018  0.54107777  0.02550901  1
  F  F48  1  0.76437005  0.04152542  0.02443052  1
  F  F49  1  0.25090371  0.94979233  0.97460361  1
  F  F50  1  0.07894132  0.79225878  0.30830976  1
  F  F51  1  0.75081395  0.44945084  0.97402944  1
  F  F52  1  0.58270442  0.29404187  0.30853410  1
  F  F53  1  0.43543353  0.52711469  0.88690408  1
  F  F54  1  0.20353219  0.60121083  0.55381138  1
  F  F55  1  0.15264118  0.71896313  0.78165313  1
  F  F56  1  0.25748271  0.35785838  0.22273616  1
  F  F57  1  0.93734540  0.02583749  0.88803850  1
  F  F58  1  0.70357776  0.10027871  0.55158456  1
  F  F59  1  0.65224765  0.22593554  0.78068648  1
  F  F60  1  0.46518761  0.08232566  0.11020444  1
  F  F61  1  0.39971664  0.30957028  0.44537259  1
  F  F62  1  0.08308661  0.38336187  0.35794878  1
  F  F63  1  0.21784023  0.42151662  0.68005740  1
  F  F64  1  0.40965062  0.11936057  0.62914786  1
  F  F65  1  0.28797994  0.08956786  0.31005984  1
  F  F66  1  0.01476232  0.43723120  0.88271025  1
  F  F67  1  0.09873694  0.19819470  0.55206158  1
  F  F68  1  0.08196742  0.98503645  0.10872965  1
  F  F69  1  0.25042428  0.15484616  0.77710343  1
