# generated using pymatgen
data_LiMnPH2O5
_symmetry_space_group_name_H-M   'P 1'
_cell_length_a   10.21377404
_cell_length_b   17.14230467
_cell_length_c   5.14006605
_cell_angle_alpha   90.00000000
_cell_angle_beta   90.00000000
_cell_angle_gamma   90.00000000
_symmetry_Int_Tables_number   1
_chemical_formula_structural   LiMnPH2O5
_chemical_formula_sum   'Li8 Mn8 P8 H16 O40'
_cell_volume   899.96196436
_cell_formula_units_Z   8
loop_
 _symmetry_equiv_pos_site_id
 _symmetry_equiv_pos_as_xyz
  1  'x, y, z'
loop_
 _atom_site_type_symbol
 _atom_site_label
 _atom_site_symmetry_multiplicity
 _atom_site_fract_x
 _atom_site_fract_y
 _atom_site_fract_z
 _atom_site_occupancy
  Li  Li0  1  0.14951725  0.19335830  0.52846645  1
  Li  Li1  1  0.14951725  0.69335830  0.47153355  1
  Li  Li2  1  0.42004503  0.94579131  0.09806237  1
  Li  Li3  1  0.42004503  0.44579131  0.90193763  1
  Li  Li4  1  0.64951725  0.80664170  0.47153355  1
  Li  Li5  1  0.64951725  0.30664170  0.52846645  1
  Li  Li6  1  0.92004503  0.55420869  0.09806237  1
  Li  Li7  1  0.92004503  0.05420869  0.90193763  1
  Mn  Mn8  1  0.18293396  0.50018818  0.46540699  1
  Mn  Mn9  1  0.18293396  0.00018818  0.53459301  1
  Mn  Mn10  1  0.39123146  0.25109871  0.90760036  1
  Mn  Mn11  1  0.39123146  0.75109871  0.09239964  1
  Mn  Mn12  1  0.68293396  0.99981182  0.46540699  1
  Mn  Mn13  1  0.68293396  0.49981182  0.53459301  1
  Mn  Mn14  1  0.89123146  0.74890129  0.09239964  1
  Mn  Mn15  1  0.89123146  0.24890129  0.90760036  1
  P  P16  1  0.22606734  0.09252791  0.01036860  1
  P  P17  1  0.22606734  0.59252791  0.98963140  1
  P  P18  1  0.34528418  0.34242536  0.41035099  1
  P  P19  1  0.34528418  0.84242536  0.58964901  1
  P  P20  1  0.72606734  0.90747209  0.98963140  1
  P  P21  1  0.72606734  0.40747209  0.01036860  1
  P  P22  1  0.84528418  0.65757464  0.58964901  1
  P  P23  1  0.84528418  0.15757464  0.41035099  1
  H  H24  1  0.00364244  0.37576072  0.09091401  1
  H  H25  1  0.00364244  0.87576072  0.90908599  1
  H  H26  1  0.05391054  0.37681036  0.63040690  1
  H  H27  1  0.05391054  0.87681036  0.36959310  1
  H  H28  1  0.11115723  0.31134465  0.16550294  1
  H  H29  1  0.11115723  0.81134465  0.83449706  1
  H  H30  1  0.44940205  0.05659118  0.65992746  1
  H  H31  1  0.44940205  0.55659118  0.34007254  1
  H  H32  1  0.50364244  0.12423928  0.09091401  1
  H  H33  1  0.50364244  0.62423928  0.90908599  1
  H  H34  1  0.55391054  0.62318964  0.36959310  1
  H  H35  1  0.55391054  0.12318964  0.63040690  1
  H  H36  1  0.61115723  0.68865535  0.83449706  1
  H  H37  1  0.61115723  0.18865535  0.16550294  1
  H  H38  1  0.94940205  0.44340882  0.65992746  1
  H  H39  1  0.94940205  0.94340882  0.34007254  1
  O  O40  1  0.02031908  0.42395113  0.54305208  1
  O  O41  1  0.02031908  0.92395113  0.45694792  1
  O  O42  1  0.04409286  0.32661907  0.02983667  1
  O  O43  1  0.04409286  0.82661907  0.97016333  1
  O  O44  1  0.11155550  0.04750073  0.87571092  1
  O  O45  1  0.11155550  0.54750073  0.12428908  1
  O  O46  1  0.19820733  0.59966029  0.69277175  1
  O  O47  1  0.19820733  0.09966029  0.30722825  1
  O  O48  1  0.21427141  0.79699086  0.57696851  1
  O  O49  1  0.21427141  0.29699086  0.42303149  1
  O  O50  1  0.23465107  0.17565279  0.88675831  1
  O  O51  1  0.23465107  0.67565279  0.11324169  1
  O  O52  1  0.33325159  0.92418940  0.45642905  1
  O  O53  1  0.33325159  0.42418940  0.54357095  1
  O  O54  1  0.35478306  0.04667557  0.95767248  1
  O  O55  1  0.35478306  0.54667557  0.04232752  1
  O  O56  1  0.38529125  0.35314109  0.12006811  1
  O  O57  1  0.38529125  0.85314109  0.87993189  1
  O  O58  1  0.45479436  0.29603748  0.55596152  1
  O  O59  1  0.45479436  0.79603748  0.44403848  1
  O  O60  1  0.52031908  0.07604887  0.54305208  1
  O  O61  1  0.52031908  0.57604887  0.45694792  1
  O  O62  1  0.54409286  0.17338093  0.02983667  1
  O  O63  1  0.54409286  0.67338093  0.97016333  1
  O  O64  1  0.61155550  0.95249927  0.12428908  1
  O  O65  1  0.61155550  0.45249927  0.87571092  1
  O  O66  1  0.69820733  0.90033971  0.69277175  1
  O  O67  1  0.69820733  0.40033971  0.30722825  1
  O  O68  1  0.71427141  0.70300914  0.57696851  1
  O  O69  1  0.71427141  0.20300914  0.42303149  1
  O  O70  1  0.73465107  0.32434721  0.88675831  1
  O  O71  1  0.73465107  0.82434721  0.11324169  1
  O  O72  1  0.83325159  0.57581060  0.45642905  1
  O  O73  1  0.83325159  0.07581060  0.54357095  1
  O  O74  1  0.85478306  0.45332443  0.95767248  1
  O  O75  1  0.85478306  0.95332443  0.04232752  1
  O  O76  1  0.88529125  0.64685891  0.87993189  1
  O  O77  1  0.88529125  0.14685891  0.12006811  1
  O  O78  1  0.95479436  0.70396252  0.44403848  1
  O  O79  1  0.95479436  0.20396252  0.55596152  1
