# generated using pymatgen
data_LiMn2P2HO8
_symmetry_space_group_name_H-M   'P 1'
_cell_length_a   5.09596615
_cell_length_b   8.61244328
_cell_length_c   7.81385055
_cell_angle_alpha   90.00000000
_cell_angle_beta   104.43084448
_cell_angle_gamma   90.00000000
_symmetry_Int_Tables_number   1
_chemical_formula_structural   LiMn2P2HO8
_chemical_formula_sum   'Li2 Mn4 P4 H2 O16'
_cell_volume   332.11984605
_cell_formula_units_Z   2
loop_
 _symmetry_equiv_pos_site_id
 _symmetry_equiv_pos_as_xyz
  1  'x, y, z'
loop_
 _atom_site_type_symbol
 _atom_site_label
 _atom_site_symmetry_multiplicity
 _atom_site_fract_x
 _atom_site_fract_y
 _atom_site_fract_z
 _atom_site_occupancy
  Li  Li0  1  0.00470494  0.99857305  0.49264144  1
  Li  Li1  1  0.49529506  0.49857305  0.00735856  1
  Mn  Mn2  1  0.13023887  0.34355463  0.66774565  1
  Mn  Mn3  1  0.36976113  0.84355463  0.83225435  1
  Mn  Mn4  1  0.61985757  0.15776895  0.17698318  1
  Mn  Mn5  1  0.88014243  0.65776895  0.32301682  1
  P  P6  1  0.13128403  0.35845783  0.27350889  1
  P  P7  1  0.36871597  0.85845783  0.22649111  1
  P  P8  1  0.63784074  0.14430142  0.76971332  1
  P  P9  1  0.86215926  0.64430142  0.73028668  1
  H  H10  1  0.52959333  0.51350380  0.50988726  1
  H  H11  1  0.97040667  0.01350380  0.99011274  1
  O  O12  1  0.09393798  0.53746109  0.82527506  1
  O  O13  1  0.01943016  0.20229273  0.32653095  1
  O  O14  1  0.15211268  0.83395128  0.33000009  1
  O  O15  1  0.25490839  0.44949064  0.45289851  1
  O  O16  1  0.40606202  0.03746109  0.67472494  1
  O  O17  1  0.52349503  0.29669630  0.82547727  1
  O  O18  1  0.24509161  0.94949064  0.04710149  1
  O  O19  1  0.34788732  0.33395128  0.16999991  1
  O  O20  1  0.64259099  0.66734574  0.82994150  1
  O  O21  1  0.76949535  0.05653238  0.95688679  1
  O  O22  1  0.48056984  0.70229273  0.17346905  1
  O  O23  1  0.60706270  0.95907014  0.33046433  1
  O  O24  1  0.73050465  0.55653238  0.54311321  1
  O  O25  1  0.85740901  0.16734574  0.67005850  1
  O  O26  1  0.97650497  0.79669630  0.67452273  1
  O  O27  1  0.89293730  0.45907014  0.16953567  1
