# generated using pymatgen
data_Li3Mn4(BO3)4
_symmetry_space_group_name_H-M   'P 1'
_cell_length_a   5.28089492
_cell_length_b   9.10928306
_cell_length_c   11.57246836
_cell_angle_alpha   68.24707253
_cell_angle_beta   77.99377678
_cell_angle_gamma   90.30953433
_symmetry_Int_Tables_number   1
_chemical_formula_structural   Li3Mn4(BO3)4
_chemical_formula_sum   'Li6 Mn8 B8 O24'
_cell_volume   503.65360857
_cell_formula_units_Z   2
loop_
 _symmetry_equiv_pos_site_id
 _symmetry_equiv_pos_as_xyz
  1  'x, y, z'
loop_
 _atom_site_type_symbol
 _atom_site_label
 _atom_site_symmetry_multiplicity
 _atom_site_fract_x
 _atom_site_fract_y
 _atom_site_fract_z
 _atom_site_occupancy
  Li  Li0  1  0.03416062  0.04199977  0.08883719  1
  Li  Li1  1  0.26530700  0.26274939  0.33488780  1
  Li  Li2  1  0.47901126  0.50527191  0.82867362  1
  Li  Li3  1  0.77146293  0.75070801  0.33889639  1
  Li  Li4  1  0.78823601  0.76960340  0.59824138  1
  Li  Li5  1  0.97927442  0.01367888  0.83044178  1
  Mn  Mn6  1  0.01862843  0.36269508  0.11776495  1
  Mn  Mn7  1  0.23703343  0.57814911  0.37518650  1
  Mn  Mn8  1  0.28261605  0.95230352  0.61955390  1
  Mn  Mn9  1  0.54633065  0.84428067  0.10695628  1
  Mn  Mn10  1  0.46893369  0.15147494  0.86694542  1
  Mn  Mn11  1  0.74436970  0.06976083  0.36455820  1
  Mn  Mn12  1  0.76715473  0.42418283  0.61651247  1
  Mn  Mn13  1  0.97509293  0.65643007  0.86958037  1
  B  B14  1  0.04256596  0.69021250  0.13397785  1
  B  B15  1  0.23029829  0.89256558  0.39196566  1
  B  B16  1  0.27129988  0.61492917  0.61508022  1
  B  B17  1  0.51020472  0.16636161  0.13266199  1
  B  B18  1  0.48847616  0.82177140  0.85451695  1
  B  B19  1  0.73308568  0.40672003  0.36934740  1
  B  B20  1  0.75552094  0.08966612  0.62887812  1
  B  B21  1  0.96658816  0.31258588  0.87522727  1
  O  O22  1  0.00399540  0.08088808  0.64611852  1
  O  O23  1  0.26117205  0.65267766  0.19013243  1
  O  O24  1  0.11744383  0.71975819  0.65407373  1
  O  O25  1  0.15799438  0.52457332  0.55975847  1
  O  O26  1  0.35452935  0.27104650  0.16256066  1
  O  O27  1  0.42333559  0.06925913  0.07629930  1
  O  O28  1  0.06582158  0.16709578  0.89423387  1
  O  O29  1  0.09307550  0.42437552  0.90566680  1
  O  O30  1  0.32758268  0.01073107  0.43016241  1
  O  O31  1  0.40477583  0.79734579  0.35275337  1
  O  O32  1  0.25606192  0.86806032  0.80983000  1
  O  O33  1  0.47471603  0.40650857  0.37048227  1
  O  O34  1  0.51853931  0.59656151  0.63396122  1
  O  O35  1  0.75846449  0.15017199  0.16205551  1
  O  O36  1  0.60072434  0.19585731  0.66040256  1
  O  O37  1  0.66197523  0.98171949  0.58293798  1
  O  O38  1  0.90704182  0.81423451  0.14767100  1
  O  O39  1  0.59686357  0.69000192  0.84841249  1
  O  O40  1  0.59847682  0.91825972  0.90398509  1
  O  O41  1  0.98040887  0.60597321  0.06576290  1
  O  O42  1  0.84759792  0.51996981  0.40449576  1
  O  O43  1  0.88847969  0.29918956  0.33617494  1
  O  O44  1  0.74172953  0.34792789  0.82778145  1
  O  O45  1  0.97088663  0.87705646  0.39494353  1
