# generated using pymatgen
data_LiV4OF11
_symmetry_space_group_name_H-M   'P 1'
_cell_length_a   5.26938804
_cell_length_b   5.52681869
_cell_length_c   17.31581551
_cell_angle_alpha   89.02990141
_cell_angle_beta   98.21559758
_cell_angle_gamma   117.88852376
_symmetry_Int_Tables_number   1
_chemical_formula_structural   LiV4OF11
_chemical_formula_sum   'Li2 V8 O2 F22'
_cell_volume   440.42651773
_cell_formula_units_Z   2
loop_
 _symmetry_equiv_pos_site_id
 _symmetry_equiv_pos_as_xyz
  1  'x, y, z'
loop_
 _atom_site_type_symbol
 _atom_site_label
 _atom_site_symmetry_multiplicity
 _atom_site_fract_x
 _atom_site_fract_y
 _atom_site_fract_z
 _atom_site_occupancy
  Li  Li0  1  0.61827020  0.29636387  0.94524446  1
  Li  Li1  1  0.19495199  0.67933840  0.69566264  1
  V  V2  1  0.99035909  0.01086445  0.00705285  1
  V  V3  1  0.75824588  0.36537093  0.12303696  1
  V  V4  1  0.99024759  0.49906102  0.49725930  1
  V  V5  1  0.51757766  0.24589883  0.74740781  1
  V  V6  1  0.50469306  0.74689588  0.24932760  1
  V  V7  1  0.24628344  0.12393630  0.37383848  1
  V  V8  1  0.74545581  0.88766052  0.62737264  1
  V  V9  1  0.25388020  0.62588009  0.87725304  1
  O  O10  1  0.82276280  0.21965714  0.03337885  1
  O  O11  1  0.65119827  0.02418670  0.70984906  1
  F  F12  1  0.73379962  0.05981341  0.18963203  1
  F  F13  1  0.76501144  0.18243593  0.55898822  1
  F  F14  1  0.75256796  0.66669319  0.05734863  1
  F  F15  1  0.68389543  0.53602540  0.21290477  1
  F  F16  1  0.67354130  0.33789201  0.40970313  1
  F  F17  1  0.80698400  0.40319879  0.84830729  1
  F  F18  1  0.82748940  0.91011630  0.33881472  1
  F  F19  1  0.81872875  0.71058801  0.53877262  1
  F  F20  1  0.32192819  0.15150161  0.08861437  1
  F  F21  1  0.77747091  0.58037185  0.68989045  1
  F  F22  1  0.27869868  0.44150073  0.31292389  1
  F  F23  1  0.67888691  0.84142755  0.90987782  1
  F  F24  1  0.18190388  0.09640438  0.66168623  1
  F  F25  1  0.17593583  0.29164445  0.46317933  1
  F  F26  1  0.18325192  0.59227327  0.16202584  1
  F  F27  1  0.31637732  0.47462288  0.78109184  1
  F  F28  1  0.30198808  0.64443919  0.59421972  1
  F  F29  1  0.32395135  0.95885270  0.28721217  1
  F  F30  1  0.25689702  0.31563080  0.93380704  1
  F  F31  1  0.22428119  0.81609141  0.44052032  1
  F  F32  1  0.26096153  0.91972487  0.80996887  1
  F  F33  1  0.18362629  0.79673515  0.96206304  1
