# generated using pymatgen
data_Li9Mn2Co5O16
_symmetry_space_group_name_H-M   'P 1'
_cell_length_a   3.03600751
_cell_length_b   10.00967177
_cell_length_c   9.78848433
_cell_angle_alpha   92.47277626
_cell_angle_beta   82.88862924
_cell_angle_gamma   91.86252590
_symmetry_Int_Tables_number   1
_chemical_formula_structural   Li9Mn2Co5O16
_chemical_formula_sum   'Li9 Mn2 Co5 O16'
_cell_volume   294.79269835
_cell_formula_units_Z   1
loop_
 _symmetry_equiv_pos_site_id
 _symmetry_equiv_pos_as_xyz
  1  'x, y, z'
loop_
 _atom_site_type_symbol
 _atom_site_label
 _atom_site_symmetry_multiplicity
 _atom_site_fract_x
 _atom_site_fract_y
 _atom_site_fract_z
 _atom_site_occupancy
  Li  Li0  1  0.86863056  0.18795549  0.25845433  1
  Li  Li1  1  0.13366040  0.31528617  0.74481738  1
  Li  Li2  1  0.37781733  0.43805459  0.25270057  1
  Li  Li3  1  0.62706003  0.56081403  0.74898926  1
  Li  Li4  1  0.87293997  0.68918597  0.25101074  1
  Li  Li5  1  0.12218267  0.81194541  0.74729943  1
  Li  Li6  1  0.36633960  0.93471383  0.25518262  1
  Li  Li7  1  0.63136944  0.06204451  0.74154567  1
  Li  Li8  1  0.25000000  0.12500000  0.50000000  1
  Mn  Mn9  1  0.00715937  0.99842856  -0.00026968  1
  Mn  Mn10  1  0.49284063  0.25157144  0.00026968  1
  Co  Co11  1  0.75133557  0.36618630  0.49865607  1
  Co  Co12  1  -0.00307200  0.50188909  -0.00058824  1
  Co  Co13  1  0.25000000  0.62500000  0.50000000  1
  Co  Co14  1  0.50307200  0.74811091  0.00058824  1
  Co  Co15  1  0.74866443  0.88381370  0.50134393  1
  O  O16  1  0.40834160  0.09681032  0.11817158  1
  O  O17  1  0.69042362  0.23758924  0.61462418  1
  O  O18  1  0.90525924  0.34918002  0.11556295  1
  O  O19  1  0.16053587  0.47330455  0.61282940  1
  O  O20  1  0.44796786  0.59750970  0.11651585  1
  O  O21  1  0.69977704  0.72566174  0.60985643  1
  O  O22  1  0.95803437  0.84312896  0.11451520  1
  O  O23  1  0.16716200  0.96070456  0.61420307  1
  O  O24  1  0.33283800  0.28929544  0.38579693  1
  O  O25  1  0.54196563  0.40687104  0.88548480  1
  O  O26  1  0.80022296  0.52433826  0.39014357  1
  O  O27  1  0.05203214  0.65249030  0.88348415  1
  O  O28  1  0.33946413  0.77669545  0.38717060  1
  O  O29  1  0.59474076  0.90081998  0.88443705  1
  O  O30  1  0.80957638  0.01241076  0.38537582  1
  O  O31  1  0.09165840  0.15318968  0.88182842  1
