# generated using pymatgen
data_Li3Mn4(BO3)4
_symmetry_space_group_name_H-M   'P 1'
_cell_length_a   5.28492462
_cell_length_b   9.13789196
_cell_length_c   11.61330055
_cell_angle_alpha   113.04390803
_cell_angle_beta   78.62579375
_cell_angle_gamma   89.95041411
_symmetry_Int_Tables_number   1
_chemical_formula_structural   Li3Mn4(BO3)4
_chemical_formula_sum   'Li6 Mn8 B8 O24'
_cell_volume   504.05589133
_cell_formula_units_Z   2
loop_
 _symmetry_equiv_pos_site_id
 _symmetry_equiv_pos_as_xyz
  1  'x, y, z'
loop_
 _atom_site_type_symbol
 _atom_site_label
 _atom_site_symmetry_multiplicity
 _atom_site_fract_x
 _atom_site_fract_y
 _atom_site_fract_z
 _atom_site_occupancy
  Li  Li0  1  0.08503375  0.09105610  0.16598223  1
  Li  Li1  1  0.30174774  0.81539755  0.67051538  1
  Li  Li2  1  0.57551836  0.59266665  0.16036517  1
  Li  Li3  1  0.39076420  0.44526616  0.90816795  1
  Li  Li4  1  0.66624488  0.19360773  0.35208945  1
  Li  Li5  1  0.82453578  0.32991904  0.67203510  1
  Mn  Mn6  1  0.09067452  0.40226312  0.13279525  1
  Mn  Mn7  1  0.16117365  0.01911050  0.38532330  1
  Mn  Mn8  1  0.34615597  0.45946023  0.61962083  1
  Mn  Mn9  1  0.59688483  0.90517142  0.12736483  1
  Mn  Mn10  1  0.38470341  0.09004713  0.88790692  1
  Mn  Mn11  1  0.65166355  0.53868459  0.38572596  1
  Mn  Mn12  1  0.82720413  0.99679016  0.63762224  1
  Mn  Mn13  1  0.91119877  0.62568105  0.87613647  1
  B  B14  1  0.11904824  0.72866991  0.11473119  1
  B  B15  1  0.15203499  0.35276435  0.37136957  1
  B  B16  1  0.35109743  0.13997725  0.63649369  1
  B  B17  1  0.59583450  0.23807246  0.13280314  1
  B  B18  1  0.38665025  0.74672755  0.87141006  1
  B  B19  1  0.66160367  0.87115437  0.37770676  1
  B  B20  1  0.82975158  0.66018294  0.63942132  1
  B  B21  1  0.90014390  0.27179975  0.86837478  1
  O  O22  1  0.02889891  0.21613095  0.36153655  1
  O  O23  1  0.05008712  0.46363975  0.33582408  1
  O  O24  1  0.18945524  0.88301915  0.17261606  1
  O  O25  1  0.26167554  0.59582083  0.10104416  1
  O  O26  1  0.10753096  0.13721084  0.60423411  1
  O  O27  1  0.36140344  0.20093814  0.09122161  1
  O  O28  1  0.12544163  0.28298533  0.91460750  1
  O  O29  1  0.38407065  0.37467095  0.41654890  1
  O  O30  1  0.26437772  0.86557765  0.85656640  1
  O  O31  1  0.29220189  0.59327411  0.83594509  1
  O  O32  1  0.56736811  0.98402297  0.33889959  1
  O  O33  1  0.43418085  0.01670473  0.66716516  1
  O  O34  1  0.58474085  0.72209738  0.33598261  1
  O  O35  1  0.68224479  0.38808823  0.15739191  1
  O  O36  1  0.50226099  0.25974552  0.63326192  1
  O  O37  1  0.73274133  0.12423948  0.15246954  1
  O  O38  1  0.59866666  0.62959742  0.59664965  1
  O  O39  1  0.88898687  0.71170202  0.06594667  1
  O  O40  1  0.60306764  0.76942132  0.92523090  1
  O  O41  1  0.84918894  0.91663515  0.45349260  1
  O  O42  1  0.78921140  0.12274519  0.82364082  1
  O  O43  1  0.77867621  0.40106883  0.86180104  1
  O  O44  1  0.92942308  0.54935412  0.68434165  1
  O  O45  1  0.96006910  0.78716792  0.64027490  1
