# generated using pymatgen
data_LiVP3(H7O8)2
_symmetry_space_group_name_H-M   'P 1'
_cell_length_a   7.54974116
_cell_length_b   10.92285387
_cell_length_c   9.06699463
_cell_angle_alpha   108.01637025
_cell_angle_beta   108.82076043
_cell_angle_gamma   80.05239060
_symmetry_Int_Tables_number   1
_chemical_formula_structural   LiVP3(H7O8)2
_chemical_formula_sum   'Li2 V2 P6 H28 O32'
_cell_volume   670.81278604
_cell_formula_units_Z   2
loop_
 _symmetry_equiv_pos_site_id
 _symmetry_equiv_pos_as_xyz
  1  'x, y, z'
loop_
 _atom_site_type_symbol
 _atom_site_label
 _atom_site_symmetry_multiplicity
 _atom_site_fract_x
 _atom_site_fract_y
 _atom_site_fract_z
 _atom_site_occupancy
  Li  Li0  1  0.00880294  0.49279793  0.51175371  1
  Li  Li1  1  0.59319728  0.38999429  0.63938199  1
  V  V2  1  0.00054908  0.99976513  0.00093098  1
  V  V3  1  0.41556777  0.59611305  0.37137205  1
  P  P4  1  0.15158782  0.20037701  0.86492439  1
  P  P5  1  0.04442324  0.78830538  0.46705478  1
  P  P6  1  0.29378823  0.92878017  0.77105748  1
  P  P7  1  0.70551873  0.07329583  0.23041575  1
  P  P8  1  0.95933732  0.21208153  0.52969216  1
  P  P9  1  0.84631457  0.80125818  0.13549989  1
  H  H10  1  0.08800419  0.27741192  0.33666393  1
  H  H11  1  0.04437569  0.31546691  0.17436346  1
  H  H12  1  0.28142267  0.38981984  0.72514865  1
  H  H13  1  0.19857288  0.06969810  0.32682825  1
  H  H14  1  0.30035288  0.74933404  0.92226302  1
  H  H15  1  0.32076015  0.53296094  0.76692810  1
  H  H16  1  0.49206117  0.67835216  0.00281206  1
  H  H17  1  0.34032807  0.05799961  0.22644930  1
  H  H18  1  0.41474493  0.18251202  0.59885439  1
  H  H19  1  0.29444215  0.37546560  0.34465728  1
  H  H20  1  0.22290822  0.47237078  0.05050276  1
  H  H21  1  0.62167615  0.13912399  0.68772450  1
  H  H22  1  0.25997407  0.61255292  0.06205919  1
  H  H23  1  0.48610418  0.31348666  0.31190819  1
  H  H24  1  0.51826089  0.70138886  0.68998829  1
  H  H25  1  0.74313922  0.38717603  0.93260254  1
  H  H26  1  0.37456182  0.85834329  0.31238658  1
  H  H27  1  0.77922528  0.52662711  0.95071048  1
  H  H28  1  0.70122740  0.62276976  0.65397991  1
  H  H29  1  0.58450929  0.81669391  0.40164441  1
  H  H30  1  0.66040751  0.94161587  0.77451659  1
  H  H31  1  0.50837744  0.32222514  0.99797874  1
  H  H32  1  0.67535476  0.46390588  0.22624161  1
  H  H33  1  0.69973742  0.25177915  0.08001572  1
  H  H34  1  0.80244304  0.93027707  0.67430466  1
  H  H35  1  0.71482216  0.60964279  0.27092145  1
  H  H36  1  0.95474255  0.68280562  0.82532448  1
  H  H37  1  0.91118097  0.72251736  0.66428729  1
  O  O38  1  0.07103958  0.17879790  0.98575104  1
  O  O39  1  0.24640547  0.32099300  0.90361842  1
  O  O40  1  0.14399058  0.18850228  0.48822939  1
  O  O41  1  0.30757440  0.08188312  0.82144312  1
  O  O42  1  0.07414232  0.35232273  0.29283730  1
  O  O43  1  0.18746415  0.89136231  0.86417432  1
  O  O44  1  0.01601051  0.82544331  0.30185407  1
  O  O45  1  0.15982520  0.66023457  0.46204163  1
  O  O46  1  0.29360274  0.45416595  0.67449356  1
  O  O47  1  0.23524106  0.01444432  0.22908423  1
  O  O48  1  0.35747963  0.66674135  0.94755778  1
  O  O49  1  0.16683273  0.90768494  0.58499617  1
  O  O50  1  0.23386764  0.56075663  0.12480742  1
  O  O51  1  0.54536035  0.20481417  0.63555059  1
  O  O52  1  0.42908765  0.39404255  0.37181874  1
  O  O53  1  0.48761731  0.86505231  0.77997106  1
  O  O54  1  0.51195001  0.13737975  0.22158206  1
  O  O55  1  0.56185077  0.61822763  0.62316329  1
  O  O56  1  0.45402022  0.79389960  0.36595819  1
  O  O57  1  0.76940322  0.44038352  0.87277600  1
  O  O58  1  0.83325128  0.09254526  0.41528644  1
  O  O59  1  0.64119374  0.33568591  0.05943299  1
  O  O60  1  0.76721230  0.98374090  0.77262239  1
  O  O61  1  0.68592005  0.54658820  0.31570908  1
  O  O62  1  0.85114980  0.34026857  0.52884792  1
  O  O63  1  0.98569885  0.17772397  0.69732723  1
  O  O64  1  0.81197736  0.10863687  0.13559760  1
  O  O65  1  0.92465827  0.64701687  0.70684107  1
  O  O66  1  0.69130117  0.91929093  0.17913224  1
  O  O67  1  0.86168409  0.80351100  0.50763687  1
  O  O68  1  0.75373110  0.68072971  0.10265416  1
  O  O69  1  0.92665134  0.82003708  0.01305561  1
