# generated using pymatgen
data_Li2Mn3(BO3)3
_symmetry_space_group_name_H-M   'P 1'
_cell_length_a   5.86048002
_cell_length_b   8.23022281
_cell_length_c   9.09964943
_cell_angle_alpha   67.71356856
_cell_angle_beta   102.80889841
_cell_angle_gamma   77.92534960
_symmetry_Int_Tables_number   1
_chemical_formula_structural   Li2Mn3(BO3)3
_chemical_formula_sum   'Li4 Mn6 B6 O18'
_cell_volume   374.50985274
_cell_formula_units_Z   2
loop_
 _symmetry_equiv_pos_site_id
 _symmetry_equiv_pos_as_xyz
  1  'x, y, z'
loop_
 _atom_site_type_symbol
 _atom_site_label
 _atom_site_symmetry_multiplicity
 _atom_site_fract_x
 _atom_site_fract_y
 _atom_site_fract_z
 _atom_site_occupancy
  Li  Li0  1  0.71720825  0.94251383  0.56557048  1
  Li  Li1  1  0.91692234  0.38541975  0.77606488  1
  Li  Li2  1  0.61612475  0.72415317  0.10109652  1
  Li  Li3  1  0.41641166  0.28124625  0.89060112  1
  Mn  Mn4  1  0.81053918  0.94724672  0.21753703  1
  Mn  Mn5  1  0.91074112  0.33301299  0.14888465  1
  Mn  Mn6  1  0.52279482  0.71942028  0.44912997  1
  Mn  Mn7  1  0.42259188  0.33365301  0.51778235  1
  Mn  Mn8  1  0.10693836  0.63936809  0.90256338  1
  Mn  Mn9  1  0.22639464  0.02729891  0.76410362  1
  B  B10  1  0.87704272  0.38512107  0.44024921  1
  B  B11  1  0.77344467  0.98170020  0.86423231  1
  B  B12  1  0.55988833  0.68496680  0.80243369  1
  B  B13  1  0.45629028  0.28154593  0.22641779  1
  B  B14  1  0.23480644  0.03461968  0.10188776  1
  B  B15  1  0.09852756  0.63204632  0.56477924  1
  O  O16  1  0.83987723  0.86840172  0.03272518  1
  O  O17  1  0.87882811  0.78026533  0.47204326  1
  O  O18  1  0.91230486  0.92837078  0.77283551  1
  O  O19  1  0.79056151  0.47398361  0.26853015  1
  O  O20  1  0.72715787  0.42037459  0.53387468  1
  O  O21  1  0.77006146  0.52794079  0.88801770  1
  O  O22  1  0.45450489  0.88640167  0.19462374  1
  O  O23  1  0.60617513  0.24629241  0.13279232  1
  O  O24  1  0.49345577  0.79826528  0.63394182  1
  O  O25  1  0.54277149  0.19268339  0.39813685  1
  O  O26  1  0.42102814  0.73829522  0.89383149  1
  O  O27  1  0.56327154  0.13872621  0.77864930  1
  O  O28  1  0.21611643  0.40542674  0.13721632  1
  O  O29  1  0.24672805  0.59046001  0.47362017  1
  O  O30  1  0.16361194  0.52461416  0.73395158  1
  O  O31  1  0.08660495  0.07620699  0.19304583  1
  O  O32  1  0.11721657  0.26124026  0.52945068  1
  O  O33  1  0.16972106  0.14205184  0.93271542  1
