# generated using pymatgen
data_Li9Mn2Co5O16
_symmetry_space_group_name_H-M   'P 1'
_cell_length_a   2.91147933
_cell_length_b   5.14987952
_cell_length_c   19.70871461
_cell_angle_alpha   95.21602003
_cell_angle_beta   82.76460797
_cell_angle_gamma   91.65575927
_symmetry_Int_Tables_number   1
_chemical_formula_structural   Li9Mn2Co5O16
_chemical_formula_sum   'Li9 Mn2 Co5 O16'
_cell_volume   291.89532289
_cell_formula_units_Z   1
loop_
 _symmetry_equiv_pos_site_id
 _symmetry_equiv_pos_as_xyz
  1  'x, y, z'
loop_
 _atom_site_type_symbol
 _atom_site_label
 _atom_site_symmetry_multiplicity
 _atom_site_fract_x
 _atom_site_fract_y
 _atom_site_fract_z
 _atom_site_occupancy
  Li  Li0  1  0.87771386  0.38523223  0.11915342  1
  Li  Li1  1  0.13321991  0.62290851  0.37102704  1
  Li  Li2  1  0.37570824  0.87597931  0.62712846  1
  Li  Li3  1  0.61724278  0.12455554  0.87807110  1
  Li  Li4  1  0.38275722  0.87544446  0.12192890  1
  Li  Li5  1  0.62429176  0.12402069  0.37287154  1
  Li  Li6  1  0.86678009  0.37709149  0.62897296  1
  Li  Li7  1  0.12228614  0.61476777  0.88084658  1
  Li  Li8  1  0.50000000  0.50000000  0.00000000  1
  Mn  Mn9  1  -0.00000000  0.00000000  0.00000000  1
  Mn  Mn10  1  0.50000000  0.50000000  0.50000000  1
  Co  Co11  1  0.25131289  0.24992334  0.24974037  1
  Co  Co12  1  0.74868711  0.75007666  0.75025963  1
  Co  Co13  1  0.75104839  0.74987466  0.24924756  1
  Co  Co14  1  -0.00000000  0.00000000  0.50000000  1
  Co  Co15  1  0.24895161  0.25012534  0.75075244  1
  O  O16  1  0.45692209  0.16888720  0.05580605  1
  O  O17  1  0.67640368  0.43183147  0.30888623  1
  O  O18  1  0.91592558  0.68508039  0.55722840  1
  O  O19  1  0.17663027  0.92745157  0.80555151  1
  O  O20  1  0.93841496  0.71726192  0.05817660  1
  O  O21  1  0.17330113  0.92923495  0.30882144  1
  O  O22  1  0.47942078  0.18034102  0.55372958  1
  O  O23  1  0.67538845  0.43027340  0.80708278  1
  O  O24  1  0.32461155  0.56972660  0.19291722  1
  O  O25  1  0.52057922  0.81965898  0.44627042  1
  O  O26  1  0.82669887  0.07076505  0.69117856  1
  O  O27  1  0.06158504  0.28273808  0.94182340  1
  O  O28  1  0.82336973  0.07254843  0.19444849  1
  O  O29  1  0.08407442  0.31491961  0.44277160  1
  O  O30  1  0.32359632  0.56816853  0.69111377  1
  O  O31  1  0.54307791  0.83111280  0.94419395  1
