# generated using pymatgen
data_Li3Mn4(BO3)4
_symmetry_space_group_name_H-M   'P 1'
_cell_length_a   9.04933389
_cell_length_b   5.29615834
_cell_length_c   10.87957703
_cell_angle_alpha   100.91701761
_cell_angle_beta   100.18448462
_cell_angle_gamma   89.39505959
_symmetry_Int_Tables_number   1
_chemical_formula_structural   Li3Mn4(BO3)4
_chemical_formula_sum   'Li6 Mn8 B8 O24'
_cell_volume   503.77690358
_cell_formula_units_Z   2
loop_
 _symmetry_equiv_pos_site_id
 _symmetry_equiv_pos_as_xyz
  1  'x, y, z'
loop_
 _atom_site_type_symbol
 _atom_site_label
 _atom_site_symmetry_multiplicity
 _atom_site_fract_x
 _atom_site_fract_y
 _atom_site_fract_z
 _atom_site_occupancy
  Li  Li0  1  0.89195598  0.49540468  0.84137744  1
  Li  Li1  1  0.36705132  0.24873974  0.67284226  1
  Li  Li2  1  0.86038211  0.76173252  0.65901626  1
  Li  Li3  1  0.64088428  0.75119255  0.34540557  1
  Li  Li4  1  0.60521743  0.01022910  0.15941388  1
  Li  Li5  1  0.11842019  0.49703477  0.17039823  1
  Mn  Mn6  1  0.73077771  0.02525521  0.88055895  1
  Mn  Mn7  1  0.24470113  0.52002677  0.87825140  1
  Mn  Mn8  1  0.01601369  0.23476078  0.61873375  1
  Mn  Mn9  1  0.50578451  0.72899850  0.62551303  1
  Mn  Mn10  1  0.47665097  0.27657639  0.37753043  1
  Mn  Mn11  1  0.99486290  0.76739846  0.37995027  1
  Mn  Mn12  1  0.76699340  0.48375240  0.12639169  1
  Mn  Mn13  1  0.25058617  0.97286389  0.12296238  1
  B  B14  1  0.06361592  0.01659251  0.87761085  1
  B  B15  1  0.57645355  0.50562371  0.86358406  1
  B  B16  1  0.68003986  0.24399384  0.62928109  1
  B  B17  1  0.18335304  0.73725619  0.62906121  1
  B  B18  1  0.81267978  0.26024943  0.37120041  1
  B  B19  1  0.32343956  0.75970542  0.36666115  1
  B  B20  1  0.43099266  0.49261629  0.13028956  1
  B  B21  1  0.93138362  0.98536330  0.12817457  1
  O  O22  1  0.71805124  0.43074932  0.91812740  1
  O  O23  1  0.45070475  0.36203657  0.85550658  1
  O  O24  1  0.93684642  0.85882307  0.84915078  1
  O  O25  1  0.68612066  0.99805521  0.65778871  1
  O  O26  1  0.06232392  0.25270321  0.84010552  1
  O  O27  1  0.57271818  0.73097553  0.81119693  1
  O  O28  1  0.19950396  0.92313719  0.93752211  1
  O  O29  1  0.80572211  0.39948077  0.64978808  1
  O  O30  1  0.53653154  0.33650363  0.58599887  1
  O  O31  1  0.19899054  0.50252648  0.66917821  1
  O  O32  1  0.94679311  0.16051264  0.41967742  1
  O  O33  1  0.30717509  0.89186274  0.63189427  1
  O  O34  1  0.68076359  0.11272298  0.34837807  1
  O  O35  1  0.04069002  0.82387610  0.58802809  1
  O  O36  1  0.80821009  0.50622628  0.34014849  1
  O  O37  1  0.46611971  0.69249106  0.43176731  1
  O  O38  1  0.20117441  0.60607431  0.35320095  1
  O  O39  1  0.78653250  0.07054387  0.08700951  1
  O  O40  1  0.43242582  0.24812354  0.15936099  1
  O  O41  1  0.94973838  0.74753171  0.16400806  1
  O  O42  1  0.32307106  0.97420378  0.30903624  1
  O  O43  1  0.05390395  0.14335836  0.13189196  1
  O  O44  1  0.55808583  0.64543822  0.15140594  1
  O  O45  1  0.29004137  0.59020897  0.08710404  1
