# generated using pymatgen
data_Li3Cu(NiO3)2
_symmetry_space_group_name_H-M   'P 1'
_cell_length_a   14.98182005
_cell_length_b   9.65800959
_cell_length_c   9.65800962
_cell_angle_alpha   17.48933964
_cell_angle_beta   16.68086616
_cell_angle_gamma   16.68086421
_symmetry_Int_Tables_number   1
_chemical_formula_structural   Li3Cu(NiO3)2
_chemical_formula_sum   'Li3 Cu1 Ni2 O6'
_cell_volume   103.45531436
_cell_formula_units_Z   1
loop_
 _symmetry_equiv_pos_site_id
 _symmetry_equiv_pos_as_xyz
  1  'x, y, z'
loop_
 _atom_site_type_symbol
 _atom_site_label
 _atom_site_symmetry_multiplicity
 _atom_site_fract_x
 _atom_site_fract_y
 _atom_site_fract_z
 _atom_site_occupancy
  Li  Li0  1  0.16666700  0.50000000  0.50000000  1
  Li  Li1  1  0.49396758  0.50431194  0.50431194  1
  Li  Li2  1  0.83936542  0.49568806  0.49568806  1
  Cu  Cu3  1  0.66666700  0.00000000  0.00000000  1
  Ni  Ni4  1  0.99864660  -0.00005641  -0.00005641  1
  Ni  Ni5  1  0.33468740  0.00005641  0.00005641  1
  O  O6  1  0.24627877  0.25791760  0.25791760  1
  O  O7  1  0.59357362  0.24829192  0.24829192  1
  O  O8  1  0.08705423  0.74208240  0.74208240  1
  O  O9  1  0.93179423  0.24563269  0.24563269  1
  O  O10  1  0.40153977  0.75436731  0.75436731  1
  O  O11  1  0.73976038  0.75170808  0.75170808  1
