# generated using pymatgen
data_Li3Mn4(BO3)4
_symmetry_space_group_name_H-M   'P 1'
_cell_length_a   7.86344745
_cell_length_b   7.93174038
_cell_length_c   9.11004393
_cell_angle_alpha   110.33461027
_cell_angle_beta   109.26600755
_cell_angle_gamma   83.47645204
_symmetry_Int_Tables_number   1
_chemical_formula_structural   Li3Mn4(BO3)4
_chemical_formula_sum   'Li6 Mn8 B8 O24'
_cell_volume   502.95193197
_cell_formula_units_Z   2
loop_
 _symmetry_equiv_pos_site_id
 _symmetry_equiv_pos_as_xyz
  1  'x, y, z'
loop_
 _atom_site_type_symbol
 _atom_site_label
 _atom_site_symmetry_multiplicity
 _atom_site_fract_x
 _atom_site_fract_y
 _atom_site_fract_z
 _atom_site_occupancy
  Li  Li0  1  0.07666137  0.23325274  0.77519280  1
  Li  Li1  1  0.65799793  0.00105783  0.72133269  1
  Li  Li2  1  0.17383059  0.50976625  0.72369541  1
  Li  Li3  1  0.42139343  0.25755383  0.21844918  1
  Li  Li4  1  0.32711120  0.98827457  0.27648260  1
  Li  Li5  1  0.90925561  0.74966929  0.22529138  1
  Mn  Mn6  1  0.02450133  0.22199621  0.41233012  1
  Mn  Mn7  1  0.46173924  0.29415330  0.57777041  1
  Mn  Mn8  1  0.77276902  0.46646042  0.92259677  1
  Mn  Mn9  1  0.28961498  0.95584098  0.91184315  1
  Mn  Mn10  1  0.72147274  0.02686217  0.07553281  1
  Mn  Mn11  1  0.21359481  0.53972923  0.07985759  1
  Mn  Mn12  1  0.53770735  0.70295503  0.42607448  1
  Mn  Mn13  1  0.96835221  0.77947783  0.57432514  1
  B  B14  1  0.46007297  0.28397983  0.90769967  1
  B  B15  1  0.03733454  0.20235664  0.08092021  1
  B  B16  1  0.70152944  0.03161622  0.40326258  1
  B  B17  1  0.21077560  0.53982391  0.40697965  1
  B  B18  1  0.80651750  0.46964933  0.60723845  1
  B  B19  1  0.28272912  0.96680123  0.58372777  1
  B  B20  1  0.95484110  0.78418833  0.90491451  1
  B  B21  1  0.54807760  0.72879826  0.10660417  1
  O  O22  1  0.00929689  0.30839504  0.98186791  1
  O  O23  1  0.25349824  0.06902713  0.48018090  1
  O  O24  1  0.30963893  0.39070620  0.88126626  1
  O  O25  1  0.19269405  0.10336430  0.11260823  1
  O  O26  1  0.57763063  0.25876424  0.81507211  1
  O  O27  1  0.07559160  0.75240555  0.81356368  1
  O  O28  1  0.22848154  0.44613977  0.51506531  1
  O  O29  1  0.55508719  0.14214109  0.37963113  1
  O  O30  1  0.07788424  0.66490341  0.38729720  1
  O  O31  1  0.81658202  0.00360721  0.30629459  1
  O  O32  1  0.32912947  0.49880442  0.31250031  1
  O  O33  1  0.49121271  0.18747582  0.01566984  1
  O  O34  1  0.53282806  0.84747086  0.01749772  1
  O  O35  1  0.68302538  0.47595031  0.68683346  1
  O  O36  1  0.16088066  0.98649909  0.67575124  1
  O  O37  1  0.95242701  0.35641907  0.62269783  1
  O  O38  1  0.43153355  0.86266817  0.61062805  1
  O  O39  1  0.78242432  0.58491846  0.51569053  1
  O  O40  1  0.91136121  0.20820291  0.16357775  1
  O  O41  1  0.42114510  0.74677795  0.18847035  1
  O  O42  1  0.82189433  0.91031585  0.88894666  1
  O  O43  1  0.68437142  0.60813495  0.11768383  1
  O  O44  1  0.73762117  0.93853291  0.51462703  1
  O  O45  1  0.97302260  0.68399986  0.00918754  1
