# generated using pymatgen
data_LiMnP2O7
_symmetry_space_group_name_H-M   'P 1'
_cell_length_a   7.28930169
_cell_length_b   7.89532530
_cell_length_c   9.26896142
_cell_angle_alpha   90.00000000
_cell_angle_beta   106.76903441
_cell_angle_gamma   90.00000000
_symmetry_Int_Tables_number   1
_chemical_formula_structural   LiMnP2O7
_chemical_formula_sum   'Li4 Mn4 P8 O28'
_cell_volume   510.75747045
_cell_formula_units_Z   4
loop_
 _symmetry_equiv_pos_site_id
 _symmetry_equiv_pos_as_xyz
  1  'x, y, z'
loop_
 _atom_site_type_symbol
 _atom_site_label
 _atom_site_symmetry_multiplicity
 _atom_site_fract_x
 _atom_site_fract_y
 _atom_site_fract_z
 _atom_site_occupancy
  Li  Li0  1  0.31323431  0.50993333  0.79236072  1
  Li  Li1  1  0.31323431  0.99006667  0.29236072  1
  Li  Li2  1  0.68676569  0.00993333  0.70763928  1
  Li  Li3  1  0.68676569  0.49006667  0.20763928  1
  Mn  Mn4  1  0.27728887  0.99163259  0.75748621  1
  Mn  Mn5  1  0.27728887  0.50836741  0.25748621  1
  Mn  Mn6  1  0.72271113  0.49163259  0.74251379  1
  Mn  Mn7  1  0.72271113  0.00836741  0.24251379  1
  P  P8  1  0.10285839  0.73062497  0.96078960  1
  P  P9  1  0.10285839  0.76937503  0.46078960  1
  P  P10  1  0.32191613  0.27645835  0.54317859  1
  P  P11  1  0.67808387  0.77645835  0.95682141  1
  P  P12  1  0.32191613  0.22354165  0.04317859  1
  P  P13  1  0.67808387  0.72354165  0.45682141  1
  P  P14  1  0.89714161  0.23062497  0.53921040  1
  P  P15  1  0.89714161  0.26937503  0.03921040  1
  O  O16  1  0.80587773  0.38656458  0.58803586  1
  O  O17  1  0.08729819  0.57413480  0.86376605  1
  O  O18  1  0.10988701  0.30027959  0.55572416  1
  O  O19  1  0.31741328  0.21237360  0.87651308  1
  O  O20  1  0.20205077  0.79230514  0.63078576  1
  O  O21  1  0.80587773  0.11343542  0.08803586  1
  O  O22  1  0.08729819  0.92586520  0.36376605  1
  O  O23  1  0.43404374  0.41413482  0.64422109  1
  O  O24  1  0.10988701  0.19972041  0.05572416  1
  O  O25  1  0.61153130  0.59652663  0.89441252  1
  O  O26  1  0.31741328  0.28762640  0.37651308  1
  O  O27  1  0.20205077  0.70769486  0.13078576  1
  O  O28  1  0.38846870  0.09652663  0.60558748  1
  O  O29  1  0.56595626  0.91413482  0.85577891  1
  O  O30  1  0.43404374  0.08586518  0.14422109  1
  O  O31  1  0.61153130  0.90347337  0.39441252  1
  O  O32  1  0.79794923  0.29230514  0.86921424  1
  O  O33  1  0.68258672  0.71237360  0.62348692  1
  O  O34  1  0.38846870  0.40347337  0.10558648  1
  O  O35  1  0.89011299  0.80027959  0.94427584  1
  O  O36  1  0.56595626  0.58586518  0.35577891  1
  O  O37  1  0.91270181  0.07413480  0.63623395  1
  O  O38  1  0.19412227  0.88656458  0.91196414  1
  O  O39  1  0.79794923  0.20769486  0.36921424  1
  O  O40  1  0.68258672  0.78762640  0.12348692  1
  O  O41  1  0.89011299  0.69972041  0.44427584  1
  O  O42  1  0.91270181  0.42586520  0.13623395  1
  O  O43  1  0.19412227  0.61343542  0.41196414  1
