# generated using pymatgen
data_Li3Mn4(BO3)4
_symmetry_space_group_name_H-M   'P 1'
_cell_length_a   9.26477679
_cell_length_b   9.16783906
_cell_length_c   6.18493279
_cell_angle_alpha   77.06684250
_cell_angle_beta   82.31768960
_cell_angle_gamma   81.19175343
_symmetry_Int_Tables_number   1
_chemical_formula_structural   Li3Mn4(BO3)4
_chemical_formula_sum   'Li6 Mn8 B8 O24'
_cell_volume   503.26822564
_cell_formula_units_Z   2
loop_
 _symmetry_equiv_pos_site_id
 _symmetry_equiv_pos_as_xyz
  1  'x, y, z'
loop_
 _atom_site_type_symbol
 _atom_site_label
 _atom_site_symmetry_multiplicity
 _atom_site_fract_x
 _atom_site_fract_y
 _atom_site_fract_z
 _atom_site_occupancy
  Li  Li0  1  0.28425937  0.19058944  0.03561045  1
  Li  Li1  1  0.03613030  0.69555914  0.27198072  1
  Li  Li2  1  0.46386970  0.30444086  0.22801928  1
  Li  Li3  1  0.21574063  0.80941056  0.46438955  1
  Li  Li4  1  0.79801163  0.18594348  0.54548001  1
  Li  Li5  1  0.70198837  0.81405652  0.95451999  1
  Mn  Mn6  1  0.00895967  0.38071004  0.23950198  1
  Mn  Mn7  1  0.22872279  0.12268611  0.52785997  1
  Mn  Mn8  1  0.74679424  0.12810993  0.01702146  1
  Mn  Mn9  1  0.49104033  0.61928996  0.26049802  1
  Mn  Mn10  1  0.51524658  0.39376719  0.73782897  1
  Mn  Mn11  1  0.27127721  0.87731389  0.97214003  1
  Mn  Mn12  1  0.75320576  0.87189007  0.48297854  1
  Mn  Mn13  1  0.98475342  0.60623281  0.76217103  1
  B  B14  1  0.01568681  0.03863859  0.24518266  1
  B  B15  1  0.23442378  0.46767519  0.48386384  1
  B  B16  1  0.73490938  0.45923533  0.03024073  1
  B  B17  1  0.48431319  0.96136141  0.25481734  1
  B  B18  1  0.51543324  0.05418340  0.74128284  1
  B  B19  1  0.26557622  0.53232481  0.01613616  1
  B  B20  1  0.76509062  0.54076467  0.46975927  1
  B  B21  1  0.98456676  0.94581660  0.75871716  1
  O  O22  1  0.09745020  0.15816509  0.22759515  1
  O  O23  1  0.11249406  0.56215752  0.05484590  1
  O  O24  1  0.08484400  0.89977656  0.21228026  1
  O  O25  1  0.15273673  0.35466878  0.46648418  1
  O  O26  1  0.41515600  0.10022344  0.28771974  1
  O  O27  1  0.16879625  0.60337925  0.52644442  1
  O  O28  1  0.38750594  0.43784348  0.44515410  1
  O  O29  1  0.13826962  0.92184714  0.69755899  1
  O  O30  1  0.64673035  0.35013121  0.03277816  1
  O  O31  1  0.40254980  0.84183491  0.27240485  1
  O  O32  1  0.36173038  0.07815286  0.80244101  1
  O  O33  1  0.67660271  0.60224903  0.05758462  1
  O  O34  1  0.33120375  0.39662075  0.97355558  1
  O  O35  1  0.63443648  0.93875204  0.18884662  1
  O  O36  1  0.59879498  0.17111499  0.72471385  1
  O  O37  1  0.34726327  0.64533122  0.03351582  1
  O  O38  1  0.86556352  0.06124796  0.31115338  1
  O  O39  1  0.61162189  0.57328750  0.51597159  1
  O  O40  1  0.82339729  0.39775097  0.44241538  1
  O  O41  1  0.57856698  0.91465181  0.71254874  1
  O  O42  1  0.85326965  0.64986879  0.46722184  1
  O  O43  1  0.92143302  0.08534819  0.78745126  1
  O  O44  1  0.88837811  0.42671250  0.98402841  1
  O  O45  1  0.90120502  0.82888501  0.77528615  1
