# generated using pymatgen
data_Li8WO6
_symmetry_space_group_name_H-M   'P 1'
_cell_length_a   5.52813296
_cell_length_b   6.09593378
_cell_length_c   5.49904067
_cell_angle_alpha   117.22612589
_cell_angle_beta   119.95485515
_cell_angle_gamma   62.75847348
_symmetry_Int_Tables_number   1
_chemical_formula_structural   Li8WO6
_chemical_formula_sum   'Li8 W1 O6'
_cell_volume   136.29979752
_cell_formula_units_Z   1
loop_
 _symmetry_equiv_pos_site_id
 _symmetry_equiv_pos_as_xyz
  1  'x, y, z'
loop_
 _atom_site_type_symbol
 _atom_site_label
 _atom_site_symmetry_multiplicity
 _atom_site_fract_x
 _atom_site_fract_y
 _atom_site_fract_z
 _atom_site_occupancy
  Li  Li0  1  0.23644142  0.35817265  0.49340496  1
  Li  Li1  1  0.10087571  0.64115024  0.23618424  1
  Li  Li2  1  0.49510436  0.63836404  0.89828523  1
  Li  Li3  1  0.34931390  0.96730859  0.66483733  1
  Li  Li4  1  0.65068610  0.03269141  0.33516267  1
  Li  Li5  1  0.50489664  0.36163696  0.10171477  1
  Li  Li6  1  0.89912429  0.35884976  0.76381576  1
  Li  Li7  1  0.76355858  0.64182735  0.50659504  1
  W  W8  1  0.00000000  0.00000000  0.00000000  1
  O  O9  1  0.09359639  0.75515041  0.61759881  1
  O  O10  1  0.23469483  0.24326307  0.09095462  1
  O  O11  1  0.61763615  0.24285052  0.76603033  1
  O  O12  1  0.38236385  0.75714948  0.23396967  1
  O  O13  1  0.76530517  0.75673693  0.90904538  1
  O  O14  1  0.90640361  0.24484959  0.38240119  1
