# generated using pymatgen
data_Na6Cu2C4SO16
_symmetry_space_group_name_H-M   'P 1'
_cell_length_a   9.87146547
_cell_length_b   9.87146547
_cell_length_c   9.87146599
_cell_angle_alpha   119.99999844
_cell_angle_beta   60.00000156
_cell_angle_gamma   120.00000057
_symmetry_Int_Tables_number   1
_chemical_formula_structural   Na6Cu2C4SO16
_chemical_formula_sum   'Na12 Cu4 C8 S2 O32'
_cell_volume   680.18950245
_cell_formula_units_Z   2
loop_
 _symmetry_equiv_pos_site_id
 _symmetry_equiv_pos_as_xyz
  1  'x, y, z'
loop_
 _atom_site_type_symbol
 _atom_site_label
 _atom_site_symmetry_multiplicity
 _atom_site_fract_x
 _atom_site_fract_y
 _atom_site_fract_z
 _atom_site_occupancy
  Na  Na0  1  0.33935804  0.16064196  0.91064196  1
  Na  Na1  1  0.08935804  0.41064196  0.66064196  1
  Na  Na2  1  0.33935804  0.58935804  0.33935804  1
  Na  Na3  1  0.08935804  0.83935804  0.08935804  1
  Na  Na4  1  0.33935804  0.58935804  0.91064196  1
  Na  Na5  1  0.08935804  0.83935804  0.66064196  1
  Na  Na6  1  0.91064196  0.16064196  0.33935804  1
  Na  Na7  1  0.91064196  0.16064196  0.91064196  1
  Na  Na8  1  0.66064196  0.41064196  0.08935804  1
  Na  Na9  1  0.66064196  0.41064196  0.66064196  1
  Na  Na10  1  0.91064196  0.58935804  0.33935804  1
  Na  Na11  1  0.66064196  0.83935804  0.08935804  1
  Cu  Cu12  1  0.00000000  0.00000000  0.50000000  1
  Cu  Cu13  1  0.50000000  0.00000000  0.50000000  1
  Cu  Cu14  1  0.50000000  0.00000000  0.00000000  1
  Cu  Cu15  1  0.50000000  0.50000000  0.50000000  1
  C  C16  1  0.27974042  0.22025958  0.66077875  1
  C  C17  1  0.27974042  0.22025958  0.27974042  1
  C  C18  1  0.66077875  0.22025958  0.27974042  1
  C  C19  1  0.72025958  0.16077875  0.72025958  1
  C  C20  1  0.33922125  0.77974042  0.72025958  1
  C  C21  1  0.27974042  0.83922125  0.27974042  1
  C  C22  1  0.72025958  0.77974042  0.33922125  1
  C  C23  1  0.72025958  0.77974042  0.72025958  1
  S  S24  1  0.12500000  0.37500000  0.12500000  1
  S  S25  1  0.87500000  0.62500000  0.87500000  1
  O  O26  1  0.13891675  0.10013000  0.66292675  1
  O  O27  1  0.06321385  0.18964254  0.06321385  1
  O  O28  1  0.13891675  0.20171350  0.39987000  1
  O  O29  1  0.29828650  0.10013000  0.13891675  1
  O  O30  1  0.06321385  0.43678615  0.31035746  1
  O  O31  1  0.06321385  0.43678615  0.06321385  1
  O  O32  1  0.39987000  0.20171350  0.66292675  1
  O  O33  1  0.29828650  0.36108325  0.66292675  1
  O  O34  1  0.31035746  0.43678615  0.06321385  1
  O  O35  1  0.66292675  0.10013000  0.29828650  1
  O  O36  1  0.60013000  0.16292675  0.86108325  1
  O  O37  1  0.39987000  0.36108325  0.29828650  1
  O  O38  1  0.66292675  0.20171350  0.13891675  1
  O  O39  1  0.70171350  0.16292675  0.60013000  1
  O  O40  1  0.13891675  0.83707325  0.29828650  1
  O  O41  1  0.33707325  0.63891675  0.60013000  1
  O  O42  1  0.86108325  0.16292675  0.70171350  1
  O  O43  1  0.66292675  0.36108325  0.39987000  1
  O  O44  1  0.29828650  0.83707325  0.39987000  1
  O  O45  1  0.33707325  0.79828650  0.86108325  1
  O  O46  1  0.60013000  0.63891675  0.70171350  1
  O  O47  1  0.39987000  0.83707325  0.13891675  1
  O  O48  1  0.33707325  0.89987000  0.70171350  1
  O  O49  1  0.68964254  0.56321385  0.93678615  1
  O  O50  1  0.70171350  0.63891675  0.33707325  1
  O  O51  1  0.60013000  0.79828650  0.33707325  1
  O  O52  1  0.93678615  0.56321385  0.93678615  1
  O  O53  1  0.93678615  0.56321385  0.68964254  1
  O  O54  1  0.70171350  0.89987000  0.86108325  1
  O  O55  1  0.86108325  0.79828650  0.60013000  1
  O  O56  1  0.93678615  0.81035746  0.93678615  1
  O  O57  1  0.86108325  0.89987000  0.33707325  1
