# generated using pymatgen
data_Na2SnO2
_symmetry_space_group_name_H-M   'P 1'
_cell_length_a   5.26591651
_cell_length_b   6.69714378
_cell_length_c   9.76057728
_cell_angle_alpha   90.00000000
_cell_angle_beta   90.00000000
_cell_angle_gamma   90.00000000
_symmetry_Int_Tables_number   1
_chemical_formula_structural   Na2SnO2
_chemical_formula_sum   'Na8 Sn4 O8'
_cell_volume   344.22237471
_cell_formula_units_Z   4
loop_
 _symmetry_equiv_pos_site_id
 _symmetry_equiv_pos_as_xyz
  1  'x, y, z'
loop_
 _atom_site_type_symbol
 _atom_site_label
 _atom_site_symmetry_multiplicity
 _atom_site_fract_x
 _atom_site_fract_y
 _atom_site_fract_z
 _atom_site_occupancy
  Na  Na0  1  0.00687762  0.62039763  0.42667193  1
  Na  Na1  1  0.00897895  0.13700164  0.75436455  1
  Na  Na2  1  0.49102105  0.86299836  0.25436455  1
  Na  Na3  1  0.49312238  0.37960237  0.92667193  1
  Na  Na4  1  0.50687762  0.87960237  0.57332807  1
  Na  Na5  1  0.50897895  0.36299836  0.24563545  1
  Na  Na6  1  0.99102105  0.63700164  0.74563545  1
  Na  Na7  1  0.99312238  0.12039763  0.07332807  1
  Sn  Sn8  1  0.00357693  0.09831440  0.42841106  1
  Sn  Sn9  1  0.49642307  0.90168560  0.92841106  1
  Sn  Sn10  1  0.50357693  0.40168560  0.57158894  1
  Sn  Sn11  1  0.99642307  0.59831440  0.07158894  1
  O  O12  1  0.01847100  0.89071912  0.58093497  1
  O  O13  1  0.11032026  0.33892843  0.55554547  1
  O  O14  1  0.38967974  0.66107157  0.05554547  1
  O  O15  1  0.48152900  0.10928088  0.08093497  1
  O  O16  1  0.51847100  0.60928088  0.41906503  1
  O  O17  1  0.61032026  0.16107157  0.44445453  1
  O  O18  1  0.88967974  0.83892843  0.94445453  1
  O  O19  1  0.98152900  0.39071912  0.91906503  1
