# generated using pymatgen
data_CrPO4F
_symmetry_space_group_name_H-M   'P 1'
_cell_length_a   5.15174092
_cell_length_b   5.16430125
_cell_length_c   7.31083383
_cell_angle_alpha   109.41925069
_cell_angle_beta   107.29439690
_cell_angle_gamma   96.40638073
_symmetry_Int_Tables_number   1
_chemical_formula_structural   CrPO4F
_chemical_formula_sum   'Cr2 P2 O8 F2'
_cell_volume   170.29811899
_cell_formula_units_Z   2
loop_
 _symmetry_equiv_pos_site_id
 _symmetry_equiv_pos_as_xyz
  1  'x, y, z'
loop_
 _atom_site_type_symbol
 _atom_site_label
 _atom_site_symmetry_multiplicity
 _atom_site_fract_x
 _atom_site_fract_y
 _atom_site_fract_z
 _atom_site_occupancy
  Cr  Cr0  1  0.00000000  0.00000000  0.00000000  1
  Cr  Cr1  1  0.50000000  0.50000000  0.50000000  1
  P  P2  1  0.43644181  0.11837827  0.76429112  1
  P  P3  1  0.56355819  0.88162173  0.23570888  1
  O  O4  1  0.28410985  0.15376961  0.91921624  1
  O  O5  1  0.34360956  0.81026057  0.60178731  1
  O  O6  1  0.35495722  0.31516391  0.64989470  1
  O  O7  1  0.24337467  0.79550748  0.11187241  1
  O  O8  1  0.75662533  0.20449252  0.88812759  1
  O  O9  1  0.64504278  0.68483609  0.35010530  1
  O  O10  1  0.65639044  0.18973943  0.39821269  1
  O  O11  1  0.71589015  0.84623039  0.08078376  1
  F  F12  1  0.14779500  0.32239188  0.26478043  1
  F  F13  1  0.85220500  0.67760812  0.73521957  1
