# generated using pymatgen
data_Ca2CrO4
_symmetry_space_group_name_H-M   'P 1'
_cell_length_a   13.59428253
_cell_length_b   5.64440421
_cell_length_c   9.66316447
_cell_angle_alpha   90.00000000
_cell_angle_beta   90.00000000
_cell_angle_gamma   90.00000000
_symmetry_Int_Tables_number   1
_chemical_formula_structural   Ca2CrO4
_chemical_formula_sum   'Ca16 Cr8 O32'
_cell_volume   741.47031768
_cell_formula_units_Z   8
loop_
 _symmetry_equiv_pos_site_id
 _symmetry_equiv_pos_as_xyz
  1  'x, y, z'
loop_
 _atom_site_type_symbol
 _atom_site_label
 _atom_site_symmetry_multiplicity
 _atom_site_fract_x
 _atom_site_fract_y
 _atom_site_fract_z
 _atom_site_occupancy
  Ca  Ca0  1  0.04891032  0.71990679  0.77212107  1
  Ca  Ca1  1  0.12070128  0.68537229  0.41779130  1
  Ca  Ca2  1  0.12827159  0.22669066  0.99552320  1
  Ca  Ca3  1  0.20233826  0.18128888  0.64509823  1
  Ca  Ca4  1  0.29766174  0.68128888  0.14509823  1
  Ca  Ca5  1  0.37172841  0.72669066  0.49552320  1
  Ca  Ca6  1  0.37929872  0.18537229  0.91779130  1
  Ca  Ca7  1  0.45108968  0.21990679  0.27212107  1
  Ca  Ca8  1  0.54891032  0.78009321  0.77212107  1
  Ca  Ca9  1  0.62070128  0.81462771  0.41779130  1
  Ca  Ca10  1  0.62827159  0.27330934  0.99552320  1
  Ca  Ca11  1  0.70233826  0.31871112  0.64509823  1
  Ca  Ca12  1  0.79766174  0.81871112  0.14509823  1
  Ca  Ca13  1  0.87172841  0.77330934  0.49552320  1
  Ca  Ca14  1  0.87929872  0.31462771  0.91779130  1
  Ca  Ca15  1  0.95108968  0.28009321  0.27212107  1
  Cr  Cr16  1  0.02966088  0.77636325  0.12751512  1
  Cr  Cr17  1  0.22640160  0.17658199  0.28387161  1
  Cr  Cr18  1  0.27359840  0.67658199  0.78387161  1
  Cr  Cr19  1  0.47033912  0.27636325  0.62751512  1
  Cr  Cr20  1  0.52966088  0.72363675  0.12751512  1
  Cr  Cr21  1  0.72640160  0.32341801  0.28387161  1
  Cr  Cr22  1  0.77359840  0.82341801  0.78387161  1
  Cr  Cr23  1  0.97033912  0.22363675  0.62751512  1
  O  O24  1  0.01697844  0.55784421  0.99758462  1
  O  O25  1  0.02689189  0.95646746  0.55943922  1
  O  O26  1  0.04834669  0.28572523  0.77264392  1
  O  O27  1  0.11966932  0.35289205  0.24522279  1
  O  O28  1  0.14810159  0.86997067  0.19470520  1
  O  O29  1  0.19126407  0.61368392  0.63971168  1
  O  O30  1  0.19831444  0.94240123  0.84510188  1
  O  O31  1  0.25797721  0.49311944  0.93650814  1
  O  O32  1  0.24202279  0.99311944  0.43650814  1
  O  O33  1  0.30168556  0.44240123  0.34510188  1
  O  O34  1  0.30873593  0.11368392  0.13971168  1
  O  O35  1  0.35189841  0.36997067  0.69470520  1
  O  O36  1  0.38033068  0.85289205  0.74522279  1
  O  O37  1  0.45165331  0.78572523  0.27264392  1
  O  O38  1  0.47310811  0.45646746  0.05943922  1
  O  O39  1  0.48302156  0.05784421  0.49758462  1
  O  O40  1  0.51697844  0.94215579  0.99758462  1
  O  O41  1  0.52689189  0.54353254  0.55943922  1
  O  O42  1  0.54834669  0.21427477  0.77264392  1
  O  O43  1  0.61966932  0.14710795  0.24522279  1
  O  O44  1  0.64810159  0.63002933  0.19470520  1
  O  O45  1  0.69126407  0.88631608  0.63971168  1
  O  O46  1  0.69831444  0.55759877  0.84510188  1
  O  O47  1  0.75797721  0.00688056  0.93650814  1
  O  O48  1  0.74202279  0.50688056  0.43650814  1
  O  O49  1  0.80168556  0.05759877  0.34510188  1
  O  O50  1  0.80873593  0.38631608  0.13971168  1
  O  O51  1  0.85189841  0.13002933  0.69470520  1
  O  O52  1  0.88033068  0.64710795  0.74522279  1
  O  O53  1  0.95165331  0.71427477  0.27264392  1
  O  O54  1  0.97310811  0.04353254  0.05943922  1
  O  O55  1  0.98302156  0.44215579  0.49758462  1
