# generated using pymatgen
data_Li5Fe8(BO3)8
_symmetry_space_group_name_H-M   'P 1'
_cell_length_a   5.29378636
_cell_length_b   9.06757946
_cell_length_c   10.12543891
_cell_angle_alpha   89.60771340
_cell_angle_beta   91.63201942
_cell_angle_gamma   89.65901350
_symmetry_Int_Tables_number   1
_chemical_formula_structural   Li5Fe8(BO3)8
_chemical_formula_sum   'Li5 Fe8 B8 O24'
_cell_volume   485.82184997
_cell_formula_units_Z   1
loop_
 _symmetry_equiv_pos_site_id
 _symmetry_equiv_pos_as_xyz
  1  'x, y, z'
loop_
 _atom_site_type_symbol
 _atom_site_label
 _atom_site_symmetry_multiplicity
 _atom_site_fract_x
 _atom_site_fract_y
 _atom_site_fract_z
 _atom_site_occupancy
  Li  Li0  1  0.33384435  0.00482920  0.84647092  1
  Li  Li1  1  0.65952201  0.00159332  0.09588796  1
  Li  Li2  1  0.16339927  0.49723778  0.11622166  1
  Li  Li3  1  0.83994010  0.51196993  0.84704871  1
  Li  Li4  1  0.64571629  0.99216690  0.58239979  1
  Fe  Fe5  1  0.16456544  0.15637060  0.12245317  1
  Fe  Fe6  1  0.84388313  0.17084492  0.36606534  1
  Fe  Fe7  1  0.33554869  0.34284338  0.86946066  1
  Fe  Fe8  1  0.65613613  0.33719153  0.62353851  1
  Fe  Fe9  1  0.33771742  0.67020211  0.36591440  1
  Fe  Fe10  1  0.15140711  0.82842397  0.61782468  1
  Fe  Fe11  1  0.66548711  0.65927734  0.12067647  1
  Fe  Fe12  1  0.83975285  0.83976078  0.87215766  1
  B  B13  1  0.16974894  0.16689618  0.62432685  1
  B  B14  1  0.33920258  0.33305819  0.36887347  1
  B  B15  1  0.83525991  0.16852316  0.87052501  1
  B  B16  1  0.66318313  0.33059607  0.12019101  1
  B  B17  1  0.33434283  0.66882280  0.87575802  1
  B  B18  1  0.65347207  0.67051832  0.62158084  1
  B  B19  1  0.16429011  0.83375898  0.11979935  1
  B  B20  1  0.83034511  0.83536722  0.36996365  1
  O  O21  1  0.29194196  0.03435849  0.63734363  1
  O  O22  1  0.09096511  0.16605929  0.90399472  1
  O  O23  1  0.68818063  0.04488521  0.88500850  1
  O  O24  1  0.19618056  0.20867151  0.33858394  1
  O  O25  1  0.29888269  0.29663715  0.65519266  1
  O  O26  1  0.77656962  0.19563535  0.16749630  1
  O  O27  1  0.91006463  0.17624261  0.58401317  1
  O  O28  1  0.40927570  0.32747972  0.08217568  1
  O  O29  1  0.24799739  0.46987432  0.34225504  1
  O  O30  1  0.58619615  0.31140828  0.42364335  1
  O  O31  1  0.72148799  0.30136846  0.82429686  1
  O  O32  1  0.19103698  0.54266200  0.89001449  1
  O  O33  1  0.80615411  0.45408764  0.11103510  1
  O  O34  1  0.27474835  0.69874764  0.16039962  1
  O  O35  1  0.41730063  0.67875001  0.56019199  1
  O  O36  1  0.76309234  0.53455036  0.65030963  1
  O  O37  1  0.59250053  0.66590415  0.90726007  1
  O  O38  1  0.08115650  0.81460717  0.40555443  1
  O  O39  1  0.21695964  0.79950124  0.83308131  1
  O  O40  1  0.68506118  0.71832723  0.32708458  1
  O  O41  1  0.77520207  0.80082671  0.65734118  1
  O  O42  1  0.31132945  0.95721591  0.10978322  1
  O  O43  1  0.90682886  0.83872962  0.08691240  1
  O  O44  1  0.72523636  0.97514827  0.38432399  1
