# generated using pymatgen
data_NbCr3(PO4)6
_symmetry_space_group_name_H-M   'P 1'
_cell_length_a   8.84855836
_cell_length_b   8.84855792
_cell_length_c   8.84855834
_cell_angle_alpha   58.37571975
_cell_angle_beta   58.37572208
_cell_angle_gamma   58.37572286
_symmetry_Int_Tables_number   1
_chemical_formula_structural   NbCr3(PO4)6
_chemical_formula_sum   'Nb1 Cr3 P6 O24'
_cell_volume   471.67894081
_cell_formula_units_Z   1
loop_
 _symmetry_equiv_pos_site_id
 _symmetry_equiv_pos_as_xyz
  1  'x, y, z'
loop_
 _atom_site_type_symbol
 _atom_site_label
 _atom_site_symmetry_multiplicity
 _atom_site_fract_x
 _atom_site_fract_y
 _atom_site_fract_z
 _atom_site_occupancy
  Nb  Nb0  1  0.86056115  0.86056115  0.86056115  1
  Cr  Cr1  1  0.14329061  0.14329061  0.14329061  1
  Cr  Cr2  1  0.35721913  0.35721913  0.35721913  1
  Cr  Cr3  1  0.64287553  0.64287553  0.64287553  1
  P  P4  1  0.03597548  0.74985564  0.46027490  1
  P  P5  1  0.46027490  0.03597548  0.74985564  1
  P  P6  1  0.74985564  0.46027490  0.03597548  1
  P  P7  1  0.25950130  0.52620060  0.96730298  1
  P  P8  1  0.52620060  0.96730298  0.25950130  1
  P  P9  1  0.96730298  0.25950130  0.52620060  1
  O  O10  1  0.13823883  0.28268225  0.50415954  1
  O  O11  1  0.28268225  0.50415954  0.13823883  1
  O  O12  1  0.06466777  0.92185860  0.27978392  1
  O  O13  1  0.50415954  0.13823883  0.28268225  1
  O  O14  1  0.21714810  0.57753550  0.43404728  1
  O  O15  1  0.00637256  0.77868423  0.63349175  1
  O  O16  1  0.27978392  0.06466777  0.92185860  1
  O  O17  1  0.43404728  0.21714810  0.57753550  1
  O  O18  1  0.57753550  0.43404728  0.21714810  1
  O  O19  1  0.22382906  0.36123513  0.99332159  1
  O  O20  1  0.08329721  0.70887682  0.94002329  1
  O  O21  1  0.36123513  0.99332159  0.22382906  1
  O  O22  1  0.63349175  0.00637256  0.77868423  1
  O  O23  1  0.92185860  0.27978392  0.06466777  1
  O  O24  1  0.77868423  0.63349175  0.00637256  1
  O  O25  1  0.42843124  0.55704928  0.78629338  1
  O  O26  1  0.55704928  0.78629338  0.42843124  1
  O  O27  1  0.70887682  0.94002329  0.08329721  1
  O  O28  1  0.99332159  0.22382906  0.36123513  1
  O  O29  1  0.78629338  0.42843124  0.55704928  1
  O  O30  1  0.49012092  0.86462381  0.72116665  1
  O  O31  1  0.94002329  0.08329721  0.70887682  1
  O  O32  1  0.72116665  0.49012092  0.86462381  1
  O  O33  1  0.86462381  0.72116665  0.49012092  1
