# generated using pymatgen
data_Fe3OF5
_symmetry_space_group_name_H-M   'P 1'
_cell_length_a   4.84973350
_cell_length_b   14.47526994
_cell_length_c   3.19209723
_cell_angle_alpha   90.00000000
_cell_angle_beta   90.00000000
_cell_angle_gamma   91.03799966
_symmetry_Int_Tables_number   1
_chemical_formula_structural   Fe3OF5
_chemical_formula_sum   'Fe6 O2 F10'
_cell_volume   224.05228814
_cell_formula_units_Z   2
loop_
 _symmetry_equiv_pos_site_id
 _symmetry_equiv_pos_as_xyz
  1  'x, y, z'
loop_
 _atom_site_type_symbol
 _atom_site_label
 _atom_site_symmetry_multiplicity
 _atom_site_fract_x
 _atom_site_fract_y
 _atom_site_fract_z
 _atom_site_occupancy
  Fe  Fe0  1  0.00000000  0.00000000  0.00000000  1
  Fe  Fe1  1  0.98711422  0.33061981  0.00000000  1
  Fe  Fe2  1  0.01288578  0.66938019  0.00000000  1
  Fe  Fe3  1  0.52859779  0.17753088  0.50000000  1
  Fe  Fe4  1  0.50000000  0.50000000  0.50000000  1
  Fe  Fe5  1  0.47140221  0.82246912  0.50000000  1
  O  O6  1  0.30778125  0.77197797  0.00000000  1
  O  O7  1  0.69221875  0.22802203  0.00000000  1
  F  F8  1  0.20889596  0.26153554  0.50000000  1
  F  F9  1  0.20080761  0.59678761  0.50000000  1
  F  F10  1  0.21304067  0.93408719  0.50000000  1
  F  F11  1  0.30606954  0.10170385  0.00000000  1
  F  F12  1  0.29506649  0.42956465  0.00000000  1
  F  F13  1  0.70493351  0.57043535  0.00000000  1
  F  F14  1  0.69393046  0.89829615  0.00000000  1
  F  F15  1  0.78695933  0.06591281  0.50000000  1
  F  F16  1  0.79919239  0.40321239  0.50000000  1
  F  F17  1  0.79110404  0.73846446  0.50000000  1
