# generated using pymatgen
data_Li3Mn4(BO3)4
_symmetry_space_group_name_H-M   'P 1'
_cell_length_a   5.89150782
_cell_length_b   9.16935564
_cell_length_c   5.21755794
_cell_angle_alpha   89.88477215
_cell_angle_beta   112.41124730
_cell_angle_gamma   103.75050077
_symmetry_Int_Tables_number   1
_chemical_formula_structural   Li3Mn4(BO3)4
_chemical_formula_sum   'Li3 Mn4 B4 O12'
_cell_volume   251.86767002
_cell_formula_units_Z   1
loop_
 _symmetry_equiv_pos_site_id
 _symmetry_equiv_pos_as_xyz
  1  'x, y, z'
loop_
 _atom_site_type_symbol
 _atom_site_label
 _atom_site_symmetry_multiplicity
 _atom_site_fract_x
 _atom_site_fract_y
 _atom_site_fract_z
 _atom_site_occupancy
  Li  Li0  1  0.68037360  0.68550976  0.75348181  1
  Li  Li1  1  0.34805340  0.31113583  0.25332283  1
  Li  Li2  1  0.31510262  0.80531390  0.74265463  1
  Mn  Mn3  1  0.76376131  0.37284667  0.78568889  1
  Mn  Mn4  1  0.75458613  0.88976963  0.27993079  1
  Mn  Mn5  1  0.25128759  0.11673609  0.73226601  1
  Mn  Mn6  1  0.24307300  0.62203581  0.21927728  1
  B  B7  1  0.73544490  0.03470842  0.76694694  1
  B  B8  1  0.74311642  0.54781527  0.27571739  1
  B  B9  1  0.26051628  0.45502030  0.73096367  1
  B  B10  1  0.25641931  0.96437097  0.22368030  1
  O  O11  1  0.87756018  0.07120126  0.60124402  1
  O  O12  1  0.83021907  0.57023974  0.05763879  1
  O  O13  1  0.71140133  0.41125151  0.37798933  1
  O  O14  1  0.62070968  0.14290026  0.81571534  1
  O  O15  1  0.67898198  0.66797217  0.37581589  1
  O  O16  1  0.26660031  0.10169151  0.11951977  1
  O  O17  1  0.69545898  0.89398582  0.85707412  1
  O  O18  1  0.32266338  0.33765980  0.62430577  1
  O  O19  1  0.32719824  0.85038774  0.12117725  1
  O  O20  1  0.29816897  0.59770282  0.64043209  1
  O  O21  1  0.17563173  0.42933808  0.94834758  1
  O  O22  1  0.17515760  0.93740463  0.44507450  1
