# generated using pymatgen
data_LiFeP2H5O9
_symmetry_space_group_name_H-M   'P 1'
_cell_length_a   15.04533796
_cell_length_b   7.81374004
_cell_length_c   6.51819428
_cell_angle_alpha   90.03009462
_cell_angle_beta   89.95142201
_cell_angle_gamma   90.01388738
_symmetry_Int_Tables_number   1
_chemical_formula_structural   LiFeP2H5O9
_chemical_formula_sum   'Li4 Fe4 P8 H20 O36'
_cell_volume   766.28085950
_cell_formula_units_Z   4
loop_
 _symmetry_equiv_pos_site_id
 _symmetry_equiv_pos_as_xyz
  1  'x, y, z'
loop_
 _atom_site_type_symbol
 _atom_site_label
 _atom_site_symmetry_multiplicity
 _atom_site_fract_x
 _atom_site_fract_y
 _atom_site_fract_z
 _atom_site_occupancy
  Li  Li0  1  0.02928544  0.77112861  0.24367546  1
  Li  Li1  1  0.47081602  0.27111908  0.74361639  1
  Li  Li2  1  0.52920056  0.77113313  0.25635230  1
  Li  Li3  1  0.97079459  0.27115297  0.75635531  1
  Fe  Fe4  1  0.18968845  0.24519498  0.93830226  1
  Fe  Fe5  1  0.31032662  0.74518508  0.43831722  1
  Fe  Fe6  1  0.68970196  0.24520711  0.56162893  1
  Fe  Fe7  1  0.81035189  0.74519856  0.06156018  1
  P  P8  1  0.13183099  0.56383264  0.64354723  1
  P  P9  1  0.13562105  0.93569650  0.63074061  1
  P  P10  1  0.36814325  0.06387131  0.14351546  1
  P  P11  1  0.36438323  0.43571778  0.13079086  1
  P  P12  1  0.63174412  0.56376777  0.85633148  1
  P  P13  1  0.63562696  0.93574162  0.86920032  1
  P  P14  1  0.86815844  0.06384214  0.35652505  1
  P  P15  1  0.86437786  0.43567490  0.36933207  1
  H  H16  1  0.00565410  0.50782921  0.49350839  1
  H  H17  1  0.09438440  0.14443858  0.28434896  1
  H  H18  1  0.09285727  0.34866860  0.27925482  1
  H  H19  1  0.21891414  0.64331745  0.10697476  1
  H  H20  1  0.22184045  0.85042252  0.10732877  1
  H  H21  1  0.28110635  0.14330658  0.60697689  1
  H  H22  1  0.27816654  0.35038127  0.60736123  1
  H  H23  1  0.40564013  0.64442868  0.78431781  1
  H  H24  1  0.40711702  0.84863759  0.77921634  1
  H  H25  1  0.49433852  0.00784170  0.99347248  1
  H  H26  1  0.50565261  0.50783113  0.00652103  1
  H  H27  1  0.59438287  0.14446354  0.21566850  1
  H  H28  1  0.59287075  0.34865699  0.22075846  1
  H  H29  1  0.71889549  0.64331292  0.39308581  1
  H  H30  1  0.72183522  0.85040747  0.39272179  1
  H  H31  1  0.78108070  0.14330671  0.89304088  1
  H  H32  1  0.77815201  0.35037116  0.89266138  1
  H  H33  1  0.90562965  0.64441031  0.71558981  1
  H  H34  1  0.90713021  0.84869778  0.72067917  1
  H  H35  1  0.99433799  0.00783494  0.50649458  1
  O  O36  1  0.06996315  0.55433323  0.44409297  1
  O  O37  1  0.07475707  0.94589754  0.43797590  1
  O  O38  1  0.09832655  0.24553248  0.19406739  1
  O  O39  1  0.11208378  0.75164028  0.74004782  1
  O  O40  1  0.10793852  0.07101761  0.78573233  1
  O  O41  1  0.09947247  0.43329029  0.79856492  1
  O  O42  1  0.20418059  0.74760156  0.18645755  1
  O  O43  1  0.22819661  0.55461432  0.57825696  1
  O  O44  1  0.23389867  0.93497774  0.57621768  1
  O  O45  1  0.27181985  0.05460137  0.07836171  1
  O  O46  1  0.26609106  0.43494022  0.07624836  1
  O  O47  1  0.29582421  0.24761058  0.68643493  1
  O  O48  1  0.39206308  0.57095032  0.28571400  1
  O  O49  1  0.40045618  0.93334950  0.29850109  1
  O  O50  1  0.38787115  0.25166049  0.24003042  1
  O  O51  1  0.40162891  0.74551410  0.69404386  1
  O  O52  1  0.43010053  0.05432792  0.94400712  1
  O  O53  1  0.42527772  0.44591828  0.93788735  1
  O  O54  1  0.56991010  0.55436869  0.05599992  1
  O  O55  1  0.57470727  0.94597457  0.06210930  1
  O  O56  1  0.59833963  0.24553110  0.30595548  1
  O  O57  1  0.61211930  0.75158577  0.75996706  1
  O  O58  1  0.60794869  0.07092330  0.71432550  1
  O  O59  1  0.59951811  0.43332895  0.70145002  1
  O  O60  1  0.70418665  0.74759994  0.31364262  1
  O  O61  1  0.72822401  0.55455249  0.92166435  1
  O  O62  1  0.73389750  0.93505836  0.92370742  1
  O  O63  1  0.77180282  0.05457652  0.42177892  1
  O  O64  1  0.76609787  0.43503249  0.42387954  1
  O  O65  1  0.79581548  0.24762375  0.81353948  1
  O  O66  1  0.89205450  0.57090229  0.21430467  1
  O  O67  1  0.90053707  0.93331563  0.20136173  1
  O  O68  1  0.88790617  0.25159874  0.26000329  1
  O  O69  1  0.90166607  0.74549330  0.80585691  1
  O  O70  1  0.93004385  0.05439764  0.55594717  1
  O  O71  1  0.92523694  0.44593732  0.56209126  1
