# generated using pymatgen
data_Li9Mn2Co5O16
_symmetry_space_group_name_H-M   'P 1'
_cell_length_a   3.02594012
_cell_length_b   19.29399304
_cell_length_c   5.05418544
_cell_angle_alpha   92.25470069
_cell_angle_beta   91.38760766
_cell_angle_gamma   83.10564230
_symmetry_Int_Tables_number   1
_chemical_formula_structural   Li9Mn2Co5O16
_chemical_formula_sum   'Li9 Mn2 Co5 O16'
_cell_volume   292.65886067
_cell_formula_units_Z   1
loop_
 _symmetry_equiv_pos_site_id
 _symmetry_equiv_pos_as_xyz
  1  'x, y, z'
loop_
 _atom_site_type_symbol
 _atom_site_label
 _atom_site_symmetry_multiplicity
 _atom_site_fract_x
 _atom_site_fract_y
 _atom_site_fract_z
 _atom_site_occupancy
  Li  Li0  1  0.87500903  0.12499755  0.37501412  1
  Li  Li1  1  0.24663534  0.25099348  0.25077072  1
  Li  Li2  1  0.61967640  0.37581615  0.12651962  1
  Li  Li3  1  0.99140958  0.50012879  0.00319593  1
  Li  Li4  1  0.37501646  0.62500835  0.87497517  1
  Li  Li5  1  0.75863846  0.74985920  0.74677655  1
  Li  Li6  1  0.13029069  0.87418581  0.62349990  1
  Li  Li7  1  0.50341113  0.99898032  0.49921915  1
  Li  Li8  1  0.87500596  0.62500564  0.37503852  1
  Mn  Mn9  1  0.99483452  0.99926764  0.00060581  1
  Mn  Mn10  1  0.75481373  0.25071704  0.74952827  1
  Co  Co11  1  0.37500273  0.12502515  0.87502825  1
  Co  Co12  1  0.11730108  0.37747708  0.61910735  1
  Co  Co13  1  0.49105710  0.50607510  0.49979549  1
  Co  Co14  1  0.25896808  0.74399370  0.24996800  1
  Co  Co15  1  0.63274706  0.87256304  0.13084047  1
  O  O16  1  0.39220264  0.06378767  0.17044619  1
  O  O17  1  0.83039996  0.18783173  0.04135675  1
  O  O18  1  0.15168483  0.31550156  0.91699947  1
  O  O19  1  0.56902457  0.43975539  0.77763444  1
  O  O20  1  0.91121842  0.55791617  0.67634944  1
  O  O21  1  0.30535633  0.69497152  0.53047154  1
  O  O22  1  0.65370544  0.81115188  0.41677750  1
  O  O23  1  0.07276180  0.93663477  0.29409913  1
  O  O24  1  0.35787383  0.18620913  0.57957069  1
  O  O25  1  0.67718275  0.31338097  0.45572609  1
  O  O26  1  0.09630021  0.43882710  0.33327006  1
  O  O27  1  0.44471950  0.55499374  0.21973364  1
  O  O28  1  0.83878229  0.69206977  0.07362357  1
  O  O29  1  0.18098771  0.81021227  0.97242188  1
  O  O30  1  0.59837412  0.93449770  0.83309934  1
  O  O31  1  0.91960025  0.06216659  0.70853192  1
