# generated using pymatgen
data_HfTc2Sn
_symmetry_space_group_name_H-M   'P 1'
_cell_length_a   4.61039749
_cell_length_b   4.61039908
_cell_length_c   4.61039888
_cell_angle_alpha   59.99999031
_cell_angle_beta   59.99999127
_cell_angle_gamma   59.99997681
_symmetry_Int_Tables_number   1
_chemical_formula_structural   HfTc2Sn
_chemical_formula_sum   'Hf1 Tc2 Sn1'
_cell_volume   69.29473796
_cell_formula_units_Z   1
loop_
 _symmetry_equiv_pos_site_id
 _symmetry_equiv_pos_as_xyz
  1  'x, y, z'
loop_
 _atom_site_type_symbol
 _atom_site_label
 _atom_site_symmetry_multiplicity
 _atom_site_fract_x
 _atom_site_fract_y
 _atom_site_fract_z
 _atom_site_occupancy
  Hf  Hf0  1  0.25000015  0.25000005  0.25000010  1
  Tc  Tc1  1  0.00000008  0.00000009  0.00000008  1
  Tc  Tc2  1  0.50000083  0.50000099  0.50000111  1
  Sn  Sn3  1  0.75000095  0.75000086  0.75000071  1
