# generated using pymatgen
data_Li9Mn2Co5O16
_symmetry_space_group_name_H-M   'P 1'
_cell_length_a   3.02819883
_cell_length_b   10.76196584
_cell_length_c   9.99564064
_cell_angle_alpha   115.02290413
_cell_angle_beta   87.97522560
_cell_angle_gamma   84.63879346
_symmetry_Int_Tables_number   1
_chemical_formula_structural   Li9Mn2Co5O16
_chemical_formula_sum   'Li9 Mn2 Co5 O16'
_cell_volume   292.87166699
_cell_formula_units_Z   1
loop_
 _symmetry_equiv_pos_site_id
 _symmetry_equiv_pos_as_xyz
  1  'x, y, z'
loop_
 _atom_site_type_symbol
 _atom_site_label
 _atom_site_symmetry_multiplicity
 _atom_site_fract_x
 _atom_site_fract_y
 _atom_site_fract_z
 _atom_site_occupancy
  Li  Li0  1  0.87059811  0.24996567  0.93477345  1
  Li  Li1  1  0.12504456  0.74642654  0.06096207  1
  Li  Li2  1  0.37495544  0.25357346  0.18903793  1
  Li  Li3  1  0.36905710  0.25467157  0.69152859  1
  Li  Li4  1  0.63568779  0.74084227  0.80809124  1
  Li  Li5  1  0.86431221  0.25915773  0.44190876  1
  Li  Li6  1  0.13094290  0.74532843  0.55847141  1
  Li  Li7  1  0.62940189  0.75003433  0.31522655  1
  Li  Li8  1  0.25000000  0.50000000  0.62500000  1
  Mn  Mn9  1  0.98741502  0.99853022  0.99761918  1
  Mn  Mn10  1  0.51258498  0.00146978  0.25238082  1
  Co  Co11  1  0.25000000  0.50000000  0.12500000  1
  Co  Co12  1  0.74947800  0.49875279  0.38242558  1
  Co  Co13  1  0.00827146  0.00293062  0.50307556  1
  Co  Co14  1  0.49172854  0.99706938  0.74692444  1
  Co  Co15  1  0.75052200  0.50124721  0.86757442  1
  O  O16  1  0.39197280  0.11649979  0.95804350  1
  O  O17  1  0.70441772  0.60873678  0.07835188  1
  O  O18  1  0.91105369  0.11655136  0.21095401  1
  O  O19  1  0.94891510  0.11445873  0.71177280  1
  O  O20  1  0.16710217  0.61355774  0.84617723  1
  O  O21  1  0.46585984  0.11704476  0.46515374  1
  O  O22  1  0.69094956  0.61430569  0.56939411  1
  O  O23  1  0.15345709  0.61353733  0.33346126  1
  O  O24  1  0.34654291  0.38646267  0.91653874  1
  O  O25  1  0.58894631  0.88344864  0.03904599  1
  O  O26  1  0.79558228  0.39126322  0.17164812  1
  O  O27  1  0.80905044  0.38569431  0.68060589  1
  O  O28  1  0.03414016  0.88295524  0.78484626  1
  O  O29  1  0.33289783  0.38644226  0.40382277  1
  O  O30  1  0.55108490  0.88554127  0.53822720  1
  O  O31  1  0.10802720  0.88350021  0.29195650  1
