# generated using pymatgen
data_Li5Mn2(PO4)3
_symmetry_space_group_name_H-M   'P 1'
_cell_length_a   8.73199318
_cell_length_b   8.88905004
_cell_length_c   12.59241370
_cell_angle_alpha   90.00276316
_cell_angle_beta   88.97033021
_cell_angle_gamma   90.00013375
_symmetry_Int_Tables_number   1
_chemical_formula_structural   Li5Mn2(PO4)3
_chemical_formula_sum   'Li20 Mn8 P12 O48'
_cell_volume   977.25429475
_cell_formula_units_Z   4
loop_
 _symmetry_equiv_pos_site_id
 _symmetry_equiv_pos_as_xyz
  1  'x, y, z'
loop_
 _atom_site_type_symbol
 _atom_site_label
 _atom_site_symmetry_multiplicity
 _atom_site_fract_x
 _atom_site_fract_y
 _atom_site_fract_z
 _atom_site_occupancy
  Li  Li0  1  0.91816402  0.09887205  0.69148973  1
  Li  Li1  1  0.87825121  0.72504088  0.74698400  1
  Li  Li2  1  0.90410126  0.67528259  0.96438977  1
  Li  Li3  1  0.92673598  0.52346725  0.35162985  1
  Li  Li4  1  0.80029632  0.77456664  0.18083812  1
  Li  Li5  1  0.69970613  0.27456266  0.31915963  1
  Li  Li6  1  0.59589550  0.17527719  0.53560637  1
  Li  Li7  1  0.62173625  0.22503650  0.75301310  1
  Li  Li8  1  0.58182498  0.59886949  0.80851216  1
  Li  Li9  1  0.57325455  0.02345928  0.14837185  1
  Li  Li10  1  0.42674485  0.97654611  0.85162489  1
  Li  Li11  1  0.41816820  0.40112811  0.19148574  1
  Li  Li12  1  0.37826160  0.77496202  0.24698778  1
  Li  Li13  1  0.40410690  0.82473285  0.46439475  1
  Li  Li14  1  0.30029541  0.72543633  0.68084125  1
  Li  Li15  1  0.19970106  0.22544066  0.81916015  1
  Li  Li16  1  0.07325761  0.47654814  0.64837493  1
  Li  Li17  1  0.09589483  0.32472076  0.03561154  1
  Li  Li18  1  0.12173377  0.27496332  0.25301593  1
  Li  Li19  1  0.08183268  0.90112854  0.30851248  1
  Mn  Mn20  1  0.75759724  0.04296162  0.90367942  1
  Mn  Mn21  1  0.74240812  0.54295686  0.59630870  1
  Mn  Mn22  1  0.75350971  0.94964565  0.39403105  1
  Mn  Mn23  1  0.74648994  0.44964582  0.10597464  1
  Mn  Mn24  1  0.25350953  0.55035917  0.89403157  1
  Mn  Mn25  1  0.24649284  0.05035160  0.60596838  1
  Mn  Mn26  1  0.25758710  0.45703666  0.40367167  1
  Mn  Mn27  1  0.24240916  0.95704139  0.09632570  1
  P  P28  1  0.94422168  0.25164099  0.49353537  1
  P  P29  1  0.89795475  0.38898007  0.84712144  1
  P  P30  1  0.89706856  0.10712173  0.15737655  1
  P  P31  1  0.60203630  0.88897113  0.65289023  1
  P  P32  1  0.60293394  0.60706831  0.34261510  1
  P  P33  1  0.55576253  0.75158666  0.00643995  1
  P  P34  1  0.44425456  0.24843019  0.99358270  1
  P  P35  1  0.39708249  0.39290619  0.65737921  1
  P  P36  1  0.39796760  0.11102975  0.34709410  1
  P  P37  1  0.10292873  0.89290450  0.84263612  1
  P  P38  1  0.10203064  0.61102114  0.15289233  1
  P  P39  1  0.05578120  0.74835416  0.50643264  1
  O  O40  1  0.96612855  0.86689769  0.44416193  1
  O  O41  1  0.92998501  0.86370132  0.87310136  1
  O  O42  1  0.96731471  0.68485422  0.60519407  1
  O  O43  1  0.93317657  0.59328791  0.19459381  1
  O  O44  1  0.90989362  0.37979078  0.57408486  1
  O  O45  1  0.89544708  0.39227484  0.97042309  1
  O  O46  1  0.83605566  0.23397262  0.80847793  1
  O  O47  1  0.89067551  0.98045454  0.24293485  1
  O  O48  1  0.83622751  0.25995428  0.19963194  1
  O  O49  1  0.78841472  0.18463087  0.45413753  1
  O  O50  1  0.80165634  0.52110391  0.80219548  1
  O  O51  1  0.79740671  0.05197179  0.06556126  1
  O  O52  1  0.69833440  0.02107818  0.69781195  1
  O  O53  1  0.70261875  0.55198442  0.43444163  1
  O  O54  1  0.66391145  0.73395737  0.69151705  1
  O  O55  1  0.60455476  0.89226900  0.52956727  1
  O  O56  1  0.71158932  0.68463846  0.04586740  1
  O  O57  1  0.66380107  0.75997514  0.30036664  1
  O  O58  1  0.60932836  0.48047063  0.25709083  1
  O  O59  1  0.59012023  0.87980641  0.92590792  1
  O  O60  1  0.53268929  0.18482982  0.89480348  1
  O  O61  1  0.56999916  0.36369872  0.62687914  1
  O  O62  1  0.56683040  0.09326681  0.30540194  1
  O  O63  1  0.53384424  0.36687483  0.05581746  1
  O  O64  1  0.46614416  0.63312392  0.94417036  1
  O  O65  1  0.43315987  0.90673133  0.69458816  1
  O  O66  1  0.42999753  0.63630954  0.37312086  1
  O  O67  1  0.46731742  0.81516807  0.10519217  1
  O  O68  1  0.40988281  0.12020805  0.07409083  1
  O  O69  1  0.39065871  0.51952630  0.74291187  1
  O  O70  1  0.33621727  0.24002041  0.69962960  1
  O  O71  1  0.28840376  0.31536814  0.95412977  1
  O  O72  1  0.39545290  0.10771086  0.47043411  1
  O  O73  1  0.33608071  0.26603121  0.30848561  1
  O  O74  1  0.29738720  0.44800361  0.56554490  1
  O  O75  1  0.30165831  0.97891654  0.30218350  1
  O  O76  1  0.20257093  0.94802877  0.93444634  1
  O  O77  1  0.19833616  0.47890276  0.19780314  1
  O  O78  1  0.21159378  0.81537250  0.54586550  1
  O  O79  1  0.16379345  0.74004600  0.80036974  1
  O  O80  1  0.10933068  0.01955404  0.75707308  1
  O  O81  1  0.16394039  0.76603128  0.19152240  1
  O  O82  1  0.10455500  0.60772963  0.02956662  1
  O  O83  1  0.09010829  0.62021776  0.42593196  1
  O  O84  1  0.06682628  0.40672139  0.80540053  1
  O  O85  1  0.03268011  0.31513865  0.39482307  1
  O  O86  1  0.07001364  0.13629871  0.12689061  1
  O  O87  1  0.03387547  0.13307699  0.55584559  1
