# generated using pymatgen
data_NaLi2MnPCO7
_symmetry_space_group_name_H-M   'P 1'
_cell_length_a   8.65608574
_cell_length_b   6.74993290
_cell_length_c   5.01660180
_cell_angle_alpha   90.00000000
_cell_angle_beta   88.10487218
_cell_angle_gamma   90.00000000
_symmetry_Int_Tables_number   1
_chemical_formula_structural   NaLi2MnPCO7
_chemical_formula_sum   'Na2 Li4 Mn2 P2 C2 O14'
_cell_volume   292.94967766
_cell_formula_units_Z   2
loop_
 _symmetry_equiv_pos_site_id
 _symmetry_equiv_pos_as_xyz
  1  'x, y, z'
loop_
 _atom_site_type_symbol
 _atom_site_label
 _atom_site_symmetry_multiplicity
 _atom_site_fract_x
 _atom_site_fract_y
 _atom_site_fract_z
 _atom_site_occupancy
  Na  Na0  1  0.25133231  0.99977942  0.25212804  1
  Na  Na1  1  0.74866769  0.49977942  0.74787196  1
  Li  Li2  1  0.08636392  0.25354246  0.74778036  1
  Li  Li3  1  0.26810602  0.47688927  0.23109443  1
  Li  Li4  1  0.73189398  0.97688927  0.76890557  1
  Li  Li5  1  0.91363608  0.75354246  0.25221964  1
  Mn  Mn6  1  0.35483600  0.74437029  0.77660216  1
  Mn  Mn7  1  0.64516400  0.24437029  0.22339784  1
  P  P8  1  0.40473072  0.24895234  0.70723506  1
  P  P9  1  0.59526928  0.74895234  0.29276494  1
  C  C10  1  0.04412566  0.75773507  0.72822493  1
  C  C11  1  0.95587434  0.25773507  0.27177507  1
  O  O12  1  0.09934442  0.27797042  0.33043035  1
  O  O13  1  0.08681259  0.75359387  0.97550743  1
  O  O14  1  0.14753214  0.74007348  0.53517310  1
  O  O15  1  0.30380148  0.06459646  0.77925037  1
  O  O16  1  0.31253482  0.42878337  0.82346717  1
  O  O17  1  0.42064449  0.26932493  0.39674861  1
  O  O18  1  0.42895760  0.73438763  0.18583808  1
  O  O19  1  0.57104240  0.23438763  0.81416192  1
  O  O20  1  0.57935551  0.76932493  0.60325139  1
  O  O21  1  0.69619852  0.56459646  0.22074963  1
  O  O22  1  0.68746518  0.92878337  0.17653283  1
  O  O23  1  0.85246786  0.24007348  0.46482690  1
  O  O24  1  0.91318741  0.25359387  0.02449257  1
  O  O25  1  0.90065558  0.77797042  0.66956965  1
