# generated using pymatgen
data_BaTbF6
_symmetry_space_group_name_H-M   'P 1'
_cell_length_a   5.50927574
_cell_length_b   7.28030617
_cell_length_c   7.28030617
_cell_angle_alpha   113.54104536
_cell_angle_beta   90.00000000
_cell_angle_gamma   90.00000000
_symmetry_Int_Tables_number   1
_chemical_formula_structural   BaTbF6
_chemical_formula_sum   'Ba2 Tb2 F12'
_cell_volume   267.70480877
_cell_formula_units_Z   2
loop_
 _symmetry_equiv_pos_site_id
 _symmetry_equiv_pos_as_xyz
  1  'x, y, z'
loop_
 _atom_site_type_symbol
 _atom_site_label
 _atom_site_symmetry_multiplicity
 _atom_site_fract_x
 _atom_site_fract_y
 _atom_site_fract_z
 _atom_site_occupancy
  F  F0  1  0.74449302  0.44432515  0.16048451  1
  F  F1  1  0.74449302  0.05567485  0.33951549  1
  F  F2  1  0.25550698  0.16048451  0.44432515  1
  F  F3  1  0.25550698  0.33951549  0.05567485  1
  F  F4  1  0.81538315  0.44363945  0.55636055  1
  F  F5  1  0.81538315  0.05636055  0.94363945  1
  F  F6  1  0.18461685  0.55636055  0.44363945  1
  F  F7  1  0.18461685  0.94363945  0.05636055  1
  F  F8  1  0.74449302  0.66048451  0.94432515  1
  F  F9  1  0.74449302  0.83951549  0.55567485  1
  F  F10  1  0.25550698  0.94432515  0.66048451  1
  F  F11  1  0.25550698  0.55567485  0.83951549  1
  Ba  Ba12  1  0.58022652  0.25000000  0.75000000  1
  Ba  Ba13  1  0.41977348  0.75000000  0.25000000  1
  Tb  Tb14  1  0.00000000  0.25000000  0.25000000  1
  Tb  Tb15  1  0.00000000  0.75000000  0.75000000  1
