# generated using pymatgen
data_NiP(H4O3)3
_symmetry_space_group_name_H-M   'P 1'
_cell_length_a   11.31576141
_cell_length_b   18.52526526
_cell_length_c   7.31342781
_cell_angle_alpha   90.00000000
_cell_angle_beta   90.00000000
_cell_angle_gamma   90.00000000
_symmetry_Int_Tables_number   1
_chemical_formula_structural   NiP(H4O3)3
_chemical_formula_sum   'Ni8 P8 H96 O72'
_cell_volume   1533.09545469
_cell_formula_units_Z   8
loop_
 _symmetry_equiv_pos_site_id
 _symmetry_equiv_pos_as_xyz
  1  'x, y, z'
loop_
 _atom_site_type_symbol
 _atom_site_label
 _atom_site_symmetry_multiplicity
 _atom_site_fract_x
 _atom_site_fract_y
 _atom_site_fract_z
 _atom_site_occupancy
  Ni  Ni0  1  0.00000000  0.00000000  0.00000000  1
  Ni  Ni1  1  0.00000000  0.50000000  0.50000000  1
  Ni  Ni2  1  0.19955553  0.67539387  0.00000000  1
  Ni  Ni3  1  0.30044447  0.17539387  0.50000000  1
  Ni  Ni4  1  0.50000000  0.00000000  0.00000000  1
  Ni  Ni5  1  0.50000000  0.50000000  0.50000000  1
  Ni  Ni6  1  0.69955553  0.82460613  0.50000000  1
  Ni  Ni7  1  0.80044447  0.32460613  0.00000000  1
  P  P8  1  0.11310964  0.85766235  0.50000000  1
  P  P9  1  0.20669807  0.31295878  0.00000000  1
  P  P10  1  0.29330193  0.81295878  0.50000000  1
  P  P11  1  0.38689036  0.35766235  0.00000000  1
  P  P12  1  0.61310964  0.64233765  0.00000000  1
  P  P13  1  0.70669807  0.18704122  0.50000000  1
  P  P14  1  0.79330193  0.68704122  0.00000000  1
  P  P15  1  0.88689036  0.14233765  0.50000000  1
  H  H16  1  0.99419024  0.68189423  0.18339918  1
  H  H17  1  0.99419024  0.68189423  0.81660082  1
  H  H18  1  0.05129700  0.86683506  0.11178052  1
  H  H19  1  0.05129700  0.86683506  0.88821948  1
  H  H20  1  0.07768728  0.74395387  0.26258220  1
  H  H21  1  0.07768728  0.74395387  0.73741780  1
  H  H22  1  0.08529732  0.63167401  0.60815307  1
  H  H23  1  0.08529732  0.63167401  0.39184693  1
  H  H24  1  0.09404021  0.16404644  0.31837947  1
  H  H25  1  0.09404021  0.16404644  0.68162053  1
  H  H26  1  0.12756321  0.42444363  0.24275800  1
  H  H27  1  0.12756321  0.42444363  0.75724200  1
  H  H28  1  0.12427911  0.98494912  0.68530934  1
  H  H29  1  0.12427911  0.98494912  0.31469066  1
  H  H30  1  0.12607938  0.53961838  0.10794521  1
  H  H31  1  0.12607938  0.53961838  0.89205479  1
  H  H32  1  0.15064001  0.06334584  0.22656157  1
  H  H33  1  0.15064001  0.06334584  0.77343843  1
  H  H34  1  0.20786237  0.48657140  0.32715244  1
  H  H35  1  0.20786237  0.48657140  0.67284756  1
  H  H36  1  0.19847237  0.18206116  0.17836322  1
  H  H37  1  0.19847237  0.18206116  0.82163678  1
  H  H38  1  0.20891476  0.30393355  0.38987751  1
  H  H39  1  0.20891476  0.30393355  0.61012249  1
  H  H40  1  0.29108524  0.80393355  0.11012249  1
  H  H41  1  0.29108524  0.80393355  0.88987751  1
  H  H42  1  0.30152763  0.68206116  0.32163678  1
  H  H43  1  0.30152763  0.68206116  0.67836322  1
  H  H44  1  0.29213763  0.98657140  0.17284756  1
  H  H45  1  0.29213763  0.98657140  0.82715244  1
  H  H46  1  0.34935999  0.56334584  0.27343843  1
  H  H47  1  0.34935999  0.56334584  0.72656157  1
  H  H48  1  0.37392062  0.03961838  0.60794521  1
  H  H49  1  0.37392062  0.03961838  0.39205479  1
  H  H50  1  0.37572089  0.48494912  0.81469066  1
  H  H51  1  0.37572089  0.48494912  0.18530934  1
  H  H52  1  0.37243679  0.92444363  0.25724200  1
  H  H53  1  0.37243679  0.92444363  0.74275800  1
  H  H54  1  0.40595979  0.66404644  0.81837947  1
  H  H55  1  0.40595979  0.66404644  0.18162053  1
  H  H56  1  0.41470268  0.13167401  0.89184693  1
  H  H57  1  0.41470268  0.13167401  0.10815307  1
  H  H58  1  0.42231272  0.24395387  0.76258220  1
  H  H59  1  0.42231272  0.24395387  0.23741780  1
  H  H60  1  0.44870300  0.36683506  0.38821948  1
  H  H61  1  0.44870300  0.36683506  0.61178052  1
  H  H62  1  0.50580976  0.18189423  0.31660082  1
  H  H63  1  0.50580976  0.18189423  0.68339918  1
  H  H64  1  0.49419024  0.81810577  0.31660082  1
  H  H65  1  0.49419024  0.81810577  0.68339918  1
  H  H66  1  0.55129700  0.63316494  0.38821948  1
  H  H67  1  0.55129700  0.63316494  0.61178052  1
  H  H68  1  0.57768728  0.75604613  0.23741780  1
  H  H69  1  0.57768728  0.75604613  0.76258220  1
  H  H70  1  0.58529732  0.86832599  0.10815307  1
  H  H71  1  0.58529732  0.86832599  0.89184693  1
  H  H72  1  0.59404021  0.33595356  0.18162053  1
  H  H73  1  0.59404021  0.33595356  0.81837947  1
  H  H74  1  0.62756321  0.07555637  0.25724200  1
  H  H75  1  0.62756321  0.07555637  0.74275800  1
  H  H76  1  0.62427911  0.51505088  0.18530934  1
  H  H77  1  0.62427911  0.51505088  0.81469066  1
  H  H78  1  0.62607938  0.96038162  0.39205479  1
  H  H79  1  0.62607938  0.96038162  0.60794521  1
  H  H80  1  0.65064001  0.43665416  0.27343843  1
  H  H81  1  0.65064001  0.43665416  0.72656157  1
  H  H82  1  0.70786237  0.01342860  0.17284756  1
  H  H83  1  0.70786237  0.01342860  0.82715244  1
  H  H84  1  0.69847237  0.31793884  0.32163678  1
  H  H85  1  0.69847237  0.31793884  0.67836322  1
  H  H86  1  0.70891476  0.19606645  0.11012249  1
  H  H87  1  0.70891476  0.19606645  0.88987751  1
  H  H88  1  0.79108524  0.69606645  0.38987751  1
  H  H89  1  0.79108524  0.69606645  0.61012249  1
  H  H90  1  0.80152763  0.81793884  0.17836322  1
  H  H91  1  0.80152763  0.81793884  0.82163678  1
  H  H92  1  0.79213763  0.51342860  0.32715244  1
  H  H93  1  0.79213763  0.51342860  0.67284756  1
  H  H94  1  0.84935999  0.93665416  0.22656157  1
  H  H95  1  0.84935999  0.93665416  0.77343843  1
  H  H96  1  0.87392062  0.46038162  0.10794521  1
  H  H97  1  0.87392062  0.46038162  0.89205479  1
  H  H98  1  0.87572089  0.01505088  0.31469066  1
  H  H99  1  0.87572089  0.01505088  0.68530934  1
  H  H100  1  0.87243679  0.57555637  0.24275800  1
  H  H101  1  0.87243679  0.57555637  0.75724200  1
  H  H102  1  0.90595979  0.83595356  0.31837947  1
  H  H103  1  0.90595979  0.83595356  0.68162053  1
  H  H104  1  0.91470268  0.36832599  0.39184693  1
  H  H105  1  0.91470268  0.36832599  0.60815307  1
  H  H106  1  0.92231272  0.25604613  0.26258220  1
  H  H107  1  0.92231272  0.25604613  0.73741780  1
  H  H108  1  0.94870300  0.13316494  0.11178052  1
  H  H109  1  0.94870300  0.13316494  0.88821948  1
  H  H110  1  0.00580976  0.31810577  0.18339918  1
  H  H111  1  0.00580976  0.31810577  0.81660082  1
  O  O112  1  0.02286326  0.89181707  0.00000000  1
  O  O113  1  0.05333679  0.82725807  0.32534949  1
  O  O114  1  0.05333679  0.82725807  0.67465051  1
  O  O115  1  0.07955168  0.69299952  0.21327255  1
  O  O116  1  0.07955168  0.69299952  0.78672745  1
  O  O117  1  0.08243755  0.59893238  0.50000000  1
  O  O118  1  0.11769004  0.94038929  0.50000000  1
  O  O119  1  0.12438869  0.47533099  0.70712091  1
  O  O120  1  0.12438869  0.47533099  0.29287909  1
  O  O121  1  0.13823222  0.01149360  0.19453807  1
  O  O122  1  0.13823222  0.01149360  0.80546193  1
  O  O123  1  0.12741133  0.57189724  0.00000000  1
  O  O124  1  0.14442263  0.34004219  0.17673521  1
  O  O125  1  0.14442263  0.34004219  0.82326479  1
  O  O126  1  0.17931817  0.15258818  0.29238943  1
  O  O127  1  0.17931817  0.15258818  0.70761057  1
  O  O128  1  0.21962307  0.23028567  0.00000000  1
  O  O129  1  0.24893333  0.28429506  0.50000000  1
  O  O130  1  0.25106667  0.78429506  0.00000000  1
  O  O131  1  0.28037693  0.73028567  0.50000000  1
  O  O132  1  0.32068183  0.65258818  0.20761057  1
  O  O133  1  0.32068183  0.65258818  0.79238943  1
  O  O134  1  0.35557737  0.84004219  0.32326479  1
  O  O135  1  0.35557737  0.84004219  0.67673521  1
  O  O136  1  0.37258867  0.07189724  0.50000000  1
  O  O137  1  0.36176778  0.51149360  0.30546193  1
  O  O138  1  0.36176778  0.51149360  0.69453807  1
  O  O139  1  0.37561131  0.97533099  0.79287909  1
  O  O140  1  0.37561131  0.97533099  0.20712091  1
  O  O141  1  0.38230996  0.44038929  0.00000000  1
  O  O142  1  0.41756245  0.09893238  0.00000000  1
  O  O143  1  0.42044832  0.19299952  0.71327255  1
  O  O144  1  0.42044832  0.19299952  0.28672745  1
  O  O145  1  0.44666321  0.32725807  0.82534949  1
  O  O146  1  0.44666321  0.32725807  0.17465051  1
  O  O147  1  0.47713674  0.39181707  0.50000000  1
  O  O148  1  0.52286326  0.60818293  0.50000000  1
  O  O149  1  0.55333679  0.67274193  0.17465051  1
  O  O150  1  0.55333679  0.67274193  0.82534949  1
  O  O151  1  0.57955168  0.80700048  0.28672745  1
  O  O152  1  0.57955168  0.80700048  0.71327255  1
  O  O153  1  0.58243755  0.90106762  0.00000000  1
  O  O154  1  0.61769004  0.55961071  0.00000000  1
  O  O155  1  0.62438869  0.02466901  0.20712091  1
  O  O156  1  0.62438869  0.02466901  0.79287909  1
  O  O157  1  0.63823222  0.48850640  0.30546193  1
  O  O158  1  0.63823222  0.48850640  0.69453807  1
  O  O159  1  0.62741133  0.92810276  0.50000000  1
  O  O160  1  0.64442263  0.15995781  0.32326479  1
  O  O161  1  0.64442263  0.15995781  0.67673521  1
  O  O162  1  0.67931817  0.34741182  0.20761057  1
  O  O163  1  0.67931817  0.34741182  0.79238943  1
  O  O164  1  0.71962307  0.26971433  0.50000000  1
  O  O165  1  0.74893333  0.21570494  0.00000000  1
  O  O166  1  0.75106667  0.71570494  0.50000000  1
  O  O167  1  0.78037693  0.76971433  0.00000000  1
  O  O168  1  0.82068183  0.84741182  0.29238943  1
  O  O169  1  0.82068183  0.84741182  0.70761057  1
  O  O170  1  0.85557737  0.65995781  0.17673521  1
  O  O171  1  0.85557737  0.65995781  0.82326479  1
  O  O172  1  0.87258867  0.42810276  0.00000000  1
  O  O173  1  0.86176778  0.98850640  0.19453807  1
  O  O174  1  0.86176778  0.98850640  0.80546193  1
  O  O175  1  0.87561131  0.52466901  0.29287909  1
  O  O176  1  0.87561131  0.52466901  0.70712091  1
  O  O177  1  0.88230996  0.05961071  0.50000000  1
  O  O178  1  0.91756245  0.40106762  0.50000000  1
  O  O179  1  0.92044832  0.30700048  0.21327255  1
  O  O180  1  0.92044832  0.30700048  0.78672745  1
  O  O181  1  0.94666321  0.17274193  0.32534949  1
  O  O182  1  0.94666321  0.17274193  0.67465051  1
  O  O183  1  0.97713674  0.10818293  0.00000000  1
