# generated using pymatgen
data_VOF
_symmetry_space_group_name_H-M   'P 1'
_cell_length_a   4.75446350
_cell_length_b   14.20651119
_cell_length_c   3.10144609
_cell_angle_alpha   90.00000000
_cell_angle_beta   90.00000000
_cell_angle_gamma   91.74612700
_symmetry_Int_Tables_number   1
_chemical_formula_structural   VOF
_chemical_formula_sum   'V6 O6 F6'
_cell_volume   209.38785216
_cell_formula_units_Z   6
loop_
 _symmetry_equiv_pos_site_id
 _symmetry_equiv_pos_as_xyz
  1  'x, y, z'
loop_
 _atom_site_type_symbol
 _atom_site_label
 _atom_site_symmetry_multiplicity
 _atom_site_fract_x
 _atom_site_fract_y
 _atom_site_fract_z
 _atom_site_occupancy
  V  V0  1  0.00000000  0.00000000  0.00000000  1
  V  V1  1  0.02484251  0.33307563  0.00000000  1
  V  V2  1  0.97515749  0.66692437  0.00000000  1
  V  V3  1  0.56974342  0.16682448  0.50000000  1
  V  V4  1  0.50000000  0.50000000  0.50000000  1
  V  V5  1  0.43025658  0.83317552  0.50000000  1
  O  O6  1  0.18520914  0.93534031  0.50000000  1
  O  O7  1  0.26536431  0.76507734  0.00000000  1
  O  O8  1  0.31124108  0.43271392  0.00000000  1
  O  O9  1  0.73463569  0.23492266  0.00000000  1
  O  O10  1  0.68875892  0.56728608  0.00000000  1
  O  O11  1  0.81479086  0.06465969  0.50000000  1
  F  F12  1  0.22627882  0.26566460  0.50000000  1
  F  F13  1  0.17895434  0.60107948  0.50000000  1
  F  F14  1  0.32084077  0.10516732  0.00000000  1
  F  F15  1  0.67915923  0.89483268  0.00000000  1
  F  F16  1  0.82104566  0.39892052  0.50000000  1
  F  F17  1  0.77372118  0.73433540  0.50000000  1
