# generated using pymatgen
data_LiFeSiO4
_symmetry_space_group_name_H-M   'P 1'
_cell_length_a   4.91198311
_cell_length_b   9.13467814
_cell_length_c   6.30860424
_cell_angle_alpha   90.00096464
_cell_angle_beta   90.00038062
_cell_angle_gamma   89.99986988
_symmetry_Int_Tables_number   1
_chemical_formula_structural   LiFeSiO4
_chemical_formula_sum   'Li4 Fe4 Si4 O16'
_cell_volume   283.06319079
_cell_formula_units_Z   4
loop_
 _symmetry_equiv_pos_site_id
 _symmetry_equiv_pos_as_xyz
  1  'x, y, z'
loop_
 _atom_site_type_symbol
 _atom_site_label
 _atom_site_symmetry_multiplicity
 _atom_site_fract_x
 _atom_site_fract_y
 _atom_site_fract_z
 _atom_site_occupancy
  Li  Li0  1  0.02254604  0.66712929  0.74999984  1
  Li  Li1  1  0.47745100  0.16712905  0.74999827  1
  Li  Li2  1  0.52254807  0.83287120  0.25000101  1
  Li  Li3  1  0.97745372  0.33287125  0.24999964  1
  Fe  Fe4  1  0.99999578  -0.00000496  0.00000747  1
  Fe  Fe5  1  0.99999468  0.00000097  0.49999235  1
  Fe  Fe6  1  0.50000742  0.49999820  0.50000716  1
  Fe  Fe7  1  0.50000980  0.50000357  0.00000186  1
  Si  Si8  1  0.02459168  0.67680467  0.24999663  1
  Si  Si9  1  0.47540886  0.17681327  0.24997736  1
  Si  Si10  1  0.52458728  0.82318787  0.75002314  1
  Si  Si11  1  0.97540936  0.32319461  0.75000198  1
  O  O12  1  0.90702156  0.14173988  0.75000832  1
  O  O13  1  0.19757131  0.87275476  0.75000087  1
  O  O14  1  0.32663773  0.11611138  0.03585137  1
  O  O15  1  0.32662641  0.11610192  0.46416883  1
  O  O16  1  0.17335941  0.61611129  0.03584438  1
  O  O17  1  0.17335956  0.61611413  0.46414806  1
  O  O18  1  0.30242351  0.37275083  0.74999687  1
  O  O19  1  0.59298159  0.64174856  0.74999529  1
  O  O20  1  0.40701904  0.35825263  0.25000457  1
  O  O21  1  0.69757590  0.62724944  0.25000145  1
  O  O22  1  0.67336989  0.88389732  0.53583412  1
  O  O23  1  0.67335865  0.88388873  0.96414819  1
  O  O24  1  0.82664196  0.38388604  0.53584857  1
  O  O25  1  0.82664021  0.38388842  0.96415411  1
  O  O26  1  0.80243095  0.12724625  0.24999707  1
  O  O27  1  0.09297862  0.85825945  0.24999122  1
