# generated using pymatgen
data_TbBS3
_symmetry_space_group_name_H-M   'P 1'
_cell_length_a   7.24764155
_cell_length_b   6.10526999
_cell_length_c   8.75519388
_cell_angle_alpha   90.00000000
_cell_angle_beta   90.00000000
_cell_angle_gamma   90.00000000
_symmetry_Int_Tables_number   1
_chemical_formula_structural   TbBS3
_chemical_formula_sum   'Tb4 B4 S12'
_cell_volume   387.40689697
_cell_formula_units_Z   4
loop_
 _symmetry_equiv_pos_site_id
 _symmetry_equiv_pos_as_xyz
  1  'x, y, z'
loop_
 _atom_site_type_symbol
 _atom_site_label
 _atom_site_symmetry_multiplicity
 _atom_site_fract_x
 _atom_site_fract_y
 _atom_site_fract_z
 _atom_site_occupancy
  Tb  Tb0  1  0.38024726  0.94372021  0.71618172  1
  Tb  Tb1  1  0.88024726  0.55627779  0.71618172  1
  Tb  Tb2  1  0.11975374  0.44372121  0.21618172  1
  Tb  Tb3  1  0.61975174  0.05627979  0.21618172  1
  B  B4  1  0.64382567  0.60227934  0.04815267  1
  B  B5  1  0.35617433  0.39772166  0.54815367  1
  B  B6  1  0.14382567  0.89772066  0.04815267  1
  B  B7  1  0.85617333  0.10228034  0.54815367  1
  S  S8  1  0.32410950  0.16970328  0.41579408  1
  S  S9  1  0.29420218  0.13485979  0.01958051  1
  S  S10  1  0.67588950  0.83029772  0.91579308  1
  S  S11  1  0.70579682  0.86513921  0.51957951  1
  S  S12  1  0.20579682  0.63486179  0.51957951  1
  S  S13  1  0.50711216  0.37762549  0.71119002  1
  S  S14  1  0.79420218  0.36513921  0.01958051  1
  S  S15  1  0.00711216  0.12237351  0.71119002  1
  S  S16  1  0.82411050  0.33029672  0.41579408  1
  S  S17  1  0.17588850  0.66970228  0.91579308  1
  S  S18  1  0.99288884  0.87762649  0.21119102  1
  S  S19  1  0.49288784  0.62237351  0.21119102  1
