# generated using pymatgen
data_Li5Fe8(BO3)8
_symmetry_space_group_name_H-M   'P 1'
_cell_length_a   5.27140320
_cell_length_b   9.07381079
_cell_length_c   11.39241733
_cell_angle_alpha   113.62364145
_cell_angle_beta   78.07717203
_cell_angle_gamma   89.58586058
_symmetry_Int_Tables_number   1
_chemical_formula_structural   Li5Fe8(BO3)8
_chemical_formula_sum   'Li5 Fe8 B8 O24'
_cell_volume   486.01375920
_cell_formula_units_Z   1
loop_
 _symmetry_equiv_pos_site_id
 _symmetry_equiv_pos_as_xyz
  1  'x, y, z'
loop_
 _atom_site_type_symbol
 _atom_site_label
 _atom_site_symmetry_multiplicity
 _atom_site_fract_x
 _atom_site_fract_y
 _atom_site_fract_z
 _atom_site_occupancy
  Li  Li0  1  0.35286766  0.28105646  0.58661706  1
  Li  Li1  1  0.60957724  0.04646002  0.09228000  1
  Li  Li2  1  0.91743227  0.42734461  0.83908517  1
  Li  Li3  1  0.68790242  0.65410217  0.33225094  1
  Li  Li4  1  0.41863793  0.93485652  0.84045462  1
  Fe  Fe5  1  0.39594586  0.28224769  0.87487088  1
  Fe  Fe6  1  0.10132268  0.23299176  0.12490189  1
  Fe  Fe7  1  0.84034884  0.13721606  0.62014807  1
  Fe  Fe8  1  0.65923674  0.33534607  0.37088069  1
  Fe  Fe9  1  0.34718061  0.64519257  0.61894652  1
  Fe  Fe10  1  0.15801776  0.85709692  0.36563866  1
  Fe  Fe11  1  0.90600949  0.77605774  0.86837280  1
  Fe  Fe12  1  0.60146489  0.71527606  0.11513548  1
  B  B13  1  0.63930648  0.01046542  0.37484633  1
  B  B14  1  0.89098845  0.10986838  0.87845718  1
  B  B15  1  0.15633146  0.52635345  0.36897781  1
  B  B16  1  0.40404074  0.60283179  0.86462900  1
  B  B17  1  0.85606176  0.47775369  0.62402050  1
  B  B18  1  0.60342545  0.38465864  0.12563770  1
  B  B19  1  0.34399627  0.98029786  0.62159657  1
  B  B20  1  0.09611722  0.90396221  0.12477723  1
  O  O21  1  0.12947800  0.12706765  0.91777963  1
  O  O22  1  0.44704462  0.12856686  0.66232193  1
  O  O23  1  0.23317985  0.03147816  0.11563950  1
  O  O24  1  0.50175671  0.14635346  0.38798536  1
  O  O25  1  0.87730901  0.02100431  0.40938510  1
  O  O26  1  0.80154359  0.21839038  0.83515943  1
  O  O27  1  0.25927399  0.47875040  0.86332251  1
  O  O28  1  0.05139064  0.37823698  0.32351172  1
  O  O29  1  0.71831411  0.26619843  0.15647206  1
  O  O30  1  0.61438717  0.46875350  0.58732173  1
  O  O31  1  0.97180066  0.35085506  0.63580981  1
  O  O32  1  0.37817641  0.34903781  0.07910555  1
  O  O33  1  0.64131723  0.61805691  0.90335107  1
  O  O34  1  0.38745727  0.54012195  0.41673736  1
  O  O35  1  0.31402582  0.71874372  0.82412382  1
  O  O36  1  0.97609860  0.62122316  0.65217574  1
  O  O37  1  0.70979238  0.52405889  0.14259694  1
  O  O38  1  0.20653906  0.80309684  0.16952951  1
  O  O39  1  0.13997749  0.96087800  0.55999982  1
  O  O40  1  0.44132081  0.85665130  0.64662003  1
  O  O41  1  0.03503768  0.65805681  0.36542152  1
  O  O42  1  0.74500886  0.98720714  0.88837203  1
  O  O43  1  0.54208876  0.85801640  0.33388945  1
  O  O44  1  0.86201406  0.87793176  0.08488425  1
