# generated using pymatgen
data_Ca2SnS4
_symmetry_space_group_name_H-M   'P 1'
_cell_length_a   7.33776369
_cell_length_b   8.68569285
_cell_length_c   10.97715246
_cell_angle_alpha   90.00000000
_cell_angle_beta   90.00000000
_cell_angle_gamma   90.00000000
_symmetry_Int_Tables_number   1
_chemical_formula_structural   Ca2SnS4
_chemical_formula_sum   'Ca8 Sn4 S16'
_cell_volume   699.61302269
_cell_formula_units_Z   4
loop_
 _symmetry_equiv_pos_site_id
 _symmetry_equiv_pos_as_xyz
  1  'x, y, z'
loop_
 _atom_site_type_symbol
 _atom_site_label
 _atom_site_symmetry_multiplicity
 _atom_site_fract_x
 _atom_site_fract_y
 _atom_site_fract_z
 _atom_site_occupancy
  Ca  Ca0  1  0.12061311  0.00509247  0.30953166  1
  Ca  Ca1  1  0.37938689  0.49490753  0.80953166  1
  Ca  Ca2  1  0.87938689  0.50509247  0.69046834  1
  Ca  Ca3  1  0.62061311  0.99490753  0.19046834  1
  Ca  Ca4  1  0.87938689  0.99490753  0.69046834  1
  Ca  Ca5  1  0.62061311  0.50509247  0.19046834  1
  Ca  Ca6  1  0.12061311  0.49490753  0.30953166  1
  Ca  Ca7  1  0.37938689  0.00509247  0.80953166  1
  Sn  Sn8  1  0.11053910  0.75000000  0.03078398  1
  Sn  Sn9  1  0.38946090  0.75000000  0.53078398  1
  Sn  Sn10  1  0.88946090  0.25000000  0.96921602  1
  Sn  Sn11  1  0.61053910  0.25000000  0.46921602  1
  S  S12  1  0.89440107  0.75000000  0.19854513  1
  S  S13  1  0.60559893  0.75000000  0.69854513  1
  S  S14  1  0.10559893  0.25000000  0.80145487  1
  S  S15  1  0.39440107  0.25000000  0.30145487  1
  S  S16  1  0.09747468  0.75000000  0.81027136  1
  S  S17  1  0.40252532  0.75000000  0.31027136  1
  S  S18  1  0.90252532  0.25000000  0.18972864  1
  S  S19  1  0.59747468  0.25000000  0.68972864  1
  S  S20  1  0.27574391  0.98693716  0.06369964  1
  S  S21  1  0.22425609  0.51306284  0.56369964  1
  S  S22  1  0.72425609  0.48693716  0.93630036  1
  S  S23  1  0.77574391  0.01306284  0.43630036  1
  S  S24  1  0.72425609  0.01306284  0.93630036  1
  S  S25  1  0.77574391  0.48693716  0.43630036  1
  S  S26  1  0.27574391  0.51306284  0.06369964  1
  S  S27  1  0.22425609  0.98693716  0.56369964  1
