# generated using pymatgen
data_Li3Mn(NiO3)2
_symmetry_space_group_name_H-M   'P 1'
_cell_length_a   5.00746783
_cell_length_b   5.12042941
_cell_length_c   9.97400597
_cell_angle_alpha   95.13697163
_cell_angle_beta   90.07426759
_cell_angle_gamma   60.73346391
_symmetry_Int_Tables_number   1
_chemical_formula_structural   Li3Mn(NiO3)2
_chemical_formula_sum   'Li6 Mn2 Ni4 O12'
_cell_volume   221.93200929
_cell_formula_units_Z   2
loop_
 _symmetry_equiv_pos_site_id
 _symmetry_equiv_pos_as_xyz
  1  'x, y, z'
loop_
 _atom_site_type_symbol
 _atom_site_label
 _atom_site_symmetry_multiplicity
 _atom_site_fract_x
 _atom_site_fract_y
 _atom_site_fract_z
 _atom_site_occupancy
  Li  Li0  1  0.18631050  0.84439062  0.25533582  1
  Li  Li1  1  0.13457952  0.49957452  0.74967396  1
  Li  Li2  1  0.46974834  0.84374207  0.75470188  1
  Li  Li3  1  0.53028063  0.15613819  0.24521387  1
  Li  Li4  1  0.86525106  0.50013346  0.25024165  1
  Li  Li5  1  0.81406657  0.15587143  0.74479547  1
  Mn  Mn6  1  0.99957700  0.00013763  0.00000091  1
  Mn  Mn7  1  0.49936793  0.99980151  0.50000257  1
  Ni  Ni8  1  0.17110000  0.66520036  0.50029318  1
  Ni  Ni9  1  0.66364633  0.66557943  0.00029296  1
  Ni  Ni10  1  0.33640847  0.33439315  0.99970779  1
  Ni  Ni11  1  0.82891648  0.33489702  0.49971909  1
  O  O12  1  0.99185285  0.69914529  0.10769155  1
  O  O13  1  0.32561735  0.66889728  0.88802899  1
  O  O14  1  0.19131645  0.29996678  0.39199520  1
  O  O15  1  0.50775969  0.66837751  0.38737232  1
  O  O16  1  0.49408537  0.33156510  0.61212639  1
  O  O17  1  0.17493426  0.01455363  0.61051716  1
  O  O18  1  0.80731027  0.69777399  0.60783372  1
  O  O19  1  0.67524703  0.33112770  0.11218530  1
  O  O20  1  0.31260290  0.01222336  0.11020230  1
  O  O21  1  0.00628754  0.30199222  0.89248699  1
  O  O22  1  0.68865539  0.98652291  0.88940552  1
  O  O23  1  0.82508905  0.98797084  0.39017441  1
