# generated using pymatgen
data_Li9Mn2Co5O16
_symmetry_space_group_name_H-M   'P 1'
_cell_length_a   3.03021997
_cell_length_b   19.58834905
_cell_length_c   5.13762797
_cell_angle_alpha   91.17221495
_cell_angle_beta   75.45598358
_cell_angle_gamma   86.93226750
_symmetry_Int_Tables_number   1
_chemical_formula_structural   Li9Mn2Co5O16
_chemical_formula_sum   'Li9 Mn2 Co5 O16'
_cell_volume   294.57764346
_cell_formula_units_Z   1
loop_
 _symmetry_equiv_pos_site_id
 _symmetry_equiv_pos_as_xyz
  1  'x, y, z'
loop_
 _atom_site_type_symbol
 _atom_site_label
 _atom_site_symmetry_multiplicity
 _atom_site_fract_x
 _atom_site_fract_y
 _atom_site_fract_z
 _atom_site_occupancy
  Li  Li0  1  0.68965777  0.06351426  0.56122991  1
  Li  Li1  1  0.05628385  0.18856668  0.68497698  1
  Li  Li2  1  0.43866204  0.31191728  0.80549072  1
  Li  Li3  1  0.81133796  0.43808272  0.94450928  1
  Li  Li4  1  0.19371615  0.56143332  0.06502302  1
  Li  Li5  1  0.56034223  0.68648574  0.18877009  1
  Li  Li6  1  0.94480589  0.81272639  0.30928544  1
  Li  Li7  1  0.30519411  0.93727361  0.44071456  1
  Li  Li8  1  0.12500000  0.37500000  0.37500000  1
  Mn  Mn9  1  0.00251450  0.00121908  0.00045330  1
  Mn  Mn10  1  0.24748550  0.74878092  0.74954670  1
  Co  Co11  1  0.36899989  0.12811509  0.12423726  1
  Co  Co12  1  0.74409931  0.25575204  0.25514188  1
  Co  Co13  1  0.50590069  0.49424796  0.49485812  1
  Co  Co14  1  0.88100011  0.62188491  0.62576274  1
  Co  Co15  1  0.62500000  0.87500000  0.87500000  1
  O  O16  1  0.31641027  0.03628278  0.26725652  1
  O  O17  1  0.73468959  0.16287419  0.38116259  1
  O  O18  1  0.08087167  0.27902885  0.50482054  1
  O  O19  1  0.46503666  0.41618736  0.65052530  1
  O  O20  1  0.82112063  0.53262153  0.75856531  1
  O  O21  1  0.23599522  0.65708257  0.88920208  1
  O  O22  1  0.56017281  0.78439473  0.01847129  1
  O  O23  1  0.99384907  0.90869368  0.13674745  1
  O  O24  1  0.01400478  0.09291743  0.86079792  1
  O  O25  1  0.42888037  0.21737947  0.99143469  1
  O  O26  1  0.78496334  0.33381264  0.09947470  1
  O  O27  1  0.16912833  0.47097215  0.24517946  1
  O  O28  1  0.51530941  0.58712581  0.36883741  1
  O  O29  1  0.93358973  0.71371722  0.48274348  1
  O  O30  1  0.25615193  0.84130732  0.61325255  1
  O  O31  1  0.68982819  0.96560527  0.73152871  1
