# generated using pymatgen
data_Li3V3P8O29
_symmetry_space_group_name_H-M   'P 1'
_cell_length_a   9.74038072
_cell_length_b   9.74022552
_cell_length_c   14.31226680
_cell_angle_alpha   90.21458824
_cell_angle_beta   90.21520339
_cell_angle_gamma   60.10153594
_symmetry_Int_Tables_number   1
_chemical_formula_structural   Li3V3P8O29
_chemical_formula_sum   'Li6 V6 P16 O58'
_cell_volume   1177.12710464
_cell_formula_units_Z   2
loop_
 _symmetry_equiv_pos_site_id
 _symmetry_equiv_pos_as_xyz
  1  'x, y, z'
loop_
 _atom_site_type_symbol
 _atom_site_label
 _atom_site_symmetry_multiplicity
 _atom_site_fract_x
 _atom_site_fract_y
 _atom_site_fract_z
 _atom_site_occupancy
  Li  Li0  1  0.90740993  0.32617630  0.55889345  1
  Li  Li1  1  0.76681093  0.32776202  0.05839125  1
  Li  Li2  1  0.32617021  0.90743462  0.05888510  1
  Li  Li3  1  0.32771559  0.76687706  0.55838822  1
  Li  Li4  1  0.98465816  0.95986533  0.00336073  1
  Li  Li5  1  0.95977483  0.98461348  0.50340672  1
  V  V6  1  0.56414731  0.43500187  0.25213726  1
  V  V7  1  0.43500711  0.56415610  0.75211476  1
  V  V8  1  0.56696097  0.99711205  0.74666679  1
  V  V9  1  0.44044735  0.00266268  0.25171797  1
  V  V10  1  0.99713658  0.56695922  0.24666344  1
  V  V11  1  0.00269590  0.44042197  0.75172183  1
  P  P12  1  0.91570120  0.78330384  0.83970892  1
  P  P13  1  0.78334187  0.91567799  0.33968176  1
  P  P14  1  0.91444978  0.31264560  0.34384950  1
  P  P15  1  0.66434543  0.66518095  0.13154419  1
  P  P16  1  0.66518460  0.66431916  0.63152356  1
  P  P17  1  0.77635602  0.31480006  0.84289033  1
  P  P18  1  0.69407220  0.22037493  0.66287811  1
  P  P19  1  0.31260768  0.91447255  0.84385083  1
  P  P20  1  0.69654227  0.08496059  0.15661694  1
  P  P21  1  0.31478740  0.77636190  0.34291167  1
  P  P22  1  0.22037369  0.69410208  0.16289201  1
  P  P23  1  0.32931700  0.33761324  0.36559388  1
  P  P24  1  0.33766317  0.32929537  0.86559568  1
  P  P25  1  0.08495776  0.69652928  0.65666061  1
  P  P26  1  0.21967036  0.08557269  0.66289794  1
  P  P27  1  0.08554553  0.21966746  0.16291028  1
  O  O28  1  0.00858126  0.79197806  0.57256885  1
  O  O29  1  0.91509106  0.74045142  0.32857044  1
  O  O30  1  0.79193100  0.00862110  0.07255438  1
  O  O31  1  0.74045992  0.91501618  0.82856644  1
  O  O32  1  0.92127877  0.61993808  0.82689236  1
  O  O33  1  0.81161963  0.66600340  0.17672422  1
  O  O34  1  0.91350101  0.46980197  0.32650223  1
  O  O35  1  0.99095962  0.20945566  0.08405067  1
  O  O36  1  0.91477900  0.34854429  0.82758742  1
  O  O37  1  0.66593912  0.81162404  0.67669728  1
  O  O38  1  0.61998383  0.92124162  0.32689947  1
  O  O39  1  0.81471308  0.51444755  0.67212707  1
  O  O40  1  0.66376998  0.65845684  0.02767914  1
  O  O41  1  0.65842697  0.66373603  0.52764915  1
  O  O42  1  0.66916020  0.51316191  0.17371733  1
  O  O43  1  0.46977125  0.91353220  0.82652861  1
  O  O44  1  0.51444385  0.81471372  0.17214499  1
  O  O45  1  0.74267486  0.34280927  0.32769315  1
  O  O46  1  0.79114109  0.19768953  0.75984097  1
  O  O47  1  0.79827988  0.20668703  0.58303946  1
  O  O48  1  0.78513639  0.24036634  0.93468950  1
  O  O49  1  0.61847250  0.47261098  0.82576277  1
  O  O50  1  0.51316187  0.66913374  0.67369481  1
  O  O51  1  0.65310920  0.26256852  0.16288293  1
  O  O52  1  0.47259203  0.61846628  0.32579062  1
  O  O53  1  0.34857423  0.91476399  0.32761562  1
  O  O54  1  0.79957734  0.00414963  0.24926987  1
  O  O55  1  0.79876615  0.99268098  0.42460006  1
  O  O56  1  0.20947463  0.99100094  0.58402778  1
  O  O57  1  0.65502438  0.08447915  0.66489314  1
  O  O58  1  0.53872347  0.38107648  0.67281397  1
  O  O59  1  0.34279071  0.74268603  0.82767215  1
  O  O60  1  0.47796621  0.33756248  0.32066045  1
  O  O61  1  0.38107608  0.53875705  0.17284137  1
  O  O62  1  0.20668261  0.79830217  0.08304714  1
  O  O63  1  0.24033176  0.78515092  0.43469736  1
  O  O64  1  0.19767184  0.79118016  0.25985138  1
  O  O65  1  0.26253495  0.65313059  0.66290063  1
  O  O66  1  0.48095981  0.18349348  0.81934985  1
  O  O67  1  0.54143355  0.07743508  0.17070160  1
  O  O68  1  0.33760019  0.47795287  0.82066270  1
  O  O69  1  0.33428034  0.33143003  0.96877808  1
  O  O70  1  0.33150501  0.33417460  0.46878291  1
  O  O71  1  0.18350617  0.48092829  0.31936423  1
  O  O72  1  0.38113050  0.08029736  0.67245502  1
  O  O73  1  0.33464023  0.18663344  0.31855803  1
  O  O74  1  0.08449996  0.65501857  0.16489535  1
  O  O75  1  0.00416427  0.79957990  0.74929780  1
  O  O76  1  0.99265197  0.79871818  0.92463341  1
  O  O77  1  0.07741339  0.54144649  0.67069439  1
  O  O78  1  0.18665435  0.33464812  0.81856296  1
  O  O79  1  0.08025424  0.38115052  0.17244057  1
  O  O80  1  0.26097629  0.08327883  0.16098662  1
  O  O81  1  0.23710596  0.97755840  0.93600840  1
  O  O82  1  0.19434881  0.01764062  0.76114554  1
  O  O83  1  0.08327704  0.26100109  0.66097439  1
  O  O84  1  0.97754382  0.23717632  0.43603023  1
  O  O85  1  0.01762354  0.19435814  0.26116597  1
