# generated using pymatgen
data_Mg30AlCO32
_symmetry_space_group_name_H-M   'P 1'
_cell_length_a   8.45582442
_cell_length_b   8.53786468
_cell_length_c   8.53786468
_cell_angle_alpha   90.00000000
_cell_angle_beta   90.00000000
_cell_angle_gamma   90.00000000
_symmetry_Int_Tables_number   1
_chemical_formula_structural   Mg30AlCO32
_chemical_formula_sum   'Mg30 Al1 C1 O32'
_cell_volume   616.38844821
_cell_formula_units_Z   1
loop_
 _symmetry_equiv_pos_site_id
 _symmetry_equiv_pos_as_xyz
  1  'x, y, z'
loop_
 _atom_site_type_symbol
 _atom_site_label
 _atom_site_symmetry_multiplicity
 _atom_site_fract_x
 _atom_site_fract_y
 _atom_site_fract_z
 _atom_site_occupancy
  Mg  Mg0  1  -0.00000000  -0.00000000  0.50000000  1
  Mg  Mg1  1  -0.00000000  0.50000000  0.00000000  1
  Mg  Mg2  1  0.50000000  -0.00000000  0.00000000  1
  Mg  Mg3  1  0.50000000  -0.00000000  0.50000000  1
  Mg  Mg4  1  0.50000000  0.50000000  0.00000000  1
  Mg  Mg5  1  0.50000000  0.50000000  0.50000000  1
  Mg  Mg6  1  -0.00000000  0.25471713  0.25471713  1
  Mg  Mg7  1  -0.00000000  0.25471713  0.74528287  1
  Mg  Mg8  1  -0.00000000  0.74528287  0.25471713  1
  Mg  Mg9  1  -0.00000000  0.74528287  0.74528287  1
  Mg  Mg10  1  0.50000000  0.25129590  0.25129590  1
  Mg  Mg11  1  0.50000000  0.25129590  0.74870410  1
  Mg  Mg12  1  0.50000000  0.74870410  0.25129590  1
  Mg  Mg13  1  0.50000000  0.74870410  0.74870410  1
  Mg  Mg14  1  0.24962434  -0.00000000  0.25145549  1
  Mg  Mg15  1  0.24962434  -0.00000000  0.74854451  1
  Mg  Mg16  1  0.24634944  0.50000000  0.25244331  1
  Mg  Mg17  1  0.24634944  0.50000000  0.74755669  1
  Mg  Mg18  1  0.75037566  -0.00000000  0.25145549  1
  Mg  Mg19  1  0.75037566  -0.00000000  0.74854451  1
  Mg  Mg20  1  0.75365056  0.50000000  0.25244331  1
  Mg  Mg21  1  0.75365056  0.50000000  0.74755669  1
  Mg  Mg22  1  0.24962434  0.25145549  0.00000000  1
  Mg  Mg23  1  0.24634944  0.25244331  0.50000000  1
  Mg  Mg24  1  0.24962434  0.74854451  -0.00000000  1
  Mg  Mg25  1  0.24634944  0.74755669  0.50000000  1
  Mg  Mg26  1  0.75037566  0.25145549  -0.00000000  1
  Mg  Mg27  1  0.75365056  0.25244331  0.50000000  1
  Mg  Mg28  1  0.75037566  0.74854451  -0.00000000  1
  Mg  Mg29  1  0.75365056  0.74755669  0.50000000  1
  Al  Al30  1  -0.00000000  -0.00000000  0.00000000  1
  C  C31  1  -0.00000000  0.50000000  0.50000000  1
  O  O32  1  0.23693928  -0.00000000  0.00000000  1
  O  O33  1  0.25122009  -0.00000000  0.50000000  1
  O  O34  1  0.25122009  0.50000000  0.00000000  1
  O  O35  1  0.25477769  0.50000000  0.50000000  1
  O  O36  1  0.76306072  -0.00000000  -0.00000000  1
  O  O37  1  0.74877991  -0.00000000  0.50000000  1
  O  O38  1  0.74877991  0.50000000  -0.00000000  1
  O  O39  1  0.74522231  0.50000000  0.50000000  1
  O  O40  1  0.24928103  0.25002478  0.25002478  1
  O  O41  1  0.24928103  0.25002478  0.74997522  1
  O  O42  1  0.24928103  0.74997522  0.25002478  1
  O  O43  1  0.24928103  0.74997522  0.74997522  1
  O  O44  1  0.75071897  0.25002478  0.25002478  1
  O  O45  1  0.75071897  0.25002478  0.74997522  1
  O  O46  1  0.75071897  0.74997522  0.25002478  1
  O  O47  1  0.75071897  0.74997522  0.74997522  1
  O  O48  1  -0.00000000  -0.00000000  0.23160677  1
  O  O49  1  -0.00000000  -0.00000000  0.76839323  1
  O  O50  1  -0.00000000  0.50000000  0.22904682  1
  O  O51  1  -0.00000000  0.50000000  0.77095318  1
  O  O52  1  0.50000000  -0.00000000  0.24668853  1
  O  O53  1  0.50000000  -0.00000000  0.75331147  1
  O  O54  1  0.50000000  0.50000000  0.24928644  1
  O  O55  1  0.50000000  0.50000000  0.75071356  1
  O  O56  1  -0.00000000  0.23160677  0.00000000  1
  O  O57  1  -0.00000000  0.22904682  0.50000000  1
  O  O58  1  -0.00000000  0.76839323  -0.00000000  1
  O  O59  1  -0.00000000  0.77095318  0.50000000  1
  O  O60  1  0.50000000  0.24668853  -0.00000000  1
  O  O61  1  0.50000000  0.24928644  0.50000000  1
  O  O62  1  0.50000000  0.75331147  0.00000000  1
  O  O63  1  0.50000000  0.75071356  0.50000000  1
