# generated using pymatgen
data_MgPb5
_symmetry_space_group_name_H-M   'P 1'
_cell_length_a   5.98912781
_cell_length_b   5.98912926
_cell_length_c   6.79843396
_cell_angle_alpha   116.13440683
_cell_angle_beta   63.86558490
_cell_angle_gamma   119.99999143
_symmetry_Int_Tables_number   1
_chemical_formula_structural   MgPb5
_chemical_formula_sum   'Mg1 Pb5'
_cell_volume   181.82989102
_cell_formula_units_Z   1
loop_
 _symmetry_equiv_pos_site_id
 _symmetry_equiv_pos_as_xyz
  1  'x, y, z'
loop_
 _atom_site_type_symbol
 _atom_site_label
 _atom_site_symmetry_multiplicity
 _atom_site_fract_x
 _atom_site_fract_y
 _atom_site_fract_z
 _atom_site_occupancy
  Mg  Mg0  1  0.83333300  0.50000000  0.50000000  1
  Pb  Pb1  1  0.33333200  0.66465236  0.00000000  1
  Pb  Pb2  1  0.66867764  0.33534364  1.00000000  1
  Pb  Pb3  1  0.99798836  0.00000000  -0.00000000  1
  Pb  Pb4  1  0.16809586  0.16523514  0.49570843  1
  Pb  Pb5  1  0.49857014  0.83476286  0.50429157  1
