# generated using pymatgen
data_Li9Mn2Co5O16
_symmetry_space_group_name_H-M   'P 1'
_cell_length_a   3.00781918
_cell_length_b   10.31500747
_cell_length_c   9.91508013
_cell_angle_alpha   106.77277009
_cell_angle_beta   92.50099767
_cell_angle_gamma   82.59020208
_symmetry_Int_Tables_number   1
_chemical_formula_structural   Li9Mn2Co5O16
_chemical_formula_sum   'Li9 Mn2 Co5 O16'
_cell_volume   292.06853242
_cell_formula_units_Z   1
loop_
 _symmetry_equiv_pos_site_id
 _symmetry_equiv_pos_as_xyz
  1  'x, y, z'
loop_
 _atom_site_type_symbol
 _atom_site_label
 _atom_site_symmetry_multiplicity
 _atom_site_fract_x
 _atom_site_fract_y
 _atom_site_fract_z
 _atom_site_occupancy
  Li  Li0  1  0.93013257  0.13040313  0.31088318  1
  Li  Li1  1  0.43353483  0.12595282  0.81114535  1
  Li  Li2  1  0.31485354  0.37629466  0.43164319  1
  Li  Li3  1  0.80591158  0.37111587  0.93942955  1
  Li  Li4  1  0.69408842  0.62888413  0.56057045  1
  Li  Li5  1  0.18514646  0.62370534  0.06835681  1
  Li  Li6  1  0.06646517  0.87404718  0.68885465  1
  Li  Li7  1  0.56986743  0.86959687  0.18911682  1
  Li  Li8  1  0.75000000  0.50000000  0.25000000  1
  Mn  Mn9  1  0.00777421  0.00354539  0.00180664  1
  Mn  Mn10  1  0.49222579  0.99645461  0.49819336  1
  Co  Co11  1  0.35772153  0.26220744  0.13208961  1
  Co  Co12  1  0.86755789  0.25077619  0.62476336  1
  Co  Co13  1  0.25000000  0.50000000  0.75000000  1
  Co  Co14  1  0.14227847  0.73779256  0.36791039  1
  Co  Co15  1  0.63244211  0.74922381  0.87523664  1
  O  O16  1  0.43393172  0.07780082  0.15203544  1
  O  O17  1  0.92284718  0.06708641  0.64989986  1
  O  O18  1  0.80649637  0.31033357  0.27056117  1
  O  O19  1  0.34809680  0.31573267  0.77091211  1
  O  O20  1  0.20994683  0.58264955  0.40605993  1
  O  O21  1  0.72314337  0.56500419  0.89852137  1
  O  O22  1  0.56708327  0.81477738  0.52048811  1
  O  O23  1  0.10899837  0.81874299  0.02311367  1
  O  O24  1  0.39100163  0.18125701  0.47688533  1
  O  O25  1  0.93291673  0.18522262  0.97951189  1
  O  O26  1  0.77685763  0.43499581  0.60147863  1
  O  O27  1  0.29005317  0.41735045  0.09394107  1
  O  O28  1  0.15190320  0.68426733  0.72908689  1
  O  O29  1  0.69350263  0.68966643  0.22943983  1
  O  O30  1  0.57715282  0.93291359  0.85010014  1
  O  O31  1  0.06606828  0.92219918  0.34796456  1
