# generated using pymatgen
data_Zn3(PO4)2
_symmetry_space_group_name_H-M   'P 1'
_cell_length_a   4.99059328
_cell_length_b   9.14046930
_cell_length_c   8.34663533
_cell_angle_alpha   90.00075759
_cell_angle_beta   127.45079760
_cell_angle_gamma   90.00120115
_symmetry_Int_Tables_number   1
_chemical_formula_structural   Zn3(PO4)2
_chemical_formula_sum   'Zn6 P4 O16'
_cell_volume   302.26278821
_cell_formula_units_Z   2
loop_
 _symmetry_equiv_pos_site_id
 _symmetry_equiv_pos_as_xyz
  1  'x, y, z'
loop_
 _atom_site_type_symbol
 _atom_site_label
 _atom_site_symmetry_multiplicity
 _atom_site_fract_x
 _atom_site_fract_y
 _atom_site_fract_z
 _atom_site_occupancy
  Zn  Zn0  1  0.13589067  0.37107353  0.16580084  1
  Zn  Zn1  1  0.86411100  0.87107138  0.33419831  1
  Zn  Zn2  1  0.86410497  0.62892467  0.83419617  1
  Zn  Zn3  1  0.13588880  0.12892917  0.66580162  1
  Zn  Zn4  1  0.99999874  0.99999891  0.99999991  1
  Zn  Zn5  1  0.99999703  0.49999808  0.49999683  1
  P  P6  1  0.34650440  0.68795150  0.33081944  1
  P  P7  1  0.65347390  0.18799364  0.16916087  1
  P  P8  1  0.65349894  0.31204898  0.66918182  1
  P  P9  1  0.34652673  0.81200630  0.83083912  1
  O  O10  1  0.21584988  0.84801624  0.28855581  1
  O  O11  1  0.78414114  0.34799786  0.21144191  1
  O  O12  1  0.78415006  0.15198170  0.71144159  1
  O  O13  1  0.21585901  0.65200353  0.78856134  1
  O  O14  1  0.09895544  0.58891078  0.14733209  1
  O  O15  1  0.90108769  0.08889380  0.35269473  1
  O  O16  1  0.90104945  0.41109003  0.85266944  1
  O  O17  1  0.09891566  0.91110703  0.64730657  1
  O  O18  1  0.69660276  0.68199250  0.36989992  1
  O  O19  1  0.30340566  0.18198730  0.13009921  1
  O  O20  1  0.30339274  0.31800799  0.63010238  1
  O  O21  1  0.69659423  0.81801133  0.86989798  1
  O  O22  1  0.38426972  0.62858144  0.51896044  1
  O  O23  1  0.61573576  0.12857956  0.98103661  1
  O  O24  1  0.61572434  0.37142060  0.48103494  1
  O  O25  1  0.38427429  0.87142415  0.01896610  1
