# generated using pymatgen
data_Si(H3C)4
_symmetry_space_group_name_H-M   'P 1'
_cell_length_a   10.54898393
_cell_length_b   10.54898393
_cell_length_c   10.54898393
_cell_angle_alpha   90.00000000
_cell_angle_beta   90.00000000
_cell_angle_gamma   90.00000000
_symmetry_Int_Tables_number   1
_chemical_formula_structural   Si(H3C)4
_chemical_formula_sum   'Si8 H96 C32'
_cell_volume   1173.90213428
_cell_formula_units_Z   8
loop_
 _symmetry_equiv_pos_site_id
 _symmetry_equiv_pos_as_xyz
  1  'x, y, z'
loop_
 _atom_site_type_symbol
 _atom_site_label
 _atom_site_symmetry_multiplicity
 _atom_site_fract_x
 _atom_site_fract_y
 _atom_site_fract_z
 _atom_site_occupancy
  Si  Si0  1  0.13420288  0.13420288  0.13420288  1
  Si  Si1  1  0.36579812  0.86579712  0.63420288  1
  Si  Si2  1  0.63420288  0.36579812  0.86579712  1
  Si  Si3  1  0.86579712  0.63420288  0.36579812  1
  Si  Si4  1  0.86579712  0.86579712  0.86579712  1
  Si  Si5  1  0.63420288  0.13420288  0.36579812  1
  Si  Si6  1  0.36579812  0.63420288  0.13420288  1
  Si  Si7  1  0.13420288  0.36579812  0.63420288  1
  H  H8  1  0.09086013  0.96878869  0.29838934  1
  H  H9  1  0.40914087  0.03121131  0.79838834  1
  H  H10  1  0.59085913  0.53121131  0.70161066  1
  H  H11  1  0.90913987  0.46878869  0.20161166  1
  H  H12  1  0.29838934  0.09086013  0.96878869  1
  H  H13  1  0.96878869  0.29838934  0.09086013  1
  H  H14  1  0.20161166  0.90913987  0.46878869  1
  H  H15  1  0.03121131  0.79838834  0.40914087  1
  H  H16  1  0.79838834  0.40914087  0.03121131  1
  H  H17  1  0.53121131  0.70161066  0.59085913  1
  H  H18  1  0.70161066  0.59085913  0.53121131  1
  H  H19  1  0.46878869  0.20161166  0.90913987  1
  H  H20  1  0.90913987  0.03121131  0.70161066  1
  H  H21  1  0.59085913  0.96878869  0.20161166  1
  H  H22  1  0.40914087  0.46878869  0.29838934  1
  H  H23  1  0.09086013  0.53121131  0.79838834  1
  H  H24  1  0.70161066  0.90913987  0.03121131  1
  H  H25  1  0.03121131  0.70161066  0.90913987  1
  H  H26  1  0.79838834  0.09086013  0.53121131  1
  H  H27  1  0.96878869  0.20161166  0.59085913  1
  H  H28  1  0.20161166  0.59085913  0.96878869  1
  H  H29  1  0.46878869  0.29838934  0.40914087  1
  H  H30  1  0.29838934  0.40914087  0.46878869  1
  H  H31  1  0.53121131  0.79838834  0.09086013  1
  H  H32  1  0.31499439  0.28173890  0.18316623  1
  H  H33  1  0.18500461  0.71826210  0.68316523  1
  H  H34  1  0.81499439  0.21826210  0.81683477  1
  H  H35  1  0.68500561  0.78173790  0.31683477  1
  H  H36  1  0.18316623  0.31499439  0.28173890  1
  H  H37  1  0.28173890  0.18316623  0.31499439  1
  H  H38  1  0.31683477  0.68500561  0.78173790  1
  H  H39  1  0.71826210  0.68316523  0.18500461  1
  H  H40  1  0.68316523  0.18500461  0.71826210  1
  H  H41  1  0.21826210  0.81683477  0.81499439  1
  H  H42  1  0.81683477  0.81499439  0.21826210  1
  H  H43  1  0.78173790  0.31683477  0.68500561  1
  H  H44  1  0.68500561  0.71826210  0.81683477  1
  H  H45  1  0.81499439  0.28173890  0.31683477  1
  H  H46  1  0.18500461  0.78173790  0.18316623  1
  H  H47  1  0.31499439  0.21826210  0.68316523  1
  H  H48  1  0.81683477  0.68500561  0.71826210  1
  H  H49  1  0.71826210  0.81683477  0.68500561  1
  H  H50  1  0.68316523  0.31499439  0.21826210  1
  H  H51  1  0.28173890  0.31683477  0.81499439  1
  H  H52  1  0.31683477  0.81499439  0.28173890  1
  H  H53  1  0.78173790  0.18316623  0.18500461  1
  H  H54  1  0.18316623  0.18500461  0.78173790  1
  H  H55  1  0.21826210  0.68316523  0.31499439  1
  H  H56  1  0.96784422  0.96947760  0.18404611  1
  H  H57  1  0.53215578  0.03052240  0.68404511  1
  H  H58  1  0.46784522  0.53052240  0.81595489  1
  H  H59  1  0.03215578  0.46947760  0.31595389  1
  H  H60  1  0.18404611  0.96784422  0.96947760  1
  H  H61  1  0.96947760  0.18404611  0.96784422  1
  H  H62  1  0.31595389  0.03215578  0.46947760  1
  H  H63  1  0.03052240  0.68404511  0.53215578  1
  H  H64  1  0.68404511  0.53215578  0.03052240  1
  H  H65  1  0.53052240  0.81595489  0.46784522  1
  H  H66  1  0.81595489  0.46784522  0.53052240  1
  H  H67  1  0.46947760  0.31595389  0.03215578  1
  H  H68  1  0.03215578  0.03052240  0.81595489  1
  H  H69  1  0.46784522  0.96947760  0.31595389  1
  H  H70  1  0.53215578  0.46947760  0.18404611  1
  H  H71  1  0.96784422  0.53052240  0.68404511  1
  H  H72  1  0.81595489  0.03215578  0.03052240  1
  H  H73  1  0.03052240  0.81595489  0.03215578  1
  H  H74  1  0.68404511  0.96784422  0.53052240  1
  H  H75  1  0.96947760  0.31595389  0.46784522  1
  H  H76  1  0.31595389  0.46784522  0.96947760  1
  H  H77  1  0.46947760  0.18404611  0.53215578  1
  H  H78  1  0.18404611  0.53215578  0.46947760  1
  H  H79  1  0.53052240  0.68404511  0.96784422  1
  H  H80  1  0.97231751  0.08740377  0.30342712  1
  H  H81  1  0.52768249  0.91259523  0.80342812  1
  H  H82  1  0.47231851  0.41259523  0.69657188  1
  H  H83  1  0.02768149  0.58740477  0.19657288  1
  H  H84  1  0.30342712  0.97231751  0.08740377  1
  H  H85  1  0.08740377  0.30342712  0.97231751  1
  H  H86  1  0.19657288  0.02768149  0.58740477  1
  H  H87  1  0.91259523  0.80342812  0.52768249  1
  H  H88  1  0.80342812  0.52768249  0.91259523  1
  H  H89  1  0.41259523  0.69657188  0.47231851  1
  H  H90  1  0.69657188  0.47231851  0.41259523  1
  H  H91  1  0.58740477  0.19657288  0.02768149  1
  H  H92  1  0.02768149  0.91259523  0.69657188  1
  H  H93  1  0.47231851  0.08740377  0.19657288  1
  H  H94  1  0.52768249  0.58740477  0.30342712  1
  H  H95  1  0.97231751  0.41259523  0.80342812  1
  H  H96  1  0.69657188  0.02768149  0.91259523  1
  H  H97  1  0.91259523  0.69657188  0.02768149  1
  H  H98  1  0.80342812  0.97231751  0.41259523  1
  H  H99  1  0.08740377  0.19657288  0.47231851  1
  H  H100  1  0.19657288  0.47231851  0.08740377  1
  H  H101  1  0.58740477  0.30342712  0.52768249  1
  H  H102  1  0.30342712  0.52768249  0.58740477  1
  H  H103  1  0.41259523  0.80342812  0.97231751  1
  C  C104  1  0.03130029  0.03082804  0.23878493  1
  C  C105  1  0.46869971  0.96917196  0.73878493  1
  C  C106  1  0.53130029  0.46917196  0.76121507  1
  C  C107  1  0.96869971  0.53082804  0.26121507  1
  C  C108  1  0.23878493  0.03130029  0.03082804  1
  C  C109  1  0.03082804  0.23878493  0.03130029  1
  C  C110  1  0.26121507  0.96869971  0.53082804  1
  C  C111  1  0.96917196  0.73878493  0.46869971  1
  C  C112  1  0.73878493  0.46869971  0.96917196  1
  C  C113  1  0.46917196  0.76121507  0.53130029  1
  C  C114  1  0.76121507  0.53130029  0.46917196  1
  C  C115  1  0.53082804  0.26121507  0.96869971  1
  C  C116  1  0.96869971  0.96917196  0.76121507  1
  C  C117  1  0.53130029  0.03082804  0.26121507  1
  C  C118  1  0.46869971  0.53082804  0.23878493  1
  C  C119  1  0.03130029  0.46917196  0.73878493  1
  C  C120  1  0.76121507  0.96869971  0.96917196  1
  C  C121  1  0.96917196  0.76121507  0.96869971  1
  C  C122  1  0.73878493  0.03130029  0.46917196  1
  C  C123  1  0.03082804  0.26121507  0.53130029  1
  C  C124  1  0.26121507  0.53130029  0.03082804  1
  C  C125  1  0.53082804  0.23878493  0.46869971  1
  C  C126  1  0.23878493  0.46869971  0.53082804  1
  C  C127  1  0.46917196  0.73878493  0.03130029  1
  C  C128  1  0.23789026  0.23789026  0.23789026  1
  C  C129  1  0.26210974  0.76210974  0.73789026  1
  C  C130  1  0.73789026  0.26210974  0.76210974  1
  C  C131  1  0.76210974  0.73789026  0.26210974  1
  C  C132  1  0.76210974  0.76210974  0.76210974  1
  C  C133  1  0.73789026  0.23789026  0.26210974  1
  C  C134  1  0.26210974  0.73789026  0.23789026  1
  C  C135  1  0.23789026  0.26210974  0.73789026  1
