# generated using pymatgen
data_NdZnAu2
_symmetry_space_group_name_H-M   'P 1'
_cell_length_a   4.95930543
_cell_length_b   4.95930951
_cell_length_c   4.95930909
_cell_angle_alpha   59.99991024
_cell_angle_beta   59.99992784
_cell_angle_gamma   59.99987761
_symmetry_Int_Tables_number   1
_chemical_formula_structural   NdZnAu2
_chemical_formula_sum   'Nd1 Zn1 Au2'
_cell_volume   86.24765893
_cell_formula_units_Z   1
loop_
 _symmetry_equiv_pos_site_id
 _symmetry_equiv_pos_as_xyz
  1  'x, y, z'
loop_
 _atom_site_type_symbol
 _atom_site_label
 _atom_site_symmetry_multiplicity
 _atom_site_fract_x
 _atom_site_fract_y
 _atom_site_fract_z
 _atom_site_occupancy
  Nd  Nd0  1  0.24999908  0.24999907  0.24999905  1
  Zn  Zn1  1  0.74999996  0.75000002  0.75000001  1
  Au  Au2  1  0.99999990  0.00000001  0.99999999  1
  Au  Au3  1  0.49999906  0.49999890  0.49999895  1
