# generated using pymatgen
data_H6PbCI3N
_symmetry_space_group_name_H-M   'P 1'
_cell_length_a   8.55672637
_cell_length_b   12.96364987
_cell_length_c   9.25046000
_cell_angle_alpha   90.00000000
_cell_angle_beta   90.00000000
_cell_angle_gamma   90.00000000
_symmetry_Int_Tables_number   1
_chemical_formula_structural   H6PbCI3N
_chemical_formula_sum   'H24 Pb4 C4 I12 N4'
_cell_volume   1026.12026957
_cell_formula_units_Z   4
loop_
 _symmetry_equiv_pos_site_id
 _symmetry_equiv_pos_as_xyz
  1  'x, y, z'
loop_
 _atom_site_type_symbol
 _atom_site_label
 _atom_site_symmetry_multiplicity
 _atom_site_fract_x
 _atom_site_fract_y
 _atom_site_fract_z
 _atom_site_occupancy
  H  H0  1  0.49426441  0.31462392  0.14297354  1
  H  H1  1  0.50573559  0.68537608  0.85702646  1
  H  H2  1  0.00573559  0.68537608  0.64297354  1
  H  H3  1  0.99426441  0.31462392  0.35702646  1
  H  H4  1  0.50573559  0.81462392  0.85702646  1
  H  H5  1  0.49426441  0.18537608  0.14297354  1
  H  H6  1  0.99426441  0.18537608  0.35702646  1
  H  H7  1  0.00573559  0.81462392  0.64297354  1
  H  H8  1  0.33805901  0.25000000  0.07863164  1
  H  H9  1  0.66194099  0.75000000  0.92136836  1
  H  H10  1  0.16194099  0.75000000  0.57863164  1
  H  H11  1  0.83805901  0.25000000  0.42136836  1
  H  H12  1  0.49477495  0.31923855  0.87988878  1
  H  H13  1  0.50522505  0.68076145  0.12011122  1
  H  H14  1  0.00522505  0.68076145  0.37988878  1
  H  H15  1  0.99477495  0.31923855  0.62011222  1
  H  H16  1  0.50522505  0.81923855  0.12011122  1
  H  H17  1  0.49477495  0.18076145  0.87988878  1
  H  H18  1  0.99477495  0.18076145  0.62011222  1
  H  H19  1  0.00522505  0.81923855  0.37988878  1
  H  H20  1  0.65984814  0.25000000  0.94966295  1
  H  H21  1  0.34015186  0.75000000  0.05033705  1
  H  H22  1  0.84015186  0.75000000  0.44966295  1
  H  H23  1  0.15984814  0.25000000  0.55033705  1
  Pb  Pb24  1  0.50000000  0.00000000  0.50000000  1
  Pb  Pb25  1  -0.00000000  0.00000000  0.00000000  1
  Pb  Pb26  1  0.50000000  0.50000000  0.50000000  1
  Pb  Pb27  1  -0.00000000  0.50000000  0.00000000  1
  C  C28  1  0.53235504  0.25000000  0.93783800  1
  C  C29  1  0.46764496  0.75000000  0.06216200  1
  C  C30  1  0.96764496  0.75000000  0.43783800  1
  C  C31  1  0.03235504  0.25000000  0.56216200  1
  I  I32  1  0.53773334  0.25000000  0.51259610  1
  I  I33  1  0.46226666  0.75000000  0.48740390  1
  I  I34  1  0.96226666  0.75000000  0.01259610  1
  I  I35  1  0.03773334  0.25000000  0.98740390  1
  I  I36  1  0.81606640  0.97785302  0.69283896  1
  I  I37  1  0.18393360  0.02214698  0.30716104  1
  I  I38  1  0.68393360  0.02214698  0.19283896  1
  I  I39  1  0.31606640  0.97785302  0.80716104  1
  I  I40  1  0.18393360  0.47785302  0.30716104  1
  I  I41  1  0.81606640  0.52214698  0.69283896  1
  I  I42  1  0.31606640  0.52214698  0.80716104  1
  I  I43  1  0.68393360  0.47785302  0.19283896  1
  N  N44  1  0.45960903  0.25000000  0.08486319  1
  N  N45  1  0.54039097  0.75000000  0.91513681  1
  N  N46  1  0.04039097  0.75000000  0.58486319  1
  N  N47  1  0.95960903  0.25000000  0.41513681  1
