# generated using pymatgen
data_Yb2Mg
_symmetry_space_group_name_H-M   'P 1'
_cell_length_a   3.79044003
_cell_length_b   6.55026963
_cell_length_c   9.41247104
_cell_angle_alpha   68.69876577
_cell_angle_beta   90.00000000
_cell_angle_gamma   106.81812703
_symmetry_Int_Tables_number   1
_chemical_formula_structural   Yb2Mg
_chemical_formula_sum   'Yb4 Mg2'
_cell_volume   206.96597059
_cell_formula_units_Z   2
loop_
 _symmetry_equiv_pos_site_id
 _symmetry_equiv_pos_as_xyz
  1  'x, y, z'
loop_
 _atom_site_type_symbol
 _atom_site_label
 _atom_site_symmetry_multiplicity
 _atom_site_fract_x
 _atom_site_fract_y
 _atom_site_fract_z
 _atom_site_occupancy
  Yb  Yb0  1  0.02301586  0.04603071  0.93127937  1
  Yb  Yb1  1  0.69920714  0.39841529  0.12427463  1
  Yb  Yb2  1  0.37112186  0.74224473  0.32302018  1
  Yb  Yb3  1  0.35110014  0.70220027  0.73253582  1
  Mg  Mg4  1  0.05401438  0.10802875  0.44794162  1
  Mg  Mg5  1  0.66820662  0.33641425  0.60761538  1
