# generated using pymatgen
data_Li9Mn2Co5O16
_symmetry_space_group_name_H-M   'P 1'
_cell_length_a   3.01641937
_cell_length_b   10.12327755
_cell_length_c   10.02575753
_cell_angle_alpha   73.15702449
_cell_angle_beta   88.13374958
_cell_angle_gamma   91.17937541
_symmetry_Int_Tables_number   1
_chemical_formula_structural   Li9Mn2Co5O16
_chemical_formula_sum   'Li9 Mn2 Co5 O16'
_cell_volume   292.71442066
_cell_formula_units_Z   1
loop_
 _symmetry_equiv_pos_site_id
 _symmetry_equiv_pos_as_xyz
  1  'x, y, z'
loop_
 _atom_site_type_symbol
 _atom_site_label
 _atom_site_symmetry_multiplicity
 _atom_site_fract_x
 _atom_site_fract_y
 _atom_site_fract_z
 _atom_site_occupancy
  Li  Li0  1  0.99901783  0.24711885  0.74874400  1
  Li  Li1  1  0.49906860  0.75603875  0.49787533  1
  Li  Li2  1  0.00383226  0.24630850  0.24970272  1
  Li  Li3  1  0.50059717  0.24425587  0.50181473  1
  Li  Li4  1  0.00202517  0.75195216  0.25075390  1
  Li  Li5  1  0.50299262  0.25129150  0.00232596  1
  Li  Li6  1  0.49758890  0.74853994  0.99811032  1
  Li  Li7  1  0.99481450  0.75469195  0.75094190  1
  Li  Li8  1  0.00002632  0.00002978  0.49996594  1
  Mn  Mn9  1  0.00005259  -0.00006226  0.00021070  1
  Mn  Mn10  1  0.49974356  0.50045420  0.74945582  1
  Co  Co11  1  0.50029793  0.49952606  0.25055051  1
  Co  Co12  1  0.99808373  0.49971233  0.49788975  1
  Co  Co13  1  0.50734333  0.99927216  0.26153324  1
  Co  Co14  1  0.00172252  0.50022707  0.00220144  1
  Co  Co15  1  0.49287044  0.00082109  0.73849651  1
  O  O16  1  0.47648508  0.11074615  0.87018646  1
  O  O17  1  0.96418132  0.61801111  0.62300663  1
  O  O18  1  0.49611527  0.11496281  0.35991441  1
  O  O19  1  0.97388248  0.11453820  0.63451319  1
  O  O20  1  0.50445677  0.61465513  0.37448660  1
  O  O21  1  0.97578704  0.11394839  0.12481545  1
  O  O22  1  0.00642840  0.61687063  0.12622374  1
  O  O23  1  0.50689692  0.61348926  0.87763628  1
  O  O24  1  0.49303879  0.38653751  0.62255487  1
  O  O25  1  0.02819508  0.88535458  0.36524492  1
  O  O26  1  0.49583247  0.38530798  0.12505634  1
  O  O27  1  -0.00618193  0.38244213  0.37397021  1
  O  O28  1  0.52368450  0.88945200  0.12934948  1
  O  O29  1  0.03514748  0.38261708  0.87663603  1
  O  O30  1  0.02201869  0.88599361  0.87549408  1
  O  O31  1  0.50395417  0.88489545  0.64033856  1
