# generated using pymatgen
data_RbMnAs
_symmetry_space_group_name_H-M   'P 1'
_cell_length_a   4.20833738
_cell_length_b   4.20833738
_cell_length_c   11.08987335
_cell_angle_alpha   90.00000000
_cell_angle_beta   90.00000000
_cell_angle_gamma   90.00000000
_symmetry_Int_Tables_number   1
_chemical_formula_structural   RbMnAs
_chemical_formula_sum   'Rb2 Mn2 As2'
_cell_volume   196.40280487
_cell_formula_units_Z   2
loop_
 _symmetry_equiv_pos_site_id
 _symmetry_equiv_pos_as_xyz
  1  'x, y, z'
loop_
 _atom_site_type_symbol
 _atom_site_label
 _atom_site_symmetry_multiplicity
 _atom_site_fract_x
 _atom_site_fract_y
 _atom_site_fract_z
 _atom_site_occupancy
  Rb  Rb0  1  0.75000000  0.75000000  0.29441273  1
  Rb  Rb1  1  0.25000000  0.25000000  0.70558727  1
  Mn  Mn2  1  0.75000000  0.25000000  -0.00000000  1
  Mn  Mn3  1  0.25000000  0.75000000  -0.00000000  1
  As  As4  1  0.25000000  0.25000000  0.11880501  1
  As  As5  1  0.75000000  0.75000000  0.88119499  1
