# generated using pymatgen
data_Sm3Sc
_symmetry_space_group_name_H-M   'P 1'
_cell_length_a   7.19287904
_cell_length_b   7.19287985
_cell_length_c   5.66526429
_cell_angle_alpha   90.00000000
_cell_angle_beta   90.00000000
_cell_angle_gamma   120.00000103
_symmetry_Int_Tables_number   1
_chemical_formula_structural   Sm3Sc
_chemical_formula_sum   'Sm6 Sc2'
_cell_volume   253.83784099
_cell_formula_units_Z   2
loop_
 _symmetry_equiv_pos_site_id
 _symmetry_equiv_pos_as_xyz
  1  'x, y, z'
loop_
 _atom_site_type_symbol
 _atom_site_label
 _atom_site_symmetry_multiplicity
 _atom_site_fract_x
 _atom_site_fract_y
 _atom_site_fract_z
 _atom_site_occupancy
  Sm  Sm0  1  0.16948069  0.33896139  0.25000000  1
  Sm  Sm1  1  0.66103961  0.83051931  0.25000000  1
  Sm  Sm2  1  0.16948069  0.83051931  0.25000000  1
  Sm  Sm3  1  0.83051931  0.16948269  0.75000100  1
  Sm  Sm4  1  0.33896239  0.16948269  0.75000100  1
  Sm  Sm5  1  0.83052031  0.66103861  0.75000100  1
  Sc  Sc6  1  0.66666700  0.33333200  0.25000000  1
  Sc  Sc7  1  0.33333400  0.66666800  0.75000100  1
