# generated using pymatgen
data_H6PbCI3N
_symmetry_space_group_name_H-M   'P 1'
_cell_length_a   8.84962189
_cell_length_b   8.86929943
_cell_length_c   13.05495343
_cell_angle_alpha   89.62880432
_cell_angle_beta   89.50879472
_cell_angle_gamma   89.95641724
_symmetry_Int_Tables_number   1
_chemical_formula_structural   H6PbCI3N
_chemical_formula_sum   'H24 Pb4 C4 I12 N4'
_cell_volume   1024.62318036
_cell_formula_units_Z   4
loop_
 _symmetry_equiv_pos_site_id
 _symmetry_equiv_pos_as_xyz
  1  'x, y, z'
loop_
 _atom_site_type_symbol
 _atom_site_label
 _atom_site_symmetry_multiplicity
 _atom_site_fract_x
 _atom_site_fract_y
 _atom_site_fract_z
 _atom_site_occupancy
  H  H0  1  0.64852514  0.01973457  0.22797766  1
  H  H1  1  0.51664325  0.03464851  0.33286943  1
  H  H2  1  0.50166026  0.15907836  0.22399173  1
  H  H3  1  0.45277344  0.82353795  0.21943820  1
  H  H4  1  0.43992286  0.94058248  0.11937083  1
  H  H5  1  0.31556783  0.95420342  0.21576286  1
  H  H6  1  0.93638112  0.59574469  0.11671421  1
  H  H7  1  0.95231609  0.71865467  0.21253536  1
  H  H8  1  0.81357761  0.58932851  0.21440782  1
  H  H9  1  0.14603442  0.52096986  0.22672064  1
  H  H10  1  0.99786549  0.38317548  0.22872986  1
  H  H11  1  0.01533273  0.51338827  0.33285863  1
  H  H12  1  0.95353361  0.31548865  0.71800394  1
  H  H13  1  0.94508223  0.43441843  0.61885727  1
  H  H14  1  0.82341690  0.45324563  0.71649147  1
  H  H15  1  0.15965347  0.50044290  0.72589753  1
  H  H16  1  0.03073986  0.52123194  0.83219491  1
  H  H17  1  0.02079642  0.64781974  0.72434530  1
  H  H18  1  0.71857880  0.95207250  0.71146194  1
  H  H19  1  0.59339049  0.93327280  0.61710939  1
  H  H20  1  0.58909272  0.81362528  0.71614540  1
  H  H21  1  0.52072889  0.14564984  0.72544906  1
  H  H22  1  0.51510051  0.01816730  0.83311158  1
  H  H23  1  0.38263296  0.99788282  0.73058860  1
  Pb  Pb24  1  0.50912527  0.51663542  0.98860740  1
  Pb  Pb25  1  0.51755666  0.50999495  0.48859497  1
  Pb  Pb26  1  0.03011449  0.01173171  0.48953411  1
  Pb  Pb27  1  0.01063020  0.02989227  0.98957022  1
  C  C28  1  0.02878520  0.49839927  0.24990784  1
  C  C29  1  0.53124356  0.04491447  0.24955244  1
  C  C30  1  0.04444462  0.53176740  0.74882514  1
  C  C31  1  0.49852932  0.02931095  0.75021006  1
  I  I32  1  0.70298734  0.83100118  0.99460008  1
  I  I33  1  0.32468951  0.20917408  0.99738858  1
  I  I34  1  0.20745212  0.72032236  0.99812491  1
  I  I35  1  0.83042111  0.34352129  0.98970193  1
  I  I36  1  0.34358836  0.83039263  0.49007757  1
  I  I37  1  0.72026983  0.20834621  0.49904992  1
  I  I38  1  0.83158850  0.70457993  0.49461023  1
  I  I39  1  0.20931668  0.32565339  0.49646979  1
  I  I40  1  0.52370141  0.53179330  0.24012630  1
  I  I41  1  0.53198192  0.52364221  0.74010944  1
  I  I42  1  0.00642145  0.02235324  0.74178251  1
  I  I43  1  0.02226503  0.00658616  0.24175388  1
  N  N44  1  0.92694732  0.60698970  0.19566939  1
  N  N45  1  0.42897825  0.93448524  0.19857948  1
  N  N46  1  0.93526106  0.42789039  0.69811235  1
  N  N47  1  0.60635171  0.92625368  0.69600582  1
