# generated using pymatgen
data_Ca11(FeN5)2
_symmetry_space_group_name_H-M   'P 1'
_cell_length_a   6.19433225
_cell_length_b   6.19433202
_cell_length_c   12.25268518
_cell_angle_alpha   89.82324211
_cell_angle_beta   89.82324209
_cell_angle_gamma   118.07344441
_symmetry_Int_Tables_number   1
_chemical_formula_structural   Ca11(FeN5)2
_chemical_formula_sum   'Ca11 Fe2 N10'
_cell_volume   414.81161679
_cell_formula_units_Z   1
loop_
 _symmetry_equiv_pos_site_id
 _symmetry_equiv_pos_as_xyz
  1  'x, y, z'
loop_
 _atom_site_type_symbol
 _atom_site_label
 _atom_site_symmetry_multiplicity
 _atom_site_fract_x
 _atom_site_fract_y
 _atom_site_fract_z
 _atom_site_occupancy
  Ca  Ca0  1  0.00507718  0.43078464  0.88162862  1
  Ca  Ca1  1  0.59534298  0.98177682  0.12015408  1
  Ca  Ca2  1  0.39037819  0.99809971  0.61814672  1
  Ca  Ca3  1  0.40609122  0.40609122  0.38115759  1
  Ca  Ca4  1  0.60515549  0.99950666  0.38541786  1
  Ca  Ca5  1  0.39691754  0.39691754  0.08971001  1
  Ca  Ca6  1  0.98177682  0.59534298  0.12015408  1
  Ca  Ca7  1  0.99809971  0.39037819  0.61814672  1
  Ca  Ca8  1  0.59279358  0.59279358  0.63812122  1
  Ca  Ca9  1  0.43078464  0.00507718  0.88162862  1
  Ca  Ca10  1  0.99950666  0.60515549  0.38541786  1
  Fe  Fe11  1  0.99106182  0.99106182  0.75057909  1
  Fe  Fe12  1  0.00850411  0.00850411  0.25426975  1
  N  N13  1  0.72313041  0.01386871  0.73684111  1
  N  N14  1  0.25560007  0.25560007  0.73207523  1
  N  N15  1  0.28253697  0.00092769  0.25980058  1
  N  N16  1  0.66669749  0.33406119  0.50004378  1
  N  N17  1  0.30463852  0.67873895  0.00852238  1
  N  N18  1  0.33406119  0.66669749  0.50004378  1
  N  N19  1  0.67873895  0.30463852  0.00852238  1
  N  N20  1  0.73520206  0.73520206  0.25311385  1
  N  N21  1  0.00092769  0.28253697  0.25980058  1
  N  N22  1  0.01386871  0.72313041  0.73684111  1
