# generated using pymatgen
data_ErCd2Cu
_symmetry_space_group_name_H-M   'P 1'
_cell_length_a   4.62766666
_cell_length_b   6.30990052
_cell_length_c   6.30990053
_cell_angle_alpha   113.09888842
_cell_angle_beta   90.00000000
_cell_angle_gamma   90.00000000
_symmetry_Int_Tables_number   1
_chemical_formula_structural   ErCd2Cu
_chemical_formula_sum   'Er2 Cd4 Cu2'
_cell_volume   169.47835607
_cell_formula_units_Z   2
loop_
 _symmetry_equiv_pos_site_id
 _symmetry_equiv_pos_as_xyz
  1  'x, y, z'
loop_
 _atom_site_type_symbol
 _atom_site_label
 _atom_site_symmetry_multiplicity
 _atom_site_fract_x
 _atom_site_fract_y
 _atom_site_fract_z
 _atom_site_occupancy
  Cu  Cu0  1  0.75000000  0.67977202  0.32022798  1
  Cu  Cu1  1  0.25000000  0.32022798  0.67977202  1
  Cd  Cd2  1  0.75000000  0.19636101  0.38695862  1
  Cd  Cd3  1  0.25000000  0.80363899  0.61304138  1
  Cd  Cd4  1  0.75000000  0.61304138  0.80363899  1
  Cd  Cd5  1  0.25000000  0.38695862  0.19636101  1
  Er  Er6  1  0.25000000  0.85935160  0.14064840  1
  Er  Er7  1  0.75000000  0.14064840  0.85935160  1
