# generated using pymatgen
data_CaTlCl3
_symmetry_space_group_name_H-M   'P 1'
_cell_length_a   5.39768024
_cell_length_b   5.39974416
_cell_length_c   5.40040399
_cell_angle_alpha   90.02387729
_cell_angle_beta   90.04203700
_cell_angle_gamma   89.98479677
_symmetry_Int_Tables_number   1
_chemical_formula_structural   CaTlCl3
_chemical_formula_sum   'Ca1 Tl1 Cl3'
_cell_volume   157.40061192
_cell_formula_units_Z   1
loop_
 _symmetry_equiv_pos_site_id
 _symmetry_equiv_pos_as_xyz
  1  'x, y, z'
loop_
 _atom_site_type_symbol
 _atom_site_label
 _atom_site_symmetry_multiplicity
 _atom_site_fract_x
 _atom_site_fract_y
 _atom_site_fract_z
 _atom_site_occupancy
  Ca  Ca0  1  0.48464797  0.49865057  0.49458284  1
  Tl  Tl1  1  0.00269580  0.99613062  0.99230975  1
  Cl  Cl2  1  0.48174281  0.99930799  0.49668694  1
  Cl  Cl3  1  0.98463545  0.50766331  0.51044602  1
  Cl  Cl4  1  0.48627897  0.49824251  0.99597245  1
