# generated using pymatgen
data_RbPbCl3
_symmetry_space_group_name_H-M   'P 1'
_cell_length_a   5.71394593
_cell_length_b   5.71648274
_cell_length_c   5.71782638
_cell_angle_alpha   90.07349323
_cell_angle_beta   90.16123227
_cell_angle_gamma   90.02197538
_symmetry_Int_Tables_number   1
_chemical_formula_structural   RbPbCl3
_chemical_formula_sum   'Rb1 Pb1 Cl3'
_cell_volume   186.76430544
_cell_formula_units_Z   1
loop_
 _symmetry_equiv_pos_site_id
 _symmetry_equiv_pos_as_xyz
  1  'x, y, z'
loop_
 _atom_site_type_symbol
 _atom_site_label
 _atom_site_symmetry_multiplicity
 _atom_site_fract_x
 _atom_site_fract_y
 _atom_site_fract_z
 _atom_site_occupancy
  Rb  Rb0  1  0.99887275  0.99741268  0.99478623  1
  Pb  Pb1  1  0.48573322  0.49902843  0.49538431  1
  Cl  Cl2  1  0.48346859  0.99882496  0.49439341  1
  Cl  Cl3  1  0.98484249  0.50772488  0.51071579  1
  Cl  Cl4  1  0.48708394  0.49701205  0.99472425  1
