# generated using pymatgen
data_Na8Ta7VO24
_symmetry_space_group_name_H-M   'P 1'
_cell_length_a   7.91867934
_cell_length_b   7.91867956
_cell_length_c   7.91863946
_cell_angle_alpha   90.00000000
_cell_angle_beta   90.00000000
_cell_angle_gamma   90.00071993
_symmetry_Int_Tables_number   1
_chemical_formula_structural   Na8Ta7VO24
_chemical_formula_sum   'Na8 Ta7 V1 O24'
_cell_volume   496.54212159
_cell_formula_units_Z   1
loop_
 _symmetry_equiv_pos_site_id
 _symmetry_equiv_pos_as_xyz
  1  'x, y, z'
loop_
 _atom_site_type_symbol
 _atom_site_label
 _atom_site_symmetry_multiplicity
 _atom_site_fract_x
 _atom_site_fract_y
 _atom_site_fract_z
 _atom_site_occupancy
  Na  Na0  1  0.00145807  0.00145807  0.00146408  1
  Na  Na1  1  0.00145807  0.00145807  0.49853592  1
  Na  Na2  1  0.00145521  0.49854479  0.00145353  1
  Na  Na3  1  0.00145521  0.49854479  0.49854647  1
  Na  Na4  1  0.49854479  0.00145521  0.00145353  1
  Na  Na5  1  0.49854479  0.00145521  0.49854647  1
  Na  Na6  1  0.49854193  0.49854193  0.00146408  1
  Na  Na7  1  0.49854193  0.49854193  0.49853592  1
  Ta  Ta8  1  0.25000000  0.25000000  0.75000000  1
  Ta  Ta9  1  0.25000000  0.75000000  0.25000000  1
  Ta  Ta10  1  0.25000000  0.75000000  0.75000000  1
  Ta  Ta11  1  0.75000000  0.25000000  0.25000000  1
  Ta  Ta12  1  0.75000000  0.25000000  0.75000000  1
  Ta  Ta13  1  0.75000000  0.75000000  0.25000000  1
  Ta  Ta14  1  0.75000000  0.75000000  0.75000000  1
  V  V15  1  0.25000000  0.25000000  0.25000000  1
  O  O16  1  0.24999972  0.00606647  0.25000000  1
  O  O17  1  0.24999992  0.00053197  0.75000000  1
  O  O18  1  0.25000028  0.49393353  0.25000000  1
  O  O19  1  0.25000008  0.49946803  0.75000000  1
  O  O20  1  0.75000128  0.00053288  0.25000000  1
  O  O21  1  0.74999960  0.00004978  0.75000000  1
  O  O22  1  0.74999872  0.49946712  0.25000000  1
  O  O23  1  0.75000040  0.49995022  0.75000000  1
  O  O24  1  0.00606647  0.24999972  0.25000000  1
  O  O25  1  0.00053197  0.24999992  0.75000000  1
  O  O26  1  0.00053288  0.75000128  0.25000000  1
  O  O27  1  0.00004978  0.74999960  0.75000000  1
  O  O28  1  0.49393353  0.25000028  0.25000000  1
  O  O29  1  0.49946803  0.25000008  0.75000000  1
  O  O30  1  0.49946712  0.74999872  0.25000000  1
  O  O31  1  0.49995022  0.75000040  0.75000000  1
  O  O32  1  0.25000000  0.25000000  0.00606669  1
  O  O33  1  0.25000000  0.25000000  0.49393331  1
  O  O34  1  0.25000000  0.75000000  0.00053147  1
  O  O35  1  0.25000000  0.75000000  0.49946853  1
  O  O36  1  0.75000000  0.25000000  0.00053147  1
  O  O37  1  0.75000000  0.25000000  0.49946853  1
  O  O38  1  0.75000000  0.75000000  0.00004943  1
  O  O39  1  0.75000000  0.75000000  0.49995057  1
