# generated using pymatgen
data_Y5Be6Fe3(SiO5)6
_symmetry_space_group_name_H-M   'P 1'
_cell_length_a   14.19003061
_cell_length_b   7.63242645
_cell_length_c   10.08172866
_cell_angle_alpha   89.99477720
_cell_angle_beta   90.10080981
_cell_angle_gamma   89.95366459
_symmetry_Int_Tables_number   1
_chemical_formula_structural   Y5Be6Fe3(SiO5)6
_chemical_formula_sum   'Y10 Be12 Fe6 Si12 O60'
_cell_volume   1091.89316755
_cell_formula_units_Z   2
loop_
 _symmetry_equiv_pos_site_id
 _symmetry_equiv_pos_as_xyz
  1  'x, y, z'
loop_
 _atom_site_type_symbol
 _atom_site_label
 _atom_site_symmetry_multiplicity
 _atom_site_fract_x
 _atom_site_fract_y
 _atom_site_fract_z
 _atom_site_occupancy
  Y  Y0  1  0.33263633  0.39950155  0.83569424  1
  Y  Y1  1  0.66638731  0.40021315  0.83293996  1
  Y  Y2  1  0.00383101  0.38734039  0.82707802  1
  Y  Y3  1  0.32897508  0.89371100  0.67115363  1
  Y  Y4  1  0.66889099  0.89496274  0.66915180  1
  Y  Y5  1  0.00466240  0.60461381  0.16904932  1
  Y  Y6  1  0.66255583  0.60368202  0.17103312  1
  Y  Y7  1  0.33079328  0.10971755  0.32833681  1
  Y  Y8  1  0.66742966  0.10478806  0.33011853  1
  Y  Y9  1  0.00353769  0.09861519  0.33773669  1
  Be  Be10  1  0.15160802  0.08183430  0.83579245  1
  Be  Be11  1  0.48602653  0.08441193  0.83945135  1
  Be  Be12  1  0.82163564  0.08998558  0.83879835  1
  Be  Be13  1  0.18079966  0.58441726  0.66102832  1
  Be  Be14  1  0.51371669  0.59186750  0.66094916  1
  Be  Be15  1  0.84856189  0.58508440  0.66247253  1
  Be  Be16  1  0.18111190  0.90777020  0.16206547  1
  Be  Be17  1  0.51236157  0.91690436  0.16020608  1
  Be  Be18  1  0.84843681  0.91176663  0.16180873  1
  Be  Be19  1  0.15469819  0.41064775  0.34012564  1
  Be  Be20  1  0.48309813  0.41337315  0.33576270  1
  Be  Be21  1  0.82010784  0.41818489  0.33810373  1
  Fe  Fe22  1  0.00346769  0.99527612  0.99041101  1
  Fe  Fe23  1  0.32835740  0.98272660  0.00511913  1
  Fe  Fe24  1  0.66748778  0.99966326  0.99964530  1
  Fe  Fe25  1  0.00058431  0.51491225  0.50276453  1
  Fe  Fe26  1  0.33161772  0.50634999  0.49121040  1
  Fe  Fe27  1  0.66649615  0.50254221  0.49890830  1
  Si  Si28  1  0.17279760  0.22858901  0.58289691  1
  Si  Si29  1  0.50616278  0.22071892  0.57937477  1
  Si  Si30  1  0.83947603  0.22092912  0.57546651  1
  Si  Si31  1  0.16012917  0.72560961  0.92003328  1
  Si  Si32  1  0.49419756  0.71876415  0.91723954  1
  Si  Si33  1  0.82773624  0.71655738  0.92130476  1
  Si  Si34  1  0.16030321  0.78834438  0.41922041  1
  Si  Si35  1  0.49183347  0.77559336  0.41969954  1
  Si  Si36  1  0.82907567  0.77810320  0.42237429  1
  Si  Si37  1  0.17274393  0.27994371  0.07699838  1
  Si  Si38  1  0.50440172  0.27633531  0.08008723  1
  Si  Si39  1  0.84068344  0.27517016  0.08163362  1
  O  O40  1  0.24113601  0.39833289  0.63366764  1
  O  O41  1  0.56773928  0.39471610  0.63720771  1
  O  O42  1  0.90038135  0.38921363  0.63407866  1
  O  O43  1  0.09879747  0.89617459  0.86563970  1
  O  O44  1  0.43292974  0.89244697  0.86485410  1
  O  O45  1  0.76781823  0.89311141  0.86373844  1
  O  O46  1  0.10278226  0.60728107  0.36489815  1
  O  O47  1  0.43483582  0.60090531  0.37095005  1
  O  O48  1  0.76207897  0.60943229  0.36217429  1
  O  O49  1  0.23257455  0.10810547  0.13550142  1
  O  O50  1  0.57486919  0.10623258  0.13086487  1
  O  O51  1  0.89909070  0.10386085  0.14177984  1
  O  O52  1  0.07239323  0.54899365  0.65875719  1
  O  O53  1  0.40268801  0.59427451  0.65771417  1
  O  O54  1  0.73316062  0.58414431  0.65965094  1
  O  O55  1  0.26611474  0.07273960  0.84133423  1
  O  O56  1  0.60018217  0.08095214  0.83856904  1
  O  O57  1  0.92763508  0.11657894  0.86149811  1
  O  O58  1  0.26391298  0.38365335  0.35682991  1
  O  O59  1  0.59841898  0.41718850  0.34088394  1
  O  O60  1  0.93115212  0.42934042  0.34022883  1
  O  O61  1  0.22962436  0.79875191  0.03921033  1
  O  O62  1  0.56354478  0.79411824  0.03974647  1
  O  O63  1  0.89702488  0.79394279  0.03994127  1
  O  O64  1  0.24605555  0.40776060  0.00712364  1
  O  O65  1  0.58687017  0.41393309  0.03077385  1
  O  O66  1  0.91691569  0.41916206  0.03617423  1
  O  O67  1  0.07952841  0.92040238  0.46332388  1
  O  O68  1  0.41575918  0.91590374  0.47374090  1
  O  O69  1  0.74478466  0.91180726  0.46884854  1
  O  O70  1  0.10923622  0.18399830  0.71238247  1
  O  O71  1  0.44051918  0.14929615  0.70030147  1
  O  O72  1  0.77169988  0.15443138  0.70019687  1
  O  O73  1  0.25102316  0.08428476  0.53706293  1
  O  O74  1  0.58922666  0.08753549  0.52932764  1
  O  O75  1  0.90777766  0.08837150  0.50338987  1
  O  O76  1  0.10106210  0.29471560  0.46024023  1
  O  O77  1  0.43722799  0.29150407  0.46082995  1
  O  O78  1  0.76368508  0.30236056  0.46127301  1
  O  O79  1  0.08019646  0.58604345  0.96936322  1
  O  O80  1  0.42148201  0.56994156  0.95469546  1
  O  O81  1  0.74264535  0.59028418  0.97550874  1
  O  O82  1  0.23064283  0.70689375  0.53867458  1
  O  O83  1  0.56740142  0.70837243  0.53937990  1
  O  O84  1  0.89367056  0.69603367  0.54039903  1
  O  O85  1  0.09833846  0.19902281  0.96519202  1
  O  O86  1  0.43995362  0.20718568  0.95412529  1
  O  O87  1  0.76444328  0.20678712  0.96299590  1
  O  O88  1  0.10643503  0.35023580  0.20025808  1
  O  O89  1  0.44237088  0.32310658  0.20729383  1
  O  O90  1  0.76993772  0.34158063  0.20312164  1
  O  O91  1  0.22793428  0.86390784  0.30267789  1
  O  O92  1  0.56126320  0.84425559  0.29782654  1
  O  O93  1  0.89477983  0.83529109  0.29646789  1
  O  O94  1  0.22833241  0.66294491  0.79587609  1
  O  O95  1  0.56814847  0.66586839  0.79545130  1
  O  O96  1  0.88893874  0.62830250  0.80591378  1
  O  O97  1  0.06672376  0.90649765  0.15635556  1
  O  O98  1  0.40587756  0.95447503  0.15842114  1
  O  O99  1  0.73456571  0.91348874  0.15963880  1
