# generated using pymatgen
data_Li9Mn2Co5O16
_symmetry_space_group_name_H-M   'P 1'
_cell_length_a   3.02811513
_cell_length_b   15.69882553
_cell_length_c   6.41986311
_cell_angle_alpha   88.43708636
_cell_angle_beta   76.72646014
_cell_angle_gamma   81.60120347
_symmetry_Int_Tables_number   1
_chemical_formula_structural   Li9Mn2Co5O16
_chemical_formula_sum   'Li9 Mn2 Co5 O16'
_cell_volume   293.84166446
_cell_formula_units_Z   1
loop_
 _symmetry_equiv_pos_site_id
 _symmetry_equiv_pos_as_xyz
  1  'x, y, z'
loop_
 _atom_site_type_symbol
 _atom_site_label
 _atom_site_symmetry_multiplicity
 _atom_site_fract_x
 _atom_site_fract_y
 _atom_site_fract_z
 _atom_site_occupancy
  Li  Li0  1  0.74212236  0.18847906  0.13076253  1
  Li  Li1  1  0.75657052  0.43552460  0.62217728  1
  Li  Li2  1  0.75285762  0.68620032  0.12569485  1
  Li  Li3  1  0.24306003  0.31480806  0.87802482  1
  Li  Li4  1  0.25833170  0.56186597  0.36935818  1
  Li  Li5  1  0.25186755  0.81186041  0.87209449  1
  Li  Li6  1  0.74977031  0.93761630  0.62489244  1
  Li  Li7  1  0.24488478  0.06367899  0.37755268  1
  Li  Li8  1  0.50026569  0.37519404  0.24993583  1
  Mn  Mn9  1  0.99446829  0.00145279  0.99846928  1
  Mn  Mn10  1  0.50601127  0.87387869  0.25096502  1
  Co  Co11  1  0.99846091  0.25667375  0.49098570  1
  Co  Co12  1  0.00237991  0.49404562  0.00765913  1
  Co  Co13  1  0.00325255  0.74784106  0.50418758  1
  Co  Co14  1  0.50121632  0.62255125  0.75348130  1
  Co  Co15  1  0.49517891  0.12799043  0.74426322  1
  O  O16  1  0.34916197  0.09358590  0.04511209  1
  O  O17  1  0.36325734  0.33585650  0.55673235  1
  O  O18  1  0.35524879  0.58961531  0.04513398  1
  O  O19  1  0.89432140  0.21829867  0.78569569  1
  O  O20  1  0.88149690  0.47435670  0.28213531  1
  O  O21  1  0.88755088  0.71553536  0.79931804  1
  O  O22  1  0.39602137  0.83987888  0.54894822  1
  O  O23  1  0.85230343  0.96712668  0.29849108  1
  O  O24  1  0.11899976  0.27674036  0.21640360  1
  O  O25  1  0.10261057  0.53187259  0.71299361  1
  O  O26  1  0.15288319  0.78091389  0.20442974  1
  O  O27  1  0.63616794  0.41477120  0.94311149  1
  O  O28  1  0.60629949  0.65669091  0.45648941  1
  O  O29  1  0.64846981  0.90813130  0.95129721  1
  O  O30  1  0.11005248  0.03542218  0.70012169  1
  O  O31  1  0.64445596  0.16154524  0.45308216  1
