# generated using pymatgen
data_ZnCoP2O7
_symmetry_space_group_name_H-M   'P 1'
_cell_length_a   6.48903166
_cell_length_b   6.34193813
_cell_length_c   6.76424703
_cell_angle_alpha   66.71785645
_cell_angle_beta   79.90405939
_cell_angle_gamma   80.13195442
_symmetry_Int_Tables_number   1
_chemical_formula_structural   ZnCoP2O7
_chemical_formula_sum   'Zn2 Co2 P4 O14'
_cell_volume   250.13293068
_cell_formula_units_Z   2
loop_
 _symmetry_equiv_pos_site_id
 _symmetry_equiv_pos_as_xyz
  1  'x, y, z'
loop_
 _atom_site_type_symbol
 _atom_site_label
 _atom_site_symmetry_multiplicity
 _atom_site_fract_x
 _atom_site_fract_y
 _atom_site_fract_z
 _atom_site_occupancy
  Zn  Zn0  1  0.86511410  0.28928845  0.15985253  1
  Zn  Zn1  1  0.13488590  0.71071155  0.84014747  1
  Co  Co2  1  0.66064269  0.09940040  0.78358040  1
  Co  Co3  1  0.33935731  0.90059960  0.21641960  1
  P  P4  1  0.15705869  0.22026205  0.75803840  1
  P  P5  1  0.84294131  0.77973795  0.24196160  1
  P  P6  1  0.61280222  0.63961752  0.68935390  1
  P  P7  1  0.38719778  0.36038248  0.31064610  1
  O  O8  1  0.75915126  0.60993557  0.47662832  1
  O  O9  1  0.24084874  0.39006443  0.52337168  1
  O  O10  1  0.00337809  0.06628478  0.74512942  1
  O  O11  1  0.99662191  0.93371522  0.25487058  1
  O  O12  1  0.61136253  0.26468503  0.37997980  1
  O  O13  1  0.38863747  0.73531497  0.62002020  1
  O  O14  1  0.37330295  0.61049223  0.14719018  1
  O  O15  1  0.62669705  0.38950777  0.85280882  1
  O  O16  1  0.94964923  0.61048645  0.13205089  1
  O  O17  1  0.05035077  0.38951355  0.86794911  1
  O  O18  1  0.65446309  0.93468524  0.13321521  1
  O  O19  1  0.34553691  0.06531476  0.86678479  1
  O  O20  1  0.28086449  0.20179841  0.25327188  1
  O  O21  1  0.71913551  0.79820159  0.74672812  1
