# generated using pymatgen
data_AgPO4
_symmetry_space_group_name_H-M   'P 1'
_cell_length_a   5.10791581
_cell_length_b   9.74469847
_cell_length_c   15.41864577
_cell_angle_alpha   79.54061602
_cell_angle_beta   80.49378333
_cell_angle_gamma   74.76312447
_symmetry_Int_Tables_number   1
_chemical_formula_structural   AgPO4
_chemical_formula_sum   'Ag8 P8 O32'
_cell_volume   722.58236767
_cell_formula_units_Z   8
loop_
 _symmetry_equiv_pos_site_id
 _symmetry_equiv_pos_as_xyz
  1  'x, y, z'
loop_
 _atom_site_type_symbol
 _atom_site_label
 _atom_site_symmetry_multiplicity
 _atom_site_fract_x
 _atom_site_fract_y
 _atom_site_fract_z
 _atom_site_occupancy
  Ag  Ag0  1  0.15377439  0.22972565  0.97262603  1
  Ag  Ag1  1  0.34725708  0.26807735  0.52768669  1
  Ag  Ag2  1  0.84793839  0.77096190  0.02712102  1
  Ag  Ag3  1  0.49865463  0.49917064  0.99852110  1
  Ag  Ag4  1  0.65055310  0.73178902  0.47367587  1
  Ag  Ag5  1  0.66996787  0.74879767  0.25011653  1
  Ag  Ag6  1  0.33525940  0.25199481  0.74966795  1
  Ag  Ag7  1  0.99718230  0.00005322  0.49943848  1
  P  P8  1  0.04994033  0.56722625  0.86730245  1
  P  P9  1  0.77746640  0.41260919  0.61683301  1
  P  P10  1  0.94517407  0.43409445  0.13189317  1
  P  P11  1  0.19143845  0.91225705  0.11743582  1
  P  P12  1  0.51377680  0.06699121  0.36658892  1
  P  P13  1  0.48465109  0.93456126  0.63270158  1
  P  P14  1  0.22186614  0.58727047  0.38450449  1
  P  P15  1  0.80847796  0.08969801  0.88248491  1
  O  O16  1  0.70003493  0.39215147  0.10428360  1
  O  O17  1  0.85662855  0.92736779  0.91743105  1
  O  O18  1  0.79966920  0.89257227  0.60587814  1
  O  O19  1  0.77009790  0.31184392  0.55215617  1
  O  O20  1  0.19284911  0.38787262  0.05638790  1
  O  O21  1  0.58882725  0.39798252  0.70580228  1
  O  O22  1  0.63721884  0.19288559  0.94627326  1
  O  O23  1  0.89740100  0.87724195  0.13557506  1
  O  O24  1  0.23014696  0.68676963  0.45012106  1
  O  O25  1  0.69791505  0.57570977  0.58370228  1
  O  O26  1  0.89414098  0.60060705  0.13131657  1
  O  O27  1  0.58992308  0.13475530  0.27391465  1
  O  O28  1  0.14897143  0.07436363  0.08289586  1
  O  O29  1  0.08786832  0.37284994  0.63625314  1
  O  O30  1  0.29271388  0.61179610  0.89453970  1
  O  O31  1  0.10683085  0.40015083  0.86820993  1
  O  O32  1  0.98952971  0.63498417  0.77515806  1
  O  O33  1  0.36189492  0.80988490  0.05283099  1
  O  O34  1  0.36949761  0.10077853  0.63300650  1
  O  O35  1  0.40614897  0.86454056  0.72515513  1
  O  O36  1  0.91028869  0.62565126  0.36592589  1
  O  O37  1  0.36444303  0.89189356  0.55461698  1
  O  O38  1  0.10091202  0.12623642  0.86269925  1
  O  O39  1  0.30613346  0.89318495  0.20659632  1
  O  O40  1  0.30388015  0.42432581  0.41756776  1
  O  O41  1  0.19804256  0.10712959  0.39343625  1
  O  O42  1  0.99716772  0.36479448  0.22449403  1
  O  O43  1  0.63400446  0.11549051  0.44290355  1
  O  O44  1  0.80574551  0.61089635  0.94446537  1
  O  O45  1  0.68990217  0.10482345  0.79424381  1
  O  O46  1  0.40489549  0.60574835  0.29485052  1
  O  O47  1  0.63723481  0.90070260  0.36835986  1
