# generated using pymatgen
data_MgCrF5
_symmetry_space_group_name_H-M   'P 1'
_cell_length_a   5.28548839
_cell_length_b   5.28548800
_cell_length_c   7.42827497
_cell_angle_alpha   97.80614559
_cell_angle_beta   111.21382550
_cell_angle_gamma   107.49171811
_symmetry_Int_Tables_number   1
_chemical_formula_structural   MgCrF5
_chemical_formula_sum   'Mg2 Cr2 F10'
_cell_volume   177.39333825
_cell_formula_units_Z   2
loop_
 _symmetry_equiv_pos_site_id
 _symmetry_equiv_pos_as_xyz
  1  'x, y, z'
loop_
 _atom_site_type_symbol
 _atom_site_label
 _atom_site_symmetry_multiplicity
 _atom_site_fract_x
 _atom_site_fract_y
 _atom_site_fract_z
 _atom_site_occupancy
  Mg  Mg0  1  0.27382508  0.52382508  0.75000000  1
  Mg  Mg1  1  0.72617492  0.47617492  0.25000000  1
  Cr  Cr2  1  0.00000000  0.00000000  0.00000000  1
  Cr  Cr3  1  0.50000000  0.00000000  0.50000000  1
  F  F4  1  0.36119560  0.11119560  0.25000000  1
  F  F5  1  0.63880440  0.88880440  0.75000000  1
  F  F6  1  0.59031725  0.72238026  0.37025057  1
  F  F7  1  0.85212869  0.22006668  0.12974943  1
  F  F8  1  0.75399644  0.68456756  0.04556799  1
  F  F9  1  0.13899957  0.70842845  0.45443201  1
  F  F10  1  0.24600356  0.31543244  0.95443201  1
  F  F11  1  0.86100043  0.29157155  0.54556799  1
  F  F12  1  0.14787131  0.77993332  0.87025057  1
  F  F13  1  0.40968275  0.27761974  0.62974943  1
