# generated using pymatgen
data_MgFeF5
_symmetry_space_group_name_H-M   'P 1'
_cell_length_a   5.29602027
_cell_length_b   5.31174751
_cell_length_c   7.50988109
_cell_angle_alpha   98.28799964
_cell_angle_beta   110.06026474
_cell_angle_gamma   108.47348868
_symmetry_Int_Tables_number   1
_chemical_formula_structural   MgFeF5
_chemical_formula_sum   'Mg2 Fe2 F10'
_cell_volume   180.48054028
_cell_formula_units_Z   2
loop_
 _symmetry_equiv_pos_site_id
 _symmetry_equiv_pos_as_xyz
  1  'x, y, z'
loop_
 _atom_site_type_symbol
 _atom_site_label
 _atom_site_symmetry_multiplicity
 _atom_site_fract_x
 _atom_site_fract_y
 _atom_site_fract_z
 _atom_site_occupancy
  Mg  Mg0  1  0.27699632  0.52525526  0.75133686  1
  Mg  Mg1  1  0.71816359  0.47119787  0.24691633  1
  Fe  Fe2  1  0.99873462  0.99928387  0.99884023  1
  Fe  Fe3  1  0.49700560  0.99775421  0.49880638  1
  F  F4  1  0.37398402  0.12354410  0.24940968  1
  F  F5  1  0.62257652  0.87143398  0.74827302  1
  F  F6  1  0.58380798  0.72158107  0.36748986  1
  F  F7  1  0.85013852  0.21636190  0.12756535  1
  F  F8  1  0.76520461  0.68210907  0.05151324  1
  F  F9  1  0.12569929  0.71030121  0.44493226  1
  F  F10  1  0.23879907  0.31930894  0.95074091  1
  F  F11  1  0.86843942  0.28657683  0.55439436  1
  F  F12  1  0.14368067  0.78174263  0.86713037  1
  F  F13  1  0.40854277  0.27224308  0.63024715  1
