# generated using pymatgen
data_Ca2TaCoO6
_symmetry_space_group_name_H-M   'P 1'
_cell_length_a   5.47816604
_cell_length_b   5.65828527
_cell_length_c   7.72227742
_cell_angle_alpha   90.00000000
_cell_angle_beta   90.00000000
_cell_angle_gamma   89.41136926
_symmetry_Int_Tables_number   1
_chemical_formula_structural   Ca2TaCoO6
_chemical_formula_sum   'Ca4 Ta2 Co2 O12'
_cell_volume   239.35500346
_cell_formula_units_Z   2
loop_
 _symmetry_equiv_pos_site_id
 _symmetry_equiv_pos_as_xyz
  1  'x, y, z'
loop_
 _atom_site_type_symbol
 _atom_site_label
 _atom_site_symmetry_multiplicity
 _atom_site_fract_x
 _atom_site_fract_y
 _atom_site_fract_z
 _atom_site_occupancy
  Ca  Ca0  1  0.01820789  0.95530638  0.25000000  1
  Ca  Ca1  1  0.48767120  0.43126606  0.25000000  1
  Ca  Ca2  1  0.51232880  0.56873394  0.75000000  1
  Ca  Ca3  1  0.98179211  0.04469362  0.75000000  1
  Ta  Ta4  1  0.00000000  0.50000000  0.00000000  1
  Ta  Ta5  1  0.00000000  0.50000000  0.50000000  1
  Co  Co6  1  0.50000000  0.00000000  0.00000000  1
  Co  Co7  1  0.50000000  0.00000000  0.50000000  1
  O  O8  1  0.80262918  0.78866328  0.54877036  1
  O  O9  1  0.29008733  0.69765384  0.45559333  1
  O  O10  1  0.19737082  0.21133672  0.45122964  1
  O  O11  1  0.70991267  0.30234616  0.95559333  1
  O  O12  1  0.09501103  0.47040661  0.75000000  1
  O  O13  1  0.70991267  0.30234616  0.54440667  1
  O  O14  1  0.29008733  0.69765384  0.04440667  1
  O  O15  1  0.80262918  0.78866328  0.95122964  1
  O  O16  1  0.57847036  0.01526615  0.25000000  1
  O  O17  1  0.19737082  0.21133672  0.04877036  1
  O  O18  1  0.42152964  0.98473385  0.75000000  1
  O  O19  1  0.90498897  0.52959339  0.25000000  1
