# generated using pymatgen
data_KMnO2
_symmetry_space_group_name_H-M   'P 1'
_cell_length_a   2.94168329
_cell_length_b   3.59526303
_cell_length_c   6.19623124
_cell_angle_alpha   88.18201583
_cell_angle_beta   76.28344674
_cell_angle_gamma   65.84595032
_symmetry_Int_Tables_number   1
_chemical_formula_structural   KMnO2
_chemical_formula_sum   'K1 Mn1 O2'
_cell_volume   57.93153650
_cell_formula_units_Z   1
loop_
 _symmetry_equiv_pos_site_id
 _symmetry_equiv_pos_as_xyz
  1  'x, y, z'
loop_
 _atom_site_type_symbol
 _atom_site_label
 _atom_site_symmetry_multiplicity
 _atom_site_fract_x
 _atom_site_fract_y
 _atom_site_fract_z
 _atom_site_occupancy
  K  K0  1  0.99994467  0.49992178  0.50016802  1
  Mn  Mn1  1  0.00003479  1.00013499  0.99979325  1
  O  O2  1  0.48542660  0.84019202  0.18918882  1
  O  O3  1  0.51458194  0.15976421  0.81084891  1
