# generated using pymatgen
data_Li9Mn2Co5O16
_symmetry_space_group_name_H-M   'P 1'
_cell_length_a   3.03599367
_cell_length_b   10.12218556
_cell_length_c   9.84072567
_cell_angle_alpha   103.43196769
_cell_angle_beta   86.49882246
_cell_angle_gamma   91.71886336
_symmetry_Int_Tables_number   1
_chemical_formula_structural   Li9Mn2Co5O16
_chemical_formula_sum   'Li9 Mn2 Co5 O16'
_cell_volume   293.55422463
_cell_formula_units_Z   1
loop_
 _symmetry_equiv_pos_site_id
 _symmetry_equiv_pos_as_xyz
  1  'x, y, z'
loop_
 _atom_site_type_symbol
 _atom_site_label
 _atom_site_symmetry_multiplicity
 _atom_site_fract_x
 _atom_site_fract_y
 _atom_site_fract_z
 _atom_site_occupancy
  Li  Li0  1  -0.00043807  0.12867178  0.74759661  1
  Li  Li1  1  0.50330141  0.49679302  0.49904196  1
  Li  Li2  1  0.00079656  0.87245742  0.24956975  1
  Li  Li3  1  0.49583973  0.25539470  0.00111427  1
  Li  Li4  1  0.50378416  0.00116106  0.50129321  1
  Li  Li5  1  0.00008387  0.37665569  0.25011488  1
  Li  Li6  1  0.49612494  0.74706547  0.99989108  1
  Li  Li7  1  0.00002784  0.62167266  0.75210326  1
  Li  Li8  1  0.49990307  0.37523718  0.75108136  1
  Mn  Mn9  1  -0.00242822  0.99981800  0.99707120  1
  Mn  Mn10  1  0.50246010  0.12674310  0.25371254  1
  Co  Co11  1  0.00683975  0.74892589  0.50085648  1
  Co  Co12  1  0.99945029  0.49721345  0.98990160  1
  Co  Co13  1  0.49586568  0.87279543  0.74767515  1
  Co  Co14  1  0.00554938  0.25505483  0.51264026  1
  Co  Co15  1  0.50036383  0.62400277  0.24811414  1
  O  O16  1  0.47266554  0.05081919  0.87028163  1
  O  O17  1  0.99469773  0.42124603  0.61166707  1
  O  O18  1  0.50478392  0.80176031  0.37121366  1
  O  O19  1  0.97118814  0.17835456  0.12525077  1
  O  O20  1  0.95344393  0.92428573  0.62470754  1
  O  O21  1  0.47416494  0.30310565  0.37878195  1
  O  O22  1  0.00961062  0.67015414  0.12009294  1
  O  O23  1  0.48027248  0.55661335  0.88575899  1
  O  O24  1  0.52535485  0.19405189  0.61580328  1
  O  O25  1  -0.00854353  0.57314587  0.37489336  1
  O  O26  1  0.53336751  0.94632383  0.12643609  1
  O  O27  1  0.00338196  0.33029081  0.89073059  1
  O  O28  1  0.02632347  0.07998527  0.38213856  1
  O  O29  1  0.52929119  0.44968589  0.12466095  1
  O  O30  1  0.03841337  0.82235270  0.87034657  1
  O  O31  1  0.48405954  0.69815734  0.62545830  1
