# generated using pymatgen
data_NaCo3P3O13
_symmetry_space_group_name_H-M   'P 1'
_cell_length_a   6.19608498
_cell_length_b   7.48799969
_cell_length_c   10.57941364
_cell_angle_alpha   99.79592599
_cell_angle_beta   90.00000000
_cell_angle_gamma   90.00000000
_symmetry_Int_Tables_number   1
_chemical_formula_structural   NaCo3P3O13
_chemical_formula_sum   'Na2 Co6 P6 O26'
_cell_volume   483.68893589
_cell_formula_units_Z   2
loop_
 _symmetry_equiv_pos_site_id
 _symmetry_equiv_pos_as_xyz
  1  'x, y, z'
loop_
 _atom_site_type_symbol
 _atom_site_label
 _atom_site_symmetry_multiplicity
 _atom_site_fract_x
 _atom_site_fract_y
 _atom_site_fract_z
 _atom_site_occupancy
  Na  Na0  1  0.75000000  0.67220789  0.19749158  1
  Na  Na1  1  0.25000000  0.32779211  0.80250842  1
  Co  Co2  1  0.25000000  0.37269582  0.19620165  1
  Co  Co3  1  0.75000000  0.62730418  0.80379835  1
  Co  Co4  1  0.25000000  0.78010421  0.44321266  1
  Co  Co5  1  0.50000000  0.00000000  0.00000000  1
  Co  Co6  1  0.75000000  0.21989579  0.55678734  1
  Co  Co7  1  -0.00000000  0.00000000  0.00000000  1
  P  P8  1  0.25000000  0.21853129  0.47582646  1
  P  P9  1  0.75000000  0.78146871  0.52417354  1
  P  P10  1  0.25000000  0.74648547  0.76426013  1
  P  P11  1  0.75000000  0.25351453  0.23573987  1
  P  P12  1  0.75000000  0.30465887  0.88588111  1
  P  P13  1  0.25000000  0.69534113  0.11411889  1
  O  O14  1  0.75000000  0.34199338  0.74460137  1
  O  O15  1  0.55203279  0.74361548  0.43246644  1
  O  O16  1  0.25000000  0.80546214  0.63382924  1
  O  O17  1  0.54226792  0.20059372  0.90965335  1
  O  O18  1  0.75000000  0.64601703  0.61688380  1
  O  O19  1  0.75000000  0.88211859  0.91798092  1
  O  O20  1  0.25000000  0.35398297  0.38311620  1
  O  O21  1  0.04226792  0.79940628  0.09034665  1
  O  O22  1  0.25000000  0.02166646  0.40240342  1
  O  O23  1  0.75000000  0.97833354  0.59759658  1
  O  O24  1  0.05418281  0.62793058  0.78927950  1
  O  O25  1  0.25000000  0.11788141  0.08201908  1
  O  O26  1  0.55418281  0.37206942  0.21072050  1
  O  O27  1  0.75000000  0.50130376  0.96101656  1
  O  O28  1  0.75000000  0.19453786  0.36617076  1
  O  O29  1  0.45773208  0.79940628  0.09034665  1
  O  O30  1  0.94796721  0.74361548  0.43246644  1
  O  O31  1  0.44796721  0.25638452  0.56753356  1
  O  O32  1  0.44581719  0.62793058  0.78927950  1
  O  O33  1  0.25000000  0.65800662  0.25539863  1
  O  O34  1  0.75000000  0.08233721  0.12789405  1
  O  O35  1  0.25000000  0.91766279  0.87210595  1
  O  O36  1  0.94581719  0.37206942  0.21072050  1
  O  O37  1  0.95773208  0.20059372  0.90965335  1
  O  O38  1  0.05203279  0.25638452  0.56753356  1
  O  O39  1  0.25000000  0.49869624  0.03898344  1
