# generated using pymatgen
data_Zn3In2O6
_symmetry_space_group_name_H-M   'P 1'
_cell_length_a   14.46237971
_cell_length_b   57.85660544
_cell_length_c   28.72524994
_cell_angle_alpha   6.79259227
_cell_angle_beta   11.78129903
_cell_angle_gamma   13.57518342
_symmetry_Int_Tables_number   1
_chemical_formula_structural   Zn3In2O6
_chemical_formula_sum   'Zn12 In8 O24'
_cell_volume   580.44020901
_cell_formula_units_Z   4
loop_
 _symmetry_equiv_pos_site_id
 _symmetry_equiv_pos_as_xyz
  1  'x, y, z'
loop_
 _atom_site_type_symbol
 _atom_site_label
 _atom_site_symmetry_multiplicity
 _atom_site_fract_x
 _atom_site_fract_y
 _atom_site_fract_z
 _atom_site_occupancy
  Zn  Zn0  1  0.13863382  0.99967961  0.13454171  1
  Zn  Zn1  1  0.13863382  0.50032039  0.13326014  1
  Zn  Zn2  1  0.26114641  0.50469913  0.25291835  1
  Zn  Zn3  1  0.74013372  0.25000000  0.73761592  1
  Zn  Zn4  1  0.12472532  0.75000000  0.14053205  1
  Zn  Zn5  1  0.87527468  0.25000000  0.85946795  1
  Zn  Zn6  1  0.25986628  0.75000000  0.26238408  1
  Zn  Zn7  1  0.73885359  0.49530087  0.74708165  1
  Zn  Zn8  1  0.86136618  0.49967961  0.86673986  1
  Zn  Zn9  1  0.26114641  0.99530087  0.27171488  1
  Zn  Zn10  1  0.73885359  0.00469913  0.72828512  1
  Zn  Zn11  1  0.86136618  0.00032039  0.86545829  1
  In  In12  1  0.00000000  0.00000000  0.00000000  1
  In  In13  1  0.13868956  0.25000000  0.13496719  1
  In  In14  1  0.26114903  0.25000000  0.25741122  1
  In  In15  1  0.00708214  0.25000000  0.99751085  1
  In  In16  1  0.00000000  0.50000000  0.00000000  1
  In  In17  1  0.99291786  0.75000000  0.00248915  1
  In  In18  1  0.73885097  0.75000000  0.74258878  1
  In  In19  1  0.86131044  0.75000000  0.86503281  1
  O  O20  1  0.09022981  0.25000000  0.08087395  1
  O  O21  1  0.20004847  0.25000000  0.19071458  1
  O  O22  1  0.31260486  0.25000000  0.30613654  1
  O  O23  1  0.69011987  0.00006372  0.69158716  1
  O  O24  1  0.09633829  0.49121478  0.09607145  1
  O  O25  1  0.79750632  0.99226947  0.82770769  1
  O  O26  1  0.20249368  0.49226947  0.20321445  1
  O  O27  1  0.90366171  0.99121478  0.93906943  1
  O  O28  1  0.30988013  0.50006372  0.30815797  1
  O  O29  1  0.69916094  0.25000000  0.68759793  1
  O  O30  1  0.05417623  0.75000000  0.09919083  1
  O  O31  1  0.83377636  0.25000000  0.79368147  1
  O  O32  1  0.16622364  0.75000000  0.20631853  1
  O  O33  1  0.94582377  0.25000000  0.90080917  1
  O  O34  1  0.30083906  0.75000000  0.31240207  1
  O  O35  1  0.69011987  0.49993628  0.69184203  1
  O  O36  1  0.09633829  0.00878522  0.06093057  1
  O  O37  1  0.79750632  0.50773053  0.79678555  1
  O  O38  1  0.20249368  0.00773053  0.17229231  1
  O  O39  1  0.90366171  0.50878522  0.90392855  1
  O  O40  1  0.30988013  -0.00006372  0.30841284  1
  O  O41  1  0.68739514  0.75000000  0.69386346  1
  O  O42  1  0.79995153  0.75000000  0.80928542  1
  O  O43  1  0.90977019  0.75000000  0.91912605  1
