# generated using pymatgen
data_MgMn4O8
_symmetry_space_group_name_H-M   'P 1'
_cell_length_a   5.27966831
_cell_length_b   5.81958148
_cell_length_c   5.97625385
_cell_angle_alpha   62.40229065
_cell_angle_beta   89.56144684
_cell_angle_gamma   71.90099576
_symmetry_Int_Tables_number   1
_chemical_formula_structural   MgMn4O8
_chemical_formula_sum   'Mg1 Mn4 O8'
_cell_volume   152.64204249
_cell_formula_units_Z   1
loop_
 _symmetry_equiv_pos_site_id
 _symmetry_equiv_pos_as_xyz
  1  'x, y, z'
loop_
 _atom_site_type_symbol
 _atom_site_label
 _atom_site_symmetry_multiplicity
 _atom_site_fract_x
 _atom_site_fract_y
 _atom_site_fract_z
 _atom_site_occupancy
  Mg  Mg0  1  0.50000739  0.49997918  0.25001437  1
  Mn  Mn1  1  0.04194932  0.98424813  0.50720519  1
  Mn  Mn2  1  0.99780963  0.50152402  0.99627014  1
  Mn  Mn3  1  0.95798923  0.01583923  0.99279485  1
  Mn  Mn4  1  0.00217363  0.49844805  0.50370854  1
  O  O5  1  0.21895911  0.73091666  0.38489297  1
  O  O6  1  0.20442810  0.74355758  0.91499278  1
  O  O7  1  0.18076353  0.26660309  0.85711586  1
  O  O8  1  0.21574099  0.28083125  0.34699635  1
  O  O9  1  0.81924969  0.73340864  0.64288431  1
  O  O10  1  0.78426100  0.71916808  0.15300928  1
  O  O11  1  0.78106814  0.26905365  0.11509940  1
  O  O12  1  0.79561126  0.25640744  0.58501695  1
