# generated using pymatgen
data_V2NiO6
_symmetry_space_group_name_H-M   'P 1'
_cell_length_a   8.06731904
_cell_length_b   9.71663119
_cell_length_c   14.91244442
_cell_angle_alpha   90.00000000
_cell_angle_beta   90.00000000
_cell_angle_gamma   90.00000000
_symmetry_Int_Tables_number   1
_chemical_formula_structural   V2NiO6
_chemical_formula_sum   'V16 Ni8 O48'
_cell_volume   1168.94422346
_cell_formula_units_Z   8
loop_
 _symmetry_equiv_pos_site_id
 _symmetry_equiv_pos_as_xyz
  1  'x, y, z'
loop_
 _atom_site_type_symbol
 _atom_site_label
 _atom_site_symmetry_multiplicity
 _atom_site_fract_x
 _atom_site_fract_y
 _atom_site_fract_z
 _atom_site_occupancy
  V  V0  1  0.35225006  0.72801002  0.38447504  1
  V  V1  1  0.64774994  0.22801002  0.11552496  1
  V  V2  1  0.14774994  0.27198998  0.88447504  1
  V  V3  1  0.85225006  0.77198998  0.61552496  1
  V  V4  1  0.64774994  0.27198998  0.61552496  1
  V  V5  1  0.35225006  0.77198998  0.88447504  1
  V  V6  1  0.85225006  0.72801002  0.11552496  1
  V  V7  1  0.14774994  0.22801002  0.38447504  1
  V  V8  1  0.93916101  0.79966096  0.39294150  1
  V  V9  1  0.06083899  0.29966096  0.10705850  1
  V  V10  1  0.56083899  0.20033904  0.89294150  1
  V  V11  1  0.43916101  0.70033904  0.60705850  1
  V  V12  1  0.06083899  0.20033904  0.60705850  1
  V  V13  1  0.93916101  0.70033904  0.89294150  1
  V  V14  1  0.43916101  0.79966096  0.10705850  1
  V  V15  1  0.56083899  0.29966096  0.39294150  1
  Ni  Ni16  1  0.37739034  0.47722885  0.20864398  1
  Ni  Ni17  1  0.62260966  0.97722885  0.29135602  1
  Ni  Ni18  1  0.12260966  0.52277115  0.70864398  1
  Ni  Ni19  1  0.87739034  0.02277115  0.79135602  1
  Ni  Ni20  1  0.62260966  0.52277115  0.79135602  1
  Ni  Ni21  1  0.37739034  0.02277115  0.70864398  1
  Ni  Ni22  1  0.87739034  0.47722885  0.29135602  1
  Ni  Ni23  1  0.12260966  0.97722885  0.20864398  1
  O  O24  1  0.51051580  0.83569220  0.36154374  1
  O  O25  1  0.48948420  0.33569220  0.13845626  1
  O  O26  1  0.98948420  0.16430780  0.86154374  1
  O  O27  1  0.01051580  0.66430780  0.63845626  1
  O  O28  1  0.48948420  0.16430780  0.63845626  1
  O  O29  1  0.51051580  0.66430780  0.86154374  1
  O  O30  1  0.01051580  0.83569220  0.13845626  1
  O  O31  1  0.98948420  0.33569220  0.36154374  1
  O  O32  1  0.34076685  0.59895671  0.30985475  1
  O  O33  1  0.65923315  0.09895671  0.19014525  1
  O  O34  1  0.15923315  0.40104329  0.80985475  1
  O  O35  1  0.84076685  0.90104329  0.69014525  1
  O  O36  1  0.65923315  0.40104329  0.69014525  1
  O  O37  1  0.34076685  0.90104329  0.80985475  1
  O  O38  1  0.84076685  0.59895671  0.19014525  1
  O  O39  1  0.15923315  0.09895671  0.30985475  1
  O  O40  1  0.84740904  0.90262091  0.31447968  1
  O  O41  1  0.15259096  0.40262091  0.18552032  1
  O  O42  1  0.65259096  0.09737909  0.81447968  1
  O  O43  1  0.34740904  0.59737909  0.68552032  1
  O  O44  1  0.15259096  0.09737909  0.68552032  1
  O  O45  1  0.84740904  0.59737909  0.81447968  1
  O  O46  1  0.34740904  0.90262091  0.18552032  1
  O  O47  1  0.65259096  0.40262091  0.31447968  1
  O  O48  1  0.89829528  0.63227337  0.37580974  1
  O  O49  1  0.10170472  0.13227337  0.12419026  1
  O  O50  1  0.60170472  0.36772663  0.87580974  1
  O  O51  1  0.39829528  0.86772663  0.62419026  1
  O  O52  1  0.10170472  0.36772663  0.62419026  1
  O  O53  1  0.89829528  0.86772663  0.87580974  1
  O  O54  1  0.39829528  0.63227337  0.12419026  1
  O  O55  1  0.60170472  0.13227337  0.37580974  1
  O  O56  1  0.15938591  0.82317609  0.37938053  1
  O  O57  1  0.84061409  0.32317609  0.12061947  1
  O  O58  1  0.34061409  0.17682391  0.87938053  1
  O  O59  1  0.65938591  0.67682391  0.62061947  1
  O  O60  1  0.84061409  0.17682391  0.62061947  1
  O  O61  1  0.15938591  0.67682391  0.87938053  1
  O  O62  1  0.65938591  0.82317609  0.12061947  1
  O  O63  1  0.34061409  0.32317609  0.37938053  1
  O  O64  1  0.37689459  0.65386372  0.49509432  1
  O  O65  1  0.62310541  0.15386372  0.00490568  1
  O  O66  1  0.12310541  0.34613628  0.99509432  1
  O  O67  1  0.87689459  0.84613628  0.50490568  1
  O  O68  1  0.62310541  0.34613628  0.50490568  1
  O  O69  1  0.37689459  0.84613628  0.99509432  1
  O  O70  1  0.87689459  0.65386372  0.00490568  1
  O  O71  1  0.12310541  0.15386372  0.49509432  1
