# generated using pymatgen
data_SmCu(WO4)2
_symmetry_space_group_name_H-M   'P 1'
_cell_length_a   7.41756450
_cell_length_b   8.06134738
_cell_length_c   7.23084314
_cell_angle_alpha   114.75028313
_cell_angle_beta   116.37925025
_cell_angle_gamma   56.94076843
_symmetry_Int_Tables_number   1
_chemical_formula_structural   SmCu(WO4)2
_chemical_formula_sum   'Sm2 Cu2 W4 O16'
_cell_volume   315.56617839
_cell_formula_units_Z   2
loop_
 _symmetry_equiv_pos_site_id
 _symmetry_equiv_pos_as_xyz
  1  'x, y, z'
loop_
 _atom_site_type_symbol
 _atom_site_label
 _atom_site_symmetry_multiplicity
 _atom_site_fract_x
 _atom_site_fract_y
 _atom_site_fract_z
 _atom_site_occupancy
  Sm  Sm0  1  0.15741676  0.28397166  0.17486917  1
  Sm  Sm1  1  0.84257987  0.71602646  0.82513335  1
  Cu  Cu2  1  0.58637766  0.28009671  0.73788255  1
  Cu  Cu3  1  0.41366974  0.71987620  0.26210249  1
  W  W4  1  0.71855070  0.29870581  0.26259699  1
  W  W5  1  0.28143415  0.70130921  0.73740425  1
  W  W6  1  0.18227719  0.11152957  0.65030230  1
  W  W7  1  0.81772319  0.88846897  0.34969547  1
  O  O8  1  0.30562036  0.44618842  0.55343535  1
  O  O9  1  0.69436683  0.55382770  0.44657126  1
  O  O10  1  0.76935964  0.29798589  0.03124396  1
  O  O11  1  0.23065609  0.70201367  0.96876781  1
  O  O12  1  0.43352821  0.33591789  0.18179581  1
  O  O13  1  0.56646921  0.66406811  0.81820010  1
  O  O14  1  0.07408775  0.37072471  0.81996763  1
  O  O15  1  0.92590735  0.62927556  0.18002873  1
  O  O16  1  0.47782822  0.03677305  0.71171118  1
  O  O17  1  0.52217195  0.96322390  0.28828805  1
  O  O18  1  0.19244442  0.01529433  0.86406736  1
  O  O19  1  0.80755110  0.98471055  0.13593432  1
  O  O20  1  0.81013301  0.17033687  0.51595954  1
  O  O21  1  0.18985666  0.82967063  0.48404166  1
  O  O22  1  0.07211869  0.18807307  0.38612027  1
  O  O23  1  0.92787025  0.81193205  0.61387939  1
