# generated using pymatgen
data_PbS
_symmetry_space_group_name_H-M   'P 1'
_cell_length_a   4.19769021
_cell_length_b   4.30322702
_cell_length_c   6.48000434
_cell_angle_alpha   90.00000000
_cell_angle_beta   108.89868070
_cell_angle_gamma   90.00000000
_symmetry_Int_Tables_number   1
_chemical_formula_structural   PbS
_chemical_formula_sum   'Pb2 S2'
_cell_volume   110.74233710
_cell_formula_units_Z   2
loop_
 _symmetry_equiv_pos_site_id
 _symmetry_equiv_pos_as_xyz
  1  'x, y, z'
loop_
 _atom_site_type_symbol
 _atom_site_label
 _atom_site_symmetry_multiplicity
 _atom_site_fract_x
 _atom_site_fract_y
 _atom_site_fract_z
 _atom_site_occupancy
  Pb  Pb0  1  0.86709007  0.75000000  0.73418014  1
  Pb  Pb1  1  0.13290993  0.25000000  0.26581986  1
  S  S2  1  0.64577941  0.75000000  0.29155881  1
  S  S3  1  0.35422059  0.25000000  0.70844119  1
