# generated using pymatgen
data_Mg15Sn
_symmetry_space_group_name_H-M   'P 1'
_cell_length_a   6.36816078
_cell_length_b   6.36816026
_cell_length_c   10.47263798
_cell_angle_alpha   90.00000000
_cell_angle_beta   90.00000000
_cell_angle_gamma   120.00000270
_symmetry_Int_Tables_number   1
_chemical_formula_structural   Mg15Sn
_chemical_formula_sum   'Mg15 Sn1'
_cell_volume   367.80253214
_cell_formula_units_Z   1
loop_
 _symmetry_equiv_pos_site_id
 _symmetry_equiv_pos_as_xyz
  1  'x, y, z'
loop_
 _atom_site_type_symbol
 _atom_site_label
 _atom_site_symmetry_multiplicity
 _atom_site_fract_x
 _atom_site_fract_y
 _atom_site_fract_z
 _atom_site_occupancy
  Mg  Mg0  1  0.16666700  0.33333300  0.62500000  1
  Mg  Mg1  1  0.16611024  0.83305462  0.12500000  1
  Mg  Mg2  1  0.16670561  0.83335230  0.62500000  1
  Mg  Mg3  1  0.66694538  0.33388976  0.12500000  1
  Mg  Mg4  1  0.66664770  0.33329439  0.62500000  1
  Mg  Mg5  1  0.66694538  0.83305462  0.12500000  1
  Mg  Mg6  1  0.66664770  0.83335230  0.62500000  1
  Mg  Mg7  1  0.33351338  0.16648662  0.37502388  1
  Mg  Mg8  1  0.33351338  0.16648662  0.87497612  1
  Mg  Mg9  1  0.33351338  0.66702776  0.37502388  1
  Mg  Mg10  1  0.33351338  0.66702776  0.87497612  1
  Mg  Mg11  1  0.83297224  0.16648662  0.37502388  1
  Mg  Mg12  1  0.83297224  0.16648662  0.87497612  1
  Mg  Mg13  1  0.83333300  0.66666700  0.37501036  1
  Mg  Mg14  1  0.83333300  0.66666700  0.87498964  1
  Sn  Sn15  1  0.16666700  0.33333300  0.12500000  1
