# generated using pymatgen
data_BaAlSi4N5O3
_symmetry_space_group_name_H-M   'P 1'
_cell_length_a   5.66849859
_cell_length_b   7.47366491
_cell_length_c   9.45674488
_cell_angle_alpha   90.00000000
_cell_angle_beta   90.00000000
_cell_angle_gamma   112.28608933
_symmetry_Int_Tables_number   1
_chemical_formula_structural   BaAlSi4N5O3
_chemical_formula_sum   'Ba2 Al2 Si8 N10 O6'
_cell_volume   370.70355712
_cell_formula_units_Z   2
loop_
 _symmetry_equiv_pos_site_id
 _symmetry_equiv_pos_as_xyz
  1  'x, y, z'
loop_
 _atom_site_type_symbol
 _atom_site_label
 _atom_site_symmetry_multiplicity
 _atom_site_fract_x
 _atom_site_fract_y
 _atom_site_fract_z
 _atom_site_occupancy
  Ba  Ba0  1  0.97477727  0.94955453  0.48762291  1
  Ba  Ba1  1  0.02522273  0.05044547  0.98762291  1
  Al  Al2  1  0.47129216  0.94258431  0.25753962  1
  Al  Al3  1  0.52870784  0.05741569  0.75753962  1
  Si  Si4  1  0.29837387  0.59674774  0.48750333  1
  Si  Si5  1  0.70162613  0.40325226  0.98750333  1
  Si  Si6  1  0.92092848  0.34447077  0.26750200  1
  Si  Si7  1  0.42354229  0.34447077  0.26750200  1
  Si  Si8  1  0.07907152  0.65552923  0.76750200  1
  Si  Si9  1  0.57645771  0.65552923  0.76750200  1
  Si  Si10  1  0.28886259  0.57772518  0.04597874  1
  Si  Si11  1  0.71113741  0.42227482  0.54597874  1
  N  N12  1  0.40858306  0.81716612  0.42133173  1
  N  N13  1  0.59141694  0.18283388  0.92133173  1
  N  N14  1  0.20072822  0.40145644  0.36338946  1
  N  N15  1  0.79927178  0.59854356  0.86338946  1
  N  N16  1  0.70917872  0.41835744  0.36029863  1
  N  N17  1  0.29082128  0.58164256  0.86029863  1
  N  N18  1  0.97457247  0.44691846  0.09894706  1
  N  N19  1  0.47234600  0.44691846  0.09894706  1
  N  N20  1  0.02542753  0.55308154  0.59894706  1
  N  N21  1  0.52765400  0.55308154  0.59894706  1
  O  O22  1  0.80075703  0.10610680  0.24815517  1
  O  O23  1  0.30534977  0.10610680  0.24815517  1
  O  O24  1  0.19924297  0.89389320  0.74815517  1
  O  O25  1  0.69465023  0.89389320  0.74815517  1
  O  O26  1  0.39948923  0.79897847  0.10332711  1
  O  O27  1  0.60051077  0.20102153  0.60332711  1
