# generated using pymatgen
data_CeTlZn
_symmetry_space_group_name_H-M   'P 1'
_cell_length_a   4.83174997
_cell_length_b   4.82540732
_cell_length_c   7.46827460
_cell_angle_alpha   90.00000000
_cell_angle_beta   90.00000000
_cell_angle_gamma   120.04349052
_symmetry_Int_Tables_number   1
_chemical_formula_structural   CeTlZn
_chemical_formula_sum   'Ce2 Tl2 Zn2'
_cell_volume   150.72970506
_cell_formula_units_Z   2
loop_
 _symmetry_equiv_pos_site_id
 _symmetry_equiv_pos_as_xyz
  1  'x, y, z'
loop_
 _atom_site_type_symbol
 _atom_site_label
 _atom_site_symmetry_multiplicity
 _atom_site_fract_x
 _atom_site_fract_y
 _atom_site_fract_z
 _atom_site_occupancy
  Ce  Ce0  1  0.00000000  0.00000000  0.50000000  1
  Ce  Ce1  1  0.00000000  0.00000000  -0.00000000  1
  Tl  Tl2  1  0.33331485  0.66662970  0.25000000  1
  Tl  Tl3  1  0.66668515  0.33337030  0.75000000  1
  Zn  Zn4  1  0.33337651  0.66675301  0.75000000  1
  Zn  Zn5  1  0.66662349  0.33324699  0.25000000  1
