# generated using pymatgen
data_HgSe
_symmetry_space_group_name_H-M   'P 1'
_cell_length_a   4.55876597
_cell_length_b   4.55876623
_cell_length_c   9.94190898
_cell_angle_alpha   90.00000000
_cell_angle_beta   90.00000000
_cell_angle_gamma   119.99999817
_symmetry_Int_Tables_number   1
_chemical_formula_structural   HgSe
_chemical_formula_sum   'Hg3 Se3'
_cell_volume   178.93489505
_cell_formula_units_Z   3
loop_
 _symmetry_equiv_pos_site_id
 _symmetry_equiv_pos_as_xyz
  1  'x, y, z'
loop_
 _atom_site_type_symbol
 _atom_site_label
 _atom_site_symmetry_multiplicity
 _atom_site_fract_x
 _atom_site_fract_y
 _atom_site_fract_z
 _atom_site_occupancy
  Hg  Hg0  1  0.72643320  0.72643320  0.99996700  1
  Hg  Hg1  1  0.27356680  -0.00000000  0.66663300  1
  Hg  Hg2  1  0.00000000  0.27356680  0.33330000  1
  Se  Se3  1  0.48526794  0.48526794  0.49996700  1
  Se  Se4  1  0.51473206  0.00000000  0.16663300  1
  Se  Se5  1  1.00000000  0.51473206  0.83330000  1
