# generated using pymatgen
data_Li2Ca3N6
_symmetry_space_group_name_H-M   'P 1'
_cell_length_a   4.85958644
_cell_length_b   14.22210646
_cell_length_c   8.07305454
_cell_angle_alpha   90.00000000
_cell_angle_beta   90.00000000
_cell_angle_gamma   90.00000000
_symmetry_Int_Tables_number   1
_chemical_formula_structural   Li2Ca3N6
_chemical_formula_sum   'Li8 Ca12 N24'
_cell_volume   557.95750463
_cell_formula_units_Z   4
loop_
 _symmetry_equiv_pos_site_id
 _symmetry_equiv_pos_as_xyz
  1  'x, y, z'
loop_
 _atom_site_type_symbol
 _atom_site_label
 _atom_site_symmetry_multiplicity
 _atom_site_fract_x
 _atom_site_fract_y
 _atom_site_fract_z
 _atom_site_occupancy
  Li  Li0  1  0.50000000  0.66015707  0.00000000  1
  Li  Li1  1  -0.00000000  0.66015707  0.00000000  1
  Li  Li2  1  0.50000000  0.33984293  0.00000000  1
  Li  Li3  1  0.00000000  0.33984293  0.00000000  1
  Li  Li4  1  0.50000000  0.16118734  0.50000000  1
  Li  Li5  1  -0.00000000  0.16118734  0.50000000  1
  Li  Li6  1  0.50000000  0.83881266  0.50000000  1
  Li  Li7  1  0.00000000  0.83881266  0.50000000  1
  Ca  Ca8  1  0.25000000  0.00000000  0.68182513  1
  Ca  Ca9  1  0.75000000  0.00000000  0.31817487  1
  Ca  Ca10  1  0.25000000  0.50000000  0.18141841  1
  Ca  Ca11  1  0.75000000  0.50000000  0.81858159  1
  Ca  Ca12  1  0.25000000  0.83811638  0.15853528  1
  Ca  Ca13  1  0.75000000  0.83811638  0.84146472  1
  Ca  Ca14  1  0.75000000  0.16188362  0.84146472  1
  Ca  Ca15  1  0.25000000  0.16188362  0.15853528  1
  Ca  Ca16  1  0.25000000  0.33718876  0.65947734  1
  Ca  Ca17  1  0.75000000  0.33718876  0.34052266  1
  Ca  Ca18  1  0.75000000  0.66281124  0.34052266  1
  Ca  Ca19  1  0.25000000  0.66281124  0.65947734  1
  N  N20  1  0.25000000  0.82687701  0.71171562  1
  N  N21  1  0.75000000  0.82687701  0.28828438  1
  N  N22  1  0.75000000  0.17312299  0.28828438  1
  N  N23  1  0.25000000  0.17312299  0.71171562  1
  N  N24  1  0.25000000  0.19950539  0.86651486  1
  N  N25  1  0.75000000  0.19950539  0.13348514  1
  N  N26  1  0.75000000  0.80049461  0.13348514  1
  N  N27  1  0.25000000  0.80049461  0.86651486  1
  N  N28  1  0.25000000  0.32572941  0.21347875  1
  N  N29  1  0.75000000  0.32572941  0.78652125  1
  N  N30  1  0.75000000  0.67427059  0.78652125  1
  N  N31  1  0.25000000  0.67427059  0.21347875  1
  N  N32  1  0.25000000  0.70376542  0.36710009  1
  N  N33  1  0.75000000  0.70376542  0.63289991  1
  N  N34  1  0.75000000  0.29623458  0.63289991  1
  N  N35  1  0.25000000  0.29623458  0.36710009  1
  N  N36  1  0.25000000  0.95374953  0.38817971  1
  N  N37  1  0.75000000  0.95374953  0.61182029  1
  N  N38  1  0.75000000  0.04625047  0.61182029  1
  N  N39  1  0.25000000  0.04625047  0.38817971  1
  N  N40  1  0.25000000  0.45360920  0.88847917  1
  N  N41  1  0.75000000  0.45360920  0.11152083  1
  N  N42  1  0.75000000  0.54639080  0.11152083  1
  N  N43  1  0.25000000  0.54639080  0.88847917  1
