# generated using pymatgen
data_Li9Mn2Co5O16
_symmetry_space_group_name_H-M   'P 1'
_cell_length_a   3.02604246
_cell_length_b   19.27286187
_cell_length_c   5.06900217
_cell_angle_alpha   92.22740285
_cell_angle_beta   91.07030956
_cell_angle_gamma   83.02881640
_symmetry_Int_Tables_number   1
_chemical_formula_structural   Li9Mn2Co5O16
_chemical_formula_sum   'Li9 Mn2 Co5 O16'
_cell_volume   293.19049371
_cell_formula_units_Z   1
loop_
 _symmetry_equiv_pos_site_id
 _symmetry_equiv_pos_as_xyz
  1  'x, y, z'
loop_
 _atom_site_type_symbol
 _atom_site_label
 _atom_site_symmetry_multiplicity
 _atom_site_fract_x
 _atom_site_fract_y
 _atom_site_fract_z
 _atom_site_occupancy
  Li  Li0  1  0.86803380  0.12532107  0.37924008  1
  Li  Li1  1  0.24989867  0.25020266  0.24979093  1
  Li  Li2  1  0.63271515  0.37504221  0.12135990  1
  Li  Li3  1  0.00471180  0.49935536  0.99842264  1
  Li  Li4  1  0.37608321  0.62449020  0.87481450  1
  Li  Li5  1  0.75079188  0.74994137  0.75040786  1
  Li  Li6  1  0.12440854  0.87542050  0.62464932  1
  Li  Li7  1  0.49559611  0.00046078  0.50211579  1
  Li  Li8  1  0.74963811  0.25028704  0.75034073  1
  Mn  Mn9  1  0.00290610  0.00158417  0.99684311  1
  Mn  Mn10  1  0.87537617  0.62402541  0.37514974  1
  Co  Co11  1  0.35729031  0.13138291  0.87344859  1
  Co  Co12  1  0.13212357  0.36913519  0.62475329  1
  Co  Co13  1  0.50707126  0.49739135  0.50681585  1
  Co  Co14  1  0.24608510  0.75068626  0.24791444  1
  Co  Co15  1  0.63050212  0.87531900  0.12621492  1
  O  O16  1  0.40783750  0.06544459  0.15586050  1
  O  O17  1  0.78103005  0.18301004  0.05166241  1
  O  O18  1  0.17942012  0.31997425  0.90606338  1
  O  O19  1  0.52691042  0.43658934  0.79184393  1
  O  O20  1  0.95265944  0.56108677  0.66951631  1
  O  O21  1  0.27142535  0.68881255  0.54340756  1
  O  O22  1  0.69492046  0.81327126  0.41503528  1
  O  O23  1  0.08078234  0.93826122  0.29062952  1
  O  O24  1  0.31935075  0.18051269  0.59311357  1
  O  O25  1  0.71095915  0.31703881  0.44792200  1
  O  O26  1  0.05576761  0.43539790  0.34659430  1
  O  O27  1  0.47942063  0.55914350  0.20761892  1
  O  O28  1  0.79359980  0.68829151  0.08354275  1
  O  O29  1  0.18189601  0.81272494  0.95893205  1
  O  O30  1  0.60118969  0.93660000  0.82957464  1
  O  O31  1  0.95959077  0.06379715  0.70639619  1
