# generated using pymatgen
data_Li9Mn2Co5O16
_symmetry_space_group_name_H-M   'P 1'
_cell_length_a   3.02167802
_cell_length_b   9.97890352
_cell_length_c   9.75864696
_cell_angle_alpha   92.51744033
_cell_angle_beta   82.71234587
_cell_angle_gamma   91.77668745
_symmetry_Int_Tables_number   1
_chemical_formula_structural   Li9Mn2Co5O16
_chemical_formula_sum   'Li9 Mn2 Co5 O16'
_cell_volume   291.49803948
_cell_formula_units_Z   1
loop_
 _symmetry_equiv_pos_site_id
 _symmetry_equiv_pos_as_xyz
  1  'x, y, z'
loop_
 _atom_site_type_symbol
 _atom_site_label
 _atom_site_symmetry_multiplicity
 _atom_site_fract_x
 _atom_site_fract_y
 _atom_site_fract_z
 _atom_site_occupancy
  Li  Li0  1  0.87508781  0.18967906  0.24719312  1
  Li  Li1  1  0.11992468  0.31125970  0.75311382  1
  Li  Li2  1  0.37857489  0.43702513  0.24436455  1
  Li  Li3  1  0.62143666  0.56294869  0.75594401  1
  Li  Li4  1  0.88064458  0.68871384  0.24688573  1
  Li  Li5  1  0.12652194  0.81133432  0.75133928  1
  Li  Li6  1  0.37771340  0.93445147  0.25136407  1
  Li  Li7  1  0.62151534  0.06384153  0.74997659  1
  Li  Li8  1  0.00018644  0.50006953  0.00006102  1
  Mn  Mn9  1  0.99976362  0.99990023  0.00029884  1
  Mn  Mn10  1  0.25006345  0.12513113  0.49938920  1
  Co  Co11  1  0.49190927  0.26106778  0.00095040  1
  Co  Co12  1  0.74823911  0.37724086  0.49905116  1
  Co  Co13  1  0.24975754  0.62460980  0.50020844  1
  Co  Co14  1  0.50847477  0.73884368  0.99878052  1
  Co  Co15  1  0.75315405  0.87273893  0.50123048  1
  O  O16  1  0.42042681  0.10245983  0.11094319  1
  O  O17  1  0.65953459  0.22309646  0.61525931  1
  O  O18  1  0.91504764  0.33668162  0.11378109  1
  O  O19  1  0.19406031  0.47293044  0.61683872  1
  O  O20  1  0.43865702  0.61100959  0.11534102  1
  O  O21  1  0.70108392  0.72055568  0.61549409  1
  O  O22  1  0.91741978  0.84610730  0.11433923  1
  O  O23  1  0.19964648  0.97048704  0.61601664  1
  O  O24  1  0.29780827  0.28081671  0.38526409  1
  O  O25  1  0.56100342  0.38905127  0.88462565  1
  O  O26  1  0.80165994  0.52894543  0.38280389  1
  O  O27  1  0.08619427  0.66349539  0.88567834  1
  O  O28  1  0.30289279  0.77801657  0.38553108  1
  O  O29  1  0.57934353  0.89787012  0.88937333  1
  O  O30  1  0.84213597  0.02616074  0.38269603  1
  O  O31  1  0.08011769  0.15346013  0.88586307  1
