# generated using pymatgen
data_Mg14ZnGa
_symmetry_space_group_name_H-M   'P 1'
_cell_length_a   6.25570345
_cell_length_b   6.32284511
_cell_length_c   10.29991834
_cell_angle_alpha   90.00000000
_cell_angle_beta   90.00000000
_cell_angle_gamma   120.35568543
_symmetry_Int_Tables_number   1
_chemical_formula_structural   Mg14ZnGa
_chemical_formula_sum   'Mg14 Zn1 Ga1'
_cell_volume   351.54858974
_cell_formula_units_Z   1
loop_
 _symmetry_equiv_pos_site_id
 _symmetry_equiv_pos_as_xyz
  1  'x, y, z'
loop_
 _atom_site_type_symbol
 _atom_site_label
 _atom_site_symmetry_multiplicity
 _atom_site_fract_x
 _atom_site_fract_y
 _atom_site_fract_z
 _atom_site_occupancy
  Mg  Mg0  1  0.16888563  0.33444231  0.62500000  1
  Mg  Mg1  1  0.16855993  0.83427947  0.62500000  1
  Mg  Mg2  1  0.66957342  0.33519218  0.12500000  1
  Mg  Mg3  1  0.66586869  0.33283144  0.62500000  1
  Mg  Mg4  1  0.66957342  0.83438025  0.12500000  1
  Mg  Mg5  1  0.66586869  0.83303625  0.62500000  1
  Mg  Mg6  1  0.32834591  0.16478863  0.36774705  1
  Mg  Mg7  1  0.32834591  0.16478863  0.88225295  1
  Mg  Mg8  1  0.32834591  0.66355828  0.36774705  1
  Mg  Mg9  1  0.32834591  0.66355828  0.88225295  1
  Mg  Mg10  1  0.83664787  0.16832444  0.37312739  1
  Mg  Mg11  1  0.83664787  0.16832444  0.87687261  1
  Mg  Mg12  1  0.83617598  0.66808849  0.37407741  1
  Mg  Mg13  1  0.83617598  0.66808849  0.87592259  1
  Zn  Zn14  1  0.16688663  0.33344281  0.12500000  1
  Ga  Ga15  1  0.16575222  0.83287561  0.12500000  1
