# generated using pymatgen
data_Te2W3Se4
_symmetry_space_group_name_H-M   'P 1'
_cell_length_a   3.39614328
_cell_length_b   3.39606991
_cell_length_c   31.47437894
_cell_angle_alpha   89.99981588
_cell_angle_beta   90.00000000
_cell_angle_gamma   120.00071463
_symmetry_Int_Tables_number   1
_chemical_formula_structural   Te2W3Se4
_chemical_formula_sum   'Te2 W3 Se4'
_cell_volume   314.37449185
_cell_formula_units_Z   1
loop_
 _symmetry_equiv_pos_site_id
 _symmetry_equiv_pos_as_xyz
  1  'x, y, z'
loop_
 _atom_site_type_symbol
 _atom_site_label
 _atom_site_symmetry_multiplicity
 _atom_site_fract_x
 _atom_site_fract_y
 _atom_site_fract_z
 _atom_site_occupancy
  Te  Te0  1  0.66664564  0.33329028  0.51847783  1
  Te  Te1  1  0.66664506  0.33328913  0.63815369  1
  W  W2  1  0.33331134  0.66662268  0.11565195  1
  W  W3  1  0.33331077  0.66662155  0.57831305  1
  W  W4  1  0.66668482  0.33336965  0.34695977  1
  Se  Se5  1  0.33336226  0.66672551  0.39955499  1
  Se  Se6  1  0.66664382  0.33328663  0.06309206  1
  Se  Se7  1  0.66664462  0.33328824  0.16823753  1
  Se  Se8  1  0.33335267  0.66670634  0.29440013  1
