# generated using pymatgen
data_Te4Mo(WSe)2
_symmetry_space_group_name_H-M   'P 1'
_cell_length_a   3.47497756
_cell_length_b   3.47497732
_cell_length_c   32.09874218
_cell_angle_alpha   90.00062143
_cell_angle_beta   90.00000000
_cell_angle_gamma   120.00000226
_symmetry_Int_Tables_number   1
_chemical_formula_structural   Te4Mo(WSe)2
_chemical_formula_sum   'Te4 Mo1 W2 Se2'
_cell_volume   335.67779631
_cell_formula_units_Z   1
loop_
 _symmetry_equiv_pos_site_id
 _symmetry_equiv_pos_as_xyz
  1  'x, y, z'
loop_
 _atom_site_type_symbol
 _atom_site_label
 _atom_site_symmetry_multiplicity
 _atom_site_fract_x
 _atom_site_fract_y
 _atom_site_fract_z
 _atom_site_occupancy
  Te  Te0  1  0.33335645  0.66671390  0.40467821  1
  Te  Te1  1  0.66664717  0.33329334  0.05829154  1
  Te  Te2  1  0.66664200  0.33328299  0.17297118  1
  Te  Te3  1  0.33334927  0.66669955  0.28934870  1
  Mo  Mo4  1  0.33331142  0.66662284  0.11561658  1
  W  W5  1  0.33331181  0.66662362  0.57830805  1
  W  W6  1  0.66668628  0.33337255  0.34702251  1
  Se  Se7  1  0.66664772  0.33329443  0.52754198  1
  Se  Se8  1  0.66664889  0.33329678  0.62906224  1
