# generated using pymatgen
data_Te4Mo(WSe)2
_symmetry_space_group_name_H-M   'P 1'
_cell_length_a   3.47681510
_cell_length_b   3.47678494
_cell_length_c   32.10030298
_cell_angle_alpha   89.99959932
_cell_angle_beta   90.00000000
_cell_angle_gamma   120.00028700
_symmetry_Int_Tables_number   1
_chemical_formula_structural   Te4Mo(WSe)2
_chemical_formula_sum   'Te4 Mo1 W2 Se2'
_cell_volume   336.04538046
_cell_formula_units_Z   1
loop_
 _symmetry_equiv_pos_site_id
 _symmetry_equiv_pos_as_xyz
  1  'x, y, z'
loop_
 _atom_site_type_symbol
 _atom_site_label
 _atom_site_symmetry_multiplicity
 _atom_site_fract_x
 _atom_site_fract_y
 _atom_site_fract_z
 _atom_site_occupancy
  Te  Te0  1  0.33335307  0.66670714  0.40428594  1
  Te  Te1  1  0.66664897  0.33329694  0.52065598  1
  Te  Te2  1  0.66664875  0.33329650  0.63598133  1
  Te  Te3  1  0.33335064  0.66670228  0.28960505  1
  Mo  Mo4  1  0.66668893  0.33337787  0.34699606  1
  W  W5  1  0.33331054  0.66662109  0.11565854  1
  W  W6  1  0.33331198  0.66662395  0.57837244  1
  Se  Se7  1  0.66664940  0.33329780  0.06487235  1
  Se  Se8  1  0.66663872  0.33327643  0.16641331  1
