# generated using pymatgen
data_Te2W3Se4
_symmetry_space_group_name_H-M   'P 1'
_cell_length_a   3.39983682
_cell_length_b   3.39978294
_cell_length_c   31.48266900
_cell_angle_alpha   90.00000000
_cell_angle_beta   90.00000000
_cell_angle_gamma   120.00052425
_symmetry_Int_Tables_number   1
_chemical_formula_structural   Te2W3Se4
_chemical_formula_sum   'Te2 W3 Se4'
_cell_volume   315.14407333
_cell_formula_units_Z   1
loop_
 _symmetry_equiv_pos_site_id
 _symmetry_equiv_pos_as_xyz
  1  'x, y, z'
loop_
 _atom_site_type_symbol
 _atom_site_label
 _atom_site_symmetry_multiplicity
 _atom_site_fract_x
 _atom_site_fract_y
 _atom_site_fract_z
 _atom_site_occupancy
  Te  Te0  1  0.33335453  0.66671007  0.40677674  1
  Te  Te1  1  0.33335453  0.66671007  0.28718826  1
  W  W2  1  0.33331104  0.66662208  0.11563356  1
  W  W3  1  0.33331104  0.66662208  0.57833144  1
  W  W4  1  0.66669053  0.33338107  0.34698200  1
  Se  Se5  1  0.66664164  0.33328228  0.06302182  1
  Se  Se6  1  0.66664802  0.33329504  0.52568007  1
  Se  Se7  1  0.66664802  0.33329504  0.16828493  1
  Se  Se8  1  0.66664164  0.33328228  0.63094218  1
