# generated using pymatgen
data_Te4MoW3Se4
_symmetry_space_group_name_H-M   'P 1'
_cell_length_a   3.43788509
_cell_length_b   3.43784837
_cell_length_c   39.15755038
_cell_angle_alpha   89.99984575
_cell_angle_beta   90.00000000
_cell_angle_gamma   120.00035319
_symmetry_Int_Tables_number   1
_chemical_formula_structural   Te4MoW3Se4
_chemical_formula_sum   'Te4 Mo1 W3 Se4'
_cell_volume   400.79535172
_cell_formula_units_Z   1
loop_
 _symmetry_equiv_pos_site_id
 _symmetry_equiv_pos_as_xyz
  1  'x, y, z'
loop_
 _atom_site_type_symbol
 _atom_site_label
 _atom_site_symmetry_multiplicity
 _atom_site_fract_x
 _atom_site_fract_y
 _atom_site_fract_z
 _atom_site_occupancy
  Te  Te0  1  0.33335303  0.66670706  0.32915027  1
  Te  Te1  1  0.33335250  0.66670600  0.70525914  1
  Te  Te2  1  0.33335238  0.66670575  0.23444603  1
  Te  Te3  1  0.33335960  0.66672019  0.60980158  1
  Mo  Mo4  1  0.66669020  0.33338040  0.28179453  1
  W  W5  1  0.33330987  0.66661974  0.09391336  1
  W  W6  1  0.33331094  0.66662189  0.46966267  1
  W  W7  1  0.66669216  0.33338432  0.65753908  1
  Se  Se8  1  0.66664368  0.33328637  0.05196101  1
  Se  Se9  1  0.66664674  0.33329249  0.42769378  1
  Se  Se10  1  0.66664217  0.33328334  0.13589509  1
  Se  Se11  1  0.66664673  0.33329247  0.51163147  1
