# generated using pymatgen
data_Te6MoW3Se2
_symmetry_space_group_name_H-M   'P 1'
_cell_length_a   3.49802101
_cell_length_b   3.49802808
_cell_length_c   39.65088867
_cell_angle_alpha   90.00004860
_cell_angle_beta   90.00000000
_cell_angle_gamma   119.99993308
_symmetry_Int_Tables_number   1
_chemical_formula_structural   Te6MoW3Se2
_chemical_formula_sum   'Te6 Mo1 W3 Se2'
_cell_volume   420.17436698
_cell_formula_units_Z   1
loop_
 _symmetry_equiv_pos_site_id
 _symmetry_equiv_pos_as_xyz
  1  'x, y, z'
loop_
 _atom_site_type_symbol
 _atom_site_label
 _atom_site_symmetry_multiplicity
 _atom_site_fract_x
 _atom_site_fract_y
 _atom_site_fract_z
 _atom_site_occupancy
  Te  Te0  1  0.33335390  0.66670879  0.32797909  1
  Te  Te1  1  0.33336022  0.66672144  0.70398382  1
  Te  Te2  1  0.66664180  0.33328259  0.04746812  1
  Te  Te3  1  0.66664587  0.33329073  0.14038536  1
  Te  Te4  1  0.33335154  0.66670409  0.23562732  1
  Te  Te5  1  0.33335490  0.66671080  0.61107131  1
  Mo  Mo6  1  0.66669261  0.33338523  0.28182036  1
  W  W7  1  0.33330803  0.66661606  0.09390280  1
  W  W8  1  0.33331097  0.66662195  0.46966185  1
  W  W9  1  0.66669080  0.33338161  0.65753198  1
  Se  Se10  1  0.66664393  0.33328686  0.42870691  1
  Se  Se11  1  0.66664543  0.33328985  0.51060909  1
