# generated using pymatgen
data_Te4MoW3Se4
_symmetry_space_group_name_H-M   'P 1'
_cell_length_a   3.43783878
_cell_length_b   3.43779792
_cell_length_c   39.16381758
_cell_angle_alpha   90.00014189
_cell_angle_beta   90.00000000
_cell_angle_gamma   120.00039314
_symmetry_Int_Tables_number   1
_chemical_formula_structural   Te4MoW3Se4
_chemical_formula_sum   'Te4 Mo1 W3 Se4'
_cell_volume   400.84805565
_cell_formula_units_Z   1
loop_
 _symmetry_equiv_pos_site_id
 _symmetry_equiv_pos_as_xyz
  1  'x, y, z'
loop_
 _atom_site_type_symbol
 _atom_site_label
 _atom_site_symmetry_multiplicity
 _atom_site_fract_x
 _atom_site_fract_y
 _atom_site_fract_z
 _atom_site_occupancy
  Te  Te0  1  0.33335173  0.66670446  0.70524453  1
  Te  Te1  1  0.66664619  0.33329138  0.04658616  1
  Te  Te2  1  0.66664101  0.33328102  0.14125807  1
  Te  Te3  1  0.33335583  0.66671266  0.60981593  1
  Mo  Mo4  1  0.33330899  0.66661798  0.09392429  1
  W  W5  1  0.33331236  0.66662473  0.46964738  1
  W  W6  1  0.66668666  0.33337332  0.28181474  1
  W  W7  1  0.66669044  0.33338088  0.65753233  1
  Se  Se8  1  0.33336172  0.66672444  0.32376123  1
  Se  Se9  1  0.66664718  0.33329336  0.42770275  1
  Se  Se10  1  0.66664734  0.33329369  0.51161608  1
  Se  Se11  1  0.33335055  0.66670209  0.23984448  1
