# generated using pymatgen
data_Te6MoW3Se2
_symmetry_space_group_name_H-M   'P 1'
_cell_length_a   3.49784463
_cell_length_b   3.49783317
_cell_length_c   39.65236519
_cell_angle_alpha   90.00004506
_cell_angle_beta   90.00000000
_cell_angle_gamma   120.00010827
_symmetry_Int_Tables_number   1
_chemical_formula_structural   Te6MoW3Se2
_chemical_formula_sum   'Te6 Mo1 W3 Se2'
_cell_volume   420.14467345
_cell_formula_units_Z   1
loop_
 _symmetry_equiv_pos_site_id
 _symmetry_equiv_pos_as_xyz
  1  'x, y, z'
loop_
 _atom_site_type_symbol
 _atom_site_label
 _atom_site_symmetry_multiplicity
 _atom_site_fract_x
 _atom_site_fract_y
 _atom_site_fract_z
 _atom_site_occupancy
  Te  Te0  1  0.33335452  0.66671003  0.32825738  1
  Te  Te1  1  0.33336805  0.66673710  0.70398697  1
  Te  Te2  1  0.66664424  0.33328748  0.04774486  1
  Te  Te3  1  0.66663929  0.33327757  0.14010329  1
  Te  Te4  1  0.33335299  0.66670699  0.23534413  1
  Te  Te5  1  0.33335338  0.66670776  0.61107165  1
  Mo  Mo6  1  0.33330788  0.66661577  0.09390287  1
  W  W7  1  0.33331035  0.66662070  0.46966286  1
  W  W8  1  0.66669012  0.33338025  0.28182066  1
  W  W9  1  0.66669322  0.33338643  0.65753347  1
  Se  Se10  1  0.66664717  0.33329334  0.42871048  1
  Se  Se11  1  0.66663879  0.33327658  0.51060937  1
