# generated using pymatgen
data_Te4MoW3Se4
_symmetry_space_group_name_H-M   'P 1'
_cell_length_a   3.43781947
_cell_length_b   3.43775841
_cell_length_c   39.16656312
_cell_angle_alpha   90.00025197
_cell_angle_beta   90.00000000
_cell_angle_gamma   120.00058769
_symmetry_Int_Tables_number   1
_chemical_formula_structural   Te4MoW3Se4
_chemical_formula_sum   'Te4 Mo1 W3 Se4'
_cell_volume   400.86851104
_cell_formula_units_Z   1
loop_
 _symmetry_equiv_pos_site_id
 _symmetry_equiv_pos_as_xyz
  1  'x, y, z'
loop_
 _atom_site_type_symbol
 _atom_site_label
 _atom_site_symmetry_multiplicity
 _atom_site_fract_x
 _atom_site_fract_y
 _atom_site_fract_z
 _atom_site_occupancy
  Te  Te0  1  0.66664578  0.33329056  0.04657539  1
  Te  Te1  1  0.66664761  0.33329421  0.42194424  1
  Te  Te2  1  0.66664851  0.33329602  0.14126762  1
  Te  Te3  1  0.66663644  0.33327188  0.51737328  1
  Mo  Mo4  1  0.33330953  0.66661905  0.09391830  1
  W  W5  1  0.33330755  0.66661509  0.46966118  1
  W  W6  1  0.66668657  0.33337315  0.28180003  1
  W  W7  1  0.66668942  0.33337885  0.65754524  1
  Se  Se8  1  0.33335980  0.66672060  0.32376104  1
  Se  Se9  1  0.33336004  0.66672108  0.69948322  1
  Se  Se10  1  0.33334994  0.66670087  0.23984135  1
  Se  Se11  1  0.33335881  0.66671863  0.61557711  1
