# generated using pymatgen
data_Li9Mn2Co5O16
_symmetry_space_group_name_H-M   'P 1'
_cell_length_a   3.02272004
_cell_length_b   9.98994922
_cell_length_c   9.76787100
_cell_angle_alpha   92.68822727
_cell_angle_beta   82.58774775
_cell_angle_gamma   91.61330681
_symmetry_Int_Tables_number   1
_chemical_formula_structural   Li9Mn2Co5O16
_chemical_formula_sum   'Li9 Mn2 Co5 O16'
_cell_volume   292.09921934
_cell_formula_units_Z   1
loop_
 _symmetry_equiv_pos_site_id
 _symmetry_equiv_pos_as_xyz
  1  'x, y, z'
loop_
 _atom_site_type_symbol
 _atom_site_label
 _atom_site_symmetry_multiplicity
 _atom_site_fract_x
 _atom_site_fract_y
 _atom_site_fract_z
 _atom_site_occupancy
  Li  Li0  1  0.86712859  0.18861951  0.25679069  1
  Li  Li1  1  0.13182915  0.31392429  0.74638757  1
  Li  Li2  1  0.37899192  0.43659181  0.25188817  1
  Li  Li3  1  0.62826321  0.55875930  0.75163787  1
  Li  Li4  1  0.87407531  0.69158535  0.24839854  1
  Li  Li5  1  0.11878844  0.81343063  0.74788910  1
  Li  Li6  1  0.36041514  0.93456124  0.25484745  1
  Li  Li7  1  0.63776314  0.06289255  0.74173825  1
  Li  Li8  1  0.25071079  0.12499732  0.49961198  1
  Mn  Mn9  1  0.99869061  0.00035113  0.00006920  1
  Mn  Mn10  1  0.25061345  0.62498352  0.50000945  1
  Co  Co11  1  0.49417271  0.25136524  -0.00049059  1
  Co  Co12  1  0.76595662  0.36438942  0.49935981  1
  Co  Co13  1  0.00042327  0.49969341  0.00136197  1
  Co  Co14  1  0.50617818  0.74835376  0.99915792  1
  Co  Co15  1  0.73437981  0.88569434  0.50105198  1
  O  O16  1  0.39895461  0.09882646  0.11831154  1
  O  O17  1  0.69524006  0.23626201  0.61496123  1
  O  O18  1  0.94646811  0.34696652  0.11461027  1
  O  O19  1  0.16823196  0.47169143  0.61483216  1
  O  O20  1  0.45647454  0.59675490  0.11608572  1
  O  O21  1  0.66477059  0.72735372  0.61089303  1
  O  O22  1  0.96092387  0.84411340  0.11313498  1
  O  O23  1  0.15504070  0.96166573  0.61393540  1
  O  O24  1  0.34991897  0.28882090  0.38585823  1
  O  O25  1  0.54244564  0.40430456  0.88612276  1
  O  O26  1  0.83659950  0.52249923  0.38923548  1
  O  O27  1  0.05535578  0.65194703  0.88435448  1
  O  O28  1  0.33180322  0.77786282  0.38523585  1
  O  O29  1  0.59505415  0.90222265  0.88376335  1
  O  O30  1  0.80370216  0.01314384  0.38458551  1
  O  O31  1  0.04063582  0.15537200  0.88437065  1
