# generated using pymatgen
data_Mn2ZnO4
_symmetry_space_group_name_H-M   'P 1'
_cell_length_a   6.20249221
_cell_length_b   6.19658552
_cell_length_c   17.78614779
_cell_angle_alpha   61.24099244
_cell_angle_beta   61.04432956
_cell_angle_gamma   56.96708491
_symmetry_Int_Tables_number   1
_chemical_formula_structural   Mn2ZnO4
_chemical_formula_sum   'Mn12 Zn6 O24'
_cell_volume   478.96984342
_cell_formula_units_Z   6
loop_
 _symmetry_equiv_pos_site_id
 _symmetry_equiv_pos_as_xyz
  1  'x, y, z'
loop_
 _atom_site_type_symbol
 _atom_site_label
 _atom_site_symmetry_multiplicity
 _atom_site_fract_x
 _atom_site_fract_y
 _atom_site_fract_z
 _atom_site_occupancy
  Mn  Mn0  1  0.50052765  0.50131774  0.16612177  1
  Mn  Mn1  1  0.49948072  0.99996474  0.16698267  1
  Mn  Mn2  1  0.50324187  0.50175725  0.50077214  1
  Mn  Mn3  1  0.00018346  0.49883024  0.16679959  1
  Mn  Mn4  1  0.50571187  0.00605117  0.49954569  1
  Mn  Mn5  1  0.49911347  0.49926955  0.66638101  1
  Mn  Mn6  1  0.88142995  0.88482934  0.28797217  1
  Mn  Mn7  1  0.49866130  0.49973795  0.83113435  1
  Mn  Mn8  1  0.00591056  0.50529624  0.49976188  1
  Mn  Mn9  1  0.49295641  0.99417588  0.83418684  1
  Mn  Mn10  1  0.99382685  0.49360594  0.83395436  1
  Mn  Mn11  1  0.87591856  0.87945227  0.95382772  1
  Zn  Zn12  1  0.11692954  0.11211722  0.04655134  1
  Zn  Zn13  1  0.12479371  0.12015313  0.38072611  1
  Zn  Zn14  1  0.50371362  0.50132939  0.33532282  1
  Zn  Zn15  1  0.12062128  0.12062650  0.70934724  1
  Zn  Zn16  1  0.49564288  0.49761534  0.99952610  1
  Zn  Zn17  1  0.87830985  0.87859088  0.62287962  1
  O  O18  1  0.25146728  0.25371817  0.09195260  1
  O  O19  1  0.26085748  0.24344679  0.24275524  1
  O  O20  1  0.25177975  0.71159110  0.09402061  1
  O  O21  1  0.70779483  0.23787658  0.09577384  1
  O  O22  1  0.26201286  0.26137649  0.42250148  1
  O  O23  1  0.29739050  0.76442134  0.23602381  1
  O  O24  1  0.25301115  0.25328363  0.57484991  1
  O  O25  1  0.74785409  0.29499460  0.23788875  1
  O  O26  1  0.74022964  0.75858387  0.09130929  1
  O  O27  1  0.26491537  0.72424290  0.42543473  1
  O  O28  1  0.72786087  0.26370827  0.42457503  1
  O  O29  1  0.74813031  0.74524306  0.24014188  1
  O  O30  1  0.25288749  0.25264211  0.75697458  1
  O  O31  1  0.28227873  0.73042621  0.58253441  1
  O  O32  1  0.73169120  0.28231610  0.58201163  1
  O  O33  1  0.24549200  0.24667331  0.90964214  1
  O  O34  1  0.75222907  0.75042319  0.42684262  1
  O  O35  1  0.26270795  0.71397263  0.75267605  1
  O  O36  1  0.71478627  0.26601975  0.75160836  1
  O  O37  1  0.74288144  0.74465442  0.57828525  1
  O  O38  1  0.27981711  0.73631743  0.90733238  1
  O  O39  1  0.73897525  0.28296619  0.90577332  1
  O  O40  1  0.74624341  0.74694926  0.75837466  1
  O  O41  1  0.73973138  0.73943181  0.90892101  1
