# generated using pymatgen
data_Ca(FeO2)2
_symmetry_space_group_name_H-M   'P 1'
_cell_length_a   6.28485661
_cell_length_b   6.28185003
_cell_length_c   18.90720753
_cell_angle_alpha   60.09406282
_cell_angle_beta   60.04476851
_cell_angle_gamma   60.08406155
_symmetry_Int_Tables_number   1
_chemical_formula_structural   Ca(FeO2)2
_chemical_formula_sum   'Ca6 Fe12 O24'
_cell_volume   528.72003521
_cell_formula_units_Z   6
loop_
 _symmetry_equiv_pos_site_id
 _symmetry_equiv_pos_as_xyz
  1  'x, y, z'
loop_
 _atom_site_type_symbol
 _atom_site_label
 _atom_site_symmetry_multiplicity
 _atom_site_fract_x
 _atom_site_fract_y
 _atom_site_fract_z
 _atom_site_occupancy
  Ca  Ca0  1  0.12274410  0.12323669  0.04332698  1
  Ca  Ca1  1  0.12116894  0.12037046  0.37906135  1
  Ca  Ca2  1  0.49948708  0.49900792  0.00213195  1
  Ca  Ca3  1  0.12101740  0.12139276  0.71181825  1
  Ca  Ca4  1  0.88084693  0.88054911  0.28590774  1
  Ca  Ca5  1  0.87339760  0.87350798  0.62715813  1
  Fe  Fe6  1  0.00225767  0.49446021  0.16932135  1
  Fe  Fe7  1  0.49351514  0.49376172  0.17005524  1
  Fe  Fe8  1  0.00134824  0.49994476  0.49958278  1
  Fe  Fe9  1  0.49413641  0.00231049  0.16944240  1
  Fe  Fe10  1  0.50001938  0.49973753  0.33337335  1
  Fe  Fe11  1  0.49960097  0.49954726  0.49923589  1
  Fe  Fe12  1  0.01305563  0.49750918  0.83003398  1
  Fe  Fe13  1  0.49981731  0.00182361  0.49950184  1
  Fe  Fe14  1  0.49836005  0.01246218  0.83026515  1
  Fe  Fe15  1  0.50421213  0.50440146  0.66152745  1
  Fe  Fe16  1  0.49842484  0.49903095  0.82946018  1
  Fe  Fe17  1  0.88222094  0.88202331  0.95258445  1
  O  O18  1  0.24542107  0.24494010  0.10268063  1
  O  O19  1  0.26110001  0.26168819  0.23785679  1
  O  O20  1  0.24488186  0.70128310  0.10343777  1
  O  O21  1  0.70086723  0.24492946  0.10342287  1
  O  O22  1  0.30905448  0.72707021  0.24536295  1
  O  O23  1  0.26578763  0.26575618  0.42461411  1
  O  O24  1  0.72717364  0.30900588  0.24516686  1
  O  O25  1  0.75489271  0.75401030  0.07961051  1
  O  O26  1  0.26609952  0.69400998  0.42444799  1
  O  O27  1  0.26460865  0.26456422  0.56827367  1
  O  O28  1  0.72741430  0.72787009  0.24502652  1
  O  O29  1  0.69456081  0.26634301  0.42408521  1
  O  O30  1  0.30124172  0.73276553  0.57702103  1
  O  O31  1  0.27340257  0.27133529  0.75319721  1
  O  O32  1  0.73272293  0.30129271  0.57690339  1
  O  O33  1  0.73454105  0.73451207  0.43231791  1
  O  O34  1  0.26872442  0.26977803  0.89754579  1
  O  O35  1  0.27245078  0.69461721  0.75286344  1
  O  O36  1  0.73293641  0.73361957  0.57757870  1
  O  O37  1  0.69438738  0.27358661  0.75277435  1
  O  O38  1  0.26355503  0.76469084  0.90314679  1
  O  O39  1  0.72824746  0.72725867  0.77263018  1
  O  O40  1  0.76584725  0.26311099  0.90303585  1
  O  O41  1  0.76444830  0.76688618  0.90321104  1
