# generated using pymatgen
data_Li9Mn2Co5O16
_symmetry_space_group_name_H-M   'P 1'
_cell_length_a   3.02799298
_cell_length_b   10.11735350
_cell_length_c   9.83270315
_cell_angle_alpha   102.98251555
_cell_angle_beta   87.33057169
_cell_angle_gamma   91.30540028
_symmetry_Int_Tables_number   1
_chemical_formula_structural   Li9Mn2Co5O16
_chemical_formula_sum   'Li9 Mn2 Co5 O16'
_cell_volume   293.18579210
_cell_formula_units_Z   1
loop_
 _symmetry_equiv_pos_site_id
 _symmetry_equiv_pos_as_xyz
  1  'x, y, z'
loop_
 _atom_site_type_symbol
 _atom_site_label
 _atom_site_symmetry_multiplicity
 _atom_site_fract_x
 _atom_site_fract_y
 _atom_site_fract_z
 _atom_site_occupancy
  Li  Li0  1  0.99923584  0.12196303  0.74852052  1
  Li  Li1  1  0.49861391  0.50495969  0.49738742  1
  Li  Li2  1  0.00285439  0.87172784  0.24969550  1
  Li  Li3  1  0.50038409  0.25247186  0.00169944  1
  Li  Li4  1  0.50069890  0.99525425  0.50261886  1
  Li  Li5  1  0.00306179  0.37631910  0.24965140  1
  Li  Li6  1  0.50084011  0.74853940  0.99920159  1
  Li  Li7  1  0.99352800  0.62996143  0.75123390  1
  Li  Li8  1  0.99952804  0.74973601  0.49958922  1
  Mn  Mn9  1  0.00692482  0.99886059  0.99703313  1
  Mn  Mn10  1  0.49750675  0.37602696  0.75089616  1
  Co  Co11  1  0.50638756  0.12491887  0.25039383  1
  Co  Co12  1  0.00391637  0.50352726  0.00475667  1
  Co  Co13  1  0.49144766  0.87004877  0.73799958  1
  Co  Co14  1  0.99510049  0.24857032  0.49850577  1
  Co  Co15  1  0.49994572  0.62879315  0.26085684  1
  O  O16  1  0.47473426  0.04563371  0.86767879  1
  O  O17  1  0.96121030  0.42918758  0.62240490  1
  O  O18  1  0.49690213  0.79452608  0.36021374  1
  O  O19  1  0.01532832  0.17761596  0.12416777  1
  O  O20  1  0.96638633  0.93124411  0.63412887  1
  O  O21  1  0.50616542  0.30089336  0.37406147  1
  O  O22  1  0.96690781  0.67699622  0.12737371  1
  O  O23  1  0.51058219  0.55315300  0.87868945  1
  O  O24  1  0.48312384  0.19845445  0.62322861  1
  O  O25  1  0.02740018  0.56761568  0.36491648  1
  O  O26  1  0.53800502  0.94711732  0.12582372  1
  O  O27  1  0.03465870  0.32299005  0.88002575  1
  O  O28  1  0.99624154  0.07086447  0.37534930  1
  O  O29  1  0.49533186  0.45540218  0.13014389  1
  O  O30  1  0.02592955  0.82230534  0.87256067  1
  O  O31  1  0.50111808  0.70431695  0.63919307  1
