# generated using pymatgen
data_Mg(NiO2)2
_symmetry_space_group_name_H-M   'P 1'
_cell_length_a   5.91203409
_cell_length_b   5.84567829
_cell_length_c   17.75780477
_cell_angle_alpha   60.54734574
_cell_angle_beta   59.14326995
_cell_angle_gamma   60.26757262
_symmetry_Int_Tables_number   1
_chemical_formula_structural   Mg(NiO2)2
_chemical_formula_sum   'Mg6 Ni12 O24'
_cell_volume   433.67430009
_cell_formula_units_Z   6
loop_
 _symmetry_equiv_pos_site_id
 _symmetry_equiv_pos_as_xyz
  1  'x, y, z'
loop_
 _atom_site_type_symbol
 _atom_site_label
 _atom_site_symmetry_multiplicity
 _atom_site_fract_x
 _atom_site_fract_y
 _atom_site_fract_z
 _atom_site_occupancy
  Mg  Mg0  1  0.11695232  0.11687681  0.04969217  1
  Mg  Mg1  1  0.11439580  0.11925278  0.38230744  1
  Mg  Mg2  1  0.49696051  0.50126119  0.33354283  1
  Mg  Mg3  1  0.12735035  0.11830346  0.71218167  1
  Mg  Mg4  1  0.50169868  0.49864948  0.00016010  1
  Mg  Mg5  1  0.87551785  0.87747056  0.62326803  1
  Ni  Ni6  1  0.49853432  0.49990319  0.16598867  1
  Ni  Ni7  1  0.49852592  0.00336930  0.16602093  1
  Ni  Ni8  1  0.49466577  0.50253501  0.50028090  1
  Ni  Ni9  1  0.00357616  0.49877725  0.16623161  1
  Ni  Ni10  1  0.49471510  0.00207056  0.50018542  1
  Ni  Ni11  1  0.50484254  0.50013334  0.66498577  1
  Ni  Ni12  1  0.88151324  0.88477289  0.28307525  1
  Ni  Ni13  1  0.50083383  0.49582916  0.83332515  1
  Ni  Ni14  1  0.99776997  0.49938418  0.50117552  1
  Ni  Ni15  1  0.50079947  0.00326671  0.83334406  1
  Ni  Ni16  1  0.00648054  0.49701729  0.83320295  1
  Ni  Ni17  1  0.87879902  0.87932793  0.95406726  1
  O  O18  1  0.25796960  0.25114112  0.09516240  1
  O  O19  1  0.25257956  0.25503307  0.24574425  1
  O  O20  1  0.25749548  0.70521803  0.09540684  1
  O  O21  1  0.70544220  0.25567333  0.09398990  1
  O  O22  1  0.24493115  0.26007375  0.42779534  1
  O  O23  1  0.29031704  0.74804089  0.23826608  1
  O  O24  1  0.25446332  0.25831784  0.57522087  1
  O  O25  1  0.74531323  0.29308286  0.23664668  1
  O  O26  1  0.75263665  0.74921469  0.08309252  1
  O  O27  1  0.24560221  0.71140268  0.42814361  1
  O  O28  1  0.70392841  0.25363774  0.42923969  1
  O  O29  1  0.74494504  0.75145687  0.23698750  1
  O  O30  1  0.27586755  0.26859923  0.74874647  1
  O  O31  1  0.29153727  0.74578541  0.57271070  1
  O  O32  1  0.73516007  0.29382982  0.57858960  1
  O  O33  1  0.25456777  0.25840114  0.90899786  1
  O  O34  1  0.74296015  0.74374172  0.42412171  1
  O  O35  1  0.27552620  0.70939433  0.74932105  1
  O  O36  1  0.71625048  0.25990675  0.75551418  1
  O  O37  1  0.73560265  0.73385834  0.57896583  1
  O  O38  1  0.27500922  0.74703482  0.90960280  1
  O  O39  1  0.75164336  0.26606885  0.91142726  1
  O  O40  1  0.74488946  0.73623014  0.76138833  1
  O  O41  1  0.75143155  0.74665551  0.91188282  1
