# generated using pymatgen
data_Mg3Co3(AsO4)4
_symmetry_space_group_name_H-M   'P 1'
_cell_length_a   5.15983428
_cell_length_b   8.67642818
_cell_length_c   15.07582567
_cell_angle_alpha   99.89277526
_cell_angle_beta   90.00000000
_cell_angle_gamma   90.00000000
_symmetry_Int_Tables_number   1
_chemical_formula_structural   Mg3Co3(AsO4)4
_chemical_formula_sum   'Mg6 Co6 As8 O32'
_cell_volume   664.89309241
_cell_formula_units_Z   2
loop_
 _symmetry_equiv_pos_site_id
 _symmetry_equiv_pos_as_xyz
  1  'x, y, z'
loop_
 _atom_site_type_symbol
 _atom_site_label
 _atom_site_symmetry_multiplicity
 _atom_site_fract_x
 _atom_site_fract_y
 _atom_site_fract_z
 _atom_site_occupancy
  Mg  Mg0  1  0.95449537  0.02416247  0.71220668  1
  Mg  Mg1  1  0.45449537  0.47583753  0.78779332  1
  Mg  Mg2  1  0.04550463  0.97583753  0.28779332  1
  Mg  Mg3  1  0.54550463  0.52416247  0.21220668  1
  Mg  Mg4  1  -0.00000000  -0.00000000  -0.00000000  1
  Mg  Mg5  1  0.50000000  0.50000000  0.50000000  1
  Co  Co6  1  0.00963231  0.32851707  0.12504150  1
  Co  Co7  1  0.99036769  0.67148293  0.87495850  1
  Co  Co8  1  0.50963231  0.17148293  0.37495850  1
  Co  Co9  1  0.49036769  0.82851707  0.62504150  1
  Co  Co10  1  0.50000000  0.50000000  -0.00000000  1
  Co  Co11  1  -0.00000000  -0.00000000  0.50000000  1
  As  As12  1  0.50846365  0.88893855  0.85153662  1
  As  As13  1  0.00312102  0.31405391  0.89655350  1
  As  As14  1  0.50312102  0.18594609  0.60344650  1
  As  As15  1  0.49687898  0.81405391  0.39655350  1
  As  As16  1  0.49153635  0.11106145  0.14846338  1
  As  As17  1  0.99687898  0.68594609  0.10344650  1
  As  As18  1  0.99153635  0.38893855  0.35153662  1
  As  As19  1  0.00846365  0.61106145  0.64846338  1
  O  O20  1  0.09550730  0.56279609  0.75258895  1
  O  O21  1  0.55621176  0.26414129  0.50824111  1
  O  O22  1  0.09100246  0.19959717  0.80008648  1
  O  O23  1  0.10610078  0.80607187  0.65245847  1
  O  O24  1  0.90899754  0.80040283  0.19991352  1
  O  O25  1  0.40449270  0.06279609  0.25258895  1
  O  O26  1  0.59100246  0.30040283  0.69991352  1
  O  O27  1  0.79588487  0.90364501  0.39250480  1
  O  O28  1  0.82417668  0.51513594  0.42695302  1
  O  O29  1  0.90449270  0.43720391  0.24741105  1
  O  O30  1  0.39389922  0.30607187  0.15245847  1
  O  O31  1  0.20411513  0.09635499  0.60749520  1
  O  O32  1  0.21406700  0.47891639  0.90783949  1
  O  O33  1  0.17582332  0.48486406  0.57304698  1
  O  O34  1  0.82418826  0.10981556  0.13195648  1
  O  O35  1  0.32418826  0.39018444  0.36804352  1
  O  O36  1  0.71406700  0.02108361  0.59216051  1
  O  O37  1  0.40899754  0.69959717  0.30008648  1
  O  O38  1  0.32417668  0.98486406  0.07304698  1
  O  O39  1  0.29588487  0.59635499  0.10749520  1
  O  O40  1  0.67581174  0.60981556  0.63195648  1
  O  O41  1  0.17581174  0.89018444  0.86804352  1
  O  O42  1  0.44378824  0.73585871  0.49175889  1
  O  O43  1  0.05621176  0.23585871  0.99175889  1
  O  O44  1  0.78593300  0.52108361  0.09216051  1
  O  O45  1  0.59550730  0.93720391  0.74741105  1
  O  O46  1  0.89389922  0.19392813  0.34754153  1
  O  O47  1  0.67582332  0.01513594  0.92695302  1
  O  O48  1  0.94378824  0.76414129  0.00824111  1
  O  O49  1  0.70411513  0.40364501  0.89250480  1
  O  O50  1  0.28593300  0.97891639  0.40783949  1
  O  O51  1  0.60610078  0.69392813  0.84754153  1
