# generated using pymatgen
data_Ba2AlNi2F11
_symmetry_space_group_name_H-M   'P 1'
_cell_length_a   7.39039624
_cell_length_b   7.39039595
_cell_length_c   14.22427449
_cell_angle_alpha   90.00000000
_cell_angle_beta   90.00000000
_cell_angle_gamma   120.00000131
_symmetry_Int_Tables_number   1
_chemical_formula_structural   Ba2AlNi2F11
_chemical_formula_sum   'Ba6 Al3 Ni6 F33'
_cell_volume   672.81579916
_cell_formula_units_Z   3
loop_
 _symmetry_equiv_pos_site_id
 _symmetry_equiv_pos_as_xyz
  1  'x, y, z'
loop_
 _atom_site_type_symbol
 _atom_site_label
 _atom_site_symmetry_multiplicity
 _atom_site_fract_x
 _atom_site_fract_y
 _atom_site_fract_z
 _atom_site_occupancy
  Ba  Ba0  1  0.54021230  0.19240556  0.66710357  1
  Ba  Ba1  1  0.17959673  0.50408521  0.80053522  1
  Ba  Ba2  1  0.65219326  0.45978770  0.00043657  1
  Ba  Ba3  1  0.49591479  0.67551052  0.46720122  1
  Ba  Ba4  1  0.32448948  0.82040327  0.13386822  1
  Ba  Ba5  1  0.80759444  0.34780674  0.33376957  1
  Al  Al6  1  0.16788596  0.00881251  0.87438161  1
  Al  Al7  1  0.84092755  0.83211404  0.20771461  1
  Al  Al8  1  0.99118749  0.15907245  0.54104761  1
  Ni  Ni9  1  0.64966103  0.99690399  0.88484800  1
  Ni  Ni10  1  0.80420839  0.77045711  0.71902736  1
  Ni  Ni11  1  0.22954289  0.03375128  0.38569336  1
  Ni  Ni12  1  0.34724296  0.35033897  0.21818100  1
  Ni  Ni13  1  0.96624872  0.19579161  0.05236036  1
  Ni  Ni14  1  0.00309601  0.65275704  0.55151400  1
  F  F15  1  0.66732961  0.08299905  0.02039615  1
  F  F16  1  0.51082606  0.70373139  0.92628628  1
  F  F17  1  0.41567044  0.33267039  0.35372915  1
  F  F18  1  0.07843539  0.42486417  0.49591591  1
  F  F19  1  0.53030445  0.24160177  0.17773521  1
  F  F20  1  0.91510818  0.63400698  0.18778517  1
  F  F21  1  0.57513583  0.65357022  0.16258291  1
  F  F22  1  0.36599302  0.28110120  0.85445217  1
  F  F23  1  0.71129632  0.46969555  0.51106821  1
  F  F24  1  0.25962185  0.33377012  0.08653811  1
  F  F25  1  0.34642978  0.92156461  0.82924991  1
  F  F26  1  0.91700095  0.58432956  0.68706315  1
  F  F27  1  0.27027001  0.01668260  0.98757961  1
  F  F28  1  0.02673510  0.48112235  0.01991489  1
  F  F29  1  0.74641259  0.72972999  0.32091261  1
  F  F30  1  0.29626861  0.80709467  0.59295228  1
  F  F31  1  0.98766890  0.11049846  0.91257762  1
  F  F32  1  0.07414827  0.74037815  0.41987111  1
  F  F33  1  0.99163073  0.08187061  0.41853980  1
  F  F34  1  0.98331740  0.25358741  0.65424561  1
  F  F35  1  0.09023889  0.00836927  0.75187380  1
  F  F36  1  0.51887765  0.54561175  0.68658189  1
  F  F37  1  0.45438825  0.97326490  0.35324789  1
  F  F38  1  0.12282956  0.01233110  0.24591062  1
  F  F39  1  0.66622988  0.92585173  0.75320511  1
  F  F40  1  0.75839823  0.28870368  0.84440221  1
  F  F41  1  0.19290533  0.48917394  0.25961928  1
  F  F42  1  0.94763303  0.74399236  0.87880548  1
  F  F43  1  0.79635932  0.05236697  0.21213848  1
  F  F44  1  0.91812939  0.90976111  0.08520680  1
  F  F45  1  0.71889880  0.08489182  0.52111817  1
  F  F46  1  0.88950154  0.87717044  0.57924362  1
  F  F47  1  0.25600764  0.20364068  0.54547148  1
