# generated using pymatgen
data_YV(WO4)2
_symmetry_space_group_name_H-M   'P 1'
_cell_length_a   5.31587864
_cell_length_b   5.76462100
_cell_length_c   9.81485330
_cell_angle_alpha   89.99731246
_cell_angle_beta   93.17967816
_cell_angle_gamma   89.98329110
_symmetry_Int_Tables_number   1
_chemical_formula_structural   YV(WO4)2
_chemical_formula_sum   'Y2 V2 W4 O16'
_cell_volume   300.30357291
_cell_formula_units_Z   2
loop_
 _symmetry_equiv_pos_site_id
 _symmetry_equiv_pos_as_xyz
  1  'x, y, z'
loop_
 _atom_site_type_symbol
 _atom_site_label
 _atom_site_symmetry_multiplicity
 _atom_site_fract_x
 _atom_site_fract_y
 _atom_site_fract_z
 _atom_site_occupancy
  Y  Y0  1  0.25002933  0.66825134  0.25002340  1
  Y  Y1  1  0.74996967  0.33174766  0.74997660  1
  V  V2  1  0.74996949  0.33611185  0.24997017  1
  V  V3  1  0.25003051  0.66388715  0.75002983  1
  W  W4  1  0.25269603  0.15854521  0.49600203  1
  W  W5  1  0.24722867  0.15854396  0.00395404  1
  W  W6  1  0.74730397  0.84145479  0.50399797  1
  W  W7  1  0.75277133  0.84145604  0.99604596  1
  O  O8  1  0.42606805  0.35859818  0.14251909  1
  O  O9  1  0.07389662  0.35865046  0.35738266  1
  O  O10  1  0.57393195  0.64140082  0.85748091  1
  O  O11  1  0.92610238  0.64134854  0.64261734  1
  O  O12  1  0.43926240  0.89565173  0.61385579  1
  O  O13  1  0.06081336  0.89557694  0.88621356  1
  O  O14  1  0.56073760  0.10434827  0.38614421  1
  O  O15  1  0.93918664  0.10442306  0.11378644  1
  O  O16  1  0.87439376  0.61386249  0.12422430  1
  O  O17  1  0.62574788  0.61384385  0.37580850  1
  O  O18  1  0.12560624  0.38613851  0.87577570  1
  O  O19  1  0.37425212  0.38615715  0.62419150  1
  O  O20  1  0.42240346  0.88443503  0.09633696  1
  O  O21  1  0.57759654  0.11556597  0.90366304  1
  O  O22  1  0.07762928  0.88449502  0.40368117  1
  O  O23  1  0.92237072  0.11550598  0.59631883  1
