# generated using pymatgen
data_Sb2O5
_symmetry_space_group_name_H-M   'P 1'
_cell_length_a   9.79011100
_cell_length_b   5.49928596
_cell_length_c   3.99981585
_cell_angle_alpha   111.32556046
_cell_angle_beta   90.00000000
_cell_angle_gamma   90.00000000
_symmetry_Int_Tables_number   1
_chemical_formula_structural   Sb2O5
_chemical_formula_sum   'Sb4 O10'
_cell_volume   200.59972572
_cell_formula_units_Z   2
loop_
 _symmetry_equiv_pos_site_id
 _symmetry_equiv_pos_as_xyz
  1  'x, y, z'
loop_
 _atom_site_type_symbol
 _atom_site_label
 _atom_site_symmetry_multiplicity
 _atom_site_fract_x
 _atom_site_fract_y
 _atom_site_fract_z
 _atom_site_occupancy
  Sb  Sb0  1  0.18598391  0.76943574  0.88471687  1
  Sb  Sb1  1  0.31401609  0.23056426  0.61528313  1
  Sb  Sb2  1  0.68598391  0.23056426  0.61528313  1
  Sb  Sb3  1  0.81401609  0.76943574  0.88471687  1
  O  O4  1  0.00000000  0.91542548  0.95771374  1
  O  O5  1  0.12981536  0.40061411  0.70030706  1
  O  O6  1  0.21472865  0.86809009  0.43404504  1
  O  O7  1  0.28527135  0.13190791  0.06595396  1
  O  O8  1  0.37018464  0.59938589  0.79969294  1
  O  O9  1  0.50000000  0.08457452  0.54228626  1
  O  O10  1  0.62981536  0.59938589  0.79969294  1
  O  O11  1  0.87018464  0.40061411  0.70030706  1
  O  O12  1  0.71472865  0.13190791  0.06595396  1
  O  O13  1  0.78527135  0.86809009  0.43404504  1
