# generated using pymatgen
data_Li9Mn2Co5O16
_symmetry_space_group_name_H-M   'P 1'
_cell_length_a   3.03217564
_cell_length_b   19.57340398
_cell_length_c   5.14203997
_cell_angle_alpha   91.27673812
_cell_angle_beta   75.41116794
_cell_angle_gamma   86.99943836
_symmetry_Int_Tables_number   1
_chemical_formula_structural   Li9Mn2Co5O16
_chemical_formula_sum   'Li9 Mn2 Co5 O16'
_cell_volume   294.73696025
_cell_formula_units_Z   1
loop_
 _symmetry_equiv_pos_site_id
 _symmetry_equiv_pos_as_xyz
  1  'x, y, z'
loop_
 _atom_site_type_symbol
 _atom_site_label
 _atom_site_symmetry_multiplicity
 _atom_site_fract_x
 _atom_site_fract_y
 _atom_site_fract_z
 _atom_site_occupancy
  Li  Li0  1  0.69154059  0.06382116  0.55976392  1
  Li  Li1  1  0.06235261  0.18766633  0.68791060  1
  Li  Li2  1  0.43016951  0.31357878  0.81018003  1
  Li  Li3  1  0.81310147  0.43672371  0.92987657  1
  Li  Li4  1  0.18629882  0.56304496  0.06997601  1
  Li  Li5  1  0.56730468  0.68542063  0.19283245  1
  Li  Li6  1  0.94731464  0.81293553  0.30600103  1
  Li  Li7  1  0.30249464  0.93734668  0.44267415  1
  Li  Li8  1  0.50025818  0.49935828  0.49910806  1
  Mn  Mn9  1  0.00506855  0.00061697  0.99981101  1
  Mn  Mn10  1  0.24418452  0.74791789  0.74962303  1
  Co  Co11  1  0.37167470  0.12736799  0.12456934  1
  Co  Co12  1  0.74490680  0.25208149  0.25071322  1
  Co  Co13  1  0.11684489  0.38004286  0.37992482  1
  Co  Co14  1  0.88844087  0.61855344  0.62103708  1
  Co  Co15  1  0.62557963  0.87433088  0.87482592  1
  O  O16  1  0.32071190  0.03586240  0.26687005  1
  O  O17  1  0.73305776  0.16096366  0.38956169  1
  O  O18  1  0.11175211  0.28736712  0.50620199  1
  O  O19  1  0.45480771  0.40355378  0.62893766  1
  O  O20  1  0.83937801  0.54043807  0.77673510  1
  O  O21  1  0.20390677  0.65683587  0.88497009  1
  O  O22  1  0.55825716  0.78364101  0.02029770  1
  O  O23  1  -0.00485783  0.90859093  0.13648968  1
  O  O24  1  0.00857935  0.09285977  0.86270969  1
  O  O25  1  0.39370445  0.21703455  0.98278185  1
  O  O26  1  0.80358145  0.34140147  0.11533718  1
  O  O27  1  0.15899937  0.45811612  0.22373886  1
  O  O28  1  0.55028489  0.59543789  0.37213655  1
  O  O29  1  0.92176058  0.71153838  0.49081014  1
  O  O30  1  0.25677075  0.84022928  0.61212256  1
  O  O31  1  0.69177248  0.96532513  0.73147199  1
