# generated using pymatgen
data_CaTi(GeO3)2
_symmetry_space_group_name_H-M   'P 1'
_cell_length_a   5.41733813
_cell_length_b   8.69475133
_cell_length_c   12.18759143
_cell_angle_alpha   90.00000000
_cell_angle_beta   102.74172003
_cell_angle_gamma   90.00000000
_symmetry_Int_Tables_number   1
_chemical_formula_structural   CaTi(GeO3)2
_chemical_formula_sum   'Ca4 Ti4 Ge8 O24'
_cell_volume   559.92809797
_cell_formula_units_Z   4
loop_
 _symmetry_equiv_pos_site_id
 _symmetry_equiv_pos_as_xyz
  1  'x, y, z'
loop_
 _atom_site_type_symbol
 _atom_site_label
 _atom_site_symmetry_multiplicity
 _atom_site_fract_x
 _atom_site_fract_y
 _atom_site_fract_z
 _atom_site_occupancy
  Ca  Ca0  1  0.47912745  0.41764178  0.26235914  1
  Ca  Ca1  1  0.02087255  0.91764178  0.73764086  1
  Ca  Ca2  1  0.52087255  0.58235822  0.73764086  1
  Ca  Ca3  1  0.97912745  0.08235822  0.26235914  1
  Ti  Ti4  1  0.98121225  0.66426332  0.27985833  1
  Ti  Ti5  1  0.51878775  0.16426332  0.72014167  1
  Ti  Ti6  1  0.01878775  0.33573668  0.72014167  1
  Ti  Ti7  1  0.48121225  0.83573668  0.27985833  1
  Ge  Ge8  1  0.83269557  0.36742915  0.06995807  1
  Ge  Ge9  1  0.66730443  0.86742915  0.93004193  1
  Ge  Ge10  1  0.16730443  0.63257085  0.93004193  1
  Ge  Ge11  1  0.33269557  0.13257085  0.06995807  1
  Ge  Ge12  1  0.12479309  0.35245483  0.47789343  1
  Ge  Ge13  1  0.37520691  0.85245483  0.52210657  1
  Ge  Ge14  1  0.87520691  0.64754517  0.52210657  1
  Ge  Ge15  1  0.62479309  0.14754517  0.47789343  1
  O  O16  1  0.34861720  0.25279475  0.40278074  1
  O  O17  1  0.15138280  0.75279475  0.59721926  1
  O  O18  1  0.65138280  0.74720525  0.59721926  1
  O  O19  1  0.84861720  0.24720525  0.40278074  1
  O  O20  1  0.14543753  0.27814964  0.14605746  1
  O  O21  1  0.35456247  0.77814964  0.85394354  1
  O  O22  1  0.85456247  0.72185036  0.85394354  1
  O  O23  1  0.64543753  0.22185036  0.14605746  1
  O  O24  1  0.64080165  0.95985970  0.42402273  1
  O  O25  1  0.85919835  0.45985970  0.57597727  1
  O  O26  1  0.35919835  0.04014030  0.57597727  1
  O  O27  1  0.14080165  0.54014030  0.42402273  1
  O  O28  1  0.32345901  0.99294379  0.19496266  1
  O  O29  1  0.17654099  0.49294379  0.80503734  1
  O  O30  1  0.67654099  0.00705621  0.80503734  1
  O  O31  1  0.82345901  0.50705621  0.19496266  1
  O  O32  1  0.72517875  0.33517181  0.77941311  1
  O  O33  1  0.77482125  0.83517181  0.22058689  1
  O  O34  1  0.27482125  0.66482819  0.22058689  1
  O  O35  1  0.22517875  0.16482819  0.77941311  1
  O  O36  1  0.29979563  0.34097974  0.61884082  1
  O  O37  1  0.20020437  0.84097974  0.38115818  1
  O  O38  1  0.70020437  0.65902026  0.38115818  1
  O  O39  1  0.79979563  0.15902026  0.61884082  1
