# generated using pymatgen
data_Cr2CuO7
_symmetry_space_group_name_H-M   'P 1'
_cell_length_a   9.18222363
_cell_length_b   11.20275953
_cell_length_c   10.12688150
_cell_angle_alpha   93.92773184
_cell_angle_beta   90.00000000
_cell_angle_gamma   90.00000000
_symmetry_Int_Tables_number   1
_chemical_formula_structural   Cr2CuO7
_chemical_formula_sum   'Cr12 Cu6 O42'
_cell_volume   1039.26752124
_cell_formula_units_Z   6
loop_
 _symmetry_equiv_pos_site_id
 _symmetry_equiv_pos_as_xyz
  1  'x, y, z'
loop_
 _atom_site_type_symbol
 _atom_site_label
 _atom_site_symmetry_multiplicity
 _atom_site_fract_x
 _atom_site_fract_y
 _atom_site_fract_z
 _atom_site_occupancy
  Cr  Cr0  1  0.20763816  0.15375608  0.29058015  1
  Cr  Cr1  1  0.75582940  0.17400790  0.37998764  1
  Cr  Cr2  1  0.24417060  0.17400790  0.87998764  1
  Cr  Cr3  1  0.79236184  0.15375608  0.79058015  1
  Cr  Cr4  1  0.29100060  0.46489376  0.95803389  1
  Cr  Cr5  1  0.75582940  0.82599210  0.12001236  1
  Cr  Cr6  1  0.70899940  0.46489376  0.45803389  1
  Cr  Cr7  1  0.24417060  0.82599210  0.62001236  1
  Cr  Cr8  1  0.29100060  0.53510624  0.54196611  1
  Cr  Cr9  1  0.70899940  0.53510624  0.04196611  1
  Cr  Cr10  1  0.79236184  0.84624392  0.70941985  1
  Cr  Cr11  1  0.20763816  0.84624392  0.20941985  1
  Cu  Cu12  1  0.93950646  0.80910666  0.41180103  1
  Cu  Cu13  1  0.06049354  0.19089334  0.58819897  1
  Cu  Cu14  1  0.43903150  0.50000000  0.25000000  1
  Cu  Cu15  1  0.93950646  0.19089334  0.08819897  1
  Cu  Cu16  1  0.56096850  0.50000000  0.75000000  1
  Cu  Cu17  1  0.06049354  0.80910666  0.91180103  1
  O  O18  1  0.79361256  0.18477163  0.95433867  1
  O  O19  1  0.79161706  0.83015854  0.28206627  1
  O  O20  1  0.82753141  0.00000000  0.75000000  1
  O  O21  1  0.86579965  0.50680372  0.09922886  1
  O  O22  1  0.35409156  0.93095574  0.59090845  1
  O  O23  1  0.92632666  0.23155221  0.72266507  1
  O  O24  1  0.33015232  0.31057663  0.93443342  1
  O  O25  1  0.13420035  0.50680372  0.59922886  1
  O  O26  1  0.70899061  0.49439939  0.87963520  1
  O  O27  1  0.35409156  0.06904426  0.90909155  1
  O  O28  1  0.70899061  0.50560061  0.62036480  1
  O  O29  1  0.42026635  0.54023899  0.88053710  1
  O  O30  1  0.91406054  0.84202773  0.04054626  1
  O  O31  1  0.07367334  0.23155221  0.22266507  1
  O  O32  1  0.66984768  0.68942337  0.06556658  1
  O  O33  1  0.33015232  0.68942337  0.56556658  1
  O  O34  1  0.92632666  0.76844779  0.77733493  1
  O  O35  1  0.64590844  0.06904426  0.40909155  1
  O  O36  1  0.20638744  0.18477163  0.45433867  1
  O  O37  1  0.57973365  0.45976101  0.11946290  1
  O  O38  1  0.36208740  0.80951391  0.26621630  1
  O  O39  1  0.29100939  0.50560061  0.12036480  1
  O  O40  1  0.08593946  0.84202773  0.54054626  1
  O  O41  1  0.29100939  0.49439939  0.37963520  1
  O  O42  1  0.86579965  0.49319628  0.40077114  1
  O  O43  1  0.57973365  0.54023899  0.38053710  1
  O  O44  1  0.13420035  0.49319628  0.90077114  1
  O  O45  1  0.63791260  0.80951391  0.76621630  1
  O  O46  1  0.63791260  0.19048609  0.73378370  1
  O  O47  1  0.08593946  0.15797227  0.95945374  1
  O  O48  1  0.07367334  0.76844779  0.27733493  1
  O  O49  1  0.79361256  0.81522837  0.54566133  1
  O  O50  1  0.17246859  0.00000000  0.25000000  1
  O  O51  1  0.20838294  0.83015854  0.78206627  1
  O  O52  1  0.64590844  0.93095574  0.09090845  1
  O  O53  1  0.91406054  0.15797227  0.45945374  1
  O  O54  1  0.20638744  0.81522837  0.04566133  1
  O  O55  1  0.79161706  0.16984146  0.21793373  1
  O  O56  1  0.42026635  0.45976101  0.61946290  1
  O  O57  1  0.66984768  0.31057663  0.43443342  1
  O  O58  1  0.20838294  0.16984146  0.71793373  1
  O  O59  1  0.36208740  0.19048609  0.23378370  1
