# generated using pymatgen
data_Zn3Co3(AsO4)4
_symmetry_space_group_name_H-M   'P 1'
_cell_length_a   5.21234324
_cell_length_b   8.59575350
_cell_length_c   15.17571714
_cell_angle_alpha   101.05789418
_cell_angle_beta   90.00000000
_cell_angle_gamma   90.00000000
_symmetry_Int_Tables_number   1
_chemical_formula_structural   Zn3Co3(AsO4)4
_chemical_formula_sum   'Zn6 Co6 As8 O32'
_cell_volume   667.30937959
_cell_formula_units_Z   2
loop_
 _symmetry_equiv_pos_site_id
 _symmetry_equiv_pos_as_xyz
  1  'x, y, z'
loop_
 _atom_site_type_symbol
 _atom_site_label
 _atom_site_symmetry_multiplicity
 _atom_site_fract_x
 _atom_site_fract_y
 _atom_site_fract_z
 _atom_site_occupancy
  Zn  Zn0  1  0.94870232  0.01683305  0.71763923  1
  Zn  Zn1  1  0.44870232  0.48316695  0.78236077  1
  Zn  Zn2  1  0.05129768  0.98316695  0.28236077  1
  Zn  Zn3  1  0.55129768  0.51683305  0.21763923  1
  Zn  Zn4  1  -0.00000000  0.00000000  -0.00000000  1
  Zn  Zn5  1  0.50000000  0.50000000  0.50000000  1
  Co  Co6  1  0.00859323  0.33365299  0.12561245  1
  Co  Co7  1  0.99140677  0.66634701  0.87438755  1
  Co  Co8  1  0.50859323  0.16634701  0.37438755  1
  Co  Co9  1  0.49140677  0.83365299  0.62561245  1
  Co  Co10  1  0.50000000  0.50000000  -0.00000000  1
  Co  Co11  1  -0.00000000  0.00000000  0.50000000  1
  As  As12  1  0.50965692  0.88985662  0.85335156  1
  As  As13  1  0.00871443  0.31174613  0.89603733  1
  As  As14  1  0.50871443  0.18825387  0.60396267  1
  As  As15  1  0.49128557  0.81174613  0.39603733  1
  As  As16  1  0.49034308  0.11014338  0.14664844  1
  As  As17  1  0.99128557  0.68825387  0.10396267  1
  As  As18  1  0.99034308  0.38985662  0.35335156  1
  As  As19  1  0.00965692  0.61014338  0.64664844  1
  O  O20  1  0.09008169  0.56112921  0.75000510  1
  O  O21  1  0.57216363  0.26160103  0.50851832  1
  O  O22  1  0.09865189  0.19258443  0.79921100  1
  O  O23  1  0.11315258  0.80695353  0.65281907  1
  O  O24  1  0.90134811  0.80741557  0.20078900  1
  O  O25  1  0.40991831  0.06112921  0.25000510  1
  O  O26  1  0.59865189  0.30741557  0.70078900  1
  O  O27  1  0.78514575  0.90437705  0.39499599  1
  O  O28  1  0.82374654  0.52156998  0.42875918  1
  O  O29  1  0.90991831  0.43887079  0.24999490  1
  O  O30  1  0.38684742  0.30695353  0.15281907  1
  O  O31  1  0.21485425  0.09562295  0.60500401  1
  O  O32  1  0.22070148  0.47812402  0.90529817  1
  O  O33  1  0.17625346  0.47843002  0.57124082  1
  O  O34  1  0.81909562  0.11614623  0.13029216  1
  O  O35  1  0.31909562  0.38385377  0.36970784  1
  O  O36  1  0.72070148  0.02187598  0.59470183  1
  O  O37  1  0.40134811  0.69258443  0.29921100  1
  O  O38  1  0.32374654  0.97843002  0.07124082  1
  O  O39  1  0.28514575  0.59562295  0.10500401  1
  O  O40  1  0.68090438  0.61614623  0.63029216  1
  O  O41  1  0.18090438  0.88385377  0.86970784  1
  O  O42  1  0.42783637  0.73839897  0.49148168  1
  O  O43  1  0.07216363  0.23839897  0.99148168  1
  O  O44  1  0.77929852  0.52187598  0.09470183  1
  O  O45  1  0.59008169  0.93887079  0.74999490  1
  O  O46  1  0.88684742  0.19304647  0.34718093  1
  O  O47  1  0.67625346  0.02156998  0.92875918  1
  O  O48  1  0.92783637  0.76160103  0.00851832  1
  O  O49  1  0.71485425  0.40437705  0.89499599  1
  O  O50  1  0.27929852  0.97812402  0.40529817  1
  O  O51  1  0.61315258  0.69304647  0.84718093  1
