# generated using pymatgen
data_AlMo(WO4)2
_symmetry_space_group_name_H-M   'P 1'
_cell_length_a   5.21167007
_cell_length_b   5.68198887
_cell_length_c   9.26337498
_cell_angle_alpha   89.95235528
_cell_angle_beta   91.66457857
_cell_angle_gamma   89.98177291
_symmetry_Int_Tables_number   1
_chemical_formula_structural   AlMo(WO4)2
_chemical_formula_sum   'Al2 Mo2 W4 O16'
_cell_volume   274.19722496
_cell_formula_units_Z   2
loop_
 _symmetry_equiv_pos_site_id
 _symmetry_equiv_pos_as_xyz
  1  'x, y, z'
loop_
 _atom_site_type_symbol
 _atom_site_label
 _atom_site_symmetry_multiplicity
 _atom_site_fract_x
 _atom_site_fract_y
 _atom_site_fract_z
 _atom_site_occupancy
  Al  Al0  1  0.25039615  0.66140109  0.25020197  1
  Al  Al1  1  0.74960285  0.33859791  0.74979803  1
  Mo  Mo2  1  0.75053279  0.36125705  0.24998449  1
  Mo  Mo3  1  0.24946721  0.63874195  0.75001551  1
  W  W4  1  0.24913146  0.15927235  0.50162539  1
  W  W5  1  0.25073645  0.15920728  0.99853631  1
  W  W6  1  0.75086854  0.84072765  0.49837461  1
  W  W7  1  0.74926355  0.84079272  0.00146369  1
  O  O8  1  0.38707851  0.38513490  0.13263898  1
  O  O9  1  0.11400916  0.38625987  0.36741573  1
  O  O10  1  0.61292149  0.61486410  0.86736102  1
  O  O11  1  0.88598984  0.61373913  0.63258427  1
  O  O12  1  0.41842777  0.89148054  0.60993725  1
  O  O13  1  0.08121470  0.89158813  0.89007199  1
  O  O14  1  0.58157223  0.10851946  0.39006275  1
  O  O15  1  0.91878530  0.10841187  0.10992801  1
  O  O16  1  0.94243551  0.63348081  0.13976361  1
  O  O17  1  0.55832769  0.63262477  0.36051601  1
  O  O18  1  0.05756449  0.36652019  0.86023639  1
  O  O19  1  0.44167231  0.36737623  0.63948399  1
  O  O20  1  0.42155960  0.87619877  0.11546355  1
  O  O21  1  0.57844040  0.12380223  0.88453645  1
  O  O22  1  0.07853628  0.87696901  0.38455727  1
  O  O23  1  0.92146372  0.12303199  0.61544273  1
