# generated using pymatgen
data_CaV(GeO3)2
_symmetry_space_group_name_H-M   'P 1'
_cell_length_a   5.42322821
_cell_length_b   9.30298746
_cell_length_c   10.41664721
_cell_angle_alpha   90.00000000
_cell_angle_beta   105.83033727
_cell_angle_gamma   90.00000000
_symmetry_Int_Tables_number   1
_chemical_formula_structural   CaV(GeO3)2
_chemical_formula_sum   'Ca4 V4 Ge8 O24'
_cell_volume   505.61111109
_cell_formula_units_Z   4
loop_
 _symmetry_equiv_pos_site_id
 _symmetry_equiv_pos_as_xyz
  1  'x, y, z'
loop_
 _atom_site_type_symbol
 _atom_site_label
 _atom_site_symmetry_multiplicity
 _atom_site_fract_x
 _atom_site_fract_y
 _atom_site_fract_z
 _atom_site_occupancy
  Ca  Ca0  1  0.47457677  0.45329084  0.26561493  1
  Ca  Ca1  1  0.02542323  0.95329084  0.73438507  1
  Ca  Ca2  1  0.52542323  0.54670916  0.73438507  1
  Ca  Ca3  1  0.97457677  0.04670916  0.26561493  1
  V  V4  1  0.97602244  0.65805663  0.24433428  1
  V  V5  1  0.52397756  0.15805663  0.75566572  1
  V  V6  1  0.02397756  0.34194337  0.75566572  1
  V  V7  1  0.47602244  0.84194337  0.24433428  1
  Ge  Ge8  1  0.81787626  0.34493204  0.04137818  1
  Ge  Ge9  1  0.68212374  0.84493204  0.95862182  1
  Ge  Ge10  1  0.18212374  0.65506796  0.95862182  1
  Ge  Ge11  1  0.31787626  0.15506796  0.04137818  1
  Ge  Ge12  1  0.13772462  0.34784910  0.47102827  1
  Ge  Ge13  1  0.36227538  0.84784910  0.52897173  1
  Ge  Ge14  1  0.86227538  0.65215090  0.52897173  1
  Ge  Ge15  1  0.63772462  0.15215090  0.47102827  1
  O  O16  1  0.33390156  0.23456745  0.38998812  1
  O  O17  1  0.16609844  0.73456745  0.61001188  1
  O  O18  1  0.66609844  0.76543255  0.61001188  1
  O  O19  1  0.83390156  0.26543255  0.38998812  1
  O  O20  1  0.16067107  0.30693724  0.09915164  1
  O  O21  1  0.33932893  0.80693724  0.90084936  1
  O  O22  1  0.83932893  0.69306276  0.90084936  1
  O  O23  1  0.66067107  0.19306276  0.09915164  1
  O  O24  1  0.67479578  0.98413888  0.40404360  1
  O  O25  1  0.82520422  0.48413888  0.59595640  1
  O  O26  1  0.32520422  0.01586112  0.59595640  1
  O  O27  1  0.17479578  0.51586112  0.40404360  1
  O  O28  1  0.25225029  0.01208408  0.13236114  1
  O  O29  1  0.24774971  0.51208408  0.86763886  1
  O  O30  1  0.74774971  0.98791592  0.86763886  1
  O  O31  1  0.75225029  0.48791592  0.13236114  1
  O  O32  1  0.73595732  0.34473872  0.86581414  1
  O  O33  1  0.76404268  0.84473872  0.13418586  1
  O  O34  1  0.26404268  0.65526128  0.13418586  1
  O  O35  1  0.23595732  0.15526128  0.86581414  1
  O  O36  1  0.29569060  0.33450992  0.64172844  1
  O  O37  1  0.20430940  0.83450992  0.35827156  1
  O  O38  1  0.70430940  0.66549008  0.35827156  1
  O  O39  1  0.79569060  0.16549008  0.64172844  1
