# generated using pymatgen
data_Li9Mn2Co5O16
_symmetry_space_group_name_H-M   'P 1'
_cell_length_a   3.01854405
_cell_length_b   19.49576203
_cell_length_c   5.12042632
_cell_angle_alpha   91.38959374
_cell_angle_beta   75.21610008
_cell_angle_gamma   86.97810765
_symmetry_Int_Tables_number   1
_chemical_formula_structural   Li9Mn2Co5O16
_chemical_formula_sum   'Li9 Mn2 Co5 O16'
_cell_volume   290.72846699
_cell_formula_units_Z   1
loop_
 _symmetry_equiv_pos_site_id
 _symmetry_equiv_pos_as_xyz
  1  'x, y, z'
loop_
 _atom_site_type_symbol
 _atom_site_label
 _atom_site_symmetry_multiplicity
 _atom_site_fract_x
 _atom_site_fract_y
 _atom_site_fract_z
 _atom_site_occupancy
  Li  Li0  1  0.68989323  0.06389749  0.56125961  1
  Li  Li1  1  0.06273968  0.18803218  0.68715716  1
  Li  Li2  1  0.43685109  0.31261728  0.81391395  1
  Li  Li3  1  0.80652964  0.43812375  0.93496478  1
  Li  Li4  1  0.18852262  0.56169233  0.05598765  1
  Li  Li5  1  0.56122149  0.68781910  0.19385661  1
  Li  Li6  1  0.94384286  0.81030845  0.31551356  1
  Li  Li7  1  0.31211014  0.93785808  0.43590782  1
  Li  Li8  1  0.87552514  0.62426745  0.62444899  1
  Mn  Mn9  1  0.99104450  0.00045521  0.00003882  1
  Mn  Mn10  1  0.62978643  0.87232365  0.87345344  1
  Co  Co11  1  0.36903292  0.12717254  0.12499074  1
  Co  Co12  1  0.74850382  0.25177095  0.25197265  1
  Co  Co13  1  0.12305434  0.37697618  0.37576515  1
  Co  Co14  1  0.49469425  0.50466397  0.50517079  1
  Co  Co15  1  0.26537900  0.74310485  0.74494306  1
  O  O16  1  0.30735733  0.03555479  0.26677289  1
  O  O17  1  0.73046054  0.16050810  0.38894113  1
  O  O18  1  0.11220907  0.28556895  0.51460733  1
  O  O19  1  0.48716126  0.41200049  0.63137359  1
  O  O20  1  0.83275737  0.52831397  0.75394952  1
  O  O21  1  0.21411138  0.66475556  0.90129910  1
  O  O22  1  0.57837214  0.78156306  0.01037711  1
  O  O23  1  0.94191676  0.90807216  0.14345894  1
  O  O24  1  0.00601780  0.09274892  0.86295592  1
  O  O25  1  0.38891125  0.21732274  0.98666544  1
  O  O26  1  0.77222654  0.34185221  0.10937978  1
  O  O27  1  0.18065603  0.46613629  0.24022349  1
  O  O28  1  0.53640607  0.58308745  0.34875290  1
  O  O29  1  0.92557480  0.72005229  0.49584472  1
  O  O30  1  0.30346247  0.83639866  0.61472267  1
  O  O31  1  0.68367006  0.96498394  0.73133068  1
