# generated using pymatgen
data_BaCaCrF7
_symmetry_space_group_name_H-M   'P 1'
_cell_length_a   5.78169819
_cell_length_b   10.06927220
_cell_length_c   10.48143067
_cell_angle_alpha   90.00000000
_cell_angle_beta   90.00000000
_cell_angle_gamma   92.34640578
_symmetry_Int_Tables_number   1
_chemical_formula_structural   BaCaCrF7
_chemical_formula_sum   'Ba4 Ca4 Cr4 F28'
_cell_volume   609.69099901
_cell_formula_units_Z   4
loop_
 _symmetry_equiv_pos_site_id
 _symmetry_equiv_pos_as_xyz
  1  'x, y, z'
loop_
 _atom_site_type_symbol
 _atom_site_label
 _atom_site_symmetry_multiplicity
 _atom_site_fract_x
 _atom_site_fract_y
 _atom_site_fract_z
 _atom_site_occupancy
  Ba  Ba0  1  0.26008101  0.50352277  0.33358364  1
  Ba  Ba1  1  0.73991899  0.99647723  0.83358364  1
  Ba  Ba2  1  0.73991899  0.49647723  0.66641636  1
  Ba  Ba3  1  0.26008101  0.00352277  0.16641636  1
  Ca  Ca4  1  0.70007583  0.81805724  0.40425845  1
  Ca  Ca5  1  0.29992417  0.68194276  0.90425845  1
  Ca  Ca6  1  0.70007583  0.31805724  0.09574155  1
  Ca  Ca7  1  0.29992417  0.18194276  0.59574155  1
  Cr  Cr8  1  0.18917762  0.81099649  0.61990944  1
  Cr  Cr9  1  0.81082238  0.18900351  0.38009056  1
  Cr  Cr10  1  0.18917762  0.31099649  0.88009056  1
  Cr  Cr11  1  0.81082238  0.68900351  0.11990944  1
  F  F12  1  0.09919246  0.11197572  0.42708592  1
  F  F13  1  0.34012643  0.36935333  0.03806132  1
  F  F14  1  0.46928379  0.74295113  0.70163087  1
  F  F15  1  0.53071621  0.25704887  0.29836913  1
  F  F16  1  0.90568364  0.35771179  0.45891321  1
  F  F17  1  0.27531820  0.48176218  0.79974308  1
  F  F18  1  0.01448247  0.75112604  0.77193192  1
  F  F19  1  0.09431636  0.14228821  0.95891321  1
  F  F20  1  0.34012643  0.86935333  0.46193868  1
  F  F21  1  0.53071621  0.75704887  0.20163087  1
  F  F22  1  0.09919246  0.61197572  0.07291408  1
  F  F23  1  0.90080754  0.88802428  0.57291408  1
  F  F24  1  0.98551753  0.74887396  0.27193192  1
  F  F25  1  0.39492845  0.88483732  0.95809564  1
  F  F26  1  0.09431636  0.64228821  0.54108679  1
  F  F27  1  0.90568364  0.85771179  0.04108579  1
  F  F28  1  0.98551753  0.24887396  0.22806808  1
  F  F29  1  0.90080754  0.38802428  0.92708592  1
  F  F30  1  0.60507155  0.61516268  0.45809564  1
  F  F31  1  0.65987357  0.63064667  0.96193868  1
  F  F32  1  0.60507155  0.11516268  0.04190436  1
  F  F33  1  0.01448247  0.25112604  0.72806808  1
  F  F34  1  0.39492845  0.38483732  0.54190436  1
  F  F35  1  0.72468180  0.01823782  0.29974308  1
  F  F36  1  0.72468180  0.51823782  0.20025692  1
  F  F37  1  0.27531820  0.98176218  0.70025692  1
  F  F38  1  0.65987357  0.13064667  0.53806132  1
  F  F39  1  0.46928379  0.24295113  0.79836913  1
