# generated using pymatgen
data_BaMgWF7
_symmetry_space_group_name_H-M   'P 1'
_cell_length_a   5.72248134
_cell_length_b   9.93760521
_cell_length_c   10.22845372
_cell_angle_alpha   90.00000000
_cell_angle_beta   90.00000000
_cell_angle_gamma   92.57271483
_symmetry_Int_Tables_number   1
_chemical_formula_structural   BaMgWF7
_chemical_formula_sum   'Ba4 Mg4 W4 F28'
_cell_volume   581.08296657
_cell_formula_units_Z   4
loop_
 _symmetry_equiv_pos_site_id
 _symmetry_equiv_pos_as_xyz
  1  'x, y, z'
loop_
 _atom_site_type_symbol
 _atom_site_label
 _atom_site_symmetry_multiplicity
 _atom_site_fract_x
 _atom_site_fract_y
 _atom_site_fract_z
 _atom_site_occupancy
  Ba  Ba0  1  0.26739663  0.49685842  0.32758108  1
  Ba  Ba1  1  0.73260337  0.00314158  0.82758108  1
  Ba  Ba2  1  0.73260337  0.50314158  0.67241892  1
  Ba  Ba3  1  0.26739663  0.99685842  0.17241892  1
  Mg  Mg4  1  0.68706349  0.80998087  0.39277384  1
  Mg  Mg5  1  0.31293651  0.69001913  0.89277384  1
  Mg  Mg6  1  0.68706349  0.30998087  0.10722616  1
  Mg  Mg7  1  0.31293651  0.19001913  0.60722616  1
  W  W8  1  0.19362714  0.81484759  0.61180183  1
  W  W9  1  0.80637286  0.18515241  0.38819817  1
  W  W10  1  0.19362714  0.31484759  0.88819817  1
  W  W11  1  0.80637286  0.68515241  0.11180183  1
  F  F12  1  0.13368637  0.12344750  0.45409995  1
  F  F13  1  0.37417689  0.37564513  0.05952813  1
  F  F14  1  0.48879184  0.74975266  0.71834262  1
  F  F15  1  0.51120816  0.25024734  0.28165738  1
  F  F16  1  0.89661382  0.37741729  0.45834606  1
  F  F17  1  0.26381182  0.50838181  0.80304574  1
  F  F18  1  0.02630547  0.74944235  0.78795098  1
  F  F19  1  0.10338618  0.12258271  0.95834606  1
  F  F20  1  0.37417689  0.87564513  0.44047187  1
  F  F21  1  0.51120816  0.75024734  0.21834262  1
  F  F22  1  0.13368637  0.62344750  0.04590005  1
  F  F23  1  0.86631363  0.87655250  0.54590005  1
  F  F24  1  0.97369453  0.75055765  0.28795098  1
  F  F25  1  0.39532003  0.86882737  0.95856758  1
  F  F26  1  0.10338618  0.62258271  0.54165394  1
  F  F27  1  0.89661382  0.87741729  0.04165394  1
  F  F28  1  0.97369453  0.25055765  0.21204902  1
  F  F29  1  0.86631363  0.37655250  0.95409995  1
  F  F30  1  0.60467997  0.63117263  0.45856758  1
  F  F31  1  0.62582311  0.62435487  0.94047187  1
  F  F32  1  0.60467997  0.13117263  0.04143242  1
  F  F33  1  0.02630547  0.24944235  0.71204902  1
  F  F34  1  0.39532003  0.36882637  0.54143242  1
  F  F35  1  0.73618818  0.99161819  0.30304574  1
  F  F36  1  0.73618818  0.49161819  0.19695426  1
  F  F37  1  0.26381182  0.00838181  0.69695426  1
  F  F38  1  0.62582311  0.12435487  0.55952813  1
  F  F39  1  0.48879184  0.24975266  0.78165738  1
