# generated using pymatgen
data_Sr2Ca6Co7CuO20
_symmetry_space_group_name_H-M   'P 1'
_cell_length_a   10.71622282
_cell_length_b   11.10965787
_cell_length_c   17.10354577
_cell_angle_alpha   108.83270907
_cell_angle_beta   108.16181005
_cell_angle_gamma   90.14809418
_symmetry_Int_Tables_number   1
_chemical_formula_structural   Sr2Ca6Co7CuO20
_chemical_formula_sum   'Sr8 Ca24 Co28 Cu4 O80'
_cell_volume   1819.11584652
_cell_formula_units_Z   4
loop_
 _symmetry_equiv_pos_site_id
 _symmetry_equiv_pos_as_xyz
  1  'x, y, z'
loop_
 _atom_site_type_symbol
 _atom_site_label
 _atom_site_symmetry_multiplicity
 _atom_site_fract_x
 _atom_site_fract_y
 _atom_site_fract_z
 _atom_site_occupancy
  Sr  Sr0  1  0.30691035  0.56215015  0.61395041  1
  Sr  Sr1  1  0.80889561  0.05910108  0.61215763  1
  Sr  Sr2  1  0.20084212  0.44181161  0.89115646  1
  Sr  Sr3  1  0.06204989  0.30008335  0.61273833  1
  Sr  Sr4  1  0.05677184  0.79758529  0.61184025  1
  Sr  Sr5  1  0.56014808  0.30390002  0.61461551  1
  Sr  Sr6  1  0.44816194  0.19999077  0.88854946  1
  Sr  Sr7  1  0.94587978  0.20169605  0.38334184  1
  Ca  Ca8  1  0.30409879  0.06467878  0.10904628  1
  Ca  Ca9  1  0.30956048  0.06276833  0.60654055  1
  Ca  Ca10  1  0.30514830  0.56589480  0.10936872  1
  Ca  Ca11  1  0.80364143  0.06679929  0.10611322  1
  Ca  Ca12  1  0.80687291  0.56409526  0.10836735  1
  Ca  Ca13  1  0.80632891  0.56459034  0.60841432  1
  Ca  Ca14  1  0.19534448  0.43787873  0.39020669  1
  Ca  Ca15  1  0.20060122  0.93351494  0.38900103  1
  Ca  Ca16  1  0.19806060  0.93254988  0.89634629  1
  Ca  Ca17  1  0.69152042  0.43569011  0.38910881  1
  Ca  Ca18  1  0.69950628  0.43806893  0.89422054  1
  Ca  Ca19  1  0.69403436  0.92741939  0.38829643  1
  Ca  Ca20  1  0.69571000  0.93760197  0.89166043  1
  Ca  Ca21  1  0.05564399  0.29416277  0.10921862  1
  Ca  Ca22  1  0.05617541  0.79140317  0.10856971  1
  Ca  Ca23  1  0.55585704  0.29354172  0.10945963  1
  Ca  Ca24  1  0.55313568  0.79360571  0.10896276  1
  Ca  Ca25  1  0.55391020  0.79392643  0.60781439  1
  Ca  Ca26  1  0.44395293  0.20820680  0.38836332  1
  Ca  Ca27  1  0.44381135  0.70528435  0.39059233  1
  Ca  Ca28  1  0.44444597  0.70629328  0.89281528  1
  Ca  Ca29  1  0.95020661  0.20803712  0.89520788  1
  Ca  Ca30  1  0.94435358  0.70279226  0.38867517  1
  Ca  Ca31  1  0.95056440  0.70587099  0.89403669  1
  Co  Co32  1  0.00561578  0.00052502  0.00105437  1
  Co  Co33  1  0.00260864  0.99430814  0.49429614  1
  Co  Co34  1  0.00726280  0.49995690  0.00278193  1
  Co  Co35  1  0.00105468  0.50039694  0.49810764  1
  Co  Co36  1  0.50393726  0.99825120  0.99925228  1
  Co  Co37  1  0.50466587  0.99762245  0.49680819  1
  Co  Co38  1  0.50791418  0.50109751  0.00246870  1
  Co  Co39  1  0.50380848  0.50176520  0.49942343  1
  Co  Co40  1  0.25610256  0.25157057  0.00306245  1
  Co  Co41  1  0.25657861  0.24948797  0.49996433  1
  Co  Co42  1  0.25517118  0.75127383  0.00213543  1
  Co  Co43  1  0.25480482  0.75138216  0.50122186  1
  Co  Co44  1  0.75752619  0.25189062  0.00232735  1
  Co  Co45  1  0.75028899  0.24826077  0.49426009  1
  Co  Co46  1  0.75600132  0.74880932  0.99922823  1
  Co  Co47  1  0.75022229  0.74440979  0.49470980  1
  Co  Co48  1  0.10929182  0.09050171  0.24514544  1
  Co  Co49  1  0.11057914  0.09074800  0.75526553  1
  Co  Co50  1  0.10746637  0.59504816  0.24987527  1
  Co  Co51  1  0.60444716  0.09188582  0.24845065  1
  Co  Co52  1  0.61168445  0.09236790  0.74916430  1
  Co  Co53  1  0.60544292  0.59186532  0.24714685  1
  Co  Co54  1  0.35656043  0.40605579  0.24930507  1
  Co  Co55  1  0.35766311  0.90426484  0.24844677  1
  Co  Co56  1  0.85667625  0.40856813  0.24836643  1
  Co  Co57  1  0.86143267  0.41137328  0.75387510  1
  Co  Co58  1  0.85637850  0.90144647  0.24631222  1
  Co  Co59  1  0.85902128  0.90097451  0.75421225  1
  Cu  Cu60  1  0.10351830  0.59951986  0.75220458  1
  Cu  Cu61  1  0.61916344  0.60762004  0.75373043  1
  Cu  Cu62  1  0.36898811  0.40916073  0.75404465  1
  Cu  Cu63  1  0.35960658  0.90437043  0.75076195  1
  O  O64  1  0.13184024  0.12227562  0.48710759  1
  O  O65  1  0.12344780  0.11950355  0.98826683  1
  O  O66  1  0.12052098  0.62355348  0.48486979  1
  O  O67  1  0.12434573  0.62641544  0.99390471  1
  O  O68  1  0.62834761  0.12336416  0.48555873  1
  O  O69  1  0.62887533  0.12210494  0.99186338  1
  O  O70  1  0.62177782  0.61851591  0.48617572  1
  O  O71  1  0.62782973  0.62790189  0.99127168  1
  O  O72  1  0.13654161  0.38212492  0.01779147  1
  O  O73  1  0.12899651  0.37967542  0.50339054  1
  O  O74  1  0.13550708  0.88247611  0.01585048  1
  O  O75  1  0.13161008  0.88520032  0.50552934  1
  O  O76  1  0.63964069  0.38516576  0.01619511  1
  O  O77  1  0.63202624  0.38325238  0.50965602  1
  O  O78  1  0.63047321  0.88562229  0.01363172  1
  O  O79  1  0.62890550  0.87343807  0.50612853  1
  O  O80  1  0.37532199  0.11475804  0.48382966  1
  O  O81  1  0.37799093  0.11342804  0.99473717  1
  O  O82  1  0.37139950  0.61651510  0.48428534  1
  O  O83  1  0.38100811  0.62303897  0.99432120  1
  O  O84  1  0.87866594  0.10901974  0.48762378  1
  O  O85  1  0.87256924  0.11552713  0.98720383  1
  O  O86  1  0.86679214  0.61067952  0.48401975  1
  O  O87  1  0.87402320  0.61401213  0.98670199  1
  O  O88  1  0.38993275  0.38458474  0.01840268  1
  O  O89  1  0.37709378  0.37437114  0.50281377  1
  O  O90  1  0.38445525  0.88102532  0.01536898  1
  O  O91  1  0.37970040  0.88153058  0.50812653  1
  O  O92  1  0.88556901  0.38145244  0.01260016  1
  O  O93  1  0.87467735  0.37356169  0.50489081  1
  O  O94  1  0.88211947  0.87964167  0.01357670  1
  O  O95  1  0.87929808  0.87305910  0.50381795  1
  O  O96  1  0.08575393  0.09961136  0.13727119  1
  O  O97  1  0.08652101  0.08862802  0.64393457  1
  O  O98  1  0.08566134  0.60221201  0.14215701  1
  O  O99  1  0.06534881  0.58437287  0.63221169  1
  O  O100  1  0.58700516  0.10192948  0.14268113  1
  O  O101  1  0.58266014  0.09291572  0.63889734  1
  O  O102  1  0.58540461  0.59968235  0.13911058  1
  O  O103  1  0.57886990  0.59401709  0.63522341  1
  O  O104  1  0.44385012  0.40107537  0.35775916  1
  O  O105  1  0.45302283  0.41338627  0.87028683  1
  O  O106  1  0.44355175  0.89573932  0.35557420  1
  O  O107  1  0.44615299  0.90677955  0.86640121  1
  O  O108  1  0.94325671  0.40988063  0.35783198  1
  O  O109  1  0.94710226  0.39765821  0.85967144  1
  O  O110  1  0.94521919  0.89901674  0.35613551  1
  O  O111  1  0.94472427  0.89788854  0.86385308  1
  O  O112  1  0.33520048  0.28882849  0.14235888  1
  O  O113  1  0.32912101  0.29304528  0.63588189  1
  O  O114  1  0.33567530  0.79003932  0.14018723  1
  O  O115  1  0.32779144  0.79713184  0.63307810  1
  O  O116  1  0.83957937  0.29047620  0.14253920  1
  O  O117  1  0.83381352  0.29802447  0.64360415  1
  O  O118  1  0.83343507  0.78574027  0.13891281  1
  O  O119  1  0.83005948  0.79107784  0.64396350  1
  O  O120  1  0.19119044  0.20814023  0.35206520  1
  O  O121  1  0.19325482  0.20730738  0.86231191  1
  O  O122  1  0.19269125  0.70928596  0.35833632  1
  O  O123  1  0.19448632  0.71073353  0.86936287  1
  O  O124  1  0.68778632  0.21050840  0.35715796  1
  O  O125  1  0.69121294  0.21023288  0.85677798  1
  O  O126  1  0.69257424  0.70619110  0.35426097  1
  O  O127  1  0.70088536  0.71811923  0.86764209  1
  O  O128  1  0.42341756  0.06775866  0.24917775  1
  O  O129  1  0.43333263  0.05955752  0.74188927  1
  O  O130  1  0.42471299  0.56826156  0.24911233  1
  O  O131  1  0.44591078  0.57238619  0.75962370  1
  O  O132  1  0.92629400  0.05677561  0.23915640  1
  O  O133  1  0.93302448  0.06415235  0.75916816  1
  O  O134  1  0.92440484  0.57055541  0.24808803  1
  O  O135  1  0.92252214  0.57240885  0.75216072  1
  O  O136  1  0.17491830  0.43244480  0.24929030  1
  O  O137  1  0.19451045  0.44948972  0.75085968  1
  O  O138  1  0.17619051  0.92937564  0.24799339  1
  O  O139  1  0.18318776  0.93528743  0.76132237  1
  O  O140  1  0.67441701  0.43079378  0.24827134  1
  O  O141  1  0.69402500  0.44530805  0.75999735  1
  O  O142  1  0.67617033  0.93133491  0.24978385  1
  O  O143  1  0.67716642  0.92986483  0.75098599  1
