# generated using pymatgen
data_YAg(WO4)2
_symmetry_space_group_name_H-M   'P 1'
_cell_length_a   5.23623914
_cell_length_b   6.01014327
_cell_length_c   6.45284312
_cell_angle_alpha   109.82028064
_cell_angle_beta   116.31305426
_cell_angle_gamma   90.37971780
_symmetry_Int_Tables_number   1
_chemical_formula_structural   YAg(WO4)2
_chemical_formula_sum   'Y1 Ag1 W2 O8'
_cell_volume   168.25818799
_cell_formula_units_Z   1
loop_
 _symmetry_equiv_pos_site_id
 _symmetry_equiv_pos_as_xyz
  1  'x, y, z'
loop_
 _atom_site_type_symbol
 _atom_site_label
 _atom_site_symmetry_multiplicity
 _atom_site_fract_x
 _atom_site_fract_y
 _atom_site_fract_z
 _atom_site_occupancy
  Y  Y0  1  0.62464287  0.72324439  0.09959048  1
  Ag  Ag1  1  0.12529959  0.22455130  0.10032200  1
  W  W2  1  0.87148245  0.39233272  0.59135794  1
  W  W3  1  0.37775619  0.05379024  0.60786421  1
  O  O4  1  0.14025780  0.65392496  0.84507229  1
  O  O5  1  0.65277812  0.51824648  0.36302970  1
  O  O6  1  0.17335801  0.19826537  0.78801296  1
  O  O7  1  0.59231613  0.04972846  0.41235843  1
  O  O8  1  0.59642167  0.92788402  0.83616340  1
  O  O9  1  0.10894179  0.79223805  0.35421116  1
  O  O10  1  0.07580255  0.24786062  0.41118042  1
  O  O11  1  0.65694183  0.39642939  0.78693200  1
