# generated using pymatgen
data_Ba2Mn2AlF11
_symmetry_space_group_name_H-M   'P 1'
_cell_length_a   7.48577197
_cell_length_b   7.48577133
_cell_length_c   14.49887819
_cell_angle_alpha   90.00000000
_cell_angle_beta   90.00000000
_cell_angle_gamma   120.00000847
_symmetry_Int_Tables_number   1
_chemical_formula_structural   Ba2Mn2AlF11
_chemical_formula_sum   'Ba6 Mn6 Al3 F33'
_cell_volume   703.61995195
_cell_formula_units_Z   3
loop_
 _symmetry_equiv_pos_site_id
 _symmetry_equiv_pos_as_xyz
  1  'x, y, z'
loop_
 _atom_site_type_symbol
 _atom_site_label
 _atom_site_symmetry_multiplicity
 _atom_site_fract_x
 _atom_site_fract_y
 _atom_site_fract_z
 _atom_site_occupancy
  Ba  Ba0  1  0.53281580  0.18998344  0.66623439  1
  Ba  Ba1  1  0.17341758  0.48925774  0.79996415  1
  Ba  Ba2  1  0.65716664  0.46718420  0.99956739  1
  Ba  Ba3  1  0.51074226  0.68415884  0.46663015  1
  Ba  Ba4  1  0.31584116  0.82658242  0.13329715  1
  Ba  Ba5  1  0.81001656  0.34283336  0.33290039  1
  Mn  Mn6  1  0.62896999  0.99346191  0.88863426  1
  Mn  Mn7  1  0.79294054  0.76516311  0.72530440  1
  Mn  Mn8  1  0.23483689  0.02777743  0.39197140  1
  Mn  Mn9  1  0.36449192  0.37103001  0.22196726  1
  Mn  Mn10  1  0.97222257  0.20705946  0.05863840  1
  Mn  Mn11  1  0.00653809  0.63550808  0.55530026  1
  Al  Al12  1  0.16855871  0.01330997  0.87190788  1
  Al  Al13  1  0.84475226  0.83144129  0.20524088  1
  Al  Al14  1  0.98669003  0.15524774  0.53857388  1
  F  F15  1  0.66094354  0.08718547  0.02770341  1
  F  F16  1  0.49455401  0.68797952  0.92598277  1
  F  F17  1  0.42624193  0.33905646  0.36103641  1
  F  F18  1  0.09237384  0.41740820  0.48945034  1
  F  F19  1  0.53818792  0.23837064  0.18239235  1
  F  F20  1  0.90440757  0.62603586  0.18677987  1
  F  F21  1  0.58259180  0.67496564  0.15611734  1
  F  F22  1  0.37396414  0.27837171  0.85344687  1
  F  F23  1  0.70018172  0.46181208  0.51572535  1
  F  F24  1  0.27951862  0.34245513  0.08330181  1
  F  F25  1  0.32503436  0.90762616  0.82278434  1
  F  F26  1  0.91281453  0.57375807  0.69437041  1
  F  F27  1  0.27792174  0.01491827  0.98101944  1
  F  F28  1  0.03421562  0.50206723  0.02080445  1
  F  F29  1  0.73699653  0.72207826  0.31435244  1
  F  F30  1  0.31202048  0.80657449  0.59264877  1
  F  F31  1  0.99841356  0.11851011  0.91269023  1
  F  F32  1  0.06293652  0.72048138  0.41663481  1
  F  F33  1  0.97433824  0.06803625  0.41890764  1
  F  F34  1  0.98508173  0.26300347  0.64768544  1
  F  F35  1  0.09369801  0.02566176  0.75224164  1
  F  F36  1  0.49793277  0.53214839  0.68747145  1
  F  F37  1  0.46785161  0.96578438  0.35413745  1
  F  F38  1  0.12009656  0.00158644  0.24602323  1
  F  F39  1  0.65754487  0.93706348  0.74996881  1
  F  F40  1  0.76162936  0.29981828  0.84905935  1
  F  F41  1  0.19342551  0.50544599  0.25931577  1
  F  F42  1  0.94049075  0.75672329  0.87689258  1
  F  F43  1  0.81623353  0.05950925  0.21022558  1
  F  F44  1  0.93196375  0.90630199  0.08557464  1
  F  F45  1  0.72162829  0.09559243  0.52011287  1
  F  F46  1  0.88148989  0.87990344  0.57935623  1
  F  F47  1  0.24327671  0.18376647  0.54355858  1
