# generated using pymatgen
data_SrVZn(PO4)2
_symmetry_space_group_name_H-M   'P 1'
_cell_length_a   5.53321919
_cell_length_b   7.04323912
_cell_length_c   9.52228338
_cell_angle_alpha   110.93407685
_cell_angle_beta   101.57921352
_cell_angle_gamma   98.14936543
_symmetry_Int_Tables_number   1
_chemical_formula_structural   SrVZn(PO4)2
_chemical_formula_sum   'Sr2 V2 Zn2 P4 O16'
_cell_volume   330.18034421
_cell_formula_units_Z   2
loop_
 _symmetry_equiv_pos_site_id
 _symmetry_equiv_pos_as_xyz
  1  'x, y, z'
loop_
 _atom_site_type_symbol
 _atom_site_label
 _atom_site_symmetry_multiplicity
 _atom_site_fract_x
 _atom_site_fract_y
 _atom_site_fract_z
 _atom_site_occupancy
  Sr  Sr0  1  0.24548748  0.79805737  0.04657780  1
  Sr  Sr1  1  0.75451252  0.20194263  0.95342220  1
  V  V2  1  0.63963976  0.85070663  0.56147859  1
  V  V3  1  0.36036024  0.14929337  0.43852141  1
  Zn  Zn4  1  0.99397590  0.37847886  0.64678536  1
  Zn  Zn5  1  0.00602410  0.62152114  0.35321464  1
  P  P6  1  0.39015314  0.42250230  0.23160521  1
  P  P7  1  0.60984686  0.57749770  0.76839479  1
  P  P8  1  0.83947488  0.02176664  0.30061710  1
  P  P9  1  0.16052512  0.97823336  0.69938290  1
  O  O10  1  0.80747339  0.55483104  0.89755337  1
  O  O11  1  0.66375042  0.47564845  0.21375734  1
  O  O12  1  0.66643040  0.79914658  0.77028182  1
  O  O13  1  0.95944410  0.11824784  0.70027110  1
  O  O14  1  0.33624958  0.52435155  0.78624266  1
  O  O15  1  0.00233317  0.75385481  0.57800137  1
  O  O16  1  0.99766683  0.24614519  0.42199863  1
  O  O17  1  0.26309781  0.99336602  0.86434402  1
  O  O18  1  0.33356960  0.20085342  0.22971818  1
  O  O19  1  0.73690219  0.00663398  0.13565598  1
  O  O20  1  0.19252661  0.44516896  0.10244663  1
  O  O21  1  0.36202984  0.58294317  0.39046625  1
  O  O22  1  0.63797016  0.41705683  0.60953375  1
  O  O23  1  0.62121467  0.95070452  0.36533454  1
  O  O24  1  0.04055590  0.88175216  0.29972890  1
  O  O25  1  0.37878533  0.04929548  0.63466546  1
