# generated using pymatgen
data_LaGaO3
_symmetry_space_group_name_H-M   'P 1'
_cell_length_a   5.52989021
_cell_length_b   5.52989021
_cell_length_c   5.52988995
_cell_angle_alpha   60.78513200
_cell_angle_beta   60.78513200
_cell_angle_gamma   60.78512983
_symmetry_Int_Tables_number   1
_chemical_formula_structural   LaGaO3
_chemical_formula_sum   'La2 Ga2 O6'
_cell_volume   121.69108851
_cell_formula_units_Z   2
loop_
 _symmetry_equiv_pos_site_id
 _symmetry_equiv_pos_as_xyz
  1  'x, y, z'
loop_
 _atom_site_type_symbol
 _atom_site_label
 _atom_site_symmetry_multiplicity
 _atom_site_fract_x
 _atom_site_fract_y
 _atom_site_fract_z
 _atom_site_occupancy
  La  La0  1  0.74822424  0.74822424  0.74822424  1
  La  La1  1  0.24822424  0.24822424  0.24822424  1
  Ga  Ga2  1  0.49639489  0.49639489  0.49639489  1
  Ga  Ga3  1  0.99639489  0.99639489  0.99639489  1
  O  O4  1  0.81518030  0.67569618  0.24260440  1
  O  O5  1  0.67569618  0.24260440  0.81518030  1
  O  O6  1  0.24260440  0.81518030  0.67569618  1
  O  O7  1  0.31518030  0.74260440  0.17569618  1
  O  O8  1  0.74260440  0.17569618  0.31518030  1
  O  O9  1  0.17569618  0.31518030  0.74260440  1
