# generated using pymatgen
data_YbAlNi
_symmetry_space_group_name_H-M   'P 1'
_cell_length_a   4.12098579
_cell_length_b   6.74224312
_cell_length_c   6.74286331
_cell_angle_alpha   119.99696074
_cell_angle_beta   90.00000000
_cell_angle_gamma   90.00000000
_symmetry_Int_Tables_number   1
_chemical_formula_structural   YbAlNi
_chemical_formula_sum   'Yb3 Al3 Ni3'
_cell_volume   162.25340272
_cell_formula_units_Z   3
loop_
 _symmetry_equiv_pos_site_id
 _symmetry_equiv_pos_as_xyz
  1  'x, y, z'
loop_
 _atom_site_type_symbol
 _atom_site_label
 _atom_site_symmetry_multiplicity
 _atom_site_fract_x
 _atom_site_fract_y
 _atom_site_fract_z
 _atom_site_occupancy
  Yb  Yb0  1  0.50000000  0.58186321  -0.00000000  1
  Yb  Yb1  1  0.50000000  0.41813301  0.41814433  1
  Yb  Yb2  1  0.50000000  0.99998868  0.58185567  1
  Al  Al3  1  0.00000000  0.23505400  -0.00000000  1
  Al  Al4  1  0.00000000  0.76496411  0.76495204  1
  Al  Al5  1  0.00000000  0.00001207  0.23504796  1
  Ni  Ni6  1  0.00000000  0.33327219  0.66664258  1
  Ni  Ni7  1  0.00000000  0.66662961  0.33335742  1
  Ni  Ni8  1  0.50000000  -0.00001688  -0.00000000  1
