# generated using pymatgen
data_BaGe3
_symmetry_space_group_name_H-M   'P 1'
_cell_length_a   5.26189075
_cell_length_b   6.85763540
_cell_length_c   6.85763540
_cell_angle_alpha   120.01757379
_cell_angle_beta   90.00000000
_cell_angle_gamma   90.00000000
_symmetry_Int_Tables_number   1
_chemical_formula_structural   BaGe3
_chemical_formula_sum   'Ba2 Ge6'
_cell_volume   214.26158167
_cell_formula_units_Z   2
loop_
 _symmetry_equiv_pos_site_id
 _symmetry_equiv_pos_as_xyz
  1  'x, y, z'
loop_
 _atom_site_type_symbol
 _atom_site_label
 _atom_site_symmetry_multiplicity
 _atom_site_fract_x
 _atom_site_fract_y
 _atom_site_fract_z
 _atom_site_occupancy
  Ba  Ba0  1  0.25000000  0.66669836  0.33330164  1
  Ba  Ba1  1  0.75000000  0.33330164  0.66669836  1
  Ge  Ge2  1  0.75000000  0.87343117  0.74678344  1
  Ge  Ge3  1  0.75000000  0.87341266  0.12658734  1
  Ge  Ge4  1  0.75000000  0.25321656  0.12656883  1
  Ge  Ge5  1  0.25000000  0.12656883  0.25321656  1
  Ge  Ge6  1  0.25000000  0.12658734  0.87341266  1
  Ge  Ge7  1  0.25000000  0.74678344  0.87343117  1
