# generated using pymatgen
data_FeCu2GeSe4
_symmetry_space_group_name_H-M   'P 1'
_cell_length_a   5.64430163
_cell_length_b   5.64430163
_cell_length_c   6.85820269
_cell_angle_alpha   114.29910114
_cell_angle_beta   114.29910114
_cell_angle_gamma   90.00000000
_symmetry_Int_Tables_number   1
_chemical_formula_structural   FeCu2GeSe4
_chemical_formula_sum   'Fe1 Cu2 Ge1 Se4'
_cell_volume   177.68126198
_cell_formula_units_Z   1
loop_
 _symmetry_equiv_pos_site_id
 _symmetry_equiv_pos_as_xyz
  1  'x, y, z'
loop_
 _atom_site_type_symbol
 _atom_site_label
 _atom_site_symmetry_multiplicity
 _atom_site_fract_x
 _atom_site_fract_y
 _atom_site_fract_z
 _atom_site_occupancy
  Fe  Fe0  1  -0.00000000  -0.00000000  0.00000000  1
  Cu  Cu1  1  0.75000000  0.25000000  0.50000000  1
  Cu  Cu2  1  0.25000000  0.75000000  0.50000000  1
  Ge  Ge3  1  0.50000000  0.50000000  -0.00000000  1
  Se  Se4  1  0.88287481  0.88287481  0.25662673  1
  Se  Se5  1  0.37375193  0.37375193  0.25662673  1
  Se  Se6  1  0.11712519  0.62624807  0.74337327  1
  Se  Se7  1  0.62624807  0.11712519  0.74337327  1
