# generated using pymatgen
data_TiCo3
_symmetry_space_group_name_H-M   'P 1'
_cell_length_a   4.13504043
_cell_length_b   5.13106019
_cell_length_c   5.13066539
_cell_angle_alpha   119.99359723
_cell_angle_beta   90.00000000
_cell_angle_gamma   90.00000000
_symmetry_Int_Tables_number   1
_chemical_formula_structural   TiCo3
_chemical_formula_sum   'Ti2 Co6'
_cell_volume   94.27992081
_cell_formula_units_Z   2
loop_
 _symmetry_equiv_pos_site_id
 _symmetry_equiv_pos_as_xyz
  1  'x, y, z'
loop_
 _atom_site_type_symbol
 _atom_site_label
 _atom_site_symmetry_multiplicity
 _atom_site_fract_x
 _atom_site_fract_y
 _atom_site_fract_z
 _atom_site_occupancy
  Ti  Ti0  1  0.75000000  0.66675498  0.33350009  1
  Ti  Ti1  1  0.25000000  0.33324502  0.66649991  1
  Co  Co2  1  0.75000000  0.16254221  0.32521236  1
  Co  Co3  1  0.75000000  0.16249989  0.83748037  1
  Co  Co4  1  0.75000000  0.67481445  0.83749869  1
  Co  Co5  1  0.25000000  0.83745779  0.67478764  1
  Co  Co6  1  0.25000000  0.83750011  0.16251963  1
  Co  Co7  1  0.25000000  0.32518555  0.16250131  1
