# generated using pymatgen
data_Tm2Mo2C3
_symmetry_space_group_name_H-M   'P 1'
_cell_length_a   3.36210282
_cell_length_b   5.64875559
_cell_length_c   5.88691712
_cell_angle_alpha   107.97344686
_cell_angle_beta   106.59215637
_cell_angle_gamma   90.00000000
_symmetry_Int_Tables_number   1
_chemical_formula_structural   Tm2Mo2C3
_chemical_formula_sum   'Tm2 Mo2 C3'
_cell_volume   101.44119463
_cell_formula_units_Z   1
loop_
 _symmetry_equiv_pos_site_id
 _symmetry_equiv_pos_as_xyz
  1  'x, y, z'
loop_
 _atom_site_type_symbol
 _atom_site_label
 _atom_site_symmetry_multiplicity
 _atom_site_fract_x
 _atom_site_fract_y
 _atom_site_fract_z
 _atom_site_occupancy
  Tm  Tm0  1  0.61497283  0.81750925  0.22994565  1
  Tm  Tm1  1  0.38502717  0.18249075  0.77005435  1
  Mo  Mo2  1  0.85144625  0.63042033  0.70289250  1
  Mo  Mo3  1  0.14855375  0.36957967  0.29710750  1
  C  C4  1  -0.00000000  0.50000000  -0.00000000  1
  C  C5  1  0.27041370  0.74607543  0.54082740  1
  C  C6  1  0.72958630  0.25392457  0.45917260  1
