# generated using pymatgen
data_Li9Mn2Co5O16
_symmetry_space_group_name_H-M   'P 1'
_cell_length_a   3.01868169
_cell_length_b   9.97983034
_cell_length_c   9.91025464
_cell_angle_alpha   77.77659814
_cell_angle_beta   92.58495098
_cell_angle_gamma   92.27385775
_symmetry_Int_Tables_number   1
_chemical_formula_structural   Li9Mn2Co5O16
_chemical_formula_sum   'Li9 Mn2 Co5 O16'
_cell_volume   291.35152784
_cell_formula_units_Z   1
loop_
 _symmetry_equiv_pos_site_id
 _symmetry_equiv_pos_as_xyz
  1  'x, y, z'
loop_
 _atom_site_type_symbol
 _atom_site_label
 _atom_site_symmetry_multiplicity
 _atom_site_fract_x
 _atom_site_fract_y
 _atom_site_fract_z
 _atom_site_occupancy
  Li  Li0  1  0.99422725  0.12566575  0.24849456  1
  Li  Li1  1  0.49629970  0.12851259  0.74752686  1
  Li  Li2  1  0.50257307  0.37578862  0.24447789  1
  Li  Li3  1  0.99785080  0.37330764  0.75336205  1
  Li  Li4  1  0.00375499  0.62776861  0.24618916  1
  Li  Li5  1  0.49714969  0.62213579  0.75721049  1
  Li  Li6  1  0.50440412  0.87320203  0.25099365  1
  Li  Li7  1  0.00389518  0.87323740  0.75208821  1
  Li  Li8  1  0.00006048  0.49978102  0.00031879  1
  Mn  Mn9  1  0.00010410  0.00028190  0.99951477  1
  Mn  Mn10  1  0.00002610  0.74944473  0.50150750  1
  Co  Co11  1  0.49941815  0.00326757  0.50059558  1
  Co  Co12  1  0.49016675  0.26064787  0.00087486  1
  Co  Co13  1  0.00011608  0.25041229  0.49867515  1
  Co  Co14  1  0.50052488  0.49652421  0.49936430  1
  Co  Co15  1  0.50996322  0.73937189  0.99933592  1
  O  O16  1  0.47439531  0.07436800  0.11111780  1
  O  O17  1  0.01443738  0.06993874  0.61317716  1
  O  O18  1  0.97096615  0.30764175  0.11438448  1
  O  O19  1  0.46370183  0.31553138  0.61247682  1
  O  O20  1  0.49727087  0.58224831  0.11528330  1
  O  O21  1  0.01325376  0.56482590  0.61636953  1
  O  O22  1  0.97687273  0.81810972  0.11407575  1
  O  O23  1  0.46604265  0.82021398  0.61654219  1
  O  O24  1  0.53468880  0.18452930  0.38647929  1
  O  O25  1  0.02227558  0.18230889  0.88529255  1
  O  O26  1  0.98465672  0.43101840  0.38538703  1
  O  O27  1  0.50330315  0.41744976  0.88460291  1
  O  O28  1  0.53502324  0.67994999  0.38456582  1
  O  O29  1  0.02994942  0.69205516  0.88620494  1
  O  O30  1  0.98721075  0.93413241  0.38487693  1
  O  O31  1  0.52541710  0.92632840  0.88863378  1
