# generated using pymatgen
data_Mg5Zn
_symmetry_space_group_name_H-M   'P 1'
_cell_length_a   5.02660243
_cell_length_b   3.15407436
_cell_length_c   16.13350545
_cell_angle_alpha   90.00000000
_cell_angle_beta   90.00000000
_cell_angle_gamma   90.00000000
_symmetry_Int_Tables_number   1
_chemical_formula_structural   Mg5Zn
_chemical_formula_sum   'Mg10 Zn2'
_cell_volume   255.78507798
_cell_formula_units_Z   2
loop_
 _symmetry_equiv_pos_site_id
 _symmetry_equiv_pos_as_xyz
  1  'x, y, z'
loop_
 _atom_site_type_symbol
 _atom_site_label
 _atom_site_symmetry_multiplicity
 _atom_site_fract_x
 _atom_site_fract_y
 _atom_site_fract_z
 _atom_site_occupancy
  Mg  Mg0  1  0.50000000  -0.00000000  0.99947672  1
  Mg  Mg1  1  0.50000000  -0.00000000  0.67057762  1
  Mg  Mg2  1  0.50000000  0.50000000  0.83038973  1
  Mg  Mg3  1  0.00000000  -0.00000000  0.56113115  1
  Mg  Mg4  1  -0.00000000  0.00000000  0.88249090  1
  Mg  Mg5  1  0.50000000  0.50000000  0.49947672  1
  Mg  Mg6  1  0.50000000  0.50000000  0.17057762  1
  Mg  Mg7  1  0.50000000  -0.00000000  0.33038973  1
  Mg  Mg8  1  0.00000000  0.50000000  0.06113115  1
  Mg  Mg9  1  0.00000000  0.50000000  0.38249090  1
  Zn  Zn10  1  0.00000000  0.50000000  0.72260090  1
  Zn  Zn11  1  0.00000000  -0.00000000  0.22260090  1
