# generated using pymatgen
data_LiMg
_symmetry_space_group_name_H-M   'P 1'
_cell_length_a   11.39415002
_cell_length_b   3.08818052
_cell_length_c   5.35520703
_cell_angle_alpha   90.00000000
_cell_angle_beta   117.18156199
_cell_angle_gamma   90.00000000
_symmetry_Int_Tables_number   1
_chemical_formula_structural   LiMg
_chemical_formula_sum   'Li4 Mg4'
_cell_volume   167.62461554
_cell_formula_units_Z   4
loop_
 _symmetry_equiv_pos_site_id
 _symmetry_equiv_pos_as_xyz
  1  'x, y, z'
loop_
 _atom_site_type_symbol
 _atom_site_label
 _atom_site_symmetry_multiplicity
 _atom_site_fract_x
 _atom_site_fract_y
 _atom_site_fract_z
 _atom_site_occupancy
  Li  Li0  1  0.87481900  0.50000000  0.70840513  1
  Li  Li1  1  0.62518100  -0.00000000  0.29159487  1
  Li  Li2  1  0.37481900  -0.00000000  0.70840513  1
  Li  Li3  1  0.12518100  0.50000000  0.29159487  1
  Mg  Mg4  1  0.62367731  0.50000000  0.79348333  1
  Mg  Mg5  1  0.87632269  0.00000000  0.20651667  1
  Mg  Mg6  1  0.12367731  -0.00000000  0.79348333  1
  Mg  Mg7  1  0.37632269  0.50000000  0.20651667  1
