# generated using pymatgen
data_DyVO4
_symmetry_space_group_name_H-M   'P 1'
_cell_length_a   5.08675912
_cell_length_b   5.08675912
_cell_length_c   6.71021170
_cell_angle_alpha   112.27368555
_cell_angle_beta   112.27368555
_cell_angle_gamma   90.00000000
_symmetry_Int_Tables_number   1
_chemical_formula_structural   DyVO4
_chemical_formula_sum   'Dy2 V2 O8'
_cell_volume   146.57605232
_cell_formula_units_Z   2
loop_
 _symmetry_equiv_pos_site_id
 _symmetry_equiv_pos_as_xyz
  1  'x, y, z'
loop_
 _atom_site_type_symbol
 _atom_site_label
 _atom_site_symmetry_multiplicity
 _atom_site_fract_x
 _atom_site_fract_y
 _atom_site_fract_z
 _atom_site_occupancy
  Dy  Dy0  1  0.62500000  0.87500000  0.25000000  1
  Dy  Dy1  1  0.37500000  0.12500000  0.75000000  1
  V  V2  1  0.12500000  0.37500000  0.25000000  1
  V  V3  1  0.87500000  0.62500000  0.75000000  1
  O  O4  1  0.35216391  0.71226722  0.41126415  1
  O  O5  1  0.05910023  0.19899693  0.41126415  1
  O  O6  1  0.21226722  0.55910023  0.91126415  1
  O  O7  1  0.69899693  0.85216391  0.91126415  1
  O  O8  1  0.64783609  0.28773278  0.58873585  1
  O  O9  1  0.94089977  0.80100307  0.58873585  1
  O  O10  1  0.78773278  0.44089977  0.08873585  1
  O  O11  1  0.30100307  0.14783609  0.08873585  1
