# generated using pymatgen
data_Li9Mn2Co5O16
_symmetry_space_group_name_H-M   'P 1'
_cell_length_a   3.02802877
_cell_length_b   19.56176399
_cell_length_c   5.14041896
_cell_angle_alpha   91.20916341
_cell_angle_beta   75.19418073
_cell_angle_gamma   86.83775094
_symmetry_Int_Tables_number   1
_chemical_formula_structural   Li9Mn2Co5O16
_chemical_formula_sum   'Li9 Mn2 Co5 O16'
_cell_volume   293.73203909
_cell_formula_units_Z   1
loop_
 _symmetry_equiv_pos_site_id
 _symmetry_equiv_pos_as_xyz
  1  'x, y, z'
loop_
 _atom_site_type_symbol
 _atom_site_label
 _atom_site_symmetry_multiplicity
 _atom_site_fract_x
 _atom_site_fract_y
 _atom_site_fract_z
 _atom_site_occupancy
  Li  Li0  1  0.69517448  0.06293924  0.55795003  1
  Li  Li1  1  0.05606692  0.18753527  0.68890934  1
  Li  Li2  1  0.43529385  0.31261565  0.81424720  1
  Li  Li3  1  0.81453871  0.43877330  0.93638636  1
  Li  Li4  1  0.17907923  0.56376359  0.05977361  1
  Li  Li5  1  0.56379881  0.68672755  0.17995101  1
  Li  Li6  1  0.93566228  0.81315856  0.32030938  1
  Li  Li7  1  0.31796796  0.93538408  0.44285582  1
  Li  Li8  1  0.25050650  0.74969859  0.74946924  1
  Mn  Mn9  1  0.99265897  0.99787473  -0.00082552  1
  Mn  Mn10  1  0.12779284  0.37616626  0.37423451  1
  Co  Co11  1  0.36905526  0.12441190  0.12457561  1
  Co  Co12  1  0.76125098  0.24890078  0.24988557  1
  Co  Co13  1  0.49249417  0.50344210  0.49888331  1
  Co  Co14  1  0.86752575  0.63049051  0.63056950  1
  Co  Co15  1  0.63955941  0.86873025  0.87133118  1
  O  O16  1  0.30688714  0.03356384  0.26994794  1
  O  O17  1  0.73344281  0.15816519  0.38794324  1
  O  O18  1  0.12492412  0.28327707  0.50907280  1
  O  O19  1  0.43675032  0.41149965  0.64186132  1
  O  O20  1  0.85926726  0.53806681  0.75561580  1
  O  O21  1  0.20492410  0.65408486  0.87930724  1
  O  O22  1  0.59080735  0.79056484  0.02785365  1
  O  O23  1  0.95310703  0.90712745  0.13593830  1
  O  O24  1  0.00254069  0.09045133  0.86306613  1
  O  O25  1  0.39887028  0.21525038  0.98655378  1
  O  O26  1  0.81853181  0.34071951  0.10687573  1
  O  O27  1  0.13407479  0.46837875  0.23584887  1
  O  O28  1  0.55433776  0.59241980  0.36494549  1
  O  O29  1  0.90822978  0.70880828  0.47402805  1
  O  O30  1  0.30253940  0.84545297  0.62255578  1
  O  O31  1  0.67234124  0.96155992  0.74007974  1
