# generated using pymatgen
data_EuH6CI3N
_symmetry_space_group_name_H-M   'P 1'
_cell_length_a   8.95731352
_cell_length_b   8.97631225
_cell_length_c   13.27982679
_cell_angle_alpha   89.70309697
_cell_angle_beta   89.58331129
_cell_angle_gamma   89.96194972
_symmetry_Int_Tables_number   1
_chemical_formula_structural   EuH6CI3N
_chemical_formula_sum   'Eu4 H24 C4 I12 N4'
_cell_volume   1067.70367146
_cell_formula_units_Z   4
loop_
 _symmetry_equiv_pos_site_id
 _symmetry_equiv_pos_as_xyz
  1  'x, y, z'
loop_
 _atom_site_type_symbol
 _atom_site_label
 _atom_site_symmetry_multiplicity
 _atom_site_fract_x
 _atom_site_fract_y
 _atom_site_fract_z
 _atom_site_occupancy
  Eu  Eu0  1  0.50911642  0.51644016  0.98858296  1
  Eu  Eu1  1  0.51735290  0.50998597  0.48857899  1
  Eu  Eu2  1  0.03016749  0.01190569  0.48960906  1
  Eu  Eu3  1  0.01087003  0.03004243  0.98959204  1
  H  H4  1  0.64597435  0.01945229  0.22806794  1
  H  H5  1  0.51628247  0.03413272  0.33101189  1
  H  H6  1  0.50147485  0.15653067  0.22414321  1
  H  H7  1  0.45303981  0.82588586  0.21938067  1
  H  H8  1  0.44027495  0.94116874  0.12113682  1
  H  H9  1  0.31790932  0.95457931  0.21574636  1
  H  H10  1  0.93679519  0.59519063  0.11852028  1
  H  H11  1  0.95255882  0.71633409  0.21260968  1
  H  H12  1  0.81589702  0.58891907  0.21438149  1
  H  H13  1  0.14347716  0.52127456  0.22682941  1
  H  H14  1  0.99769111  0.38566686  0.22874702  1
  H  H15  1  0.01498444  0.51383591  0.33099690  1
  H  H16  1  0.95393609  0.31780214  0.71794770  1
  H  H17  1  0.94557926  0.43488184  0.62062220  1
  H  H18  1  0.82579031  0.45349004  0.71647274  1
  H  H19  1  0.15709495  0.50028348  0.72600544  1
  H  H20  1  0.03030314  0.52078902  0.83033341  1
  H  H21  1  0.02049504  0.64527817  0.72449276  1
  H  H22  1  0.71623592  0.95231475  0.71155896  1
  H  H23  1  0.59286932  0.93375035  0.61891146  1
  H  H24  1  0.58868345  0.81592489  0.71610016  1
  H  H25  1  0.52103029  0.14310812  0.72558747  1
  H  H26  1  0.51551407  0.01775818  0.83125041  1
  H  H27  1  0.38514334  0.99770627  0.73057733  1
  C  C28  1  0.02792666  0.49934971  0.24954242  1
  C  C29  1  0.53036359  0.04399680  0.24923846  1
  C  C30  1  0.04352190  0.53087892  0.74851062  1
  C  C31  1  0.49948220  0.02844849  0.74983462  1
  I  I32  1  0.70325407  0.83068410  0.99474388  1
  I  I33  1  0.32438109  0.20937489  0.99739553  1
  I  I34  1  0.20771815  0.72058582  0.99819581  1
  I  I35  1  0.83004161  0.34325428  0.98977226  1
  I  I36  1  0.34333912  0.83004938  0.49015083  1
  I  I37  1  0.72056498  0.20860898  0.49909372  1
  I  I38  1  0.83122838  0.70479894  0.49474813  1
  I  I39  1  0.20947636  0.32530139  0.49649318  1
  I  I40  1  0.52442707  0.53261414  0.23996442  1
  I  I41  1  0.53278859  0.52438378  0.73994220  1
  I  I42  1  0.00559157  0.02267890  0.74147428  1
  I  I43  1  0.02258856  0.00572613  0.24144758  1
  N  N44  1  0.92759174  0.60622186  0.19602470  1
  N  N45  1  0.42962899  0.93517338  0.19886716  1
  N  N46  1  0.93595347  0.42853138  0.69839865  1
  N  N47  1  0.60558537  0.92689957  0.69636379  1
