# generated using pymatgen
data_HoVO4
_symmetry_space_group_name_H-M   'P 1'
_cell_length_a   5.07797226
_cell_length_b   5.07797226
_cell_length_c   6.66693604
_cell_angle_alpha   112.38525997
_cell_angle_beta   112.38525997
_cell_angle_gamma   90.00000000
_symmetry_Int_Tables_number   1
_chemical_formula_structural   HoVO4
_chemical_formula_sum   'Ho2 V2 O8'
_cell_volume   144.84905894
_cell_formula_units_Z   2
loop_
 _symmetry_equiv_pos_site_id
 _symmetry_equiv_pos_as_xyz
  1  'x, y, z'
loop_
 _atom_site_type_symbol
 _atom_site_label
 _atom_site_symmetry_multiplicity
 _atom_site_fract_x
 _atom_site_fract_y
 _atom_site_fract_z
 _atom_site_occupancy
  Ho  Ho0  1  0.62500000  0.87500000  0.25000000  1
  Ho  Ho1  1  0.37500000  0.12500000  0.75000000  1
  V  V2  1  0.12500000  0.37500000  0.25000000  1
  V  V3  1  0.87500000  0.62500000  0.75000000  1
  O  O4  1  0.35435889  0.71219188  0.41268498  1
  O  O5  1  0.05832610  0.20049310  0.41268498  1
  O  O6  1  0.21219188  0.55832610  0.91268498  1
  O  O7  1  0.70049310  0.85435889  0.91268498  1
  O  O8  1  0.64564111  0.28780812  0.58731502  1
  O  O9  1  0.94167390  0.79950690  0.58731502  1
  O  O10  1  0.78780812  0.44167390  0.08731502  1
  O  O11  1  0.29950690  0.14564111  0.08731502  1
