# generated using pymatgen
data_MoPRu
_symmetry_space_group_name_H-M   'P 1'
_cell_length_a   3.89238354
_cell_length_b   6.07561463
_cell_length_c   6.07533821
_cell_angle_alpha   120.00150658
_cell_angle_beta   90.00000000
_cell_angle_gamma   90.00000000
_symmetry_Int_Tables_number   1
_chemical_formula_structural   MoPRu
_chemical_formula_sum   'Mo3 P3 Ru3'
_cell_volume   124.42290717
_cell_formula_units_Z   3
loop_
 _symmetry_equiv_pos_site_id
 _symmetry_equiv_pos_as_xyz
  1  'x, y, z'
loop_
 _atom_site_type_symbol
 _atom_site_label
 _atom_site_symmetry_multiplicity
 _atom_site_fract_x
 _atom_site_fract_y
 _atom_site_fract_z
 _atom_site_occupancy
  Mo  Mo0  1  0.50000000  0.59365774  -0.00000000  1
  Mo  Mo1  1  0.50000000  0.40632155  0.40632471  1
  Mo  Mo2  1  0.50000000  -0.00000316  0.59367529  1
  P  P3  1  -0.00000000  0.33331714  0.66665917  1
  P  P4  1  -0.00000000  0.66665797  0.33334083  1
  P  P5  1  0.50000000  0.00000001  0.00000000  1
  Ru  Ru6  1  0.00000000  0.26097638  0.00000000  1
  Ru  Ru7  1  -0.00000000  0.73897982  0.73898725  1
  Ru  Ru8  1  -0.00000000  -0.00000743  0.26101275  1
