# generated using pymatgen
data_Mg2Zn
_symmetry_space_group_name_H-M   'P 1'
_cell_length_a   11.41210377
_cell_length_b   3.09395273
_cell_length_c   6.87518393
_cell_angle_alpha   90.00000000
_cell_angle_beta   104.87079753
_cell_angle_gamma   90.00000000
_symmetry_Int_Tables_number   1
_chemical_formula_structural   Mg2Zn
_chemical_formula_sum   'Mg8 Zn4'
_cell_volume   234.62199077
_cell_formula_units_Z   4
loop_
 _symmetry_equiv_pos_site_id
 _symmetry_equiv_pos_as_xyz
  1  'x, y, z'
loop_
 _atom_site_type_symbol
 _atom_site_label
 _atom_site_symmetry_multiplicity
 _atom_site_fract_x
 _atom_site_fract_y
 _atom_site_fract_z
 _atom_site_occupancy
  Mg  Mg0  1  0.17445299  0.00000000  0.11986960  1
  Mg  Mg1  1  0.36457664  0.50000000  0.46277865  1
  Mg  Mg2  1  0.13542336  -0.00000000  0.53722135  1
  Mg  Mg3  1  0.32554701  0.50000000  0.88013040  1
  Mg  Mg4  1  0.67445299  0.50000000  0.11986960  1
  Mg  Mg5  1  0.86457664  0.00000000  0.46277865  1
  Mg  Mg6  1  0.63542336  0.50000000  0.53722135  1
  Mg  Mg7  1  0.82554701  0.00000000  0.88013040  1
  Zn  Zn8  1  0.47425506  -0.00000000  0.20032384  1
  Zn  Zn9  1  0.02574494  0.50000000  0.79967616  1
  Zn  Zn10  1  0.97425506  0.50000000  0.20032384  1
  Zn  Zn11  1  0.52574494  0.00000000  0.79967616  1
