# generated using pymatgen
data_V3Ni(PO4)4
_symmetry_space_group_name_H-M   'P 1'
_cell_length_a   4.85479947
_cell_length_b   10.01896967
_cell_length_c   5.86787234
_cell_angle_alpha   90.00000000
_cell_angle_beta   90.00000000
_cell_angle_gamma   90.33265593
_symmetry_Int_Tables_number   1
_chemical_formula_structural   V3Ni(PO4)4
_chemical_formula_sum   'V3 Ni1 P4 O16'
_cell_volume   285.40902015
_cell_formula_units_Z   1
loop_
 _symmetry_equiv_pos_site_id
 _symmetry_equiv_pos_as_xyz
  1  'x, y, z'
loop_
 _atom_site_type_symbol
 _atom_site_label
 _atom_site_symmetry_multiplicity
 _atom_site_fract_x
 _atom_site_fract_y
 _atom_site_fract_z
 _atom_site_occupancy
  V  V0  1  0.48366066  0.22823295  0.75000000  1
  V  V1  1  0.54066047  0.77716105  0.25000000  1
  V  V2  1  0.97866762  0.27053327  0.25000000  1
  Ni  Ni3  1  0.04154349  0.72434015  0.75000000  1
  P  P4  1  0.09927365  0.60062083  0.25000000  1
  P  P5  1  0.41218105  0.09324340  0.25000000  1
  P  P6  1  0.56321716  0.90404719  0.75000000  1
  P  P7  1  0.91765801  0.40557450  0.75000000  1
  O  O8  1  0.14991468  0.45088802  0.25000000  1
  O  O9  1  0.25376067  0.67522892  0.05041540  1
  O  O10  1  0.25376067  0.67522892  0.44958460  1
  O  O11  1  0.22530670  0.37717968  0.75000000  1
  O  O12  1  0.25450329  0.89001559  0.75000000  1
  O  O13  1  0.26485437  0.16691820  0.04586652  1
  O  O14  1  0.26485437  0.16691820  0.45413348  1
  O  O15  1  0.33552646  0.94356501  0.25000000  1
  O  O16  1  0.65672512  0.04882055  0.75000000  1
  O  O17  1  0.70464504  0.82692861  0.54025719  1
  O  O18  1  0.70464504  0.82692861  0.95974281  1
  O  O19  1  0.72241717  0.11475777  0.25000000  1
  O  O20  1  0.78672228  0.62561621  0.25000000  1
  O  O21  1  0.76867871  0.32776171  0.54579279  1
  O  O22  1  0.76867871  0.32776171  0.95420721  1
  O  O23  1  0.84814561  0.55172995  0.75000000  1
