# generated using pymatgen
data_Li9Mn7O16
_symmetry_space_group_name_H-M   'P 1'
_cell_length_a   3.00846784
_cell_length_b   10.16320310
_cell_length_c   9.95264276
_cell_angle_alpha   102.09837365
_cell_angle_beta   85.40446004
_cell_angle_gamma   91.97882414
_symmetry_Int_Tables_number   1
_chemical_formula_structural   Li9Mn7O16
_chemical_formula_sum   'Li9 Mn7 O16'
_cell_volume   296.54406617
_cell_formula_units_Z   1
loop_
 _symmetry_equiv_pos_site_id
 _symmetry_equiv_pos_as_xyz
  1  'x, y, z'
loop_
 _atom_site_type_symbol
 _atom_site_label
 _atom_site_symmetry_multiplicity
 _atom_site_fract_x
 _atom_site_fract_y
 _atom_site_fract_z
 _atom_site_occupancy
  Li  Li0  1  0.98901650  0.11278871  0.74139367  1
  Li  Li1  1  0.49598257  0.50104221  0.49892076  1
  Li  Li2  1  0.00000000  0.87500000  0.25000000  1
  Li  Li3  1  0.50401743  0.24895779  0.00107924  1
  Li  Li4  1  0.51369984  0.99631323  0.50977177  1
  Li  Li5  1  0.00000000  0.37500000  0.25000000  1
  Li  Li6  1  0.48630016  0.75368677  0.99022823  1
  Li  Li7  1  0.01098350  0.63721129  0.75860633  1
  Li  Li8  1  0.50000000  0.87500000  0.75000000  1
  Mn  Mn9  1  0.99478409  0.99392625  0.99072921  1
  Mn  Mn10  1  0.00521591  0.75607375  0.50927079  1
  Mn  Mn11  1  0.50000000  0.37500000  0.75000000  1
  Mn  Mn12  1  0.49032479  0.12643466  0.24623905  1
  Mn  Mn13  1  0.00140471  0.50164157  0.00103802  1
  Mn  Mn14  1  0.99859529  0.24835843  0.49896198  1
  Mn  Mn15  1  0.50967521  0.62356534  0.25376095  1
  O  O16  1  0.52606532  0.05269714  0.89242946  1
  O  O17  1  0.96412245  0.42724121  0.62204780  1
  O  O18  1  0.52989302  0.79986553  0.38642403  1
  O  O19  1  0.96497586  0.17577349  0.12198730  1
  O  O20  1  0.99196778  0.92613353  0.61376113  1
  O  O21  1  0.46651489  0.30339966  0.37274075  1
  O  O22  1  0.97256080  0.67978638  0.12867617  1
  O  O23  1  0.46578907  0.55523458  0.87248441  1
  O  O24  1  0.53421093  0.19476442  0.62751559  1
  O  O25  1  0.03502414  0.57422551  0.37801270  1
  O  O26  1  0.47010698  0.95013347  0.11357597  1
  O  O27  1  0.03587755  0.32275879  0.87795220  1
  O  O28  1  0.02743920  0.07021262  0.37132383  1
  O  O29  1  0.53348511  0.44659934  0.12725925  1
  O  O30  1  0.00803222  0.82386647  0.88623887  1
  O  O31  1  0.47393468  0.69730286  0.60757054  1
