# generated using pymatgen
data_VF5
_symmetry_space_group_name_H-M   'P 1'
_cell_length_a   8.24298906
_cell_length_b   10.17659112
_cell_length_c   5.12760292
_cell_angle_alpha   90.00000000
_cell_angle_beta   90.00000000
_cell_angle_gamma   90.00000000
_symmetry_Int_Tables_number   1
_chemical_formula_structural   VF5
_chemical_formula_sum   'V4 F20'
_cell_volume   430.13168483
_cell_formula_units_Z   4
loop_
 _symmetry_equiv_pos_site_id
 _symmetry_equiv_pos_as_xyz
  1  'x, y, z'
loop_
 _atom_site_type_symbol
 _atom_site_label
 _atom_site_symmetry_multiplicity
 _atom_site_fract_x
 _atom_site_fract_y
 _atom_site_fract_z
 _atom_site_occupancy
  V  V0  1  0.08286659  0.25000000  0.28522316  1
  V  V1  1  0.41713341  0.75000000  0.78522316  1
  V  V2  1  0.58286659  0.25000000  0.21477684  1
  V  V3  1  0.91713341  0.75000000  0.71477684  1
  F  F4  1  0.07312474  0.13049092  0.03614228  1
  F  F5  1  0.07312474  0.36950908  0.03614228  1
  F  F6  1  0.11584642  0.75000000  0.59287698  1
  F  F7  1  0.18235284  0.13038898  0.47847534  1
  F  F8  1  0.18235284  0.36961102  0.47847534  1
  F  F9  1  0.31764716  0.63038898  0.97847534  1
  F  F10  1  0.31764716  0.86961102  0.97847534  1
  F  F11  1  0.38415358  0.25000000  0.09287698  1
  F  F12  1  0.42687526  0.63049092  0.53614228  1
  F  F13  1  0.42687526  0.86950908  0.53614228  1
  F  F14  1  0.57312474  0.13049092  0.46385772  1
  F  F15  1  0.57312474  0.36950908  0.46385772  1
  F  F16  1  0.61584642  0.75000000  0.90712302  1
  F  F17  1  0.68235284  0.13038898  0.02152466  1
  F  F18  1  0.68235284  0.36961102  0.02152466  1
  F  F19  1  0.81764716  0.63038898  0.52152466  1
  F  F20  1  0.81764716  0.86961102  0.52152466  1
  F  F21  1  0.88415358  0.25000000  0.40712302  1
  F  F22  1  0.92687526  0.63049092  0.96385772  1
  F  F23  1  0.92687526  0.86950908  0.96385772  1
