# generated using pymatgen
data_TiO2
_symmetry_space_group_name_H-M   'P 1'
_cell_length_a   3.78200527
_cell_length_b   6.51291490
_cell_length_c   6.49001640
_cell_angle_alpha   85.32890430
_cell_angle_beta   73.39283260
_cell_angle_gamma   73.05307000
_symmetry_Int_Tables_number   1
_chemical_formula_structural   TiO2
_chemical_formula_sum   'Ti4 O8'
_cell_volume   146.54028651
_cell_formula_units_Z   4
loop_
 _symmetry_equiv_pos_site_id
 _symmetry_equiv_pos_as_xyz
  1  'x, y, z'
loop_
 _atom_site_type_symbol
 _atom_site_label
 _atom_site_symmetry_multiplicity
 _atom_site_fract_x
 _atom_site_fract_y
 _atom_site_fract_z
 _atom_site_occupancy
  Ti  Ti0  1  0.70684659  0.27247083  0.30903497  1
  Ti  Ti1  1  0.98583600  0.30936471  0.72719228  1
  Ti  Ti2  1  0.01416400  0.69063529  0.27280772  1
  Ti  Ti3  1  0.29315341  0.72752917  0.69096503  1
  O  O4  1  0.50934904  0.33982384  0.64684422  1
  O  O5  1  0.83674291  0.31953048  0.01132899  1
  O  O6  1  0.84773694  0.64755555  0.65869383  1
  O  O7  1  0.84160582  0.98844836  0.31816387  1
  O  O8  1  0.15839418  0.01155164  0.68183613  1
  O  O9  1  0.15226306  0.35244445  0.34130617  1
  O  O10  1  0.16325709  0.68046952  0.98867101  1
  O  O11  1  0.49065096  0.66017616  0.35315578  1
