# generated using pymatgen
data_Li9Mn7O16
_symmetry_space_group_name_H-M   'P 1'
_cell_length_a   5.85253145
_cell_length_b   7.82601916
_cell_length_c   7.82601929
_cell_angle_alpha   95.33702343
_cell_angle_beta   111.57104569
_cell_angle_gamma   111.57104324
_symmetry_Int_Tables_number   1
_chemical_formula_structural   Li9Mn7O16
_chemical_formula_sum   'Li9 Mn7 O16'
_cell_volume   299.01123082
_cell_formula_units_Z   1
loop_
 _symmetry_equiv_pos_site_id
 _symmetry_equiv_pos_as_xyz
  1  'x, y, z'
loop_
 _atom_site_type_symbol
 _atom_site_label
 _atom_site_symmetry_multiplicity
 _atom_site_fract_x
 _atom_site_fract_y
 _atom_site_fract_z
 _atom_site_occupancy
  Li  Li0  1  0.00357350  0.12972203  0.38411314  1
  Li  Li1  1  0.99642650  0.61588686  0.87027797  1
  Li  Li2  1  0.50000000  0.25000000  0.75000000  1
  Li  Li3  1  0.50000000  0.75000000  0.25000000  1
  Li  Li4  1  0.99642650  0.37027797  0.11588686  1
  Li  Li5  1  0.00357350  0.88411314  0.62972203  1
  Li  Li6  1  0.50000000  0.49893930  0.50106070  1
  Li  Li7  1  0.50000000  0.00106070  0.99893930  1
  Li  Li8  1  0.00000000  0.25000000  0.75000000  1
  Mn  Mn9  1  0.00000000  0.00249042  0.99750958  1
  Mn  Mn10  1  1.00000000  0.49750958  0.50249042  1
  Mn  Mn11  1  0.50844999  0.13191524  0.38332091  1
  Mn  Mn12  1  0.49155001  0.61667909  0.86808476  1
  Mn  Mn13  1  0.00000000  0.75000000  0.25000000  1
  Mn  Mn14  1  0.49155001  0.36808476  0.11667909  1
  Mn  Mn15  1  0.50844999  0.88332091  0.63191524  1
  O  O16  1  0.76350160  0.86502466  0.11740812  1
  O  O17  1  0.75198907  0.37137486  0.60704910  1
  O  O18  1  0.27616906  0.00731946  0.50731946  1
  O  O19  1  0.27960848  0.50487680  0.00487680  1
  O  O20  1  0.75198907  0.10704910  0.87137486  1
  O  O21  1  0.76350160  0.61740812  0.36502466  1
  O  O22  1  0.27470786  0.25346027  0.25399346  1
  O  O23  1  0.27470786  0.75399346  0.75346027  1
  O  O24  1  0.24801093  0.39295090  0.62862514  1
  O  O25  1  0.23649840  0.88259188  0.13497534  1
  O  O26  1  0.72383094  0.49268054  0.99268054  1
  O  O27  1  0.72039152  0.99512320  0.49512320  1
  O  O28  1  0.23649840  0.63497534  0.38259188  1
  O  O29  1  0.24801093  0.12862514  0.89295090  1
  O  O30  1  0.72529214  0.74600654  0.74653973  1
  O  O31  1  0.72529214  0.24653973  0.24600654  1
