# generated using pymatgen
data_Li9Mn7O16
_symmetry_space_group_name_H-M   'P 1'
_cell_length_a   5.25524255
_cell_length_b   10.25716533
_cell_length_c   5.79369869
_cell_angle_alpha   106.40480837
_cell_angle_beta   90.00000021
_cell_angle_gamma   96.58490688
_symmetry_Int_Tables_number   1
_chemical_formula_structural   Li9Mn7O16
_chemical_formula_sum   'Li9 Mn7 O16'
_cell_volume   297.44083176
_cell_formula_units_Z   1
loop_
 _symmetry_equiv_pos_site_id
 _symmetry_equiv_pos_as_xyz
  1  'x, y, z'
loop_
 _atom_site_type_symbol
 _atom_site_label
 _atom_site_symmetry_multiplicity
 _atom_site_fract_x
 _atom_site_fract_y
 _atom_site_fract_z
 _atom_site_occupancy
  Li  Li0  1  0.50000000  1.00000000  0.74044822  1
  Li  Li1  1  0.74815240  0.24071037  0.62035519  1
  Li  Li2  1  -0.00000000  0.50000000  0.50000000  1
  Li  Li3  1  0.25184760  0.75928963  0.37964481  1
  Li  Li4  1  0.50000000  0.00000000  0.25955178  1
  Li  Li5  1  0.75798627  0.24744272  0.12372136  1
  Li  Li6  1  -0.00000000  0.50000000  -0.00000000  1
  Li  Li7  1  0.24201373  0.75255728  0.87627864  1
  Li  Li8  1  -0.00000000  0.00000000  0.50000000  1
  Mn  Mn9  1  -0.00000000  0.00000000  -0.00000000  1
  Mn  Mn10  1  0.76626090  0.75691022  0.13226097  1
  Mn  Mn11  1  0.23373910  0.24308978  0.86773903  1
  Mn  Mn12  1  0.50064552  0.49968623  0.74984312  1
  Mn  Mn13  1  0.76626090  0.75691022  0.62464925  1
  Mn  Mn14  1  0.23373910  0.24308978  0.37535075  1
  Mn  Mn15  1  0.49935448  0.50031377  0.25015688  1
  O  O16  1  0.11629420  0.88146478  0.70524106  1
  O  O17  1  0.36996176  0.13966892  0.56983446  1
  O  O18  1  0.61141858  0.38427318  0.43995980  1
  O  O19  1  0.87323754  0.63732155  0.31866077  1
  O  O20  1  0.11629420  0.88146478  0.17622372  1
  O  O21  1  0.33258734  0.11937329  0.05968664  1
  O  O22  1  0.61141858  0.38427318  0.94431338  1
  O  O23  1  0.86538302  0.63956187  0.81978093  1
  O  O24  1  0.88370580  0.11853522  0.82377628  1
  O  O25  1  0.12676246  0.36267845  0.68133923  1
  O  O26  1  0.38858142  0.61572682  0.56004020  1
  O  O27  1  0.63003824  0.86033108  0.43016554  1
  O  O28  1  0.88370580  0.11853522  0.29475894  1
  O  O29  1  0.13461698  0.36043813  0.18021907  1
  O  O30  1  0.38858142  0.61572682  0.05568662  1
  O  O31  1  0.66741266  0.88062671  0.94031336  1
