# generated using pymatgen
data_Li9Mn7O16
_symmetry_space_group_name_H-M   'P 1'
_cell_length_a   5.27435410
_cell_length_b   7.84351256
_cell_length_c   7.84351271
_cell_angle_alpha   94.54265844
_cell_angle_beta   74.57981283
_cell_angle_gamma   74.57982092
_symmetry_Int_Tables_number   1
_chemical_formula_structural   Li9Mn7O16
_chemical_formula_sum   'Li9 Mn7 O16'
_cell_volume   297.59200221
_cell_formula_units_Z   1
loop_
 _symmetry_equiv_pos_site_id
 _symmetry_equiv_pos_as_xyz
  1  'x, y, z'
loop_
 _atom_site_type_symbol
 _atom_site_label
 _atom_site_symmetry_multiplicity
 _atom_site_fract_x
 _atom_site_fract_y
 _atom_site_fract_z
 _atom_site_occupancy
  Li  Li0  1  0.50000000  0.12967446  0.87032554  1
  Li  Li1  1  0.50847840  0.49162254  0.99162019  1
  Li  Li2  1  0.50000000  0.87616925  0.12383075  1
  Li  Li3  1  0.49999940  0.24999807  0.25000172  1
  Li  Li4  1  0.50000000  0.62382979  0.37617021  1
  Li  Li5  1  0.49152160  0.00837981  0.50837746  1
  Li  Li6  1  0.50000000  0.37032585  0.62967415  1
  Li  Li7  1  0.50000060  0.74999828  0.75000193  1
  Li  Li8  1  -0.00000000  0.25000002  0.74999998  1
  Mn  Mn9  1  1.00000000  0.00339408  0.99660592  1
  Mn  Mn10  1  0.00000000  0.49663792  0.50336208  1
  Mn  Mn11  1  0.99513382  0.37098111  0.11995594  1
  Mn  Mn12  1  0.00000000  0.74999312  0.25000688  1
  Mn  Mn13  1  0.00486922  0.12899535  0.38002017  1
  Mn  Mn14  1  0.00486618  0.88004406  0.62901889  1
  Mn  Mn15  1  0.99513078  0.61997983  0.87100465  1
  O  O16  1  0.22661948  0.99332098  0.75744291  1
  O  O17  1  0.23234519  0.38918434  0.88917522  1
  O  O18  1  0.21927435  0.75646196  0.00844781  1
  O  O19  1  0.23169447  0.13624100  0.13738163  1
  O  O20  1  0.21927131  0.50845989  0.25647922  1
  O  O21  1  0.23571271  0.88858970  0.38857844  1
  O  O22  1  0.22661287  0.25742155  0.49331281  1
  O  O23  1  0.23169465  0.63736818  0.63625310  1
  O  O24  1  0.77338052  0.24255709  0.00667902  1
  O  O25  1  0.76428729  0.61142156  0.11141030  1
  O  O26  1  0.78072565  0.99155219  0.24353804  1
  O  O27  1  0.76830535  0.36374690  0.36263182  1
  O  O28  1  0.78072869  0.74352078  0.49154011  1
  O  O29  1  0.76765481  0.11082478  0.61081566  1
  O  O30  1  0.77338713  0.50668719  0.74257845  1
  O  O31  1  0.76830553  0.86261837  0.86375900  1
