# generated using pymatgen
data_Sr2Mg
_symmetry_space_group_name_H-M   'P 1'
_cell_length_a   7.08912543
_cell_length_b   8.72638605
_cell_length_c   7.09184736
_cell_angle_alpha   127.35529610
_cell_angle_beta   56.95232648
_cell_angle_gamma   127.35764775
_symmetry_Int_Tables_number   1
_chemical_formula_structural   Sr2Mg
_chemical_formula_sum   'Sr4 Mg2'
_cell_volume   266.07464250
_cell_formula_units_Z   2
loop_
 _symmetry_equiv_pos_site_id
 _symmetry_equiv_pos_as_xyz
  1  'x, y, z'
loop_
 _atom_site_type_symbol
 _atom_site_label
 _atom_site_symmetry_multiplicity
 _atom_site_fract_x
 _atom_site_fract_y
 _atom_site_fract_z
 _atom_site_occupancy
  Sr  Sr0  1  0.91709588  0.08145793  0.08329301  1
  Sr  Sr1  1  0.24954721  0.08519933  0.41670717  1
  Sr  Sr2  1  0.41948825  0.75716503  0.58563986  1
  Sr  Sr3  1  0.74719010  0.40950649  0.91434856  1
  Mg  Mg4  1  0.33300424  0.58377669  0.00038529  1
  Mg  Mg5  1  0.83367333  0.58289553  0.49962812  1
