# generated using pymatgen
data_Li2Eu5O8
_symmetry_space_group_name_H-M   'P 1'
_cell_length_a   3.51700129
_cell_length_b   7.02625809
_cell_length_c   8.86983429
_cell_angle_alpha   74.66298633
_cell_angle_beta   78.56498610
_cell_angle_gamma   75.50617819
_symmetry_Int_Tables_number   1
_chemical_formula_structural   Li2Eu5O8
_chemical_formula_sum   'Li2 Eu5 O8'
_cell_volume   202.59517382
_cell_formula_units_Z   1
loop_
 _symmetry_equiv_pos_site_id
 _symmetry_equiv_pos_as_xyz
  1  'x, y, z'
loop_
 _atom_site_type_symbol
 _atom_site_label
 _atom_site_symmetry_multiplicity
 _atom_site_fract_x
 _atom_site_fract_y
 _atom_site_fract_z
 _atom_site_occupancy
  Li  Li0  1  0.80788608  0.11939837  0.26482947  1
  Li  Li1  1  0.19211392  0.88060163  0.73517053  1
  Eu  Eu2  1  0.50000000  -0.00000000  0.00000000  1
  Eu  Eu3  1  0.39120673  0.78472500  0.43286154  1
  Eu  Eu4  1  0.60879327  0.21527500  0.56713846  1
  Eu  Eu5  1  0.83171865  0.52141225  0.81515044  1
  Eu  Eu6  1  0.16828135  0.47858775  0.18484956  1
  O  O7  1  0.95968112  0.85710285  0.22353490  1
  O  O8  1  0.04031888  0.14289715  0.77646510  1
  O  O9  1  0.76523094  0.85344289  0.61609523  1
  O  O10  1  0.23476906  0.14655711  0.38390477  1
  O  O11  1  0.17960625  0.70478161  0.93600590  1
  O  O12  1  0.82039375  0.29521839  0.06399410  1
  O  O13  1  0.41824127  0.50669408  0.65682338  1
  O  O14  1  0.58175873  0.49330592  0.34317662  1
