# generated using pymatgen
data_Li9Mn2Co5O16
_symmetry_space_group_name_H-M   'P 1'
_cell_length_a   2.98827624
_cell_length_b   19.28642800
_cell_length_c   5.01859131
_cell_angle_alpha   94.12781014
_cell_angle_beta   87.19081728
_cell_angle_gamma   88.04466820
_symmetry_Int_Tables_number   1
_chemical_formula_structural   Li9Mn2Co5O16
_chemical_formula_sum   'Li9 Mn2 Co5 O16'
_cell_volume   287.93454615
_cell_formula_units_Z   1
loop_
 _symmetry_equiv_pos_site_id
 _symmetry_equiv_pos_as_xyz
  1  'x, y, z'
loop_
 _atom_site_type_symbol
 _atom_site_label
 _atom_site_symmetry_multiplicity
 _atom_site_fract_x
 _atom_site_fract_y
 _atom_site_fract_z
 _atom_site_occupancy
  Li  Li0  1  0.93433974  0.12379740  0.68226839  1
  Li  Li1  1  0.31053965  0.37702805  0.56221652  1
  Li  Li2  1  0.69031067  0.62967367  0.45004877  1
  Li  Li3  1  0.07858328  0.86838737  0.31252923  1
  Li  Li4  1  0.44153612  0.12653303  0.19260248  1
  Li  Li5  1  0.81143365  0.37824514  0.06377736  1
  Li  Li6  1  0.17232269  0.62932820  0.93829777  1
  Li  Li7  1  0.56415642  0.86631355  0.79591162  1
  Li  Li8  1  0.12482525  0.74932551  0.62447548  1
  Mn  Mn9  1  0.00278598  0.99878321  0.99881713  1
  Mn  Mn10  1  0.37409762  0.25038352  0.87515915  1
  Co  Co11  1  0.74774059  0.50128942  0.75100201  1
  Co  Co12  1  0.50341125  0.99841660  0.49930259  1
  Co  Co13  1  0.87372864  0.25060612  0.37490336  1
  Co  Co14  1  0.24831020  0.50183530  0.25147812  1
  Co  Co15  1  0.62418584  0.74964273  0.12573308  1
  O  O16  1  0.44845831  0.05692287  0.83111652  1
  O  O17  1  0.81717215  0.30829922  0.70645088  1
  O  O18  1  0.18220794  0.55943946  0.59240618  1
  O  O19  1  0.59177879  0.80547419  0.42802509  1
  O  O20  1  0.94186429  0.05654297  0.33927026  1
  O  O21  1  0.31483366  0.30806411  0.21484917  1
  O  O22  1  0.73013012  0.55613630  0.08609865  1
  O  O23  1  0.11569067  0.80432828  0.98418744  1
  O  O24  1  0.43523660  0.19266526  0.53584032  1
  O  O25  1  0.77049740  0.44491227  0.41677843  1
  O  O26  1  0.13235116  0.69521718  0.26555397  1
  O  O27  1  0.55126398  0.94266391  0.16408231  1
  O  O28  1  0.93486855  0.19167845  0.04477639  1
  O  O29  1  0.31527866  0.44302185  0.90979006  1
  O  O30  1  0.65661164  0.69405680  0.82315190  1
  O  O31  1  0.05944850  0.94098807  0.65909939  1
