# generated using pymatgen
data_ZrPbO3
_symmetry_space_group_name_H-M   'P 1'
_cell_length_a   4.29524436
_cell_length_b   8.44422709
_cell_length_c   8.42931715
_cell_angle_alpha   90.00000000
_cell_angle_beta   90.00000000
_cell_angle_gamma   90.52704934
_symmetry_Int_Tables_number   1
_chemical_formula_structural   ZrPbO3
_chemical_formula_sum   'Zr4 Pb4 O12'
_cell_volume   305.71855602
_cell_formula_units_Z   4
loop_
 _symmetry_equiv_pos_site_id
 _symmetry_equiv_pos_as_xyz
  1  'x, y, z'
loop_
 _atom_site_type_symbol
 _atom_site_label
 _atom_site_symmetry_multiplicity
 _atom_site_fract_x
 _atom_site_fract_y
 _atom_site_fract_z
 _atom_site_occupancy
  Zr  Zr0  1  0.46836667  0.25179301  0.25334437  1
  Zr  Zr1  1  0.46836667  0.25179301  0.74665563  1
  Zr  Zr2  1  0.44974680  0.75394094  0.24670340  1
  Zr  Zr3  1  0.44974680  0.75394094  0.75329660  1
  Pb  Pb4  1  0.95605078  0.05764407  -0.00000000  1
  Pb  Pb5  1  0.86715650  0.51371505  0.50000000  1
  Pb  Pb6  1  0.89382565  0.53065227  -0.00000000  1
  Pb  Pb7  1  0.87356202  0.98227901  0.50000000  1
  O  O8  1  0.99583291  0.24009127  0.22724001  1
  O  O9  1  0.99583291  0.24009127  0.77275999  1
  O  O10  1  0.51450079  0.99713925  0.26996511  1
  O  O11  1  0.51145552  0.22626110  -0.00000000  1
  O  O12  1  0.54021519  0.25499993  0.50000000  1
  O  O13  1  0.52819109  0.49787530  0.25272532  1
  O  O14  1  0.49447940  0.72808034  -0.00000000  1
  O  O15  1  0.52819109  0.49787530  0.74727468  1
  O  O16  1  0.52325230  0.73816966  0.50000000  1
  O  O17  1  0.51450079  0.99713925  0.73003489  1
  O  O18  1  0.98136307  0.74325951  0.24999527  1
  O  O19  1  0.98136307  0.74325951  0.75000473  1
