# generated using pymatgen
data_Li9Mn2Co5O16
_symmetry_space_group_name_H-M   'P 1'
_cell_length_a   2.95881237
_cell_length_b   5.04951823
_cell_length_c   19.41510407
_cell_angle_alpha   93.54929485
_cell_angle_beta   82.32551015
_cell_angle_gamma   91.23126777
_symmetry_Int_Tables_number   1
_chemical_formula_structural   Li9Mn2Co5O16
_chemical_formula_sum   'Li9 Mn2 Co5 O16'
_cell_volume   286.89757162
_cell_formula_units_Z   1
loop_
 _symmetry_equiv_pos_site_id
 _symmetry_equiv_pos_as_xyz
  1  'x, y, z'
loop_
 _atom_site_type_symbol
 _atom_site_label
 _atom_site_symmetry_multiplicity
 _atom_site_fract_x
 _atom_site_fract_y
 _atom_site_fract_z
 _atom_site_occupancy
  Li  Li0  1  0.87231205  0.37462537  0.12454485  1
  Li  Li1  1  0.11642220  0.61205453  0.38176176  1
  Li  Li2  1  0.39183240  0.87575265  0.62119527  1
  Li  Li3  1  0.63096892  0.12281804  0.87214094  1
  Li  Li4  1  0.37284336  0.87969696  0.12588548  1
  Li  Li5  1  0.60530988  0.12896097  0.38338693  1
  Li  Li6  1  0.87756629  0.38616632  0.62029580  1
  Li  Li7  1  0.12798637  0.62375925  0.87134703  1
  Li  Li8  1  0.50004780  0.49940597  0.50038678  1
  Mn  Mn9  1  0.00053130  0.00010657  0.99947082  1
  Mn  Mn10  1  0.74639802  0.74841686  0.25206145  1
  Co  Co11  1  0.24642477  0.24870859  0.25252412  1
  Co  Co12  1  0.75337910  0.75052060  0.74795017  1
  Co  Co13  1  0.50032284  0.50051766  0.99877766  1
  Co  Co14  1  0.00038163  0.00011255  0.50087561  1
  Co  Co15  1  0.25145631  0.25101076  0.74760113  1
  O  O16  1  0.39810497  0.20208742  0.05937970  1
  O  O17  1  0.69216961  0.44873199  0.30964155  1
  O  O18  1  0.94762374  0.72713811  0.55545911  1
  O  O19  1  0.15270134  0.93891536  0.80558088  1
  O  O20  1  0.95382864  0.69391246  0.05691958  1
  O  O21  1  0.20370649  0.90223655  0.30713253  1
  O  O22  1  0.45349961  0.16879950  0.55528555  1
  O  O23  1  0.69946251  0.44590243  0.80433491  1
  O  O24  1  0.29354598  0.59097481  0.19553998  1
  O  O25  1  0.54725950  0.83323916  0.44597391  1
  O  O26  1  0.80317618  0.05623553  0.69317416  1
  O  O27  1  0.04744266  0.30428480  0.94160314  1
  O  O28  1  0.80058944  0.05037250  0.19491140  1
  O  O29  1  0.05505570  0.27356475  0.44437832  1
  O  O30  1  0.35587064  0.56051963  0.68993983  1
  O  O31  1  0.60177975  0.80045135  0.94053965  1
