# generated using pymatgen
data_TiV3Sn2(PO4)6
_symmetry_space_group_name_H-M   'P 1'
_cell_length_a   9.01225054
_cell_length_b   8.65407742
_cell_length_c   8.65407800
_cell_angle_alpha   60.00000373
_cell_angle_beta   61.30620273
_cell_angle_gamma   61.30620325
_symmetry_Int_Tables_number   1
_chemical_formula_structural   TiV3Sn2(PO4)6
_chemical_formula_sum   'Ti1 V3 Sn2 P6 O24'
_cell_volume   486.47199266
_cell_formula_units_Z   1
loop_
 _symmetry_equiv_pos_site_id
 _symmetry_equiv_pos_as_xyz
  1  'x, y, z'
loop_
 _atom_site_type_symbol
 _atom_site_label
 _atom_site_symmetry_multiplicity
 _atom_site_fract_x
 _atom_site_fract_y
 _atom_site_fract_z
 _atom_site_occupancy
  Ti  Ti0  1  0.55749068  0.14750344  0.14750344  1
  V  V1  1  0.05831814  0.64722695  0.64722695  1
  V  V2  1  0.44576670  0.85141077  0.85141077  1
  V  V3  1  0.93937081  0.35354306  0.35354306  1
  Sn  Sn4  1  0.01015956  0.99661348  0.99661348  1
  Sn  Sn5  1  0.49901587  0.50032804  0.50032804  1
  P  P6  1  0.24842941  0.24990201  0.53719987  1
  P  P7  1  0.24842941  0.96446871  0.24990201  1
  P  P8  1  0.24842941  0.53719987  0.96446871  1
  P  P9  1  0.75066074  0.46167648  0.03667238  1
  P  P10  1  0.75066074  0.03667238  0.75099039  1
  P  P11  1  0.75066074  0.75099039  0.46167648  1
  O  O12  1  0.07747756  0.12582367  0.28917300  1
  O  O13  1  0.07747756  0.50752676  0.12582367  1
  O  O14  1  0.07747756  0.28917300  0.50752676  1
  O  O15  1  0.26231765  0.07692981  0.72131600  1
  O  O16  1  0.41903181  0.20796990  0.37227681  1
  O  O17  1  0.24079367  0.42169182  0.55822380  1
  O  O18  1  0.26231765  0.93943553  0.07692981  1
  O  O19  1  0.24079367  0.77928972  0.42169182  1
  O  O20  1  0.57925834  0.62404345  0.00729646  1
  O  O21  1  0.24079367  0.55822380  0.77928972  1
  O  O22  1  0.73401021  0.27762991  0.06352719  1
  O  O23  1  0.57925834  0.00729646  0.78940176  1
  O  O24  1  0.41903181  0.00072148  0.20796990  1
  O  O25  1  0.26231765  0.72131600  0.93943553  1
  O  O26  1  0.76276647  0.43462194  0.22273393  1
  O  O27  1  0.41903181  0.37227681  0.00072148  1
  O  O28  1  0.76276647  0.22273393  0.57987666  1
  O  O29  1  0.73401021  0.06352719  0.92483270  1
  O  O30  1  0.76276647  0.57987666  0.43462194  1
  O  O31  1  0.57925834  0.78940176  0.62404345  1
  O  O32  1  0.73401021  0.92483270  0.27762991  1
  O  O33  1  0.92187788  0.71338655  0.49016562  1
  O  O34  1  0.92187788  0.49016562  0.87456996  1
  O  O35  1  0.92187788  0.87456996  0.71338655  1
