# generated using pymatgen
data_CsSeO4
_symmetry_space_group_name_H-M   'P 1'
_cell_length_a   5.92886868
_cell_length_b   5.92886868
_cell_length_c   8.56295542
_cell_angle_alpha   110.25462980
_cell_angle_beta   110.25462980
_cell_angle_gamma   90.00000000
_symmetry_Int_Tables_number   1
_chemical_formula_structural   CsSeO4
_chemical_formula_sum   'Cs2 Se2 O8'
_cell_volume   262.45818770
_cell_formula_units_Z   2
loop_
 _symmetry_equiv_pos_site_id
 _symmetry_equiv_pos_as_xyz
  1  'x, y, z'
loop_
 _atom_site_type_symbol
 _atom_site_label
 _atom_site_symmetry_multiplicity
 _atom_site_fract_x
 _atom_site_fract_y
 _atom_site_fract_z
 _atom_site_occupancy
  Cs  Cs0  1  0.12500000  0.87500000  0.25000000  1
  Cs  Cs1  1  0.87500000  0.12500000  0.75000000  1
  Se  Se2  1  0.62500000  0.37500000  0.25000000  1
  Se  Se3  1  0.37500000  0.62500000  0.75000000  1
  O  O4  1  0.68808674  0.20413276  0.37617347  1
  O  O5  1  0.68808674  0.67204071  0.37617347  1
  O  O6  1  0.20413276  0.68808674  0.87617347  1
  O  O7  1  0.67204071  0.68808674  0.87617347  1
  O  O8  1  0.31191326  0.79586724  0.62382653  1
  O  O9  1  0.31191326  0.32795929  0.62382653  1
  O  O10  1  0.79586724  0.31191326  0.12382653  1
  O  O11  1  0.32795929  0.31191326  0.12382653  1
