# generated using pymatgen
data_V3CoNi2(PO4)6
_symmetry_space_group_name_H-M   'P 1'
_cell_length_a   8.44793160
_cell_length_b   8.60824736
_cell_length_c   8.60824748
_cell_angle_alpha   60.00000181
_cell_angle_beta   59.37023701
_cell_angle_gamma   59.37023087
_symmetry_Int_Tables_number   1
_chemical_formula_structural   V3CoNi2(PO4)6
_chemical_formula_sum   'V3 Co1 Ni2 P6 O24'
_cell_volume   438.39400449
_cell_formula_units_Z   1
loop_
 _symmetry_equiv_pos_site_id
 _symmetry_equiv_pos_as_xyz
  1  'x, y, z'
loop_
 _atom_site_type_symbol
 _atom_site_label
 _atom_site_symmetry_multiplicity
 _atom_site_fract_x
 _atom_site_fract_y
 _atom_site_fract_z
 _atom_site_occupancy
  V  V0  1  0.07065953  0.64311382  0.64311382  1
  V  V1  1  0.42492668  0.85835811  0.85835811  1
  V  V2  1  0.92749459  0.35750147  0.35750147  1
  Co  Co3  1  0.57138759  0.14287114  0.14287114  1
  Ni  Ni4  1  0.99429004  0.00190332  0.00190332  1
  Ni  Ni5  1  0.49814266  0.50061945  0.50061945  1
  P  P6  1  0.25274997  0.24903018  0.54164830  1
  P  P7  1  0.25274997  0.95657155  0.24903018  1
  P  P8  1  0.25274997  0.54164830  0.95657155  1
  P  P9  1  0.74978798  0.45463791  0.04398553  1
  P  P10  1  0.74978798  0.04398553  0.75158858  1
  P  P11  1  0.74978798  0.75158858  0.45463791  1
  O  O12  1  0.06473151  0.11669761  0.31656041  1
  O  O13  1  0.06473151  0.50201048  0.11669761  1
  O  O14  1  0.06473151  0.31656041  0.50201048  1
  O  O15  1  0.22581106  0.08930735  0.74163884  1
  O  O16  1  0.43880345  0.18437268  0.38671376  1
  O  O17  1  0.26909036  0.41233356  0.56055160  1
  O  O18  1  0.22581106  0.94324276  0.08930735  1
  O  O19  1  0.26909036  0.75802548  0.41233356  1
  O  O20  1  0.56369438  0.61624642  0.00495825  1
  O  O21  1  0.26909036  0.56055160  0.75802548  1
  O  O22  1  0.77776613  0.25877776  0.05451642  1
  O  O23  1  0.56369438  0.00495825  0.81510094  1
  O  O24  1  0.43880345  0.99010911  0.18437268  1
  O  O25  1  0.22581106  0.74163884  0.94324276  1
  O  O26  1  0.72724277  0.44112581  0.24267964  1
  O  O27  1  0.43880345  0.38671376  0.99010911  1
  O  O28  1  0.72724277  0.24267964  0.58895277  1
  O  O29  1  0.77776613  0.05451642  0.90893969  1
  O  O30  1  0.72724277  0.58895277  0.44112581  1
  O  O31  1  0.56369438  0.81510094  0.61624642  1
  O  O32  1  0.77776613  0.90893969  0.25877776  1
  O  O33  1  0.93468768  0.67960723  0.50056314  1
  O  O34  1  0.93468768  0.50056314  0.88514094  1
  O  O35  1  0.93468768  0.88514094  0.67960723  1
