# generated using pymatgen
data_Mg(AlH4)2
_symmetry_space_group_name_H-M   'P 1'
_cell_length_a   5.16359369
_cell_length_b   5.21037906
_cell_length_c   6.15772266
_cell_angle_alpha   88.75359763
_cell_angle_beta   89.47339156
_cell_angle_gamma   58.83981571
_symmetry_Int_Tables_number   1
_chemical_formula_structural   Mg(AlH4)2
_chemical_formula_sum   'Mg1 Al2 H8'
_cell_volume   141.73307346
_cell_formula_units_Z   1
loop_
 _symmetry_equiv_pos_site_id
 _symmetry_equiv_pos_as_xyz
  1  'x, y, z'
loop_
 _atom_site_type_symbol
 _atom_site_label
 _atom_site_symmetry_multiplicity
 _atom_site_fract_x
 _atom_site_fract_y
 _atom_site_fract_z
 _atom_site_occupancy
  Mg  Mg0  1  0.00727264  0.00307972  0.00489312  1
  Al  Al1  1  0.68192022  0.67789981  0.71572357  1
  Al  Al2  1  0.33063323  0.32706637  0.29312546  1
  H  H3  1  0.63932275  0.13064688  0.15391614  1
  H  H4  1  0.38174192  0.28199856  0.55125533  1
  H  H5  1  0.10224362  0.22623659  0.19990299  1
  H  H6  1  0.90883309  0.77787301  0.81359793  1
  H  H7  1  0.78935391  0.35126201  0.82676091  1
  H  H8  1  0.69649654  0.65546942  0.45601837  1
  H  H9  1  0.34869693  0.89367425  0.82318403  1
  H  H10  1  0.19348514  0.67479339  0.21162215  1
