# generated using pymatgen
data_Sr3Co2(ClO2)2
_symmetry_space_group_name_H-M   'P 1'
_cell_length_a   4.07981138
_cell_length_b   4.07981138
_cell_length_c   11.61509586
_cell_angle_alpha   100.11505590
_cell_angle_beta   100.11505590
_cell_angle_gamma   90.00000000
_symmetry_Int_Tables_number   1
_chemical_formula_structural   Sr3Co2(ClO2)2
_chemical_formula_sum   'Sr3 Co2 Cl2 O4'
_cell_volume   187.27356152
_cell_formula_units_Z   1
loop_
 _symmetry_equiv_pos_site_id
 _symmetry_equiv_pos_as_xyz
  1  'x, y, z'
loop_
 _atom_site_type_symbol
 _atom_site_label
 _atom_site_symmetry_multiplicity
 _atom_site_fract_x
 _atom_site_fract_y
 _atom_site_fract_z
 _atom_site_occupancy
  Sr  Sr0  1  -0.00000000  -0.00000000  -0.00000000  1
  Sr  Sr1  1  0.85126333  0.85126333  0.70252665  1
  Sr  Sr2  1  0.14873667  0.14873667  0.29747335  1
  Co  Co3  1  0.58143612  0.58143612  0.16287225  1
  Co  Co4  1  0.41856388  0.41856388  0.83712775  1
  Cl  Cl5  1  0.69931195  0.69931195  0.39862390  1
  Cl  Cl6  1  0.30068805  0.30068805  0.60137610  1
  O  O7  1  0.92284843  0.42284843  0.84569687  1
  O  O8  1  0.42284843  0.92284843  0.84569687  1
  O  O9  1  0.07715157  0.57715157  0.15430313  1
  O  O10  1  0.57715157  0.07715157  0.15430313  1
