# generated using pymatgen
data_V3Cu2Te(PO4)6
_symmetry_space_group_name_H-M   'P 1'
_cell_length_a   8.73196655
_cell_length_b   8.71182865
_cell_length_c   8.71182863
_cell_angle_alpha   60.00000166
_cell_angle_beta   60.07626446
_cell_angle_gamma   60.07626482
_symmetry_Int_Tables_number   1
_chemical_formula_structural   V3Cu2Te(PO4)6
_chemical_formula_sum   'V3 Cu2 Te1 P6 O24'
_cell_volume   469.15396104
_cell_formula_units_Z   1
loop_
 _symmetry_equiv_pos_site_id
 _symmetry_equiv_pos_as_xyz
  1  'x, y, z'
loop_
 _atom_site_type_symbol
 _atom_site_label
 _atom_site_symmetry_multiplicity
 _atom_site_fract_x
 _atom_site_fract_y
 _atom_site_fract_z
 _atom_site_occupancy
  V  V0  1  0.06868607  0.64377131  0.64377131  1
  V  V1  1  0.42794468  0.85735144  0.85735144  1
  V  V2  1  0.92710955  0.35763015  0.35763015  1
  Cu  Cu3  1  0.00775825  0.99741425  0.99741425  1
  Cu  Cu4  1  0.49841621  0.50052793  0.50052793  1
  Te  Te5  1  0.56806336  0.14397855  0.14397855  1
  P  P6  1  0.24133648  0.25151060  0.55260226  1
  P  P7  1  0.24133648  0.95455066  0.25151060  1
  P  P8  1  0.24133648  0.55260226  0.95455066  1
  P  P9  1  0.75342016  0.46678477  0.03944483  1
  P  P10  1  0.75342016  0.03944483  0.74035024  1
  P  P11  1  0.75342016  0.74035024  0.46678477  1
  O  O12  1  0.07184811  0.12303659  0.29984493  1
  O  O13  1  0.07184811  0.50527137  0.12303659  1
  O  O14  1  0.07184811  0.29984493  0.50527137  1
  O  O15  1  0.23861541  0.08312266  0.73995471  1
  O  O16  1  0.42881836  0.19999914  0.39696020  1
  O  O17  1  0.24466285  0.41698165  0.57335381  1
  O  O18  1  0.23861541  0.93830722  0.08312266  1
  O  O19  1  0.24466285  0.76500170  0.41698165  1
  O  O20  1  0.57184041  0.62109743  0.00459561  1
  O  O21  1  0.24466285  0.57335381  0.76500170  1
  O  O22  1  0.77526923  0.27266667  0.04925519  1
  O  O23  1  0.57184041  0.00459561  0.80246656  1
  O  O24  1  0.42881836  0.97422230  0.19999914  1
  O  O25  1  0.23861541  0.73995471  0.93830722  1
  O  O26  1  0.74470695  0.44680869  0.23166184  1
  O  O27  1  0.42881836  0.39696020  0.97422230  1
  O  O28  1  0.74470695  0.23166184  0.57682352  1
  O  O29  1  0.77526923  0.04925519  0.90280891  1
  O  O30  1  0.74470695  0.57682352  0.44680869  1
  O  O31  1  0.57184041  0.80246656  0.62109743  1
  O  O32  1  0.77526923  0.90280891  0.27266667  1
  O  O33  1  0.93015668  0.67938319  0.50865275  1
  O  O34  1  0.93015668  0.50865275  0.88180739  1
  O  O35  1  0.93015668  0.88180739  0.67938319  1
