# generated using pymatgen
data_NiP
_symmetry_space_group_name_H-M   'P 1'
_cell_length_a   4.96948799
_cell_length_b   5.87888128
_cell_length_c   5.87888128
_cell_angle_alpha   119.60838363
_cell_angle_beta   90.00000000
_cell_angle_gamma   90.00000000
_symmetry_Int_Tables_number   1
_chemical_formula_structural   NiP
_chemical_formula_sum   'Ni6 P6'
_cell_volume   149.32481075
_cell_formula_units_Z   6
loop_
 _symmetry_equiv_pos_site_id
 _symmetry_equiv_pos_as_xyz
  1  'x, y, z'
loop_
 _atom_site_type_symbol
 _atom_site_label
 _atom_site_symmetry_multiplicity
 _atom_site_fract_x
 _atom_site_fract_y
 _atom_site_fract_z
 _atom_site_occupancy
  Ni  Ni0  1  0.88548205  0.29726499  0.59049923  1
  Ni  Ni1  1  0.88548205  0.59049923  0.29726499  1
  Ni  Ni2  1  0.38548205  0.70273501  0.40950077  1
  Ni  Ni3  1  0.38548205  0.40950077  0.70273501  1
  Ni  Ni4  1  0.35733266  0.94625057  0.94625057  1
  Ni  Ni5  1  0.85733266  0.05374943  0.05374943  1
  P  P6  1  0.55094092  0.02527235  0.34684708  1
  P  P7  1  0.55094092  0.34684708  0.02527235  1
  P  P8  1  0.05094092  0.97472765  0.65315292  1
  P  P9  1  0.05094092  0.65315292  0.97472765  1
  P  P10  1  0.69852141  0.68830601  0.68830601  1
  P  P11  1  0.19852141  0.31169399  0.31169399  1
