# generated using pymatgen
data_Yb3Ga8
_symmetry_space_group_name_H-M   'P 1'
_cell_length_a   4.19561719
_cell_length_b   4.31360387
_cell_length_c   13.31739453
_cell_angle_alpha   99.32031903
_cell_angle_beta   99.06320654
_cell_angle_gamma   90.00000000
_symmetry_Int_Tables_number   1
_chemical_formula_structural   Yb3Ga8
_chemical_formula_sum   'Yb3 Ga8'
_cell_volume   234.78951006
_cell_formula_units_Z   1
loop_
 _symmetry_equiv_pos_site_id
 _symmetry_equiv_pos_as_xyz
  1  'x, y, z'
loop_
 _atom_site_type_symbol
 _atom_site_label
 _atom_site_symmetry_multiplicity
 _atom_site_fract_x
 _atom_site_fract_y
 _atom_site_fract_z
 _atom_site_occupancy
  Yb  Yb0  1  0.14908805  0.64908805  0.29817610  1
  Yb  Yb1  1  0.85091195  0.35091195  0.70182390  1
  Yb  Yb2  1  -0.00000000  -0.00000000  -0.00000000  1
  Ga  Ga3  1  0.74983907  0.74983907  0.49967814  1
  Ga  Ga4  1  0.25016093  0.25016093  0.50032186  1
  Ga  Ga5  1  0.40511680  0.90511680  0.81023360  1
  Ga  Ga6  1  0.59488320  0.09488320  0.18976640  1
  Ga  Ga7  1  0.30918036  0.80918036  0.61836072  1
  Ga  Ga8  1  0.69081964  0.19081964  0.38163928  1
  Ga  Ga9  1  0.54855600  0.54855600  0.09711199  1
  Ga  Ga10  1  0.45144400  0.45144400  0.90288801  1
