# generated using pymatgen
data_V3Co(PO4)6
_symmetry_space_group_name_H-M   'P 1'
_cell_length_a   8.68438980
_cell_length_b   8.68438927
_cell_length_c   8.68438979
_cell_angle_alpha   58.31913868
_cell_angle_beta   58.31913660
_cell_angle_gamma   58.31913272
_symmetry_Int_Tables_number   1
_chemical_formula_structural   V3Co(PO4)6
_chemical_formula_sum   'V3 Co1 P6 O24'
_cell_volume   445.30412432
_cell_formula_units_Z   1
loop_
 _symmetry_equiv_pos_site_id
 _symmetry_equiv_pos_as_xyz
  1  'x, y, z'
loop_
 _atom_site_type_symbol
 _atom_site_label
 _atom_site_symmetry_multiplicity
 _atom_site_fract_x
 _atom_site_fract_y
 _atom_site_fract_z
 _atom_site_occupancy
  V  V0  1  0.14007963  0.14007963  0.14007963  1
  V  V1  1  0.35845349  0.35845349  0.35845349  1
  V  V2  1  0.63909680  0.63909680  0.63909680  1
  Co  Co3  1  0.85680809  0.85680809  0.85680809  1
  P  P4  1  0.03004519  0.75072672  0.47243250  1
  P  P5  1  0.47243250  0.03004519  0.75072672  1
  P  P6  1  0.75072672  0.47243250  0.03004519  1
  P  P7  1  0.24331149  0.53694992  0.96647836  1
  P  P8  1  0.53694992  0.96647836  0.24331149  1
  P  P9  1  0.96647836  0.24331149  0.53694992  1
  O  O10  1  0.13840629  0.28483222  0.49932638  1
  O  O11  1  0.28483222  0.49932638  0.13840629  1
  O  O12  1  0.06067963  0.92705932  0.28483189  1
  O  O13  1  0.49932638  0.13840629  0.28483222  1
  O  O14  1  0.21571651  0.57582430  0.43169269  1
  O  O15  1  0.01555799  0.77108369  0.64207037  1
  O  O16  1  0.28483189  0.06067963  0.92705932  1
  O  O17  1  0.43169269  0.21571651  0.57582430  1
  O  O18  1  0.57582430  0.43169269  0.21571651  1
  O  O19  1  0.22374463  0.35650771  0.99430212  1
  O  O20  1  0.07268679  0.71941866  0.94296087  1
  O  O21  1  0.35650771  0.99430212  0.22374463  1
  O  O22  1  0.64207037  0.01555799  0.77108369  1
  O  O23  1  0.92705932  0.28483189  0.06067963  1
  O  O24  1  0.77108369  0.64207037  0.01555799  1
  O  O25  1  0.42906056  0.55761910  0.78568092  1
  O  O26  1  0.55761910  0.78568092  0.42906056  1
  O  O27  1  0.71941866  0.94296087  0.07268679  1
  O  O28  1  0.99430212  0.22374463  0.35650771  1
  O  O29  1  0.78568092  0.42906056  0.55761910  1
  O  O30  1  0.49582696  0.85671546  0.72401377  1
  O  O31  1  0.94296087  0.07268679  0.71941866  1
  O  O32  1  0.72401377  0.49582696  0.85671546  1
  O  O33  1  0.85671546  0.72401377  0.49582696  1
