# generated using pymatgen
data_Dy2Al3Fe14
_symmetry_space_group_name_H-M   'P 1'
_cell_length_a   6.44061296
_cell_length_b   6.44061296
_cell_length_c   6.44061281
_cell_angle_alpha   82.36081182
_cell_angle_beta   82.36081182
_cell_angle_gamma   82.36081464
_symmetry_Int_Tables_number   1
_chemical_formula_structural   Dy2Al3Fe14
_chemical_formula_sum   'Dy2 Al3 Fe14'
_cell_volume   260.63210748
_cell_formula_units_Z   1
loop_
 _symmetry_equiv_pos_site_id
 _symmetry_equiv_pos_as_xyz
  1  'x, y, z'
loop_
 _atom_site_type_symbol
 _atom_site_label
 _atom_site_symmetry_multiplicity
 _atom_site_fract_x
 _atom_site_fract_y
 _atom_site_fract_z
 _atom_site_occupancy
  Dy  Dy0  1  0.65869955  0.65869955  0.65869955  1
  Dy  Dy1  1  0.34130045  0.34130045  0.34130045  1
  Al  Al2  1  0.00000000  -0.00000000  0.50000000  1
  Al  Al3  1  0.00000000  0.50000000  0.00000000  1
  Al  Al4  1  0.50000000  -0.00000000  0.00000000  1
  Fe  Fe5  1  0.29419717  0.70580283  0.00000000  1
  Fe  Fe6  1  0.70580283  0.00000000  0.29419717  1
  Fe  Fe7  1  1.00000000  0.29419717  0.70580283  1
  Fe  Fe8  1  0.29419717  1.00000000  0.70580283  1
  Fe  Fe9  1  0.00000000  0.70580283  0.29419717  1
  Fe  Fe10  1  0.70580283  0.29419717  0.00000000  1
  Fe  Fe11  1  0.34205427  0.34205427  0.83622601  1
  Fe  Fe12  1  0.34205427  0.83622601  0.34205427  1
  Fe  Fe13  1  0.83622601  0.34205427  0.34205427  1
  Fe  Fe14  1  0.65794573  0.65794573  0.16377399  1
  Fe  Fe15  1  0.65794573  0.16377399  0.65794573  1
  Fe  Fe16  1  0.16377399  0.65794573  0.65794573  1
  Fe  Fe17  1  0.90790925  0.90790925  0.90790925  1
  Fe  Fe18  1  0.09209075  0.09209075  0.09209075  1
