# generated using pymatgen
data_Ta6Fe7
_symmetry_space_group_name_H-M   'P 1'
_cell_length_a   4.86234094
_cell_length_b   4.86234094
_cell_length_c   9.18063985
_cell_angle_alpha   74.64404492
_cell_angle_beta   74.64404492
_cell_angle_gamma   59.99999837
_symmetry_Int_Tables_number   1
_chemical_formula_structural   Ta6Fe7
_chemical_formula_sum   'Ta6 Fe7'
_cell_volume   178.96894431
_cell_formula_units_Z   1
loop_
 _symmetry_equiv_pos_site_id
 _symmetry_equiv_pos_as_xyz
  1  'x, y, z'
loop_
 _atom_site_type_symbol
 _atom_site_label
 _atom_site_symmetry_multiplicity
 _atom_site_fract_x
 _atom_site_fract_y
 _atom_site_fract_z
 _atom_site_occupancy
  Ta  Ta0  1  0.16642547  0.16642547  0.50072360  1
  Ta  Ta1  1  0.83357453  0.83357453  0.49927640  1
  Ta  Ta2  1  0.34533672  0.34533672  0.96398984  1
  Ta  Ta3  1  0.65466328  0.65466328  0.03601016  1
  Ta  Ta4  1  0.44937538  0.44937538  0.65187385  1
  Ta  Ta5  1  0.55062462  0.55062462  0.34812615  1
  Fe  Fe6  1  0.00000000  -0.00000000  0.00000000  1
  Fe  Fe7  1  0.59526738  0.08989675  0.22493911  1
  Fe  Fe8  1  0.08989675  0.08989675  0.22493911  1
  Fe  Fe9  1  0.08989675  0.59526738  0.22493911  1
  Fe  Fe10  1  0.40473262  0.91010325  0.77506089  1
  Fe  Fe11  1  0.91010325  0.91010325  0.77506089  1
  Fe  Fe12  1  0.91010325  0.40473262  0.77506089  1
