# generated using pymatgen
data_Eu3Ga8
_symmetry_space_group_name_H-M   'P 1'
_cell_length_a   4.41468275
_cell_length_b   4.53787579
_cell_length_c   13.19680075
_cell_angle_alpha   99.90010693
_cell_angle_beta   99.62874357
_cell_angle_gamma   90.00000000
_symmetry_Int_Tables_number   1
_chemical_formula_structural   Eu3Ga8
_chemical_formula_sum   'Eu3 Ga8'
_cell_volume   256.65684604
_cell_formula_units_Z   1
loop_
 _symmetry_equiv_pos_site_id
 _symmetry_equiv_pos_as_xyz
  1  'x, y, z'
loop_
 _atom_site_type_symbol
 _atom_site_label
 _atom_site_symmetry_multiplicity
 _atom_site_fract_x
 _atom_site_fract_y
 _atom_site_fract_z
 _atom_site_occupancy
  Eu  Eu0  1  -0.00000000  -0.00000000  -0.00000000  1
  Eu  Eu1  1  0.35175908  0.85175908  0.70351817  1
  Eu  Eu2  1  0.64824092  0.14824092  0.29648183  1
  Ga  Ga3  1  0.24840302  0.24840302  0.49680605  1
  Ga  Ga4  1  0.75159698  0.75159698  0.50319395  1
  Ga  Ga5  1  0.45176184  0.45176184  0.90352369  1
  Ga  Ga6  1  0.54823816  0.54823816  0.09647631  1
  Ga  Ga7  1  0.09455638  0.59455638  0.18911276  1
  Ga  Ga8  1  0.90544362  0.40544362  0.81088724  1
  Ga  Ga9  1  0.19250490  0.69250490  0.38500979  1
  Ga  Ga10  1  0.80749510  0.30749510  0.61499021  1
