# generated using pymatgen
data_Li9Mn2Co5O16
_symmetry_space_group_name_H-M   'P 1'
_cell_length_a   2.99702638
_cell_length_b   5.00682585
_cell_length_c   19.47357615
_cell_angle_alpha   93.28951363
_cell_angle_beta   82.72745510
_cell_angle_gamma   92.10456327
_symmetry_Int_Tables_number   1
_chemical_formula_structural   Li9Mn2Co5O16
_chemical_formula_sum   'Li9 Mn2 Co5 O16'
_cell_volume   289.25603401
_cell_formula_units_Z   1
loop_
 _symmetry_equiv_pos_site_id
 _symmetry_equiv_pos_as_xyz
  1  'x, y, z'
loop_
 _atom_site_type_symbol
 _atom_site_label
 _atom_site_symmetry_multiplicity
 _atom_site_fract_x
 _atom_site_fract_y
 _atom_site_fract_z
 _atom_site_occupancy
  Li  Li0  1  0.87084674  0.37920264  0.12341922  1
  Li  Li1  1  0.10824778  0.62829359  0.38162299  1
  Li  Li2  1  0.37517225  0.88294383  0.62051574  1
  Li  Li3  1  0.62675670  0.12631478  0.87215406  1
  Li  Li4  1  0.37782266  0.87068481  0.12630553  1
  Li  Li5  1  0.61921929  0.11330171  0.38383994  1
  Li  Li6  1  0.88997063  0.37392870  0.61982104  1
  Li  Li7  1  0.12893458  0.62234477  0.87375640  1
  Li  Li8  1  -0.00004112  0.99969039  0.50059646  1
  Mn  Mn9  1  0.00110138  0.99990682  0.99977471  1
  Mn  Mn10  1  0.24631802  0.24960492  0.25124848  1
  Co  Co11  1  0.50017463  0.50021234  0.50024582  1
  Co  Co12  1  0.75217335  0.75039786  0.74878993  1
  Co  Co13  1  0.50202902  0.49975514  0.99955717  1
  Co  Co14  1  0.74559587  0.74998725  0.25157108  1
  Co  Co15  1  0.25292722  0.25076201  0.74789584  1
  O  O16  1  0.40705275  0.19887111  0.05856004  1
  O  O17  1  0.66485175  0.44271768  0.30734041  1
  O  O18  1  0.96122137  0.66793696  0.55424253  1
  O  O19  1  0.19887240  0.94427723  0.80676077  1
  O  O20  1  0.90843794  0.68934347  0.05739093  1
  O  O21  1  0.15766444  0.93833660  0.30886101  1
  O  O22  1  0.44109202  0.22567704  0.55576476  1
  O  O23  1  0.70246123  0.44100756  0.80664135  1
  O  O24  1  0.33905007  0.56125581  0.19356819  1
  O  O25  1  0.55939393  0.77644264  0.44432312  1
  O  O26  1  0.80213098  0.05798249  0.69024973  1
  O  O27  1  0.09163718  0.31146695  0.94257989  1
  O  O28  1  0.83400985  0.05272283  0.19305366  1
  O  O29  1  0.04068045  0.33127606  0.44554349  1
  O  O30  1  0.30140232  0.56093588  0.69235856  1
  O  O31  1  0.59279232  0.80241811  0.94164713  1
