# generated using pymatgen
data_KCaH3
_symmetry_space_group_name_H-M   'P 1'
_cell_length_a   6.31177662
_cell_length_b   6.32258516
_cell_length_c   8.93302097
_cell_angle_alpha   90.00000000
_cell_angle_beta   90.00000000
_cell_angle_gamma   90.00000000
_symmetry_Int_Tables_number   1
_chemical_formula_structural   KCaH3
_chemical_formula_sum   'K4 Ca4 H12'
_cell_volume   356.48779163
_cell_formula_units_Z   4
loop_
 _symmetry_equiv_pos_site_id
 _symmetry_equiv_pos_as_xyz
  1  'x, y, z'
loop_
 _atom_site_type_symbol
 _atom_site_label
 _atom_site_symmetry_multiplicity
 _atom_site_fract_x
 _atom_site_fract_y
 _atom_site_fract_z
 _atom_site_occupancy
  K  K0  1  0.50340323  0.51642183  0.25000000  1
  K  K1  1  0.99659677  0.01642183  0.25000000  1
  K  K2  1  0.49659677  0.48357817  0.75000000  1
  K  K3  1  0.00340323  0.98357817  0.75000000  1
  Ca  Ca4  1  -0.00000000  0.50000000  -0.00000000  1
  Ca  Ca5  1  0.50000000  -0.00000000  0.50000000  1
  Ca  Ca6  1  -0.00000000  0.50000000  0.50000000  1
  Ca  Ca7  1  0.50000000  0.00000000  -0.00000000  1
  H  H8  1  0.05630279  0.48603327  0.25000000  1
  H  H9  1  0.44369721  0.98603327  0.25000000  1
  H  H10  1  0.94369721  0.51396673  0.75000000  1
  H  H11  1  0.55630279  0.01396673  0.75000000  1
  H  H12  1  0.27831896  0.72186555  0.97039794  1
  H  H13  1  0.22168104  0.22186555  0.52960206  1
  H  H14  1  0.72168104  0.27813445  0.47039794  1
  H  H15  1  0.77831896  0.77813445  0.02960206  1
  H  H16  1  0.72168104  0.27813445  0.02960206  1
  H  H17  1  0.77831896  0.77813445  0.47039794  1
  H  H18  1  0.27831896  0.72186555  0.52960206  1
  H  H19  1  0.22168104  0.22186555  0.97039794  1
