# generated using pymatgen
data_CaB2(H5N)2
_symmetry_space_group_name_H-M   'P 1'
_cell_length_a   4.47252386
_cell_length_b   5.05187150
_cell_length_c   6.35367736
_cell_angle_alpha   93.07491195
_cell_angle_beta   90.00000000
_cell_angle_gamma   116.27372939
_symmetry_Int_Tables_number   1
_chemical_formula_structural   CaB2(H5N)2
_chemical_formula_sum   'Ca1 B2 H10 N2'
_cell_volume   128.49721341
_cell_formula_units_Z   1
loop_
 _symmetry_equiv_pos_site_id
 _symmetry_equiv_pos_as_xyz
  1  'x, y, z'
loop_
 _atom_site_type_symbol
 _atom_site_label
 _atom_site_symmetry_multiplicity
 _atom_site_fract_x
 _atom_site_fract_y
 _atom_site_fract_z
 _atom_site_occupancy
  Ca  Ca0  1  0.43588188  -0.00000000  -0.00000000  1
  B  B1  1  0.80142538  0.66583372  0.78987269  1
  B  B2  1  0.13559166  0.33416628  0.21012731  1
  H  H3  1  0.57549904  0.27637375  0.58227155  1
  H  H4  1  0.29912529  0.72362625  0.41772845  1
  H  H5  1  0.60959274  0.68968450  0.31203213  1
  H  H6  1  0.91990824  0.31031550  0.68796787  1
  H  H7  1  0.04880516  0.85461094  0.70484847  1
  H  H8  1  0.19419422  0.14538906  0.29515153  1
  H  H9  1  0.84905595  0.28264368  0.25580626  1
  H  H10  1  0.56641227  0.71735632  0.74419374  1
  H  H11  1  0.84969110  0.71083811  0.98479528  1
  H  H12  1  0.13885299  0.28916189  0.01520472  1
  N  N13  1  0.71347880  0.34112352  0.72044560  1
  N  N14  1  0.37235528  0.65887648  0.27955440  1
