# generated using pymatgen
data_Tl(MoSe)3
_symmetry_space_group_name_H-M   'P 1'
_cell_length_a   4.51596849
_cell_length_b   9.90552058
_cell_length_c   9.90486913
_cell_angle_alpha   119.99545085
_cell_angle_beta   90.00000000
_cell_angle_gamma   90.00000000
_symmetry_Int_Tables_number   1
_chemical_formula_structural   Tl(MoSe)3
_chemical_formula_sum   'Tl2 Mo6 Se6'
_cell_volume   383.73153180
_cell_formula_units_Z   2
loop_
 _symmetry_equiv_pos_site_id
 _symmetry_equiv_pos_as_xyz
  1  'x, y, z'
loop_
 _atom_site_type_symbol
 _atom_site_label
 _atom_site_symmetry_multiplicity
 _atom_site_fract_x
 _atom_site_fract_y
 _atom_site_fract_z
 _atom_site_occupancy
  Tl  Tl0  1  0.75000000  0.66663874  0.33330652  1
  Tl  Tl1  1  0.25000000  0.33336126  0.66669348  1
  Mo  Mo2  1  0.75000000  0.02128348  0.85602655  1
  Mo  Mo3  1  0.75000000  0.14395031  0.16524141  1
  Mo  Mo4  1  0.75000000  0.83476246  0.97872802  1
  Mo  Mo5  1  0.25000000  0.97871652  0.14397345  1
  Mo  Mo6  1  0.25000000  0.85604969  0.83475859  1
  Mo  Mo7  1  0.25000000  0.16523754  0.02127198  1
  Se  Se8  1  0.75000000  0.71637038  0.67349567  1
  Se  Se9  1  0.75000000  0.32648541  0.04284226  1
  Se  Se10  1  0.75000000  0.95712997  0.28365513  1
  Se  Se11  1  0.25000000  0.28362962  0.32650433  1
  Se  Se12  1  0.25000000  0.67351459  0.95715774  1
  Se  Se13  1  0.25000000  0.04287003  0.71634487  1
