# generated using pymatgen
data_U(CoGe)6
_symmetry_space_group_name_H-M   'P 1'
_cell_length_a   5.09560465
_cell_length_b   5.09557306
_cell_length_c   7.88386547
_cell_angle_alpha   90.00000000
_cell_angle_beta   90.00000000
_cell_angle_gamma   120.00020482
_symmetry_Int_Tables_number   1
_chemical_formula_structural   U(CoGe)6
_chemical_formula_sum   'U1 Co6 Ge6'
_cell_volume   177.27916537
_cell_formula_units_Z   1
loop_
 _symmetry_equiv_pos_site_id
 _symmetry_equiv_pos_as_xyz
  1  'x, y, z'
loop_
 _atom_site_type_symbol
 _atom_site_label
 _atom_site_symmetry_multiplicity
 _atom_site_fract_x
 _atom_site_fract_y
 _atom_site_fract_z
 _atom_site_occupancy
  U  U0  1  0.99997512  0.00000000  -0.00000000  1
  Co  Co1  1  0.49999564  -0.00000000  0.25007957  1
  Co  Co2  1  0.49999277  0.50000347  0.25008288  1
  Co  Co3  1  0.99998931  0.49999653  0.25008288  1
  Co  Co4  1  0.49999564  -0.00000000  0.74992043  1
  Co  Co5  1  0.49999277  0.50000347  0.74991712  1
  Co  Co6  1  0.99998931  0.49999653  0.74991712  1
  Ge  Ge7  1  0.33331687  0.66668085  -0.00000000  1
  Ge  Ge8  1  0.66663602  0.33331915  -0.00000000  1
  Ge  Ge9  1  0.33329010  0.66664869  0.50000000  1
  Ge  Ge10  1  0.66664141  0.33335131  0.50000000  1
  Ge  Ge11  1  0.99999252  0.00000000  0.34626690  1
  Ge  Ge12  1  0.99999252  0.00000000  0.65373310  1
