# generated using pymatgen
data_Li9Mn2Co5O16
_symmetry_space_group_name_H-M   'P 1'
_cell_length_a   3.03067369
_cell_length_b   19.55359291
_cell_length_c   5.13463018
_cell_angle_alpha   91.29830576
_cell_angle_beta   75.38584125
_cell_angle_gamma   87.02561725
_symmetry_Int_Tables_number   1
_chemical_formula_structural   Li9Mn2Co5O16
_chemical_formula_sum   'Li9 Mn2 Co5 O16'
_cell_volume   293.83866699
_cell_formula_units_Z   1
loop_
 _symmetry_equiv_pos_site_id
 _symmetry_equiv_pos_as_xyz
  1  'x, y, z'
loop_
 _atom_site_type_symbol
 _atom_site_label
 _atom_site_symmetry_multiplicity
 _atom_site_fract_x
 _atom_site_fract_y
 _atom_site_fract_z
 _atom_site_occupancy
  Li  Li0  1  0.69009496  0.06414226  0.56049664  1
  Li  Li1  1  0.06195387  0.18766436  0.68833725  1
  Li  Li2  1  0.43051676  0.31342298  0.80944756  1
  Li  Li3  1  0.81428480  0.43660010  0.93085786  1
  Li  Li4  1  0.18582576  0.56315028  0.06904800  1
  Li  Li5  1  0.56916039  0.68636431  0.19132003  1
  Li  Li6  1  0.93704712  0.81114447  0.31280042  1
  Li  Li7  1  0.31271480  0.93745076  0.43748719  1
  Li  Li8  1  0.49972158  0.49976426  0.50005410  1
  Mn  Mn9  1  0.98917141  0.00127279  0.00044343  1
  Mn  Mn10  1  0.63524865  0.87322161  0.87369209  1
  Co  Co11  1  0.36613164  0.12791399  0.12545935  1
  Co  Co12  1  0.74873540  0.25256018  0.25144993  1
  Co  Co13  1  0.12131586  0.38008433  0.37988088  1
  Co  Co14  1  0.88026786  0.61914807  0.61937057  1
  Co  Co15  1  0.25756712  0.74626194  0.75072495  1
  O  O16  1  0.30518279  0.03638936  0.26714548  1
  O  O17  1  0.72992937  0.16146476  0.38954896  1
  O  O18  1  0.11455926  0.28775701  0.50571932  1
  O  O19  1  0.45835530  0.40378975  0.62895335  1
  O  O20  1  0.83884849  0.54090063  0.77540359  1
  O  O21  1  0.19485790  0.65725373  0.88508364  1
  O  O22  1  0.61497972  0.78150681  0.01378408  1
  O  O23  1  0.94296695  0.90894890  0.14125275  1
  O  O24  1  0.00223793  0.09331252  0.86405022  1
  O  O25  1  0.39451342  0.21773033  0.98448229  1
  O  O26  1  0.80703682  0.34172615  0.11514825  1
  O  O27  1  0.16161891  0.45850345  0.22370332  1
  O  O28  1  0.54212077  0.59565059  0.37055255  1
  O  O29  1  0.89121407  0.71139855  0.49452052  1
  O  O30  1  0.31959938  0.83793227  0.60725049  1
  O  O31  1  0.68222294  0.96557150  0.73253096  1
