# generated using pymatgen
data_Li9Mn2Co5O16
_symmetry_space_group_name_H-M   'P 1'
_cell_length_a   2.94709950
_cell_length_b   5.09649342
_cell_length_c   19.54119264
_cell_angle_alpha   94.35926174
_cell_angle_beta   82.51259603
_cell_angle_gamma   91.51229266
_symmetry_Int_Tables_number   1
_chemical_formula_structural   Li9Mn2Co5O16
_chemical_formula_sum   'Li9 Mn2 Co5 O16'
_cell_volume   290.12145370
_cell_formula_units_Z   1
loop_
 _symmetry_equiv_pos_site_id
 _symmetry_equiv_pos_as_xyz
  1  'x, y, z'
loop_
 _atom_site_type_symbol
 _atom_site_label
 _atom_site_symmetry_multiplicity
 _atom_site_fract_x
 _atom_site_fract_y
 _atom_site_fract_z
 _atom_site_occupancy
  Li  Li0  1  0.86845127  0.38406496  0.12637424  1
  Li  Li1  1  0.10592968  0.61750828  0.38547718  1
  Li  Li2  1  0.39248610  0.88111562  0.61913443  1
  Li  Li3  1  0.62939438  0.11998872  0.87174400  1
  Li  Li4  1  0.37851103  0.86855004  0.12512386  1
  Li  Li5  1  0.60914435  0.11873222  0.38163537  1
  Li  Li6  1  0.88069295  0.38763672  0.62022710  1
  Li  Li7  1  0.12896545  0.61548126  0.87211168  1
  Li  Li8  1  0.49946458  0.49999328  0.50073836  1
  Mn  Mn9  1  -0.00009273  0.99894823  -0.00015068  1
  Mn  Mn10  1  0.24586507  0.25037292  0.25227064  1
  Co  Co11  1  0.75439095  0.75139896  0.74713395  1
  Co  Co12  1  0.49931288  0.49810927  0.99955427  1
  Co  Co13  1  0.74528684  0.75026237  0.25266866  1
  Co  Co14  1  0.00126450  0.00046509  0.50002956  1
  Co  Co15  1  0.25454616  0.25108031  0.74732262  1
  O  O16  1  0.39627348  0.20274963  0.05887537  1
  O  O17  1  0.70274630  0.40843113  0.30856701  1
  O  O18  1  0.94591646  0.73175652  0.55448814  1
  O  O19  1  0.18124032  0.92495301  0.80547523  1
  O  O20  1  0.94655011  0.69899012  0.05881344  1
  O  O21  1  0.19446445  0.94905571  0.30672548  1
  O  O22  1  0.45828184  0.16940108  0.55423896  1
  O  O23  1  0.67786728  0.42715535  0.80573370  1
  O  O24  1  0.30098535  0.55170920  0.19578756  1
  O  O25  1  0.54727618  0.82809476  0.44455354  1
  O  O26  1  0.82787082  0.07907519  0.69100136  1
  O  O27  1  0.04841039  0.30026481  0.94250547  1
  O  O28  1  0.78799724  0.09319455  0.19585239  1
  O  O29  1  0.05692171  0.27134467  0.44533457  1
  O  O30  1  0.33188087  0.57643886  0.68910498  1
  O  O31  1  0.60170376  0.79367715  0.94154755  1
