# generated using pymatgen
data_Sr2La2MnZnO8
_symmetry_space_group_name_H-M   'P 1'
_cell_length_a   3.90164785
_cell_length_b   15.57714250
_cell_length_c   6.92097261
_cell_angle_alpha   106.65735848
_cell_angle_beta   106.32711474
_cell_angle_gamma   89.95765175
_symmetry_Int_Tables_number   1
_chemical_formula_structural   Sr2La2MnZnO8
_chemical_formula_sum   'Sr4 La4 Mn2 Zn2 O16'
_cell_volume   385.26892721
_cell_formula_units_Z   2
loop_
 _symmetry_equiv_pos_site_id
 _symmetry_equiv_pos_as_xyz
  1  'x, y, z'
loop_
 _atom_site_type_symbol
 _atom_site_label
 _atom_site_symmetry_multiplicity
 _atom_site_fract_x
 _atom_site_fract_y
 _atom_site_fract_z
 _atom_site_occupancy
  Sr  Sr0  1  0.36016910  0.59073858  0.71519403  1
  Sr  Sr1  1  0.35648764  0.83757650  0.71265823  1
  Sr  Sr2  1  0.64325505  0.41250447  0.28736041  1
  Sr  Sr3  1  0.63960452  0.65908117  0.28455770  1
  La  La4  1  0.35603791  0.08839703  0.72200530  1
  La  La5  1  0.36430833  0.33965480  0.72380717  1
  La  La6  1  0.64375206  0.16154934  0.27796105  1
  La  La7  1  0.63567730  0.91045010  0.27647703  1
  Mn  Mn8  1  0.00168836  0.50198932  0.00171629  1
  Mn  Mn9  1  0.99823971  0.74795692  0.99813276  1
  Zn  Zn10  1  0.99275754  0.99685409  0.99035797  1
  Zn  Zn11  1  0.00737756  0.25315375  0.01005084  1
  O  O12  1  0.17223276  0.04336352  0.36092753  1
  O  O13  1  0.18330567  0.28714653  0.35968747  1
  O  O14  1  0.16191769  0.54006782  0.31498522  1
  O  O15  1  0.15882891  0.79572269  0.31795717  1
  O  O16  1  0.50222495  0.00019276  0.00959615  1
  O  O17  1  0.49767087  0.24981848  0.99032876  1
  O  O18  1  0.49772352  0.49857497  0.99298840  1
  O  O19  1  0.50257280  0.75147225  0.00722704  1
  O  O20  1  0.82780132  0.20643965  0.63877779  1
  O  O21  1  0.84110523  0.45452539  0.68222518  1
  O  O22  1  0.83838076  0.70974278  0.68478875  1
  O  O23  1  0.81674891  0.96286084  0.64032143  1
  O  O24  1  0.99997590  0.12507522  0.00008079  1
  O  O25  1  0.99745045  0.37954923  0.99588525  1
  O  O26  1  0.00035264  0.62506066  0.00032718  1
  O  O27  1  0.00235254  0.87048215  0.00361711  1
