# generated using pymatgen
data_Ba3Fe2TeO5
_symmetry_space_group_name_H-M   'P 1'
_cell_length_a   4.08566244
_cell_length_b   4.14019005
_cell_length_c   12.11967201
_cell_angle_alpha   90.00000000
_cell_angle_beta   90.00000000
_cell_angle_gamma   90.00000000
_symmetry_Int_Tables_number   1
_chemical_formula_structural   Ba3Fe2TeO5
_chemical_formula_sum   'Ba3 Fe2 Te1 O5'
_cell_volume   205.00932997
_cell_formula_units_Z   1
loop_
 _symmetry_equiv_pos_site_id
 _symmetry_equiv_pos_as_xyz
  1  'x, y, z'
loop_
 _atom_site_type_symbol
 _atom_site_label
 _atom_site_symmetry_multiplicity
 _atom_site_fract_x
 _atom_site_fract_y
 _atom_site_fract_z
 _atom_site_occupancy
  Ba  Ba0  1  -0.00000000  0.00000000  0.00000000  1
  Ba  Ba1  1  0.00000000  0.00000000  0.67006075  1
  Ba  Ba2  1  -0.00000000  0.00000000  0.32993925  1
  Fe  Fe3  1  0.50000000  0.50000000  0.84131294  1
  Fe  Fe4  1  0.50000000  0.50000000  0.15868706  1
  Te  Te5  1  0.50000000  0.50000000  0.50000000  1
  O  O6  1  0.50000000  0.00000000  0.81860794  1
  O  O7  1  0.00000000  0.50000000  0.81576774  1
  O  O8  1  0.50000000  -0.00000000  0.18139206  1
  O  O9  1  -0.00000000  0.50000000  0.18423226  1
  O  O10  1  0.50000000  0.50000000  0.00000000  1
