# generated using pymatgen
data_Li4Mn3O7
_symmetry_space_group_name_H-M   'P 1'
_cell_length_a   2.88274446
_cell_length_b   13.48400533
_cell_length_c   6.88663902
_cell_angle_alpha   89.03461729
_cell_angle_beta   77.91867695
_cell_angle_gamma   96.13635498
_symmetry_Int_Tables_number   1
_chemical_formula_structural   Li4Mn3O7
_chemical_formula_sum   'Li8 Mn6 O14'
_cell_volume   260.04954492
_cell_formula_units_Z   2
loop_
 _symmetry_equiv_pos_site_id
 _symmetry_equiv_pos_as_xyz
  1  'x, y, z'
loop_
 _atom_site_type_symbol
 _atom_site_label
 _atom_site_symmetry_multiplicity
 _atom_site_fract_x
 _atom_site_fract_y
 _atom_site_fract_z
 _atom_site_occupancy
  Li  Li0  1  0.35636323  0.07346637  0.36073992  1
  Li  Li1  1  0.07220877  0.21224863  0.06783208  1
  Li  Li2  1  0.78857901  0.35183604  0.77467701  1
  Li  Li3  1  0.63999199  0.93387796  0.65389399  1
  Li  Li4  1  0.93043719  0.78586632  0.92499093  1
  Li  Li5  1  0.49813381  0.49984768  0.50358007  1
  Li  Li6  1  0.21428600  0.64285700  0.21428600  1
  Li  Li7  1  0.71428600  0.14285700  0.71428600  1
  Mn  Mn8  1  0.01365970  0.00587749  0.97855808  1
  Mn  Mn9  1  0.41491130  0.27983651  0.45001292  1
  Mn  Mn10  1  0.13702771  0.42495044  0.15089502  1
  Mn  Mn11  1  0.85532060  0.57095289  0.86031169  1
  Mn  Mn12  1  0.57325140  0.71476211  0.56826031  1
  Mn  Mn13  1  0.29154329  0.86076356  0.27767598  1
  O  O14  1  0.53195155  0.09754565  0.03364255  1
  O  O15  1  0.26849501  0.25425730  0.71726827  1
  O  O16  1  0.95584917  0.37942476  0.46772542  1
  O  O17  1  0.83155009  0.96090857  0.29780840  1
  O  O18  1  0.10248563  0.81151929  0.60654704  1
  O  O19  1  0.66781591  0.52251379  0.18688198  1
  O  O20  1  0.38451683  0.66845272  0.89942006  1
  O  O21  1  0.16007699  0.03145770  0.71130373  1
  O  O22  1  0.89662045  0.18816935  0.39492945  1
  O  O23  1  0.59702091  0.32480543  0.13076260  1
  O  O24  1  0.47272183  0.90628924  0.96084558  1
  O  O25  1  0.76075509  0.76320021  0.24168902  1
  O  O26  1  0.32608537  0.47419471  0.82202396  1
  O  O27  1  0.04405517  0.61726128  0.52915194  1
