# generated using pymatgen
data_Li5Mn2CoO8
_symmetry_space_group_name_H-M   'P 1'
_cell_length_a   5.08413479
_cell_length_b   4.98623822
_cell_length_c   5.88515752
_cell_angle_alpha   90.00000000
_cell_angle_beta   90.00000000
_cell_angle_gamma   108.72728815
_symmetry_Int_Tables_number   1
_chemical_formula_structural   Li5Mn2CoO8
_chemical_formula_sum   'Li5 Mn2 Co1 O8'
_cell_volume   141.29425565
_cell_formula_units_Z   1
loop_
 _symmetry_equiv_pos_site_id
 _symmetry_equiv_pos_as_xyz
  1  'x, y, z'
loop_
 _atom_site_type_symbol
 _atom_site_label
 _atom_site_symmetry_multiplicity
 _atom_site_fract_x
 _atom_site_fract_y
 _atom_site_fract_z
 _atom_site_occupancy
  Li  Li0  1  0.50000000  0.50000000  0.99934857  1
  Li  Li1  1  0.50000000  -0.00000000  0.26096200  1
  Li  Li2  1  0.50000000  0.50000000  0.50116719  1
  Li  Li3  1  0.50000000  -0.00000000  0.73934323  1
  Li  Li4  1  0.00000000  -0.00000000  0.50094847  1
  Mn  Mn5  1  0.00000000  -0.00000000  0.00328716  1
  Mn  Mn6  1  0.00000000  0.50000000  0.25448709  1
  Co  Co7  1  0.00000000  0.50000000  0.73713462  1
  O  O8  1  0.22432814  0.75190606  0.01170378  1
  O  O9  1  0.22084838  0.25041117  0.23425675  1
  O  O10  1  0.23544166  0.72262758  0.48635524  1
  O  O11  1  0.22242896  0.24716154  0.76934506  1
  O  O12  1  0.77567186  0.24809394  0.01170378  1
  O  O13  1  0.77915162  0.74958883  0.23425675  1
  O  O14  1  0.76455834  0.27737242  0.48635524  1
  O  O15  1  0.77757104  0.75283846  0.76934506  1
