# generated using pymatgen
data_Li6Mn3CoO10
_symmetry_space_group_name_H-M   'P 1'
_cell_length_a   5.02933204
_cell_length_b   7.69425165
_cell_length_c   5.18633725
_cell_angle_alpha   108.00343081
_cell_angle_beta   78.77158333
_cell_angle_gamma   76.92798089
_symmetry_Int_Tables_number   1
_chemical_formula_structural   Li6Mn3CoO10
_chemical_formula_sum   'Li6 Mn3 Co1 O10'
_cell_volume   178.17613625
_cell_formula_units_Z   1
loop_
 _symmetry_equiv_pos_site_id
 _symmetry_equiv_pos_as_xyz
  1  'x, y, z'
loop_
 _atom_site_type_symbol
 _atom_site_label
 _atom_site_symmetry_multiplicity
 _atom_site_fract_x
 _atom_site_fract_y
 _atom_site_fract_z
 _atom_site_occupancy
  Li  Li0  1  0.30417780  0.90716707  0.40288379  1
  Li  Li1  1  0.68615674  0.10139703  0.59357571  1
  Li  Li2  1  0.11366257  0.29959648  0.80447083  1
  Li  Li3  1  0.48985446  0.49276952  0.00266600  1
  Li  Li4  1  0.90542457  0.70059709  0.19581843  1
  Li  Li5  1  0.39987261  0.20041574  0.20130737  1
  Mn  Mn6  1  0.99703076  0.00407099  0.01245966  1
  Mn  Mn7  1  0.80096343  0.39597177  0.38959667  1
  Mn  Mn8  1  0.59704047  0.80580147  0.80769718  1
  Co  Co9  1  0.20310614  0.58907896  0.58191523  1
  O  O10  1  0.25318016  0.76707919  0.99600690  1
  O  O11  1  0.67794808  0.95005098  0.19609081  1
  O  O12  1  0.03029108  0.15403840  0.37387959  1
  O  O13  1  0.45410071  0.36949971  0.59953562  1
  O  O14  1  0.85609300  0.54538302  0.75422613  1
  O  O15  1  0.34312944  0.03501898  0.80315579  1
  O  O16  1  0.77058135  0.24626681  0.02667107  1
  O  O17  1  0.12469256  0.45602435  0.21800293  1
  O  O18  1  0.54361643  0.62701673  0.39587297  1
  O  O19  1  0.94907762  0.85275571  0.64416734  1
