# generated using pymatgen
data_Sr14Nb19O57
_symmetry_space_group_name_H-M   'P 1'
_cell_length_a   4.04116150
_cell_length_b   4.04116150
_cell_length_c   77.53393740
_cell_angle_alpha   90.00000000
_cell_angle_beta   90.00000000
_cell_angle_gamma   90.00000000
_symmetry_Int_Tables_number   1
_chemical_formula_structural   Sr14Nb19O57
_chemical_formula_sum   'Sr14 Nb19 O57'
_cell_volume   1266.20566707
_cell_formula_units_Z   1
loop_
 _symmetry_equiv_pos_site_id
 _symmetry_equiv_pos_as_xyz
  1  'x, y, z'
loop_
 _atom_site_type_symbol
 _atom_site_label
 _atom_site_symmetry_multiplicity
 _atom_site_fract_x
 _atom_site_fract_y
 _atom_site_fract_z
 _atom_site_occupancy
  Sr  Sr0  1  0.00000000  -0.00000000  0.15799321  1
  Sr  Sr1  1  -0.00000000  0.00000000  0.63154750  1
  Sr  Sr2  1  -0.00000000  -0.00000000  0.68422828  1
  Sr  Sr3  1  0.00000000  -0.00000000  0.78950550  1
  Sr  Sr4  1  0.00000000  0.00000000  0.89526055  1
  Sr  Sr5  1  0.00000000  -0.00000000  0.05304526  1
  Sr  Sr6  1  -0.00000000  -0.00000000  0.26305979  1
  Sr  Sr7  1  -0.00000000  -0.00000000  0.36800774  1
  Sr  Sr8  1  -0.00000000  -0.00000000  0.47064560  1
  Sr  Sr9  1  -0.00000000  -0.00000000  0.52579245  1
  Sr  Sr10  1  -0.00000000  -0.00000000  0.57885409  1
  Sr  Sr11  1  0.00000000  0.00000000  0.73682472  1
  Sr  Sr12  1  0.00000000  -0.00000000  0.84219791  1
  Sr  Sr13  1  0.00000000  0.00000000  0.95040640  1
  Nb  Nb14  1  0.50000000  0.50000000  0.08089592  1
  Nb  Nb15  1  0.50000000  0.50000000  0.02678692  1
  Nb  Nb16  1  0.50000000  0.50000000  0.18538650  1
  Nb  Nb17  1  0.50000000  0.50000000  0.13125701  1
  Nb  Nb18  1  0.50000000  0.50000000  0.28979599  1
  Nb  Nb19  1  0.50000000  0.50000000  0.23566650  1
  Nb  Nb20  1  0.50000000  0.50000000  0.34015608  1
  Nb  Nb21  1  0.50000000  0.50000000  0.39426608  1
  Nb  Nb22  1  0.50000000  0.50000000  0.44469605  1
  Nb  Nb23  1  0.50000000  0.50000000  0.49920209  1
  Nb  Nb24  1  0.50000000  0.50000000  0.55252570  1
  Nb  Nb25  1  0.50000000  0.50000000  0.65790894  1
  Nb  Nb26  1  0.50000000  0.50000000  0.60519497  1
  Nb  Nb27  1  0.50000000  0.50000000  0.76314406  1
  Nb  Nb28  1  0.50000000  0.50000000  0.71052600  1
  Nb  Nb29  1  0.50000000  0.50000000  0.81585703  1
  Nb  Nb30  1  0.50000000  0.50000000  0.86852730  1
  Nb  Nb31  1  0.50000000  0.50000000  0.92185091  1
  Nb  Nb32  1  0.50000000  0.50000000  0.97635595  1
  O  O33  1  0.00000000  0.50000000  0.97128223  1
  O  O34  1  0.50000000  0.50000000  0.00002075  1
  O  O35  1  0.50000000  0.50000000  0.05216159  1
  O  O36  1  0.50000000  0.50000000  0.10513788  1
  O  O37  1  0.50000000  0.50000000  0.15764503  1
  O  O38  1  0.50000000  0.50000000  0.21052600  1
  O  O39  1  0.50000000  0.50000000  0.26340797  1
  O  O40  1  0.50000000  0.50000000  0.31591412  1
  O  O41  1  0.50000000  0.50000000  0.36889141  1
  O  O42  1  0.50000000  0.50000000  0.42103225  1
  O  O43  1  0.50000000  0.50000000  0.47418329  1
  O  O44  1  0.50000000  0.50000000  0.52608514  1
  O  O45  1  0.50000000  0.50000000  0.57892814  1
  O  O46  1  0.50000000  0.50000000  0.63158767  1
  O  O47  1  0.50000000  0.50000000  0.68419933  1
  O  O48  1  0.50000000  0.50000000  0.73685367  1
  O  O49  1  0.50000000  0.50000000  0.78946533  1
  O  O50  1  0.50000000  0.00000000  0.02774945  1
  O  O51  1  0.50000000  0.00000000  0.07679574  1
  O  O52  1  0.50000000  -0.00000000  0.13320100  1
  O  O53  1  0.50000000  0.50000000  0.84212386  1
  O  O54  1  0.50000000  0.50000000  0.89496786  1
  O  O55  1  0.50000000  0.00000000  0.18234544  1
  O  O56  1  0.50000000  -0.00000000  0.23870756  1
  O  O57  1  0.50000000  0.50000000  0.94686871  1
  O  O58  1  0.50000000  -0.00000000  0.28785200  1
  O  O59  1  0.50000000  -0.00000000  0.39330355  1
  O  O60  1  0.50000000  -0.00000000  0.34425626  1
  O  O61  1  0.50000000  -0.00000000  0.44976977  1
  O  O62  1  0.50000000  0.00000000  0.50059222  1
  O  O63  1  0.50000000  -0.00000000  0.55266703  1
  O  O64  1  0.50000000  0.00000000  0.65790646  1
  O  O65  1  0.50000000  0.00000000  0.60529469  1
  O  O66  1  0.50000000  -0.00000000  0.71052600  1
  O  O67  1  0.50000000  -0.00000000  0.81575731  1
  O  O68  1  0.50000000  -0.00000000  0.76314654  1
  O  O69  1  0.50000000  -0.00000000  0.86838597  1
  O  O70  1  0.50000000  0.00000000  0.97128223  1
  O  O71  1  0.50000000  0.00000000  0.92046078  1
  O  O72  1  0.00000000  0.50000000  0.02774945  1
  O  O73  1  -0.00000000  0.50000000  0.07679574  1
  O  O74  1  -0.00000000  0.50000000  0.13320100  1
  O  O75  1  -0.00000000  0.50000000  0.18234544  1
  O  O76  1  0.00000000  0.50000000  0.23870756  1
  O  O77  1  0.00000000  0.50000000  0.28785200  1
  O  O78  1  0.00000000  0.50000000  0.34425626  1
  O  O79  1  -0.00000000  0.50000000  0.39330355  1
  O  O80  1  -0.00000000  0.50000000  0.44976977  1
  O  O81  1  0.00000000  0.50000000  0.50059222  1
  O  O82  1  -0.00000000  0.50000000  0.55266703  1
  O  O83  1  -0.00000000  0.50000000  0.60529469  1
  O  O84  1  0.00000000  0.50000000  0.65790646  1
  O  O85  1  0.00000000  0.50000000  0.71052600  1
  O  O86  1  -0.00000000  0.50000000  0.76314654  1
  O  O87  1  0.00000000  0.50000000  0.81575731  1
  O  O88  1  0.00000000  0.50000000  0.86838597  1
  O  O89  1  -0.00000000  0.50000000  0.92046078  1
