# generated using pymatgen
data_Li7Mn4CoO12
_symmetry_space_group_name_H-M   'P 1'
_cell_length_a   5.07318956
_cell_length_b   7.63280821
_cell_length_c   5.95104084
_cell_angle_alpha   98.97606930
_cell_angle_beta   104.76506927
_cell_angle_gamma   77.54817380
_symmetry_Int_Tables_number   1
_chemical_formula_structural   Li7Mn4CoO12
_chemical_formula_sum   'Li7 Mn4 Co1 O12'
_cell_volume   216.33928005
_cell_formula_units_Z   1
loop_
 _symmetry_equiv_pos_site_id
 _symmetry_equiv_pos_as_xyz
  1  'x, y, z'
loop_
 _atom_site_type_symbol
 _atom_site_label
 _atom_site_symmetry_multiplicity
 _atom_site_fract_x
 _atom_site_fract_y
 _atom_site_fract_z
 _atom_site_occupancy
  Li  Li0  1  0.50033646  0.16472080  0.17166701  1
  Li  Li1  1  0.50943732  0.16380101  0.66390796  1
  Li  Li2  1  0.49530843  0.49483868  0.49257721  1
  Li  Li3  1  0.50026467  0.49573036  0.99896720  1
  Li  Li4  1  0.50358004  0.84189365  0.83849479  1
  Li  Li5  1  0.49210442  0.84066537  0.33591763  1
  Li  Li6  1  0.99605271  0.00295947  0.49925702  1
  Mn  Mn7  1  0.00124805  0.00111011  0.99915351  1
  Mn  Mn8  1  0.99646879  0.33034663  0.33308002  1
  Mn  Mn9  1  0.00293563  0.66769687  0.66956339  1
  Mn  Mn10  1  0.00273807  0.66909801  0.17374229  1
  Co  Co11  1  0.99735404  0.32576691  0.82315104  1
  O  O12  1  0.22888661  0.09044491  0.84374050  1
  O  O13  1  0.21804406  0.08746217  0.30287524  1
  O  O14  1  0.22294743  0.42671367  0.17030340  1
  O  O15  1  0.23126530  0.42387861  0.68283439  1
  O  O16  1  0.22116427  0.73538465  0.47938141  1
  O  O17  1  0.23468894  0.76247755  0.02023237  1
  O  O18  1  0.76237557  0.26174210  0.49889532  1
  O  O19  1  0.76737976  0.23498132  0.97797123  1
  O  O20  1  0.79082441  0.58262208  0.85744982  1
  O  O21  1  0.76576310  0.57974361  0.31660858  1
  O  O22  1  0.77567672  0.90629391  0.15597255  1
  O  O23  1  0.78315520  0.90962756  0.69425611  1
