# generated using pymatgen
data_Li7Mn4CoO12
_symmetry_space_group_name_H-M   'P 1'
_cell_length_a   5.84411988
_cell_length_b   7.63564182
_cell_length_c   5.97136443
_cell_angle_alpha   110.06746887
_cell_angle_beta   60.80916050
_cell_angle_gamma   101.12516680
_symmetry_Int_Tables_number   1
_chemical_formula_structural   Li7Mn4CoO12
_chemical_formula_sum   'Li7 Mn4 Co1 O12'
_cell_volume   218.39367373
_cell_formula_units_Z   1
loop_
 _symmetry_equiv_pos_site_id
 _symmetry_equiv_pos_as_xyz
  1  'x, y, z'
loop_
 _atom_site_type_symbol
 _atom_site_label
 _atom_site_symmetry_multiplicity
 _atom_site_fract_x
 _atom_site_fract_y
 _atom_site_fract_z
 _atom_site_occupancy
  Li  Li0  1  0.16574939  0.32872129  0.32928347  1
  Li  Li1  1  0.33989593  0.66873062  0.16711213  1
  Li  Li2  1  0.82885934  0.67666080  0.68353862  1
  Li  Li3  1  0.99407510  0.99597160  0.50106337  1
  Li  Li4  1  0.50680151  0.99214133  0.98240279  1
  Li  Li5  1  0.66403053  0.33571581  0.83592238  1
  Li  Li6  1  0.50102976  0.99851605  0.50203849  1
  Mn  Mn7  1  0.99885207  0.99905786  0.00114859  1
  Mn  Mn8  1  0.66770149  0.33103567  0.32780758  1
  Mn  Mn9  1  0.17165792  0.33011387  0.82424350  1
  Mn  Mn10  1  0.33436113  0.66990981  0.66849891  1
  Co  Co11  1  0.82535686  0.67597779  0.18092636  1
  O  O12  1  0.30659156  0.16887735  0.92067496  1
  O  O13  1  0.47410096  0.49778340  0.76101237  1
  O  O14  1  0.99737435  0.48769767  0.20860194  1
  O  O15  1  0.13551732  0.84388058  0.10255332  1
  O  O16  1  0.65588752  0.81626799  0.57990695  1
  O  O17  1  0.83856658  0.16113243  0.37131966  1
  O  O18  1  0.02130763  0.49687396  0.75065666  1
  O  O19  1  0.15771164  0.83929040  0.62850258  1
  O  O20  1  0.68997716  0.83296375  0.08198210  1
  O  O21  1  0.86300507  0.15941023  0.89837788  1
  O  O22  1  0.33373716  0.19221610  0.45105515  1
  O  O23  1  0.52785202  0.50105366  0.24137027  1
