# generated using pymatgen
data_Li6(CoO2)5
_symmetry_space_group_name_H-M   'P 1'
_cell_length_a   5.45564801
_cell_length_b   6.26827057
_cell_length_c   8.24538262
_cell_angle_alpha   100.24080084
_cell_angle_beta   102.58091726
_cell_angle_gamma   67.36978553
_symmetry_Int_Tables_number   1
_chemical_formula_structural   Li6(CoO2)5
_chemical_formula_sum   'Li6 Co5 O10'
_cell_volume   252.62669616
_cell_formula_units_Z   1
loop_
 _symmetry_equiv_pos_site_id
 _symmetry_equiv_pos_as_xyz
  1  'x, y, z'
loop_
 _atom_site_type_symbol
 _atom_site_label
 _atom_site_symmetry_multiplicity
 _atom_site_fract_x
 _atom_site_fract_y
 _atom_site_fract_z
 _atom_site_occupancy
  Li  Li0  1  0.45735785  0.29032384  0.72441680  1
  Li  Li1  1  0.46697188  0.42515001  0.36656237  1
  Li  Li2  1  0.46272555  0.86609950  0.54989916  1
  Li  Li3  1  0.54100215  0.33684249  0.05264044  1
  Li  Li4  1  0.54323008  0.91615111  0.87158262  1
  Li  Li5  1  0.53663798  0.76395391  0.23795954  1
  Co  Co6  1  0.00059813  0.10428052  0.80136392  1
  Co  Co7  1  0.00097019  0.30141607  0.39027559  1
  Co  Co8  1  0.00454471  0.70344113  0.59548478  1
  Co  Co9  1  0.99599202  0.49495426  0.00252890  1
  Co  Co10  1  0.99670902  0.89358528  0.20877065  1
  O  O11  1  0.25505503  0.24844046  0.89265012  1
  O  O12  1  0.24544195  0.00455974  0.34471407  1
  O  O13  1  0.25629082  0.40650553  0.51635207  1
  O  O14  1  0.25359711  0.85557758  0.71162128  1
  O  O15  1  0.25502306  0.60233073  0.15846815  1
  O  O16  1  0.74517592  0.35963778  0.89864832  1
  O  O17  1  0.75399889  0.18847009  0.24946267  1
  O  O18  1  0.73827069  0.58457713  0.43857398  1
  O  O19  1  0.74695173  0.97056625  0.71253244  1
  O  O20  1  0.74346725  0.78312761  0.07550913  1
