# generated using pymatgen
data_Na9Mg9Al(Si2O7)5
_symmetry_space_group_name_H-M   'P 1'
_cell_length_a   25.12591332
_cell_length_b   8.70348228
_cell_length_c   6.49278509
_cell_angle_alpha   90.00000003
_cell_angle_beta   90.00306579
_cell_angle_gamma   30.00444157
_symmetry_Int_Tables_number   1
_chemical_formula_structural   Na9Mg9Al(Si2O7)5
_chemical_formula_sum   'Na9 Mg9 Al1 Si10 O35'
_cell_volume   710.02598566
_cell_formula_units_Z   1
loop_
 _symmetry_equiv_pos_site_id
 _symmetry_equiv_pos_as_xyz
  1  'x, y, z'
loop_
 _atom_site_type_symbol
 _atom_site_label
 _atom_site_symmetry_multiplicity
 _atom_site_fract_x
 _atom_site_fract_y
 _atom_site_fract_z
 _atom_site_occupancy
  Na  Na0  1  0.20024225  0.33178500  0.49968837  1
  Na  Na1  1  0.19555459  0.68570367  0.50044804  1
  Na  Na2  1  0.39975775  0.33299624  0.50031163  1
  Na  Na3  1  0.40444541  0.66347663  0.49955196  1
  Na  Na4  1  0.63331739  0.22245400  0.50035906  1
  Na  Na5  1  0.60463088  0.64699698  0.50116925  1
  Na  Na6  1  0.80000000  0.38826050  0.50000000  1
  Na  Na7  1  0.96668261  0.38904092  0.49964094  1
  Na  Na8  1  0.99536912  0.67015139  0.49883075  1
  Mg  Mg9  1  0.19885597  0.33769000  0.00032823  1
  Mg  Mg10  1  0.20089242  0.66583399  0.00023478  1
  Mg  Mg11  1  0.40114403  0.33196985  0.99967177  1
  Mg  Mg12  1  0.39910758  0.67029610  0.99976522  1
  Mg  Mg13  1  0.59746907  0.34149018  0.00051288  1
  Mg  Mg14  1  0.59977509  0.66630936  0.00097698  1
  Mg  Mg15  1  0.80000000  0.32625524  0.00000000  1
  Mg  Mg16  1  0.00253093  0.32883555  0.99948712  1
  Mg  Mg17  1  0.00022491  0.66518481  0.99902302  1
  Al  Al18  1  0.80000000  0.66595771  0.00000000  1
  Si  Si19  1  0.99398900  0.01538134  0.24429984  1
  Si  Si20  1  0.20026562  -0.00005941  0.24483586  1
  Si  Si21  1  0.40005146  0.00098620  0.24744168  1
  Si  Si22  1  0.19994854  0.00124352  0.75255832  1
  Si  Si23  1  0.60385555  0.99622264  0.24552662  1
  Si  Si24  1  0.39973438  0.00126868  0.75516414  1
  Si  Si25  1  0.80191039  0.98755731  0.24507395  1
  Si  Si26  1  0.60601100  0.98532633  0.75570016  1
  Si  Si27  1  0.79808961  0.99710926  0.75492605  1
  Si  Si28  1  0.99614445  0.01550037  0.75447338  1
  O  O29  1  0.98433622  0.05123281  0.49928763  1
  O  O30  1  0.06392731  0.00185328  0.80772743  1
  O  O31  1  0.07252053  0.31969145  0.81005155  1
  O  O32  1  0.20343061  0.99445779  0.49803974  1
  O  O33  1  0.13612867  0.31928563  0.18635710  1
  O  O34  1  0.26271033  0.00411134  0.81217068  1
  O  O35  1  0.05915080  0.69705680  0.80555793  1
  O  O36  1  0.12216645  0.69697530  0.19395446  1
  O  O37  1  0.27245061  0.31937515  0.81542298  1
  O  O38  1  0.39656939  0.01161086  0.50196026  1
  O  O39  1  0.33728967  0.31766299  0.18782932  1
  O  O40  1  0.13685812  0.99879373  0.18756673  1
  O  O41  1  0.46387133  0.99992900  0.81364290  1
  O  O42  1  0.26435225  0.68162934  0.81064638  1
  O  O43  1  0.32754939  0.68162819  0.18457702  1
  O  O44  1  0.47783355  0.30780755  0.80604554  1
  O  O45  1  0.61566378  0.97291393  0.50071237  1
  O  O46  1  0.53607269  0.32148980  0.19227257  1
  O  O47  1  0.33564775  0.00339060  0.18935362  1
  O  O48  1  0.67059293  0.97954151  0.83340109  1
  O  O49  1  0.46314188  0.68308433  0.81243327  1
  O  O50  1  0.52747947  0.68229412  0.18994845  1
  O  O51  1  0.67076485  0.32161471  0.80848978  1
  O  O52  1  0.80000000  0.97372505  0.50000000  1
  O  O53  1  0.73674744  0.30935425  0.19252412  1
  O  O54  1  0.54084920  0.99281081  0.19444207  1
  O  O55  1  0.86325256  0.99309146  0.80747588  1
  O  O56  1  0.66562626  0.67367272  0.80977524  1
  O  O57  1  0.72956008  0.68399520  0.16778273  1
  O  O58  1  0.87043992  0.33179561  0.83221727  1
  O  O59  1  0.92940707  0.33250615  0.16659891  1
  O  O60  1  0.74110168  0.98048789  0.16754742  1
  O  O61  1  0.85889832  0.68599628  0.83245258  1
  O  O62  1  0.92923515  0.67543896  0.19151022  1
  O  O63  1  0.93437374  0.00180403  0.19022476  1
