# generated using pymatgen
data_Li5Mn2CoO8
_symmetry_space_group_name_H-M   'P 1'
_cell_length_a   5.05617541
_cell_length_b   4.95759671
_cell_length_c   5.76979875
_cell_angle_alpha   90.00000000
_cell_angle_beta   90.00000000
_cell_angle_gamma   108.94141962
_symmetry_Int_Tables_number   1
_chemical_formula_structural   Li5Mn2CoO8
_chemical_formula_sum   'Li5 Mn2 Co1 O8'
_cell_volume   136.79703865
_cell_formula_units_Z   1
loop_
 _symmetry_equiv_pos_site_id
 _symmetry_equiv_pos_as_xyz
  1  'x, y, z'
loop_
 _atom_site_type_symbol
 _atom_site_label
 _atom_site_symmetry_multiplicity
 _atom_site_fract_x
 _atom_site_fract_y
 _atom_site_fract_z
 _atom_site_occupancy
  Li  Li0  1  0.50000000  0.50000000  0.00695988  1
  Li  Li1  1  0.50000000  0.00000000  0.25000000  1
  Li  Li2  1  0.50000000  0.50000000  0.49304012  1
  Li  Li3  1  0.50000000  0.00000000  0.75000000  1
  Li  Li4  1  0.00000000  0.50000000  0.25000000  1
  Mn  Mn5  1  0.00000000  0.00000000  0.00333837  1
  Mn  Mn6  1  0.00000000  0.00000000  0.49666163  1
  Co  Co7  1  0.00000000  0.50000000  0.75000000  1
  O  O8  1  0.22297963  0.75288462  0.98707941  1
  O  O9  1  0.22845646  0.21823261  0.25000000  1
  O  O10  1  0.22297963  0.75288462  0.51292059  1
  O  O11  1  0.21914504  0.24211066  0.75000000  1
  O  O12  1  0.77702037  0.24711538  0.98707941  1
  O  O13  1  0.77154354  0.78176739  0.25000000  1
  O  O14  1  0.77702037  0.24711538  0.51292059  1
  O  O15  1  0.78085496  0.75788934  0.75000000  1
