# generated using pymatgen
data_Li4Mn3O7
_symmetry_space_group_name_H-M   'P 1'
_cell_length_a   3.00033190
_cell_length_b   17.50808875
_cell_length_c   5.10303996
_cell_angle_alpha   94.78701453
_cell_angle_beta   76.91421371
_cell_angle_gamma   92.62487928
_symmetry_Int_Tables_number   1
_chemical_formula_structural   Li4Mn3O7
_chemical_formula_sum   'Li8 Mn6 O14'
_cell_volume   260.09133033
_cell_formula_units_Z   2
loop_
 _symmetry_equiv_pos_site_id
 _symmetry_equiv_pos_as_xyz
  1  'x, y, z'
loop_
 _atom_site_type_symbol
 _atom_site_label
 _atom_site_symmetry_multiplicity
 _atom_site_fract_x
 _atom_site_fract_y
 _atom_site_fract_z
 _atom_site_occupancy
  Li  Li0  1  0.69950758  0.07153148  0.58415999  1
  Li  Li1  1  0.14394081  0.21394911  0.71314804  1
  Li  Li2  1  0.57142900  0.35714300  0.85714300  1
  Li  Li3  1  0.99891619  0.50033689  0.00113796  1
  Li  Li4  1  0.44334942  0.64275452  0.13012601  1
  Li  Li5  1  0.82847411  0.79499475  0.29751157  1
  Li  Li6  1  0.31438289  0.91929025  0.41677343  1
  Li  Li7  1  0.57142900  0.85714300  0.85714300  1
  Mn  Mn8  1  0.00394557  0.99447619  0.99957947  1
  Mn  Mn9  1  0.13891143  0.71980981  0.71470653  1
  Mn  Mn10  1  0.44204553  0.14135091  0.13501625  1
  Mn  Mn11  1  0.85824151  0.28507490  0.28496665  1
  Mn  Mn12  1  0.28461549  0.42921010  0.42931835  1
  Mn  Mn13  1  0.70081147  0.57293509  0.57926975  1
  O  O14  1  0.40753449  0.03537255  0.24697272  1
  O  O15  1  0.76348814  0.18074161  0.41336411  1
  O  O16  1  0.18584720  0.32523737  0.55890041  1
  O  O17  1  0.61425739  0.46845518  0.70324699  1
  O  O18  1  0.04120075  0.61171720  0.84502840  1
  O  O19  1  0.55050992  0.74501027  0.95515298  1
  O  O20  1  0.92196037  0.90211422  0.14534224  1
  O  O21  1  0.10165625  0.10256880  0.86925760  1
  O  O22  1  0.52859961  0.24582982  0.01103801  1
  O  O23  1  0.95700980  0.38904763  0.15538459  1
  O  O24  1  0.37936886  0.53354439  0.30092189  1
  O  O25  1  0.73532251  0.67891345  0.46731328  1
  O  O26  1  0.22089763  0.81217178  0.56894376  1
  O  O27  1  0.59234708  0.96927573  0.75913302  1
