# generated using pymatgen
data_Li4Mn3O7
_symmetry_space_group_name_H-M   'P 1'
_cell_length_a   2.87991549
_cell_length_b   5.85905435
_cell_length_c   15.56012806
_cell_angle_alpha   85.37662849
_cell_angle_beta   84.69017150
_cell_angle_gamma   90.00000499
_symmetry_Int_Tables_number   1
_chemical_formula_structural   Li4Mn3O7
_chemical_formula_sum   'Li8 Mn6 O14'
_cell_volume   260.57039391
_cell_formula_units_Z   2
loop_
 _symmetry_equiv_pos_site_id
 _symmetry_equiv_pos_as_xyz
  1  'x, y, z'
loop_
 _atom_site_type_symbol
 _atom_site_label
 _atom_site_symmetry_multiplicity
 _atom_site_fract_x
 _atom_site_fract_y
 _atom_site_fract_z
 _atom_site_occupancy
  Li  Li0  1  0.42857100  0.21428600  0.14285700  1
  Li  Li1  1  0.28972109  0.64558027  0.42055682  1
  Li  Li2  1  0.14347490  0.07140975  0.71305020  1
  Li  Li3  1  0.86404179  0.92568050  0.27191642  1
  Li  Li4  1  0.71366810  0.35716225  0.57266480  1
  Li  Li5  1  0.56742191  0.78299073  0.86515718  1
  Li  Li6  1  0.99310121  0.50289050  0.01379758  1
  Li  Li7  1  0.42857100  0.71428600  0.14285700  1
  Mn  Mn8  1  0.99358031  0.99265990  0.01283938  1
  Mn  Mn9  1  0.86356269  0.43591110  0.27287462  1
  Mn  Mn10  1  0.71565930  0.85867108  0.56868239  1
  Mn  Mn11  1  0.56732896  0.28238470  0.86534307  1
  Mn  Mn12  1  0.28981404  0.14618630  0.42037093  1
  Mn  Mn13  1  0.14148370  0.56990092  0.71703261  1
  O  O14  1  0.49671263  0.22313922  0.00657475  1
  O  O15  1  0.35768315  0.65412156  0.28463369  1
  O  O16  1  0.21400742  0.08774886  0.57198515  1
  O  O17  1  0.93515533  0.96451327  0.12969034  1
  O  O18  1  0.79207715  0.37658412  0.41584470  1
  O  O19  1  0.64064703  0.79849679  0.71870495  1
  O  O20  1  0.06863673  0.51015379  0.86272754  1
  O  O21  1  0.36043037  0.20543278  0.27914025  1
  O  O22  1  0.21649597  0.63007421  0.56700905  1
  O  O23  1  0.06506485  0.05198788  0.86986930  1
  O  O24  1  0.78850627  0.91841821  0.42298746  1
  O  O25  1  0.64313558  0.34082214  0.71372885  1
  O  O26  1  0.49945985  0.77444944  0.00108031  1
  O  O27  1  0.92198767  0.46405773  0.15602366  1
