# generated using pymatgen
data_Na3Ni2P2(CO7)2
_symmetry_space_group_name_H-M   'P 1'
_cell_length_a   9.03867119
_cell_length_b   8.25132180
_cell_length_c   8.29416692
_cell_angle_alpha   77.67669699
_cell_angle_beta   89.88308870
_cell_angle_gamma   91.59613649
_symmetry_Int_Tables_number   1
_chemical_formula_structural   Na3Ni2P2(CO7)2
_chemical_formula_sum   'Na6 Ni4 P4 C4 O28'
_cell_volume   604.07949775
_cell_formula_units_Z   2
loop_
 _symmetry_equiv_pos_site_id
 _symmetry_equiv_pos_as_xyz
  1  'x, y, z'
loop_
 _atom_site_type_symbol
 _atom_site_label
 _atom_site_symmetry_multiplicity
 _atom_site_fract_x
 _atom_site_fract_y
 _atom_site_fract_z
 _atom_site_occupancy
  Na  Na0  1  0.75732833  0.11994419  0.88455321  1
  Na  Na1  1  0.74126435  0.59906145  0.35591516  1
  Na  Na2  1  0.74923233  0.88189608  0.63276142  1
  Na  Na3  1  0.25076767  0.61810392  0.86723858  1
  Na  Na4  1  0.24267167  0.38005581  0.61544679  1
  Na  Na5  1  0.25873565  0.90093855  0.14408484  1
  Ni  Ni6  1  0.65066713  0.02114488  0.23515624  1
  Ni  Ni7  1  0.65251535  0.51750605  0.73551853  1
  Ni  Ni8  1  0.34748465  0.98249395  0.76448147  1
  Ni  Ni9  1  0.34933287  0.47885512  0.26484376  1
  P  P10  1  0.57231352  0.22971951  0.52080951  1
  P  P11  1  0.57160653  0.73792084  0.01554790  1
  P  P12  1  0.42768648  0.27028049  0.97919049  1
  P  P13  1  0.42839347  0.76207916  0.48445210  1
  C  C14  1  0.92293482  0.48675553  0.76699346  1
  C  C15  1  0.92282921  0.97982889  0.26776503  1
  C  C16  1  0.07706518  0.01324447  0.73300654  1
  C  C17  1  0.07717079  0.52017111  0.23223497  1
  O  O18  1  0.94024922  0.03391554  0.72218970  1
  O  O19  1  0.94092130  0.54275403  0.21311884  1
  O  O20  1  0.86290866  0.60255627  0.65669780  1
  O  O21  1  0.86855435  0.09670776  0.15656185  1
  O  O22  1  0.82595541  0.39457977  0.86303138  1
  O  O23  1  0.82428353  0.88548565  0.36076541  1
  O  O24  1  0.66253029  0.68669878  0.87785287  1
  O  O25  1  0.67227986  0.16282465  0.39983778  1
  O  O26  1  0.67506440  0.36106881  0.57722782  1
  O  O27  1  0.67259152  0.86997193  0.07240672  1
  O  O28  1  0.57253273  0.19746453  0.05406370  1
  O  O29  1  0.57962264  0.69031162  0.54861659  1
  O  O30  1  0.53866984  0.08507531  0.67408961  1
  O  O31  1  0.53681078  0.59122944  0.16406482  1
  O  O32  1  0.46133016  0.41492469  0.82591039  1
  O  O33  1  0.46318922  0.90877056  0.33593518  1
  O  O34  1  0.42037736  0.80968838  0.95138341  1
  O  O35  1  0.42746727  0.30253547  0.44593630  1
  O  O36  1  0.32493560  0.13893119  0.92277218  1
  O  O37  1  0.33746971  0.81330122  0.62214713  1
  O  O38  1  0.32772014  0.33717535  0.10016222  1
  O  O39  1  0.32740848  0.63002807  0.42759328  1
  O  O40  1  0.17404459  0.10542023  0.63696862  1
  O  O41  1  0.17571647  0.61451435  0.13923459  1
  O  O42  1  0.13144565  0.40329224  0.34343815  1
  O  O43  1  0.13709134  0.89744373  0.84330220  1
  O  O44  1  0.05975078  0.46608446  0.77781030  1
  O  O45  1  0.05907870  0.95724597  0.28688116  1
