# generated using pymatgen
data_LiVF6
_symmetry_space_group_name_H-M   'P 1'
_cell_length_a   8.66172396
_cell_length_b   8.66172446
_cell_length_c   10.08801996
_cell_angle_alpha   84.98863658
_cell_angle_beta   95.01136188
_cell_angle_gamma   117.81395943
_symmetry_Int_Tables_number   1
_chemical_formula_structural   LiVF6
_chemical_formula_sum   'Li6 V6 F36'
_cell_volume   665.92449931
_cell_formula_units_Z   6
loop_
 _symmetry_equiv_pos_site_id
 _symmetry_equiv_pos_as_xyz
  1  'x, y, z'
loop_
 _atom_site_type_symbol
 _atom_site_label
 _atom_site_symmetry_multiplicity
 _atom_site_fract_x
 _atom_site_fract_y
 _atom_site_fract_z
 _atom_site_occupancy
  Li  Li0  1  0.34055997  0.34585104  0.52007001  1
  Li  Li1  1  0.65414896  0.65944003  0.02007001  1
  Li  Li2  1  0.41760467  0.08115049  0.03992449  1
  Li  Li3  1  0.91884951  0.58239533  0.53992449  1
  Li  Li4  1  0.63952382  0.03717681  0.56308134  1
  Li  Li5  1  0.96282319  0.36047618  0.06308134  1
  V  V6  1  0.00748843  0.00189073  0.49936280  1
  V  V7  1  0.33249110  0.65934461  0.71807098  1
  V  V8  1  0.99810927  0.99251157  0.99936280  1
  V  V9  1  0.34065539  0.66750890  0.21807098  1
  V  V10  1  0.66449389  0.33785810  0.79199382  1
  V  V11  1  0.66214190  0.33550611  0.29199382  1
  F  F12  1  0.06673384  0.91984324  0.65338951  1
  F  F13  1  0.08015676  0.93326616  0.15338951  1
  F  F14  1  0.12283398  0.58983338  0.62025244  1
  F  F15  1  0.13137081  0.57899301  0.11618461  1
  F  F16  1  0.25817411  0.74994766  0.83267063  1
  F  F17  1  0.25005234  0.74182589  0.33267063  1
  F  F18  1  0.08598579  0.22007347  0.56219743  1
  F  F19  1  0.42100699  0.86862919  0.61618461  1
  F  F20  1  0.25230534  0.45345830  0.80693225  1
  F  F21  1  0.05924831  0.20742782  0.06304217  1
  F  F22  1  0.41016662  0.87716602  0.12025244  1
  F  F23  1  0.26600307  0.45565302  0.30493709  1
  F  F24  1  0.40239049  0.56911189  0.58807789  1
  F  F25  1  0.21679167  0.06465377  0.93853013  1
  F  F26  1  0.54434698  0.73399693  0.80493709  1
  F  F27  1  0.43088811  0.59760951  0.08807789  1
  F  F28  1  0.22903979  0.09094119  0.44433529  1
  F  F29  1  0.54654170  0.74769466  0.30693225  1
  F  F30  1  0.46018254  0.27155561  0.69561873  1
  F  F31  1  0.79257218  0.94075169  0.56304217  1
  F  F32  1  0.59114290  0.42459182  0.91643066  1
  F  F33  1  0.45590549  0.23971551  0.19570566  1
  F  F34  1  0.77992653  0.91401421  0.06219743  1
  F  F35  1  0.57540818  0.40885710  0.41643066  1
  F  F36  1  0.76028449  0.54409451  0.69570566  1
  F  F37  1  0.57722131  0.12915875  0.88724698  1
  F  F38  1  0.90905881  0.77096021  0.94433529  1
  F  F39  1  0.72844439  0.53981746  0.19561873  1
  F  F40  1  0.59765625  0.12848626  0.38766233  1
  F  F41  1  0.93534623  0.78320833  0.43853013  1
  F  F42  1  0.73802976  0.24713272  0.66768712  1
  F  F43  1  0.75286728  0.26197024  0.16768712  1
  F  F44  1  0.87151374  0.40234375  0.88766233  1
  F  F45  1  0.87084125  0.42277869  0.38724698  1
  F  F46  1  0.93706170  0.06824483  0.84348564  1
  F  F47  1  0.93175517  0.06293830  0.34348564  1
