# generated using pymatgen
data_Li5V3P8O29
_symmetry_space_group_name_H-M   'P 1'
_cell_length_a   9.80871922
_cell_length_b   9.83739658
_cell_length_c   13.96339089
_cell_angle_alpha   90.03734351
_cell_angle_beta   90.29421510
_cell_angle_gamma   59.92956734
_symmetry_Int_Tables_number   1
_chemical_formula_structural   Li5V3P8O29
_chemical_formula_sum   'Li10 V6 P16 O58'
_cell_volume   1165.99998829
_cell_formula_units_Z   2
loop_
 _symmetry_equiv_pos_site_id
 _symmetry_equiv_pos_as_xyz
  1  'x, y, z'
loop_
 _atom_site_type_symbol
 _atom_site_label
 _atom_site_symmetry_multiplicity
 _atom_site_fract_x
 _atom_site_fract_y
 _atom_site_fract_z
 _atom_site_occupancy
  Li  Li0  1  0.77093985  0.90547314  0.55946532  1
  Li  Li1  1  0.67092279  0.66608217  0.88441587  1
  Li  Li2  1  0.77375920  0.31693183  0.06041336  1
  Li  Li3  1  0.31197884  0.91368712  0.06105721  1
  Li  Li4  1  0.68363188  0.22671535  0.43957460  1
  Li  Li5  1  0.32327957  0.77256715  0.56008956  1
  Li  Li6  1  0.68155674  0.09131922  0.94041253  1
  Li  Li7  1  0.22595692  0.67631165  0.94177579  1
  Li  Li8  1  0.09552979  0.67551138  0.43867693  1
  Li  Li9  1  0.22620869  0.09794135  0.44042547  1
  V  V10  1  0.56775973  0.43167052  0.25171516  1
  V  V11  1  0.43109056  0.56767255  0.74746170  1
  V  V12  1  0.56898999  0.99980594  0.74987712  1
  V  V13  1  0.43215564  0.00219509  0.24811285  1
  V  V14  1  0.99881926  0.56573584  0.24607732  1
  V  V15  1  0.00377113  0.42531371  0.74984048  1
  P  P16  1  0.91423391  0.76797739  0.84239511  1
  P  P17  1  0.76981788  0.90992730  0.34051839  1
  P  P18  1  0.91629940  0.31622836  0.34339332  1
  P  P19  1  0.66534541  0.66516154  0.12698020  1
  P  P20  1  0.66896082  0.66659760  0.62713766  1
  P  P21  1  0.77076697  0.31973057  0.84064672  1
  P  P22  1  0.68192773  0.23133072  0.65650957  1
  P  P23  1  0.32100766  0.90843232  0.84387892  1
  P  P24  1  0.68178132  0.08716726  0.15709679  1
  P  P25  1  0.32027823  0.76970772  0.34123971  1
  P  P26  1  0.23083079  0.67962494  0.15931076  1
  P  P27  1  0.33175614  0.33418279  0.37342018  1
  P  P28  1  0.33327606  0.33567120  0.87370002  1
  P  P29  1  0.08373885  0.68158014  0.65703603  1
  P  P30  1  0.23136471  0.08628729  0.66032304  1
  P  P31  1  0.08290693  0.23128102  0.15642708  1
  O  O32  1  0.99767325  0.75602174  0.56561120  1
  O  O33  1  0.91973168  0.74373224  0.33798240  1
  O  O34  1  0.75259809  0.00604157  0.06591018  1
  O  O35  1  0.74495495  0.91582841  0.84091773  1
  O  O36  1  0.89429679  0.62222285  0.82715718  1
  O  O37  1  0.81481069  0.66482943  0.17243522  1
  O  O38  1  0.90774203  0.47617989  0.32266587  1
  O  O39  1  0.99046331  0.24534881  0.06934419  1
  O  O40  1  0.91878893  0.33830204  0.83575464  1
  O  O41  1  0.67364526  0.81539511  0.66721167  1
  O  O42  1  0.62256405  0.89743208  0.32335853  1
  O  O43  1  0.81618754  0.52052324  0.67577477  1
  O  O44  1  0.66970307  0.66383868  0.01955093  1
  O  O45  1  0.67134727  0.66670154  0.52075582  1
  O  O46  1  0.67183291  0.51266429  0.16514430  1
  O  O47  1  0.48700717  0.88617572  0.82591925  1
  O  O48  1  0.51334354  0.81503289  0.16351985  1
  O  O49  1  0.74762140  0.33898357  0.34084403  1
  O  O50  1  0.78921347  0.21126354  0.74975376  1
  O  O51  1  0.75431511  0.24002991  0.56583825  1
  O  O52  1  0.76126536  0.24076314  0.92995059  1
  O  O53  1  0.62657000  0.48600091  0.82620194  1
  O  O54  1  0.51458136  0.67188507  0.66541630  1
  O  O55  1  0.66189703  0.25411288  0.16184031  1
  O  O56  1  0.48042193  0.62174079  0.32358724  1
  O  O57  1  0.33641770  0.91877182  0.33876494  1
  O  O58  1  0.79091494  0.99918846  0.24931749  1
  O  O59  1  0.76438734  0.99625168  0.43060370  1
  O  O60  1  0.24010263  0.00105632  0.56970086  1
  O  O61  1  0.66307806  0.08379683  0.66118992  1
  O  O62  1  0.52224649  0.38303423  0.67808262  1
  O  O63  1  0.33845987  0.74137906  0.83771054  1
  O  O64  1  0.48600338  0.32712080  0.33366766  1
  O  O65  1  0.38124910  0.52094230  0.17604067  1
  O  O66  1  0.23805174  0.75883682  0.06948288  1
  O  O67  1  0.24169295  0.76061417  0.43124785  1
  O  O68  1  0.20904633  0.79138875  0.25002964  1
  O  O69  1  0.24896489  0.66567728  0.65804590  1
  O  O70  1  0.48350960  0.18715856  0.83371220  1
  O  O71  1  0.52059284  0.09711874  0.17757226  1
  O  O72  1  0.32742156  0.48743946  0.83311959  1
  O  O73  1  0.32679672  0.33706616  0.97994436  1
  O  O74  1  0.32752873  0.34179161  0.48018325  1
  O  O75  1  0.18268323  0.48720624  0.32966953  1
  O  O76  1  0.38278596  0.09471593  0.67760777  1
  O  O77  1  0.32546517  0.18803780  0.33383006  1
  O  O78  1  0.08532794  0.65777999  0.16552038  1
  O  O79  1  0.99227488  0.79228558  0.74611036  1
  O  O80  1  0.00770822  0.76221315  0.92723066  1
  O  O81  1  0.09267269  0.52336470  0.67790133  1
  O  O82  1  0.18283866  0.33842725  0.82485955  1
  O  O83  1  0.09447165  0.38241230  0.17667555  1
  O  O84  1  0.25019529  0.08574672  0.15838060  1
  O  O85  1  0.24472627  0.98998349  0.93395802  1
  O  O86  1  0.21235794  0.99720905  0.75121503  1
  O  O87  1  0.08588400  0.25362795  0.66482229  1
  O  O88  1  0.00715107  0.23428588  0.43014599  1
  O  O89  1  0.99930557  0.21008640  0.24974663  1
