# generated using pymatgen
data_Na3Ni2P2(CO7)2
_symmetry_space_group_name_H-M   'P 1'
_cell_length_a   10.22145441
_cell_length_b   10.44053488
_cell_length_c   8.31824573
_cell_angle_alpha   108.76334984
_cell_angle_beta   72.38719389
_cell_angle_gamma   60.13412840
_symmetry_Int_Tables_number   1
_chemical_formula_structural   Na3Ni2P2(CO7)2
_chemical_formula_sum   'Na6 Ni4 P4 C4 O28'
_cell_volume   602.11393939
_cell_formula_units_Z   2
loop_
 _symmetry_equiv_pos_site_id
 _symmetry_equiv_pos_as_xyz
  1  'x, y, z'
loop_
 _atom_site_type_symbol
 _atom_site_label
 _atom_site_symmetry_multiplicity
 _atom_site_fract_x
 _atom_site_fract_y
 _atom_site_fract_z
 _atom_site_occupancy
  Na  Na0  1  0.76024669  0.98163771  0.45994933  1
  Na  Na1  1  0.52860629  0.73137771  0.95914739  1
  Na  Na2  1  0.49263863  0.25546420  0.01293219  1
  Na  Na3  1  0.24861179  0.50361965  0.49893216  1
  Na  Na4  1  0.00343277  0.24232641  0.99913145  1
  Na  Na5  1  0.24652371  0.00780325  0.51110148  1
  Ni  Ni6  1  0.84157775  0.81103448  0.75429716  1
  Ni  Ni7  1  0.65767969  0.69073378  0.25420347  1
  Ni  Ni8  1  0.33876105  0.31479243  0.75550487  1
  Ni  Ni9  1  0.15141422  0.19332922  0.25610919  1
  P  P10  1  0.47760107  0.94977358  0.75178184  1
  P  P11  1  0.97960487  0.44476930  0.75213980  1
  P  P12  1  0.01989419  0.55231118  0.25400946  1
  P  P13  1  0.51809756  0.05756532  0.25077831  1
  C  C14  1  0.94830141  0.97898562  0.74547101  1
  C  C15  1  0.55076669  0.52285179  0.25276771  1
  C  C16  1  0.44611903  0.48059844  0.75028838  1
  C  C17  1  0.05984058  0.01284760  0.24336768  1
  O  O18  1  0.01008052  0.92546227  0.24671136  1
  O  O19  1  0.68976003  0.98638152  0.06193821  1
  O  O20  1  0.98383180  0.58738243  0.74373499  1
  O  O21  1  0.85236250  0.68506627  0.25807519  1
  O  O22  1  0.64092988  0.82182779  0.75673141  1
  O  O23  1  0.51909034  0.90706001  0.24375364  1
  O  O24  1  0.48173811  0.84982907  0.56466591  1
  O  O25  1  0.79853361  0.52768719  0.94010511  1
  O  O26  1  0.99459933  0.32638820  0.56481206  1
  O  O27  1  0.20446913  0.96967733  0.24287857  1
  O  O28  1  0.69481285  0.47665341  0.25162397  1
  O  O29  1  0.46694605  0.66696467  0.25475173  1
  O  O30  1  0.97409112  0.15420839  0.24249240  1
  O  O31  1  0.49838208  0.56621036  0.74828941  1
  O  O32  1  0.49800816  0.43659673  0.25155549  1
  O  O33  1  0.03257610  0.83661033  0.74448093  1
  O  O34  1  0.52936890  0.33868304  0.75284815  1
  O  O35  1  0.30261649  0.52551390  0.75020143  1
  O  O36  1  0.80439189  0.02338552  0.74447230  1
  O  O37  1  0.01468691  0.65738018  0.44005478  1
  O  O38  1  0.20241924  0.46834920  0.06694711  1
  O  O39  1  0.51084120  0.16093815  0.43958646  1
  O  O40  1  0.48428263  0.09500622  0.75188443  1
  O  O41  1  0.34639839  0.19320361  0.25941480  1
  O  O42  1  0.14339166  0.31574898  0.75794085  1
  O  O43  1  0.01734140  0.40524491  0.25002071  1
  O  O44  1  0.29621735  0.03292353  0.93976896  1
  O  O45  1  0.99795935  0.06795209  0.74865776  1
