# generated using pymatgen
data_Na3(CoO2)2
_symmetry_space_group_name_H-M   'P 1'
_cell_length_a   5.63940157
_cell_length_b   10.09227163
_cell_length_c   8.60423663
_cell_angle_alpha   90.00000000
_cell_angle_beta   90.00000000
_cell_angle_gamma   90.00000000
_symmetry_Int_Tables_number   1
_chemical_formula_structural   Na3(CoO2)2
_chemical_formula_sum   'Na12 Co8 O16'
_cell_volume   489.70472842
_cell_formula_units_Z   4
loop_
 _symmetry_equiv_pos_site_id
 _symmetry_equiv_pos_as_xyz
  1  'x, y, z'
loop_
 _atom_site_type_symbol
 _atom_site_label
 _atom_site_symmetry_multiplicity
 _atom_site_fract_x
 _atom_site_fract_y
 _atom_site_fract_z
 _atom_site_occupancy
  Na  Na0  1  0.03905889  0.10093952  0.14614832  1
  Na  Na1  1  0.03905889  0.39906048  0.14614832  1
  Na  Na2  1  0.13736597  0.25000000  0.82207006  1
  Na  Na3  1  0.36263403  0.75000000  0.32207006  1
  Na  Na4  1  0.46094111  0.89906048  0.64614832  1
  Na  Na5  1  0.46094111  0.60093952  0.64614832  1
  Na  Na6  1  0.53905889  0.10093952  0.35385168  1
  Na  Na7  1  0.53905889  0.39906048  0.35385168  1
  Na  Na8  1  0.63736597  0.25000000  0.67792994  1
  Na  Na9  1  0.86263403  0.75000000  0.17792994  1
  Na  Na10  1  0.96094111  0.60093952  0.85385168  1
  Na  Na11  1  0.96094111  0.89906048  0.85385168  1
  Co  Co12  1  0.04429406  0.11947199  0.48689592  1
  Co  Co13  1  0.04429406  0.38052801  0.48689592  1
  Co  Co14  1  0.45570594  0.88052801  0.98689592  1
  Co  Co15  1  0.45570594  0.61947199  0.98689592  1
  Co  Co16  1  0.54429406  0.11947199  0.01310408  1
  Co  Co17  1  0.54429406  0.38052801  0.01310408  1
  Co  Co18  1  0.95570594  0.61947199  0.51310408  1
  Co  Co19  1  0.95570594  0.88052801  0.51310408  1
  O  O20  1  0.12552406  0.75000000  0.63631820  1
  O  O21  1  0.20361571  0.53221239  0.39917224  1
  O  O22  1  0.20361571  0.96778761  0.39917224  1
  O  O23  1  0.22829221  0.75000000  0.05693836  1
  O  O24  1  0.27170779  0.25000000  0.55693836  1
  O  O25  1  0.29638429  0.03221239  0.89917224  1
  O  O26  1  0.29638429  0.46778761  0.89917224  1
  O  O27  1  0.37447594  0.25000000  0.13631820  1
  O  O28  1  0.62552406  0.75000000  0.86368180  1
  O  O29  1  0.70361571  0.53221239  0.10082776  1
  O  O30  1  0.70361571  0.96778761  0.10082776  1
  O  O31  1  0.72829221  0.75000000  0.44306164  1
  O  O32  1  0.77170779  0.25000000  0.94306164  1
  O  O33  1  0.79638429  0.03221239  0.60082776  1
  O  O34  1  0.79638429  0.46778761  0.60082776  1
  O  O35  1  0.87447594  0.25000000  0.36368180  1
