# generated using pymatgen
data_Li7Mn4CoO12
_symmetry_space_group_name_H-M   'P 1'
_cell_length_a   5.21962672
_cell_length_b   8.59363600
_cell_length_c   5.26114817
_cell_angle_alpha   90.00000000
_cell_angle_beta   67.46295424
_cell_angle_gamma   90.00000000
_symmetry_Int_Tables_number   1
_chemical_formula_structural   Li7Mn4CoO12
_chemical_formula_sum   'Li7 Mn4 Co1 O12'
_cell_volume   217.96956644
_cell_formula_units_Z   1
loop_
 _symmetry_equiv_pos_site_id
 _symmetry_equiv_pos_as_xyz
  1  'x, y, z'
loop_
 _atom_site_type_symbol
 _atom_site_label
 _atom_site_symmetry_multiplicity
 _atom_site_fract_x
 _atom_site_fract_y
 _atom_site_fract_z
 _atom_site_occupancy
  Li  Li0  1  0.50000000  0.16461322  0.00000000  1
  Li  Li1  1  0.50000000  0.33121818  0.50000000  1
  Li  Li2  1  0.50000000  0.49902341  0.00000000  1
  Li  Li3  1  0.50000000  0.66363998  0.50000000  1
  Li  Li4  1  0.50000000  0.83601098  0.00000000  1
  Li  Li5  1  0.50000000  0.00525501  0.50000000  1
  Li  Li6  1  -0.00000000  0.16844841  0.50000000  1
  Mn  Mn7  1  -0.00000000  0.00160924  0.00000000  1
  Mn  Mn8  1  -0.00000000  0.33324155  0.00000000  1
  Mn  Mn9  1  -0.00000000  0.66553680  0.00000000  1
  Mn  Mn10  1  -0.00000000  0.83523757  0.50000000  1
  Co  Co11  1  -0.00000000  0.49760467  0.50000000  1
  O  O12  1  0.23556787  0.16719784  0.78028372  1
  O  O13  1  0.20862419  0.34237233  0.24380814  1
  O  O14  1  0.23560822  0.49733017  0.77479728  1
  O  O15  1  0.22887773  0.66381896  0.27724978  1
  O  O16  1  0.23658901  0.83560769  0.77588845  1
  O  O17  1  0.21239500  0.99295350  0.23867816  1
  O  O18  1  0.76443213  0.16719784  0.21971628  1
  O  O19  1  0.79137581  0.34237233  0.75619186  1
  O  O20  1  0.76439178  0.49733017  0.22520272  1
  O  O21  1  0.77112227  0.66381896  0.72275022  1
  O  O22  1  0.76341099  0.83560769  0.22411155  1
  O  O23  1  0.78760500  0.99295350  0.76132184  1
