# generated using pymatgen
data_Li5(CoO2)8
_symmetry_space_group_name_H-M   'P 1'
_cell_length_a   2.89094574
_cell_length_b   9.91239637
_cell_length_c   10.98796043
_cell_angle_alpha   66.34025363
_cell_angle_beta   91.16894397
_cell_angle_gamma   90.01784277
_symmetry_Int_Tables_number   1
_chemical_formula_structural   Li5(CoO2)8
_chemical_formula_sum   'Li5 Co8 O16'
_cell_volume   288.33576619
_cell_formula_units_Z   1
loop_
 _symmetry_equiv_pos_site_id
 _symmetry_equiv_pos_as_xyz
  1  'x, y, z'
loop_
 _atom_site_type_symbol
 _atom_site_label
 _atom_site_symmetry_multiplicity
 _atom_site_fract_x
 _atom_site_fract_y
 _atom_site_fract_z
 _atom_site_occupancy
  Li  Li0  1  0.77045660  0.17049058  0.24971896  1
  Li  Li1  1  0.50228444  0.51481707  0.25135587  1
  Li  Li2  1  0.96719265  0.22451662  0.74838892  1
  Li  Li3  1  0.04827045  0.79617118  0.25250606  1
  Li  Li4  1  0.97302197  0.72609623  0.75109155  1
  Co  Co5  1  -0.00299553  0.00277089  0.99796955  1
  Co  Co6  1  0.48966043  0.25003629  0.99444249  1
  Co  Co7  1  0.76177803  0.12108775  0.50915185  1
  Co  Co8  1  0.99782791  0.49056762  0.00088463  1
  Co  Co9  1  0.26384293  0.37935870  0.49574437  1
  Co  Co10  1  0.49990064  0.74626025  0.00473155  1
  Co  Co11  1  0.74310999  0.61992033  0.50804351  1
  Co  Co12  1  0.25405904  0.87637496  0.49291011  1
  O  O13  1  0.99617340  0.12636359  0.09570583  1
  O  O14  1  0.25862659  0.08709248  0.39600205  1
  O  O15  1  0.49933525  0.35712680  0.10625326  1
  O  O16  1  0.26202721  0.17414150  0.60335490  1
  O  O17  1  0.75653733  0.34203333  0.39820458  1
  O  O18  1  0.01447933  0.62039394  0.10611717  1
  O  O19  1  0.48634682  0.13820863  0.88846633  1
  O  O20  1  0.77489870  0.41449159  0.59617020  1
  O  O21  1  0.28006318  0.59071212  0.39242670  1
  O  O22  1  0.22642679  0.66848590  0.60181653  1
  O  O23  1  0.98298853  0.36970669  0.90090127  1
  O  O24  1  0.50550502  0.85779490  0.10858069  1
  O  O25  1  0.49767338  0.63872238  0.89807935  1
  O  O26  1  0.74256368  0.83170209  0.39763604  1
  O  O27  1  0.76314555  0.90854731  0.59361122  1
  O  O28  1  0.98424771  0.86443230  0.90973645  1
