# generated using pymatgen
data_Na5Co2P(CO4)4
_symmetry_space_group_name_H-M   'P 1'
_cell_length_a   9.94579460
_cell_length_b   9.94112555
_cell_length_c   9.94579460
_cell_angle_alpha   59.60690656
_cell_angle_beta   90.65230162
_cell_angle_gamma   120.39309344
_symmetry_Int_Tables_number   1
_chemical_formula_structural   Na5Co2P(CO4)4
_chemical_formula_sum   'Na10 Co4 P2 C8 O32'
_cell_volume   690.99715315
_cell_formula_units_Z   2
loop_
 _symmetry_equiv_pos_site_id
 _symmetry_equiv_pos_as_xyz
  1  'x, y, z'
loop_
 _atom_site_type_symbol
 _atom_site_label
 _atom_site_symmetry_multiplicity
 _atom_site_fract_x
 _atom_site_fract_y
 _atom_site_fract_z
 _atom_site_occupancy
  Na  Na0  1  0.67399694  0.32424316  0.09434814  1
  Na  Na1  1  0.34805981  0.26671495  0.32707905  1
  Na  Na2  1  0.90565186  0.82424316  0.32600306  1
  Na  Na3  1  0.90620600  0.23328505  0.91865514  1
  Na  Na4  1  0.08134486  0.73328505  0.09379400  1
  Na  Na5  1  0.08140970  0.17575684  0.65024522  1
  Na  Na6  1  0.67292095  0.76671495  0.65194019  1
  Na  Na7  1  0.33797476  0.25000000  0.91202524  1
  Na  Na8  1  0.34975478  0.67575684  0.91859030  1
  Na  Na9  1  0.08797476  0.75000000  0.66202524  1
  Co  Co10  1  0.49995162  0.99648053  0.00322333  1
  Co  Co11  1  0.50347209  0.00351947  0.49970286  1
  Co  Co12  1  0.50029714  0.50351947  0.49652791  1
  Co  Co13  1  0.99677667  0.49648053  0.50004838  1
  P  P14  1  0.12932031  0.25000000  0.12067969  1
  P  P15  1  0.87932031  0.75000000  0.87067969  1
  C  C16  1  0.71370920  0.07048782  0.71688002  1
  C  C17  1  0.71263216  0.42951218  0.35677862  1
  C  C18  1  0.35068073  0.06683516  0.71637649  1
  C  C19  1  0.71678835  0.43316484  0.71615543  1
  C  C20  1  0.64322138  0.92951218  0.28736784  1
  C  C21  1  0.28311998  0.57048782  0.28629080  1
  C  C22  1  0.28384457  0.93316484  0.28321165  1
  C  C23  1  0.28362351  0.56683516  0.64931927  1
  O  O24  1  0.65020930  0.05029178  0.14184487  1
  O  O25  1  0.85807290  0.20750333  0.60689606  1
  O  O26  1  0.68560061  0.29249667  0.34943043  1
  O  O27  1  0.39963133  0.05219320  0.30733744  1
  O  O28  1  0.85815513  0.55029178  0.34979070  1
  O  O29  1  0.32071688  0.37828985  0.05858459  1
  O  O30  1  0.06312555  0.12171015  0.05757297  1
  O  O31  1  0.59761840  0.45362215  0.36345413  1
  O  O32  1  0.68292372  0.04637785  0.85600475  1
  O  O33  1  0.35016751  0.04036687  0.60074087  1
  O  O34  1  0.85889226  0.45963313  0.69019937  1
  O  O35  1  0.06646848  0.37930641  0.05605626  1
  O  O36  1  0.06463834  0.12069359  0.31283693  1
  O  O37  1  0.65056957  0.79249667  0.31439939  1
  O  O38  1  0.39310394  0.70750333  0.14192710  1
  O  O39  1  0.69266256  0.55219320  0.60036867  1
  O  O40  1  0.30786335  0.44970822  0.40008248  1
  O  O41  1  0.34641140  0.20585806  0.69120606  1
  O  O42  1  0.60293588  0.29414194  0.85944666  1
  O  O43  1  0.94242703  0.62171015  0.93687445  1
  O  O44  1  0.94141541  0.87828985  0.67928312  1
  O  O45  1  0.14399525  0.54637785  0.31707628  1
  O  O46  1  0.63654587  0.95362215  0.40238160  1
  O  O47  1  0.30980063  0.95963313  0.14110774  1
  O  O48  1  0.39925913  0.54036687  0.64983249  1
  O  O49  1  0.94394374  0.87930641  0.93353152  1
  O  O50  1  0.68716307  0.62069359  0.93536166  1
  O  O51  1  0.14047037  0.44780680  0.65256086  1
  O  O52  1  0.59991752  0.94970822  0.69213665  1
  O  O53  1  0.30879394  0.70585806  0.65358860  1
  O  O54  1  0.14055334  0.79414194  0.39706412  1
  O  O55  1  0.34743914  0.94780680  0.85952963  1
