# generated using pymatgen
data_Li9V3P8O29
_symmetry_space_group_name_H-M   'P 1'
_cell_length_a   9.90331106
_cell_length_b   9.88946509
_cell_length_c   13.78929529
_cell_angle_alpha   89.98905130
_cell_angle_beta   90.09010985
_cell_angle_gamma   60.16374507
_symmetry_Int_Tables_number   1
_chemical_formula_structural   Li9V3P8O29
_chemical_formula_sum   'Li18 V6 P16 O58'
_cell_volume   1171.49203676
_cell_formula_units_Z   2
loop_
 _symmetry_equiv_pos_site_id
 _symmetry_equiv_pos_as_xyz
  1  'x, y, z'
loop_
 _atom_site_type_symbol
 _atom_site_label
 _atom_site_symmetry_multiplicity
 _atom_site_fract_x
 _atom_site_fract_y
 _atom_site_fract_z
 _atom_site_occupancy
  Li  Li0  1  0.90404695  0.76568107  0.05997395  1
  Li  Li1  1  0.76810874  0.89736525  0.57020480  1
  Li  Li2  1  0.89887499  0.33440073  0.57566126  1
  Li  Li3  1  0.66460575  0.66649375  0.38260889  1
  Li  Li4  1  0.68740851  0.65243574  0.87696646  1
  Li  Li5  1  0.76645866  0.33133104  0.06018204  1
  Li  Li6  1  0.33029753  0.90095917  0.06130465  1
  Li  Li7  1  0.67398976  0.23085118  0.43815866  1
  Li  Li8  1  0.33868601  0.75912981  0.56422896  1
  Li  Li9  1  0.66733718  0.09889682  0.93450297  1
  Li  Li10  1  0.23272824  0.66555167  0.93565926  1
  Li  Li11  1  0.31093669  0.33585040  0.62463782  1
  Li  Li12  1  0.33499959  0.33448503  0.11676135  1
  Li  Li13  1  0.09278552  0.67343399  0.43851124  1
  Li  Li14  1  0.99739679  0.43790313  0.74988313  1
  Li  Li15  1  0.09684090  0.23932354  0.92491443  1
  Li  Li16  1  0.99658170  0.99605956  0.98828915  1
  Li  Li17  1  0.98993733  0.98682578  0.51384335  1
  V  V18  1  0.56756069  0.43505309  0.25028262  1
  V  V19  1  0.43460053  0.56488979  0.75076499  1
  V  V20  1  0.56698530  0.99917097  0.75061635  1
  V  V21  1  0.43818802  0.99608072  0.24331896  1
  V  V22  1  0.25581916  0.11215239  0.44809325  1
  V  V23  1  0.99880756  0.56652916  0.24850381  1
  P  P24  1  0.91015517  0.77341212  0.84496851  1
  P  P25  1  0.77258730  0.91074224  0.34472621  1
  P  P26  1  0.91250016  0.31562706  0.34328210  1
  P  P27  1  0.66786583  0.66462184  0.12160728  1
  P  P28  1  0.65992631  0.66673529  0.62322002  1
  P  P29  1  0.77441780  0.31584540  0.84459010  1
  P  P30  1  0.68317186  0.22725218  0.65617553  1
  P  P31  1  0.31691366  0.90853543  0.84545968  1
  P  P32  1  0.68584808  0.08955621  0.15472942  1
  P  P33  1  0.31658877  0.77292083  0.34475208  1
  P  P34  1  0.22789847  0.68308439  0.15635785  1
  P  P35  1  0.33144416  0.33382638  0.37505962  1
  P  P36  1  0.34027353  0.33073286  0.87665696  1
  P  P37  1  0.09157721  0.68221930  0.65568414  1
  P  P38  1  0.22408469  0.09020277  0.65901172  1
  P  P39  1  0.08980943  0.22689166  0.15333199  1
  O  O40  1  0.00045516  0.78601031  0.56831837  1
  O  O41  1  0.91968641  0.74941943  0.34433546  1
  O  O42  1  0.77664046  0.99671447  0.06691817  1
  O  O43  1  0.75109368  0.92607156  0.84176970  1
  O  O44  1  0.89064936  0.63226111  0.84104972  1
  O  O45  1  0.81120876  0.67519728  0.16075983  1
  O  O46  1  0.89078386  0.48037848  0.33417558  1
  O  O47  1  0.99574658  0.23066829  0.06572141  1
  O  O48  1  0.91635741  0.33252152  0.84624393  1
  O  O49  1  0.66580448  0.81330543  0.66074395  1
  O  O50  1  0.62659156  0.89356058  0.33457654  1
  O  O51  1  0.80175841  0.51653712  0.65374486  1
  O  O52  1  0.66459017  0.66516290  0.01272969  1
  O  O53  1  0.62530097  0.68563414  0.51491200  1
  O  O54  1  0.67646198  0.51269526  0.16260170  1
  O  O55  1  0.47857874  0.89127964  0.83559858  1
  O  O56  1  0.51466662  0.80880458  0.16092159  1
  O  O57  1  0.75301624  0.32585307  0.34517822  1
  O  O58  1  0.78459311  0.21205429  0.75005798  1
  O  O59  1  0.77347978  0.22803234  0.56665736  1
  O  O60  1  0.76343674  0.22843713  0.93311917  1
  O  O61  1  0.62441669  0.47855998  0.83132562  1
  O  O62  1  0.50887714  0.67179422  0.67215995  1
  O  O63  1  0.67304129  0.25038058  0.15671641  1
  O  O64  1  0.48107940  0.63258300  0.33224692  1
  O  O65  1  0.32720565  0.92419904  0.34569023  1
  O  O66  1  0.78484703  0.00072256  0.25062262  1
  O  O67  1  0.77231760  0.00111521  0.43409457  1
  O  O68  1  0.23627555  0.98761206  0.57008215  1
  O  O69  1  0.66559620  0.08214540  0.65296284  1
  O  O70  1  0.52033623  0.37571843  0.66538952  1
  O  O71  1  0.33091165  0.74590494  0.84510084  1
  O  O72  1  0.48459324  0.33038935  0.34750477  1
  O  O73  1  0.37014437  0.51896587  0.17090730  1
  O  O74  1  0.23403519  0.76895673  0.06694902  1
  O  O75  1  0.22906213  0.76708933  0.43328065  1
  O  O76  1  0.21469041  0.78829945  0.24990677  1
  O  O77  1  0.25272510  0.67384234  0.65823910  1
  O  O78  1  0.49319604  0.18782169  0.83903984  1
  O  O79  1  0.52159877  0.10927765  0.16327822  1
  O  O80  1  0.33659849  0.48304272  0.82801954  1
  O  O81  1  0.35154152  0.35168222  0.98480789  1
  O  O82  1  0.32294208  0.30212371  0.48347506  1
  O  O83  1  0.18828513  0.48867386  0.34167193  1
  O  O84  1  0.37245853  0.10429073  0.66738616  1
  O  O85  1  0.32441214  0.19369152  0.32481672  1
  O  O86  1  0.07861023  0.67257535  0.15615539  1
  O  O87  1  0.00239650  0.78273043  0.75015731  1
  O  O88  1  0.00230643  0.78357704  0.93246008  1
  O  O89  1  0.10922048  0.52229099  0.65644414  1
  O  O90  1  0.19849239  0.32378483  0.84345077  1
  O  O91  1  0.11084232  0.37076745  0.16536522  1
  O  O92  1  0.24974005  0.07794466  0.15316342  1
  O  O93  1  0.22388532  0.99939613  0.93399026  1
  O  O94  1  0.21239116  0.99809671  0.75200352  1
  O  O95  1  0.08079536  0.24688936  0.65184767  1
  O  O96  1  0.00792497  0.22524512  0.43220660  1
  O  O97  1  0.00196127  0.21415470  0.24945762  1
