# generated using pymatgen
data_Li7Mn3P3(CO7)3
_symmetry_space_group_name_H-M   'P 1'
_cell_length_a   8.44386146
_cell_length_b   5.06423685
_cell_length_c   19.53757937
_cell_angle_alpha   90.00000000
_cell_angle_beta   90.00000000
_cell_angle_gamma   85.34660214
_symmetry_Int_Tables_number   1
_chemical_formula_structural   Li7Mn3P3(CO7)3
_chemical_formula_sum   'Li14 Mn6 P6 C6 O42'
_cell_volume   832.70646224
_cell_formula_units_Z   2
loop_
 _symmetry_equiv_pos_site_id
 _symmetry_equiv_pos_as_xyz
  1  'x, y, z'
loop_
 _atom_site_type_symbol
 _atom_site_label
 _atom_site_symmetry_multiplicity
 _atom_site_fract_x
 _atom_site_fract_y
 _atom_site_fract_z
 _atom_site_occupancy
  Li  Li0  1  0.09163118  0.76334965  0.41666700  1
  Li  Li1  1  0.26180892  0.24474576  0.00776668  1
  Li  Li2  1  0.26353674  0.24772180  0.33953799  1
  Li  Li3  1  0.25074161  0.23736098  0.67090441  1
  Li  Li4  1  0.26353674  0.24772180  0.49379601  1
  Li  Li5  1  0.26180892  0.24474576  0.82556732  1
  Li  Li6  1  0.25074161  0.23736098  0.16242859  1
  Li  Li7  1  0.74925839  0.76263902  0.66242859  1
  Li  Li8  1  0.73819108  0.75525424  0.32556732  1
  Li  Li9  1  0.74925839  0.76263902  0.17090441  1
  Li  Li10  1  0.73646326  0.75227820  0.99379601  1
  Li  Li11  1  0.73819108  0.75525424  0.50776668  1
  Li  Li12  1  0.73646326  0.75227820  0.83953799  1
  Li  Li13  1  0.90836882  0.23665035  0.91666700  1
  Mn  Mn14  1  0.33871395  0.77676223  0.24987915  1
  Mn  Mn15  1  0.34099260  0.78233065  0.91666700  1
  Mn  Mn16  1  0.33871395  0.77676223  0.58345485  1
  Mn  Mn17  1  0.66128605  0.22323777  0.08345485  1
  Mn  Mn18  1  0.66128605  0.22323777  0.74987915  1
  Mn  Mn19  1  0.65900740  0.21766935  0.41666700  1
  P  P20  1  0.42051002  0.72798478  0.08298216  1
  P  P21  1  0.41317354  0.71756415  0.41666700  1
  P  P22  1  0.42051002  0.72798478  0.75035084  1
  P  P23  1  0.57948998  0.27201522  0.25035084  1
  P  P24  1  0.58682646  0.28243585  0.91666700  1
  P  P25  1  0.57948998  0.27201522  0.58298216  1
  C  C26  1  0.04764145  0.70179474  0.58454638  1
  C  C27  1  0.04764145  0.70179474  0.24878762  1
  C  C28  1  0.03552880  0.70013404  0.91666700  1
  C  C29  1  0.95235855  0.29820526  0.08454638  1
  C  C30  1  0.96447120  0.29986596  0.41666700  1
  C  C31  1  0.95235855  0.29820526  0.74878762  1
  O  O32  1  0.11329910  0.93092102  0.24849948  1
  O  O33  1  0.11329910  0.93092102  0.58483452  1
  O  O34  1  0.07076438  0.94361278  0.91666700  1
  O  O35  1  0.10099905  0.30967217  0.08375879  1
  O  O36  1  0.11118826  0.36134118  0.41666700  1
  O  O37  1  0.10099905  0.30967217  0.74957421  1
  O  O38  1  0.15211263  0.49732845  0.24939366  1
  O  O39  1  0.15211263  0.49732845  0.58393934  1
  O  O40  1  0.14957039  0.50949584  0.91666700  1
  O  O41  1  0.32305385  0.83433572  0.02141486  1
  O  O42  1  0.32878187  0.82458741  0.14769726  1
  O  O43  1  0.32305385  0.83433572  0.81191814  1
  O  O44  1  0.31063776  0.82608796  0.35468029  1
  O  O45  1  0.31063776  0.82608796  0.47865271  1
  O  O46  1  0.32878187  0.82458741  0.68563674  1
  O  O47  1  0.40936369  0.17671712  0.25122550  1
  O  O48  1  0.40936369  0.17671712  0.58210750  1
  O  O49  1  0.41808910  0.18828201  0.91666700  1
  O  O50  1  0.44186456  0.41297252  0.08147082  1
  O  O51  1  0.42380190  0.40982273  0.41666700  1
  O  O52  1  0.44186456  0.41297252  0.75186218  1
  O  O53  1  0.55813544  0.58702748  0.58147082  1
  O  O54  1  0.57619810  0.59017727  0.91666700  1
  O  O55  1  0.55813544  0.58702748  0.25186218  1
  O  O56  1  0.59063631  0.82328288  0.75122550  1
  O  O57  1  0.59063631  0.82328288  0.08210750  1
  O  O58  1  0.58191090  0.81171799  0.41666700  1
  O  O59  1  0.67694615  0.16566428  0.52141486  1
  O  O60  1  0.68936224  0.17391204  0.97865271  1
  O  O61  1  0.67694615  0.16566428  0.31191814  1
  O  O62  1  0.68936224  0.17391204  0.85468029  1
  O  O63  1  0.67121813  0.17541259  0.18563674  1
  O  O64  1  0.67121813  0.17541259  0.64769726  1
  O  O65  1  0.84788737  0.50267155  0.74939366  1
  O  O66  1  0.84788737  0.50267155  0.08393934  1
  O  O67  1  0.85042961  0.49050416  0.41666700  1
  O  O68  1  0.89900095  0.69032783  0.24957421  1
  O  O69  1  0.89900095  0.69032783  0.58375879  1
  O  O70  1  0.88881174  0.63865882  0.91666700  1
  O  O71  1  0.88670090  0.06907898  0.08483452  1
  O  O72  1  0.92923562  0.05638722  0.41666700  1
  O  O73  1  0.88670090  0.06907898  0.74849948  1
