# generated using pymatgen
data_Mg2Bi
_symmetry_space_group_name_H-M   'P 1'
_cell_length_a   12.99412870
_cell_length_b   3.35923273
_cell_length_c   7.54064674
_cell_angle_alpha   90.00000000
_cell_angle_beta   106.89512535
_cell_angle_gamma   90.00000000
_symmetry_Int_Tables_number   1
_chemical_formula_structural   Mg2Bi
_chemical_formula_sum   'Mg8 Bi4'
_cell_volume   314.94477648
_cell_formula_units_Z   4
loop_
 _symmetry_equiv_pos_site_id
 _symmetry_equiv_pos_as_xyz
  1  'x, y, z'
loop_
 _atom_site_type_symbol
 _atom_site_label
 _atom_site_symmetry_multiplicity
 _atom_site_fract_x
 _atom_site_fract_y
 _atom_site_fract_z
 _atom_site_occupancy
  Mg  Mg0  1  0.19188492  0.50000000  0.12921078  1
  Mg  Mg1  1  0.47186910  0.50000000  0.18207033  1
  Mg  Mg2  1  0.02813090  0.00000000  0.81792967  1
  Mg  Mg3  1  0.30811508  -0.00000000  0.87078922  1
  Mg  Mg4  1  0.69188492  0.00000000  0.12921078  1
  Mg  Mg5  1  0.97186910  -0.00000000  0.18207033  1
  Mg  Mg6  1  0.52813090  0.50000000  0.81792967  1
  Mg  Mg7  1  0.80811508  0.50000000  0.87078922  1
  Bi  Bi8  1  0.36831088  0.00000000  0.47443797  1
  Bi  Bi9  1  0.13168912  0.50000000  0.52556203  1
  Bi  Bi10  1  0.86831088  0.50000000  0.47443797  1
  Bi  Bi11  1  0.63168912  0.00000000  0.52556203  1
