# generated using pymatgen
data_Li5V3P8O29
_symmetry_space_group_name_H-M   'P 1'
_cell_length_a   9.80852669
_cell_length_b   9.79153545
_cell_length_c   13.98905049
_cell_angle_alpha   89.87855336
_cell_angle_beta   89.87214395
_cell_angle_gamma   60.06776253
_symmetry_Int_Tables_number   1
_chemical_formula_structural   Li5V3P8O29
_chemical_formula_sum   'Li10 V6 P16 O58'
_cell_volume   1164.30889168
_cell_formula_units_Z   2
loop_
 _symmetry_equiv_pos_site_id
 _symmetry_equiv_pos_as_xyz
  1  'x, y, z'
loop_
 _atom_site_type_symbol
 _atom_site_label
 _atom_site_symmetry_multiplicity
 _atom_site_fract_x
 _atom_site_fract_y
 _atom_site_fract_z
 _atom_site_occupancy
  Li  Li0  1  0.90850215  0.77362860  0.06104660  1
  Li  Li1  1  0.77292379  0.90570525  0.55841752  1
  Li  Li2  1  0.90612605  0.32219776  0.55765737  1
  Li  Li3  1  0.77035456  0.31945288  0.06265902  1
  Li  Li4  1  0.32579535  0.90128799  0.06210546  1
  Li  Li5  1  0.67370824  0.22791137  0.43506793  1
  Li  Li6  1  0.32320518  0.77138618  0.55784766  1
  Li  Li7  1  0.09776056  0.67609225  0.43592336  1
  Li  Li8  1  0.22884578  0.09731750  0.43466344  1
  Li  Li9  1  0.09075984  0.22760797  0.94287287  1
  V  V10  1  0.56636224  0.43246239  0.24771108  1
  V  V11  1  0.43295365  0.56636003  0.75407090  1
  V  V12  1  0.56753366  0.00169146  0.75466971  1
  V  V13  1  0.43340356  0.99949405  0.24781459  1
  V  V14  1  0.00110937  0.56918169  0.24985561  1
  V  V15  1  0.99891606  0.43417845  0.74984667  1
  P  P16  1  0.91291894  0.76823473  0.84227631  1
  P  P17  1  0.76645380  0.91267222  0.34330809  1
  P  P18  1  0.91109964  0.32086755  0.34120813  1
  P  P19  1  0.66817162  0.66601591  0.12665176  1
  P  P20  1  0.66407311  0.66846384  0.62874141  1
  P  P21  1  0.77004223  0.31701849  0.84364161  1
  P  P22  1  0.68101281  0.23141601  0.65917337  1
  P  P23  1  0.31750592  0.91207791  0.84079596  1
  P  P24  1  0.68373788  0.08514160  0.15852036  1
  P  P25  1  0.32103489  0.76679864  0.34242101  1
  P  P26  1  0.23117498  0.68345443  0.15821965  1
  P  P27  1  0.33284989  0.33306523  0.37401558  1
  P  P28  1  0.33268917  0.33250132  0.87212288  1
  P  P29  1  0.08992786  0.68015942  0.65890114  1
  P  P30  1  0.23269270  0.08827934  0.65739527  1
  P  P31  1  0.08824123  0.23241247  0.15830437  1
  O  O32  1  0.00307181  0.76144836  0.56936785  1
  O  O33  1  0.91772801  0.74792336  0.34145541  1
  O  O34  1  0.76843887  0.99167647  0.07336550  1
  O  O35  1  0.74369974  0.91436840  0.83051460  1
  O  O36  1  0.90117487  0.61857863  0.82263346  1
  O  O37  1  0.81318008  0.67521312  0.16749714  1
  O  O38  1  0.90087326  0.48058063  0.32498219  1
  O  O39  1  0.99846019  0.24267294  0.06876741  1
  O  O40  1  0.91763707  0.33574546  0.83878031  1
  O  O41  1  0.66731846  0.81761564  0.67025387  1
  O  O42  1  0.61972981  0.89952415  0.32636252  1
  O  O43  1  0.81062041  0.51445365  0.66742247  1
  O  O44  1  0.66726235  0.66618208  0.01968988  1
  O  O45  1  0.65806771  0.67323971  0.52242607  1
  O  O46  1  0.67648680  0.51051794  0.16689911  1
  O  O47  1  0.47881288  0.90322855  0.82324797  1
  O  O48  1  0.51206872  0.81257940  0.16657404  1
  O  O49  1  0.74625919  0.33615505  0.34023504  1
  O  O50  1  0.78926792  0.20951942  0.75095305  1
  O  O51  1  0.75869844  0.24068514  0.56902278  1
  O  O52  1  0.75632367  0.24752572  0.93433851  1
  O  O53  1  0.61857672  0.47915788  0.82110506  1
  O  O54  1  0.51126390  0.67163302  0.67125332  1
  O  O55  1  0.66370578  0.25259464  0.15901617  1
  O  O56  1  0.48063523  0.61935133  0.32543811  1
  O  O57  1  0.33533981  0.91775209  0.33914659  1
  O  O58  1  0.78614529  0.00647520  0.25492459  1
  O  O59  1  0.75983579  0.99875741  0.43426209  1
  O  O60  1  0.24322452  0.99966071  0.56794298  1
  O  O61  1  0.66134022  0.08371542  0.66041615  1
  O  O62  1  0.52179612  0.38322317  0.67724652  1
  O  O63  1  0.34140602  0.74417173  0.83569318  1
  O  O64  1  0.48761106  0.32405438  0.33346211  1
  O  O65  1  0.38072631  0.52119528  0.17553604  1
  O  O66  1  0.23772160  0.77005478  0.07299868  1
  O  O67  1  0.24223487  0.76065297  0.43388681  1
  O  O68  1  0.20750381  0.78598888  0.25465987  1
  O  O69  1  0.25657397  0.66357246  0.66190759  1
  O  O70  1  0.48196633  0.18382113  0.82489418  1
  O  O71  1  0.52110535  0.09763710  0.17667245  1
  O  O72  1  0.33610564  0.47945884  0.82560118  1
  O  O73  1  0.34034704  0.32871226  0.97750801  1
  O  O74  1  0.33177709  0.33384647  0.48123673  1
  O  O75  1  0.18718148  0.48976263  0.33393027  1
  O  O76  1  0.38311062  0.09592118  0.67750291  1
  O  O77  1  0.32291149  0.18815023  0.33332442  1
  O  O78  1  0.08383801  0.66303739  0.15957919  1
  O  O79  1  0.00229332  0.78917573  0.75075731  1
  O  O80  1  0.98936888  0.76563534  0.93329252  1
  O  O81  1  0.10201725  0.51967507  0.67522494  1
  O  O82  1  0.18601196  0.32752408  0.83265258  1
  O  O83  1  0.10118859  0.38006477  0.17581337  1
  O  O84  1  0.25223862  0.08201562  0.15764049  1
  O  O85  1  0.24208869  0.99936858  0.93049177  1
  O  O86  1  0.20937100  0.00041796  0.74942023  1
  O  O87  1  0.08423047  0.25379532  0.65902760  1
  O  O88  1  0.99891423  0.24036290  0.43144438  1
  O  O89  1  0.00014392  0.21031232  0.25016570  1
