# generated using pymatgen
data_Li4Co(BO3)2
_symmetry_space_group_name_H-M   'P 1'
_cell_length_a   9.27579321
_cell_length_b   7.87792639
_cell_length_c   3.29913639
_cell_angle_alpha   90.00000000
_cell_angle_beta   90.00000000
_cell_angle_gamma   90.00000000
_symmetry_Int_Tables_number   1
_chemical_formula_structural   Li4Co(BO3)2
_chemical_formula_sum   'Li8 Co2 B4 O12'
_cell_volume   241.08114574
_cell_formula_units_Z   2
loop_
 _symmetry_equiv_pos_site_id
 _symmetry_equiv_pos_as_xyz
  1  'x, y, z'
loop_
 _atom_site_type_symbol
 _atom_site_label
 _atom_site_symmetry_multiplicity
 _atom_site_fract_x
 _atom_site_fract_y
 _atom_site_fract_z
 _atom_site_occupancy
  Li  Li0  1  0.05308239  0.17871245  0.50000000  1
  Li  Li1  1  0.20025954  0.00829345  0.00000000  1
  Li  Li2  1  0.29974046  0.50829345  0.50000000  1
  Li  Li3  1  0.44691761  0.67871245  -0.00000000  1
  Li  Li4  1  0.55308239  0.32128755  0.00000000  1
  Li  Li5  1  0.70025954  0.49170655  0.50000000  1
  Li  Li6  1  0.79974046  0.99170655  -0.00000000  1
  Li  Li7  1  0.94691761  0.82128755  0.50000000  1
  Co  Co8  1  -0.00000000  0.50000000  0.00000000  1
  Co  Co9  1  0.50000000  0.00000000  0.50000000  1
  B  B10  1  0.20129468  0.76888812  0.50000000  1
  B  B11  1  0.29870532  0.26888812  0.00000000  1
  B  B12  1  0.70129468  0.73111188  -0.00000000  1
  B  B13  1  0.79870532  0.23111188  0.50000000  1
  O  O14  1  0.11471005  0.61852603  0.50000000  1
  O  O15  1  0.14902911  0.25500697  0.00000000  1
  O  O16  1  0.13487614  0.92295075  0.50000000  1
  O  O17  1  0.36512386  0.42295075  -0.00000000  1
  O  O18  1  0.35097089  0.75500697  0.50000000  1
  O  O19  1  0.38528995  0.11852603  0.00000000  1
  O  O20  1  0.61471005  0.88147397  0.00000000  1
  O  O21  1  0.64902911  0.24499303  0.50000000  1
  O  O22  1  0.63487614  0.57704925  0.00000000  1
  O  O23  1  0.86512386  0.07704925  0.50000000  1
  O  O24  1  0.85097089  0.74499303  0.00000000  1
  O  O25  1  0.88528995  0.38147397  0.50000000  1
