# generated using pymatgen
data_Li5V3P8O29
_symmetry_space_group_name_H-M   'P 1'
_cell_length_a   9.84751993
_cell_length_b   9.77151418
_cell_length_c   14.01479219
_cell_angle_alpha   90.21293796
_cell_angle_beta   90.60713689
_cell_angle_gamma   59.83146242
_symmetry_Int_Tables_number   1
_chemical_formula_structural   Li5V3P8O29
_chemical_formula_sum   'Li10 V6 P16 O58'
_cell_volume   1165.84502896
_cell_formula_units_Z   2
loop_
 _symmetry_equiv_pos_site_id
 _symmetry_equiv_pos_as_xyz
  1  'x, y, z'
loop_
 _atom_site_type_symbol
 _atom_site_label
 _atom_site_symmetry_multiplicity
 _atom_site_fract_x
 _atom_site_fract_y
 _atom_site_fract_z
 _atom_site_occupancy
  Li  Li0  1  0.90545742  0.77026028  0.05792903  1
  Li  Li1  1  0.67742400  0.66106365  0.39042056  1
  Li  Li2  1  0.77349883  0.31079363  0.05817157  1
  Li  Li3  1  0.32625631  0.90528491  0.06082995  1
  Li  Li4  1  0.67386720  0.23294557  0.44109968  1
  Li  Li5  1  0.32780759  0.76679305  0.56149031  1
  Li  Li6  1  0.22777049  0.67884200  0.93888892  1
  Li  Li7  1  0.32469562  0.33282372  0.61251892  1
  Li  Li8  1  0.09289801  0.23208333  0.93654192  1
  Li  Li9  1  0.00017476  0.99725594  0.50579225  1
  V  V10  1  0.57040967  0.42977347  0.24749477  1
  V  V11  1  0.43160761  0.56852380  0.75216941  1
  V  V12  1  0.57455179  0.99513680  0.75139960  1
  V  V13  1  0.43021069  0.00739968  0.25292573  1
  V  V14  1  0.00115550  0.56828149  0.25496233  1
  V  V15  1  0.99677721  0.43262339  0.74306813  1
  P  P16  1  0.91676431  0.76616020  0.84011054  1
  P  P17  1  0.77457248  0.91491199  0.34222286  1
  P  P18  1  0.91457740  0.30750365  0.34419078  1
  P  P19  1  0.66558514  0.66932401  0.12893906  1
  P  P20  1  0.65920932  0.67023911  0.62711323  1
  P  P21  1  0.77109277  0.31797216  0.84044976  1
  P  P22  1  0.68175706  0.22491730  0.65797382  1
  P  P23  1  0.31913357  0.91601372  0.84448668  1
  P  P24  1  0.68457571  0.08209458  0.15506666  1
  P  P25  1  0.32053348  0.77411248  0.34283705  1
  P  P26  1  0.22998064  0.68184552  0.16064386  1
  P  P27  1  0.33833998  0.33487130  0.37374546  1
  P  P28  1  0.33154999  0.33063684  0.87083442  1
  P  P29  1  0.08695771  0.69228247  0.65517346  1
  P  P30  1  0.22535017  0.08619589  0.65874078  1
  P  P31  1  0.08455104  0.23326947  0.15869357  1
  O  O32  1  0.00509932  0.79544004  0.57230242  1
  O  O33  1  0.91371859  0.74187917  0.33859288  1
  O  O34  1  0.76372997  0.99048323  0.06856201  1
  O  O35  1  0.74807925  0.91163551  0.83535228  1
  O  O36  1  0.90862242  0.61548699  0.82005254  1
  O  O37  1  0.81394080  0.67194595  0.16891774  1
  O  O38  1  0.89742936  0.47382628  0.33326384  1
  O  O39  1  0.00248032  0.24075100  0.06644560  1
  O  O40  1  0.91838271  0.33604226  0.83559618  1
  O  O41  1  0.65899984  0.81891124  0.67430899  1
  O  O42  1  0.62283301  0.90195131  0.33001027  1
  O  O43  1  0.80512915  0.52279478  0.66769033  1
  O  O44  1  0.65449002  0.67727266  0.02294842  1
  O  O45  1  0.65287677  0.68335490  0.52056667  1
  O  O46  1  0.67193983  0.51349477  0.16691115  1
  O  O47  1  0.47770500  0.90417921  0.82338268  1
  O  O48  1  0.51539274  0.81778902  0.17411837  1
  O  O49  1  0.74179364  0.33730975  0.33642666  1
  O  O50  1  0.78902364  0.20863443  0.74949075  1
  O  O51  1  0.76500302  0.21667284  0.56821512  1
  O  O52  1  0.76130072  0.24748242  0.93161878  1
  O  O53  1  0.61939313  0.47951240  0.81855851  1
  O  O54  1  0.50690057  0.67618626  0.66326694  1
  O  O55  1  0.66432274  0.25010074  0.15741509  1
  O  O56  1  0.48445225  0.62635122  0.32929325  1
  O  O57  1  0.34255255  0.92098681  0.33168924  1
  O  O58  1  0.79262172  0.99623877  0.24788309  1
  O  O59  1  0.77959466  0.00546427  0.42617992  1
  O  O60  1  0.21400522  0.99232757  0.57841224  1
  O  O61  1  0.65855671  0.07879422  0.66730083  1
  O  O62  1  0.51727588  0.37322316  0.67007841  1
  O  O63  1  0.33399837  0.75043783  0.84286571  1
  O  O64  1  0.49123658  0.32621084  0.33705865  1
  O  O65  1  0.38054364  0.52049254  0.18014085  1
  O  O66  1  0.24312604  0.75742515  0.07073417  1
  O  O67  1  0.23818141  0.78201991  0.43270742  1
  O  O68  1  0.21142176  0.79106583  0.25147633  1
  O  O69  1  0.25985861  0.66104554  0.66324547  1
  O  O70  1  0.47685357  0.18336995  0.82116547  1
  O  O71  1  0.52493067  0.09303470  0.17819818  1
  O  O72  1  0.32851055  0.48536201  0.83389903  1
  O  O73  1  0.33744338  0.32301894  0.97673087  1
  O  O74  1  0.34393405  0.32038904  0.47980262  1
  O  O75  1  0.19254681  0.47986567  0.33142507  1
  O  O76  1  0.37650492  0.09712834  0.66762600  1
  O  O77  1  0.33922234  0.18370898  0.32643237  1
  O  O78  1  0.08204744  0.66577250  0.16140837  1
  O  O79  1  0.00908270  0.78778151  0.75392047  1
  O  O80  1  0.99989770  0.75708751  0.93227312  1
  O  O81  1  0.10153304  0.52737939  0.66425083  1
  O  O82  1  0.18338966  0.32848128  0.82993620  1
  O  O83  1  0.09267352  0.38401865  0.17934223  1
  O  O84  1  0.25334470  0.08565028  0.16152815  1
  O  O85  1  0.24624834  0.00168115  0.93574652  1
  O  O86  1  0.20450394  0.01204352  0.75739103  1
  O  O87  1  0.08516363  0.25921462  0.65986576  1
  O  O88  1  0.99722531  0.20687746  0.42741595  1
  O  O89  1  0.99342028  0.21154327  0.24552789  1
