# generated using pymatgen
data_Li4NbCr(TeO6)2
_symmetry_space_group_name_H-M   'P 1'
_cell_length_a   5.43509368
_cell_length_b   10.86817543
_cell_length_c   9.56527538
_cell_angle_alpha   28.43256089
_cell_angle_beta   51.64163552
_cell_angle_gamma   56.88514694
_symmetry_Int_Tables_number   1
_chemical_formula_structural   Li4NbCr(TeO6)2
_chemical_formula_sum   'Li4 Nb1 Cr1 Te2 O12'
_cell_volume   210.94870803
_cell_formula_units_Z   1
loop_
 _symmetry_equiv_pos_site_id
 _symmetry_equiv_pos_as_xyz
  1  'x, y, z'
loop_
 _atom_site_type_symbol
 _atom_site_label
 _atom_site_symmetry_multiplicity
 _atom_site_fract_x
 _atom_site_fract_y
 _atom_site_fract_z
 _atom_site_occupancy
  Li  Li0  1  0.30771092  0.99776744  0.26580661  1
  Li  Li1  1  0.25450590  0.49902919  0.30317603  1
  Li  Li2  1  0.77763664  0.99545881  0.80970561  1
  Li  Li3  1  0.77129742  0.50371639  0.74461314  1
  Nb  Nb4  1  0.99420424  0.50153516  0.00483079  1
  Cr  Cr5  1  0.00739460  0.99959264  0.00080259  1
  Te  Te6  1  0.50352700  0.00172652  0.49889530  1
  Te  Te7  1  0.49754281  0.50118767  0.50126041  1
  O  O8  1  0.38040371  0.30719950  0.12376147  1
  O  O9  1  0.24951109  0.12681539  0.61333775  1
  O  O10  1  0.13793967  0.32530716  0.72462136  1
  O  O11  1  0.87914519  0.18173290  0.24837481  1
  O  O12  1  0.38188060  0.79310630  0.13448765  1
  O  O13  1  0.74387515  0.37282358  0.37686815  1
  O  O14  1  0.24062122  0.62375622  0.62525805  1
  O  O15  1  0.62760520  0.19176164  0.85985699  1
  O  O16  1  0.12540371  0.82268995  0.73559019  1
  O  O17  1  0.86120097  0.69250629  0.24120830  1
  O  O18  1  0.71466208  0.87757434  0.38251278  1
  O  O19  1  0.61512887  0.68471091  0.87623102  1
