# generated using pymatgen
data_Li4Ti4V4CrO18
_symmetry_space_group_name_H-M   'P 1'
_cell_length_a   9.14066880
_cell_length_b   25.11660169
_cell_length_c   2.97230636
_cell_angle_alpha   90.00000000
_cell_angle_beta   90.00000000
_cell_angle_gamma   90.00000000
_symmetry_Int_Tables_number   1
_chemical_formula_structural   Li4Ti4V4CrO18
_chemical_formula_sum   'Li8 Ti8 V8 Cr2 O36'
_cell_volume   682.38963615
_cell_formula_units_Z   2
loop_
 _symmetry_equiv_pos_site_id
 _symmetry_equiv_pos_as_xyz
  1  'x, y, z'
loop_
 _atom_site_type_symbol
 _atom_site_label
 _atom_site_symmetry_multiplicity
 _atom_site_fract_x
 _atom_site_fract_y
 _atom_site_fract_z
 _atom_site_occupancy
  Li  Li0  1  0.19685968  0.99100076  0.00000000  1
  Li  Li1  1  0.20099301  0.19276771  -0.00000000  1
  Li  Li2  1  0.29900799  0.69276771  0.00000000  1
  Li  Li3  1  0.30314032  0.49100076  -0.00000000  1
  Li  Li4  1  0.69685968  0.50899924  0.00000000  1
  Li  Li5  1  0.70099301  0.30723229  -0.00000000  1
  Li  Li6  1  0.79900699  0.80723229  0.00000000  1
  Li  Li7  1  0.80314032  0.00899924  -0.00000000  1
  Ti  Ti8  1  0.99753723  0.10136796  -0.00000000  1
  Ti  Ti9  1  0.14710644  0.80522191  0.50000000  1
  Ti  Ti10  1  0.35289356  0.30522191  0.50000000  1
  Ti  Ti11  1  0.50246277  0.60136796  -0.00000000  1
  Ti  Ti12  1  0.49753723  0.39863204  0.00000000  1
  Ti  Ti13  1  0.64710644  0.69477809  0.50000000  1
  Ti  Ti14  1  0.85289356  0.19477809  0.50000000  1
  Ti  Ti15  1  0.00246277  0.89863204  -0.00000000  1
  V  V16  1  0.01137701  0.31243261  0.00000000  1
  V  V17  1  0.14773728  0.58580756  0.50000000  1
  V  V18  1  0.35226272  0.08580756  0.50000000  1
  V  V19  1  0.48862299  0.81243261  -0.00000000  1
  V  V20  1  0.51137701  0.18756739  -0.00000000  1
  V  V21  1  0.64773728  0.91419244  0.50000000  1
  V  V22  1  0.85226272  0.41419244  0.50000000  1
  V  V23  1  0.98862299  0.68756739  0.00000000  1
  Cr  Cr24  1  0.00000000  0.50000000  -0.00000000  1
  Cr  Cr25  1  0.50000000  -0.00000000  -0.00000000  1
  O  O26  1  0.99126624  0.41856015  -0.00000000  1
  O  O27  1  0.00873376  0.58143985  0.00000000  1
  O  O28  1  0.05974044  0.94192747  0.50000000  1
  O  O29  1  0.04745432  0.15839046  0.50000000  1
  O  O30  1  0.12632425  0.66458592  0.50000000  1
  O  O31  1  0.10083095  0.75672241  0.00000000  1
  O  O32  1  0.14911584  0.50537294  0.50000000  1
  O  O33  1  0.14430193  0.28914706  0.50000000  1
  O  O34  1  0.18415512  0.85562330  -0.00000000  1
  O  O35  1  0.20192247  0.08282593  -0.00000000  1
  O  O36  1  0.29807753  0.58282593  0.00000000  1
  O  O37  1  0.31584488  0.35562330  0.00000000  1
  O  O38  1  0.35569807  0.78914706  0.50000000  1
  O  O39  1  0.35088416  0.00537294  0.50000000  1
  O  O40  1  0.39916905  0.25672241  -0.00000000  1
  O  O41  1  0.37367575  0.16458592  0.50000000  1
  O  O42  1  0.45254568  0.65839046  0.50000000  1
  O  O43  1  0.44025956  0.44192747  0.50000000  1
  O  O44  1  0.49126624  0.08143985  -0.00000000  1
  O  O45  1  0.50873376  0.91856015  -0.00000000  1
  O  O46  1  0.55974044  0.55807253  0.50000000  1
  O  O47  1  0.54745432  0.34160954  0.50000000  1
  O  O48  1  0.62632425  0.83541408  0.50000000  1
  O  O49  1  0.60083095  0.74327759  0.00000000  1
  O  O50  1  0.64911584  0.99462706  0.50000000  1
  O  O51  1  0.64430193  0.21085294  0.50000000  1
  O  O52  1  0.68415512  0.64437670  -0.00000000  1
  O  O53  1  0.70192247  0.41717407  -0.00000000  1
  O  O54  1  0.79807753  0.91717407  0.00000000  1
  O  O55  1  0.81584488  0.14437670  0.00000000  1
  O  O56  1  0.85569807  0.71085294  0.50000000  1
  O  O57  1  0.85088416  0.49462706  0.50000000  1
  O  O58  1  0.89916905  0.24327759  -0.00000000  1
  O  O59  1  0.87367575  0.33541408  0.50000000  1
  O  O60  1  0.95254568  0.84160954  0.50000000  1
  O  O61  1  0.94025956  0.05807253  0.50000000  1
