# generated using pymatgen
data_Li5V3P8O29
_symmetry_space_group_name_H-M   'P 1'
_cell_length_a   9.80377554
_cell_length_b   9.83012440
_cell_length_c   14.10939164
_cell_angle_alpha   89.80832332
_cell_angle_beta   90.18826143
_cell_angle_gamma   59.68221058
_symmetry_Int_Tables_number   1
_chemical_formula_structural   Li5V3P8O29
_chemical_formula_sum   'Li10 V6 P16 O58'
_cell_volume   1173.76729302
_cell_formula_units_Z   2
loop_
 _symmetry_equiv_pos_site_id
 _symmetry_equiv_pos_as_xyz
  1  'x, y, z'
loop_
 _atom_site_type_symbol
 _atom_site_label
 _atom_site_symmetry_multiplicity
 _atom_site_fract_x
 _atom_site_fract_y
 _atom_site_fract_z
 _atom_site_occupancy
  Li  Li0  1  0.75870354  0.90232809  0.55672594  1
  Li  Li1  1  0.89795923  0.33326663  0.55707192  1
  Li  Li2  1  0.77176244  0.32078554  0.06287480  1
  Li  Li3  1  0.31115918  0.91423266  0.05776838  1
  Li  Li4  1  0.32076759  0.77064256  0.55919575  1
  Li  Li5  1  0.70536528  0.07922664  0.94078763  1
  Li  Li6  1  0.22740953  0.69439031  0.94366754  1
  Li  Li7  1  0.31241743  0.34890968  0.10884637  1
  Li  Li8  1  0.23214888  0.10586883  0.44475957  1
  Li  Li9  1  0.97021066  0.98824978  0.49265482  1
  V  V10  1  0.56829965  0.42876355  0.25709536  1
  V  V11  1  0.43600112  0.56630107  0.74484192  1
  V  V12  1  0.56952002  0.99825534  0.75199541  1
  V  V13  1  0.43508398  0.99816044  0.25183360  1
  V  V14  1  0.00190483  0.56542380  0.24833165  1
  V  V15  1  0.99822138  0.43595188  0.75200640  1
  P  P16  1  0.91985443  0.76819642  0.84411562  1
  P  P17  1  0.77809662  0.91317397  0.34003917  1
  P  P18  1  0.91831597  0.31400791  0.34330222  1
  P  P19  1  0.66573835  0.66403168  0.13099962  1
  P  P20  1  0.66860712  0.66696847  0.62788962  1
  P  P21  1  0.76967829  0.32148383  0.84260407  1
  P  P22  1  0.69537150  0.22084705  0.66048059  1
  P  P23  1  0.32111818  0.90999955  0.84083166  1
  P  P24  1  0.67781177  0.09269981  0.15753828  1
  P  P25  1  0.31015369  0.77555831  0.34392208  1
  P  P26  1  0.22944807  0.68195232  0.16060702  1
  P  P27  1  0.33077561  0.32796502  0.36990057  1
  P  P28  1  0.33508996  0.33605434  0.86852664  1
  P  P29  1  0.08024694  0.69285253  0.65697567  1
  P  P30  1  0.22797992  0.09126329  0.66022343  1
  P  P31  1  0.09001857  0.22443624  0.15934673  1
  O  O32  1  0.98900370  0.79676283  0.57523795  1
  O  O33  1  0.91543762  0.74621373  0.33236099  1
  O  O34  1  0.74850592  0.00821532  0.06801251  1
  O  O35  1  0.75196745  0.91483506  0.84186299  1
  O  O36  1  0.90672652  0.61866613  0.82306126  1
  O  O37  1  0.81798480  0.65460426  0.17380279  1
  O  O38  1  0.91297514  0.47044785  0.33250436  1
  O  O39  1  0.99250609  0.22788687  0.07815179  1
  O  O40  1  0.91782515  0.33983052  0.83380132  1
  O  O41  1  0.67892132  0.81121221  0.66503540  1
  O  O42  1  0.61630765  0.91885959  0.32558441  1
  O  O43  1  0.81209856  0.51233048  0.67512341  1
  O  O44  1  0.64921792  0.68083933  0.02635216  1
  O  O45  1  0.68216218  0.65136521  0.52261746  1
  O  O46  1  0.66173771  0.51682287  0.16928913  1
  O  O47  1  0.48286604  0.89807698  0.81914151  1
  O  O48  1  0.52082803  0.81712086  0.17845563  1
  O  O49  1  0.74998792  0.33693469  0.33312451  1
  O  O50  1  0.78887281  0.20116502  0.75972444  1
  O  O51  1  0.80332605  0.20180273  0.58037897  1
  O  O52  1  0.75969045  0.25031160  0.93434965  1
  O  O53  1  0.62158574  0.48210636  0.82065730  1
  O  O54  1  0.51044800  0.68097586  0.66493009  1
  O  O55  1  0.65702470  0.25985024  0.15941006  1
  O  O56  1  0.46574421  0.62002639  0.33407815  1
  O  O57  1  0.33873540  0.91939182  0.33679495  1
  O  O58  1  0.78771083  0.00724170  0.24882557  1
  O  O59  1  0.78073597  0.99069795  0.43079840  1
  O  O60  1  0.22502303  0.00592168  0.57209755  1
  O  O61  1  0.66231504  0.08168975  0.66345505  1
  O  O62  1  0.53963562  0.37956616  0.66633875  1
  O  O63  1  0.33811758  0.74430497  0.83456144  1
  O  O64  1  0.48244609  0.32068092  0.33246628  1
  O  O65  1  0.37788076  0.51617818  0.17954631  1
  O  O66  1  0.25088597  0.75639721  0.07297864  1
  O  O67  1  0.21824449  0.79759014  0.43294992  1
  O  O68  1  0.20621688  0.79366510  0.25079557  1
  O  O69  1  0.25376249  0.65856323  0.65669094  1
  O  O70  1  0.48733049  0.18347429  0.83503108  1
  O  O71  1  0.51190005  0.11022635  0.17685837  1
  O  O72  1  0.33318237  0.48490948  0.82786667  1
  O  O73  1  0.32463431  0.34218573  0.97448547  1
  O  O74  1  0.31789861  0.30887831  0.47360739  1
  O  O75  1  0.18769523  0.47694250  0.32311640  1
  O  O76  1  0.37895314  0.09772315  0.67356555  1
  O  O77  1  0.32333589  0.18106364  0.32319125  1
  O  O78  1  0.08695029  0.65956452  0.15797795  1
  O  O79  1  0.00597422  0.79021569  0.75302579  1
  O  O80  1  0.01202966  0.75471138  0.93050091  1
  O  O81  1  0.07644923  0.53802948  0.66877566  1
  O  O82  1  0.18645637  0.33894626  0.82036270  1
  O  O83  1  0.11261229  0.36889101  0.16920216  1
  O  O84  1  0.25982722  0.07462931  0.15894056  1
  O  O85  1  0.25183782  0.98892374  0.93186842  1
  O  O86  1  0.20659084  0.00550675  0.75219957  1
  O  O87  1  0.07975151  0.26038534  0.66133090  1
  O  O88  1  0.99619019  0.22507392  0.43384658  1
  O  O89  1  0.01746167  0.20076879  0.25709397  1
