# generated using pymatgen
data_Li4V3P8O29
_symmetry_space_group_name_H-M   'P 1'
_cell_length_a   9.76585911
_cell_length_b   9.74018139
_cell_length_c   14.50132800
_cell_angle_alpha   90.00772241
_cell_angle_beta   90.66499420
_cell_angle_gamma   60.07458721
_symmetry_Int_Tables_number   1
_chemical_formula_structural   Li4V3P8O29
_chemical_formula_sum   'Li8 V6 P16 O58'
_cell_volume   1195.37268818
_cell_formula_units_Z   2
loop_
 _symmetry_equiv_pos_site_id
 _symmetry_equiv_pos_as_xyz
  1  'x, y, z'
loop_
 _atom_site_type_symbol
 _atom_site_label
 _atom_site_symmetry_multiplicity
 _atom_site_fract_x
 _atom_site_fract_y
 _atom_site_fract_z
 _atom_site_occupancy
  Li  Li0  1  0.77150063  0.86985640  0.53101250  1
  Li  Li1  1  0.77154947  0.35844937  0.03101644  1
  Li  Li2  1  0.32376668  0.90636483  0.06503040  1
  Li  Li3  1  0.67894666  0.22657650  0.44279246  1
  Li  Li4  1  0.32364605  0.76986522  0.56502606  1
  Li  Li5  1  0.67889766  0.09453177  0.94276702  1
  Li  Li6  1  0.04072788  0.93644933  0.00073307  1
  Li  Li7  1  0.04046956  0.02292951  0.50080611  1
  V  V8  1  0.56151619  0.43688656  0.25454432  1
  V  V9  1  0.43242616  0.56592581  0.74014718  1
  V  V10  1  0.56159395  0.00155727  0.75442294  1
  V  V11  1  0.43235469  0.00162671  0.24023041  1
  V  V12  1  -0.00007418  0.55997782  0.25362545  1
  V  V13  1  -0.00013604  0.44027743  0.75353451  1
  P  P14  1  0.91807967  0.78222482  0.84308106  1
  P  P15  1  0.77384940  0.91225413  0.33124315  1
  P  P16  1  0.91806833  0.29975223  0.34307822  1
  P  P17  1  0.67304122  0.65541115  0.13429415  1
  P  P18  1  0.67300356  0.67140368  0.63423700  1
  P  P19  1  0.77387730  0.31394406  0.83128824  1
  P  P20  1  0.68366141  0.22010472  0.65541296  1
  P  P21  1  0.31341533  0.91257781  0.84804749  1
  P  P22  1  0.68359876  0.09614685  0.15542556  1
  P  P23  1  0.31329120  0.77412354  0.34807846  1
  P  P24  1  0.21208857  0.69673895  0.17354430  1
  P  P25  1  0.33758750  0.32325595  0.36325948  1
  P  P26  1  0.33745634  0.33929459  0.86323212  1
  P  P27  1  0.07428546  0.70061678  0.65914844  1
  P  P28  1  0.21231069  0.09099224  0.67350624  1
  P  P29  1  0.07427506  0.22517506  0.15912596  1
  O  O30  1  0.97938850  0.79664666  0.57843443  1
  O  O31  1  0.91760815  0.74117623  0.32988153  1
  O  O32  1  0.76459294  0.02460362  0.06713682  1
  O  O33  1  0.74253134  0.92442728  0.83842869  1
  O  O34  1  0.91793273  0.62375407  0.82987578  1
  O  O35  1  0.81240569  0.66591758  0.18068299  1
  O  O36  1  0.91800240  0.45837860  0.32994339  1
  O  O37  1  0.97940373  0.22417828  0.07833372  1
  O  O38  1  0.91753300  0.34123548  0.82987242  1
  O  O39  1  0.65840494  0.81128707  0.69846593  1
  O  O40  1  0.62309504  0.90516608  0.31637460  1
  O  O41  1  0.81241806  0.52159067  0.68067181  1
  O  O42  1  0.70013563  0.59026915  0.03858628  1
  O  O43  1  0.70018021  0.70938649  0.53858830  1
  O  O44  1  0.65837573  0.53036041  0.19847016  1
  O  O45  1  0.46001162  0.93321590  0.84120802  1
  O  O46  1  0.51974224  0.81761241  0.14603206  1
  O  O47  1  0.74252636  0.33311474  0.33843121  1
  O  O48  1  0.79659123  0.20147784  0.74321657  1
  O  O49  1  0.76460948  0.21078903  0.56717596  1
  O  O50  1  0.77625692  0.22828947  0.91835990  1
  O  O51  1  0.62309713  0.47172881  0.81642341  1
  O  O52  1  0.51983078  0.66259814  0.64599718  1
  O  O53  1  0.65401283  0.26890274  0.16465595  1
  O  O54  1  0.46001434  0.60677091  0.34126675  1
  O  O55  1  0.35616976  0.89763616  0.31330299  1
  O  O56  1  0.79653780  0.00191937  0.24319434  1
  O  O57  1  0.77602255  0.99571233  0.41837685  1
  O  O58  1  0.19648220  0.99495038  0.59829083  1
  O  O59  1  0.65407340  0.07697689  0.66461338  1
  O  O60  1  0.52732056  0.37787639  0.66966421  1
  O  O61  1  0.35635383  0.74608935  0.81326406  1
  O  O62  1  0.48537877  0.32289307  0.31579584  1
  O  O63  1  0.37822417  0.54567233  0.17919288  1
  O  O64  1  0.19666713  0.80843763  0.09836580  1
  O  O65  1  0.23804444  0.81167279  0.44039101  1
  O  O66  1  0.18726550  0.78147948  0.27278966  1
  O  O67  1  0.24677034  0.66664262  0.65561949  1
  O  O68  1  0.48535338  0.19162171  0.81571231  1
  O  O69  1  0.52734433  0.09474508  0.16967503  1
  O  O70  1  0.32861446  0.48790569  0.81964112  1
  O  O71  1  0.36034982  0.31459365  0.96444683  1
  O  O72  1  0.36026677  0.32511809  0.46452559  1
  O  O73  1  0.18639987  0.47589780  0.32302040  1
  O  O74  1  0.37824260  0.07591172  0.67912799  1
  O  O75  1  0.32857104  0.18350430  0.31971242  1
  O  O76  1  0.08315144  0.65030071  0.16916279  1
  O  O77  1  0.00048858  0.80257152  0.75231322  1
  O  O78  1  0.99712398  0.79736958  0.92699420  1
  O  O79  1  0.07584659  0.54248498  0.67620428  1
  O  O80  1  0.18649048  0.33774956  0.82302770  1
  O  O81  1  0.07591502  0.38175627  0.17622704  1
  O  O82  1  0.24686741  0.08660794  0.15562065  1
  O  O83  1  0.23822598  0.95011942  0.94033964  1
  O  O84  1  0.18732429  0.03118544  0.77269451  1
  O  O85  1  0.08325477  0.26658836  0.66912551  1
  O  O86  1  0.99714490  0.20537636  0.42692356  1
  O  O87  1  0.00037369  0.19713829  0.25222928  1
