# generated using pymatgen
data_Li5V3P8O29
_symmetry_space_group_name_H-M   'P 1'
_cell_length_a   9.84196966
_cell_length_b   9.81713809
_cell_length_c   14.02431396
_cell_angle_alpha   89.78336191
_cell_angle_beta   89.71706733
_cell_angle_gamma   60.20210475
_symmetry_Int_Tables_number   1
_chemical_formula_structural   Li5V3P8O29
_chemical_formula_sum   'Li10 V6 P16 O58'
_cell_volume   1175.85626447
_cell_formula_units_Z   2
loop_
 _symmetry_equiv_pos_site_id
 _symmetry_equiv_pos_as_xyz
  1  'x, y, z'
loop_
 _atom_site_type_symbol
 _atom_site_label
 _atom_site_symmetry_multiplicity
 _atom_site_fract_x
 _atom_site_fract_y
 _atom_site_fract_z
 _atom_site_occupancy
  Li  Li0  1  0.91372798  0.77801793  0.06123750  1
  Li  Li1  1  0.77366999  0.90218192  0.55731057  1
  Li  Li2  1  0.90595101  0.32166613  0.55914214  1
  Li  Li3  1  0.66675430  0.66367810  0.88564598  1
  Li  Li4  1  0.77521225  0.30755562  0.05981510  1
  Li  Li5  1  0.31559504  0.91141176  0.05988176  1
  Li  Li6  1  0.68186943  0.22328236  0.44068351  1
  Li  Li7  1  0.31844406  0.76851720  0.56104220  1
  Li  Li8  1  0.22519853  0.09119107  0.43881696  1
  Li  Li9  1  0.09341785  0.22850198  0.93982737  1
  V  V10  1  0.56268245  0.43545534  0.24948724  1
  V  V11  1  0.43083780  0.56594810  0.75366383  1
  V  V12  1  0.56862833  0.00501641  0.75371825  1
  V  V13  1  0.43368211  0.00146207  0.24930554  1
  V  V14  1  0.00122081  0.57036957  0.25189604  1
  V  V15  1  0.99907702  0.43421040  0.74551199  1
  P  P16  1  0.91015064  0.76878224  0.84337763  1
  P  P17  1  0.76707299  0.91234279  0.34085550  1
  P  P18  1  0.90941025  0.32126552  0.34081220  1
  P  P19  1  0.66641964  0.66746785  0.12740198  1
  P  P20  1  0.66320442  0.66917761  0.62803475  1
  P  P21  1  0.77039845  0.32085264  0.84201126  1
  P  P22  1  0.68026330  0.23356459  0.65956830  1
  P  P23  1  0.31922918  0.91090616  0.84203402  1
  P  P24  1  0.68285740  0.08776929  0.15848299  1
  P  P25  1  0.31784304  0.76889322  0.34391866  1
  P  P26  1  0.23059780  0.68521069  0.15945999  1
  P  P27  1  0.33320196  0.33332371  0.37131460  1
  P  P28  1  0.33005785  0.33294903  0.87317013  1
  P  P29  1  0.08457788  0.68725189  0.65902383  1
  P  P30  1  0.23474215  0.08571810  0.65842554  1
  P  P31  1  0.08632651  0.23443246  0.15884029  1
  O  O32  1  0.98918666  0.76957202  0.57469143  1
  O  O33  1  0.91263989  0.74715052  0.33314316  1
  O  O34  1  0.77226933  0.99712493  0.07417569  1
  O  O35  1  0.74220644  0.91709747  0.83137330  1
  O  O36  1  0.88567088  0.62624313  0.82512539  1
  O  O37  1  0.81473334  0.67003500  0.16355383  1
  O  O38  1  0.89688566  0.48035000  0.32435910  1
  O  O39  1  0.99872934  0.24527902  0.06894641  1
  O  O40  1  0.92082934  0.33704721  0.83590940  1
  O  O41  1  0.66618563  0.81735078  0.67083102  1
  O  O42  1  0.61875544  0.90023910  0.32202755  1
  O  O43  1  0.81230462  0.51384637  0.66529511  1
  O  O44  1  0.66444046  0.66099685  0.02005707  1
  O  O45  1  0.66228363  0.67295567  0.52185750  1
  O  O46  1  0.66830082  0.51396735  0.16877182  1
  O  O47  1  0.48472179  0.89537426  0.82526588  1
  O  O48  1  0.51397899  0.81341624  0.16519447  1
  O  O49  1  0.74372721  0.33688384  0.33870337  1
  O  O50  1  0.78845773  0.21268131  0.75088064  1
  O  O51  1  0.76220681  0.23682717  0.56957226  1
  O  O52  1  0.76278033  0.24742431  0.93256970  1
  O  O53  1  0.62763384  0.48777874  0.82482825  1
  O  O54  1  0.51309781  0.66998586  0.67025090  1
  O  O55  1  0.66159404  0.25715759  0.16189634  1
  O  O56  1  0.47833010  0.61782193  0.32027614  1
  O  O57  1  0.33716098  0.91622414  0.33841630  1
  O  O58  1  0.78510823  0.00975039  0.25459104  1
  O  O59  1  0.75674447  0.99651327  0.43198482  1
  O  O60  1  0.24813936  0.99660884  0.56894864  1
  O  O61  1  0.66305481  0.08349149  0.66187753  1
  O  O62  1  0.52207186  0.38132327  0.67396701  1
  O  O63  1  0.34173098  0.74633797  0.84145193  1
  O  O64  1  0.48868912  0.33004490  0.32814416  1
  O  O65  1  0.38213931  0.52253304  0.17888759  1
  O  O66  1  0.24739674  0.76481390  0.07432530  1
  O  O67  1  0.25216835  0.75484071  0.43601535  1
  O  O68  1  0.20749024  0.78659390  0.25526702  1
  O  O69  1  0.25059097  0.66434630  0.65982362  1
  O  O70  1  0.47877703  0.18206276  0.82511152  1
  O  O71  1  0.52279249  0.09902635  0.17434886  1
  O  O72  1  0.33828449  0.47624108  0.82792915  1
  O  O73  1  0.34107494  0.32262844  0.97828018  1
  O  O74  1  0.34719377  0.32440926  0.47707340  1
  O  O75  1  0.19256702  0.47992937  0.32746769  1
  O  O76  1  0.38431360  0.09378135  0.67910011  1
  O  O77  1  0.33006935  0.18415277  0.33158555  1
  O  O78  1  0.08653088  0.66286301  0.15848014  1
  O  O79  1  0.00553065  0.78567864  0.75585515  1
  O  O80  1  0.98442384  0.76625316  0.93477451  1
  O  O81  1  0.09199421  0.52567545  0.67797844  1
  O  O82  1  0.18335595  0.33082157  0.83382679  1
  O  O83  1  0.09419972  0.38455998  0.17757021  1
  O  O84  1  0.25151879  0.08686507  0.15939279  1
  O  O85  1  0.24420070  0.00478296  0.93024760  1
  O  O86  1  0.21220340  0.99956920  0.75035774  1
  O  O87  1  0.08657734  0.25026791  0.65735534  1
  O  O88  1  0.99588366  0.23867197  0.43018997  1
  O  O89  1  0.99814518  0.21053420  0.24962416  1
