# generated using pymatgen
data_Li4VCo3(PO4)4
_symmetry_space_group_name_H-M   'P 1'
_cell_length_a   4.75189669
_cell_length_b   10.33610815
_cell_length_c   6.00988156
_cell_angle_alpha   90.00000000
_cell_angle_beta   90.00000000
_cell_angle_gamma   90.09520621
_symmetry_Int_Tables_number   1
_chemical_formula_structural   Li4VCo3(PO4)4
_chemical_formula_sum   'Li4 V1 Co3 P4 O16'
_cell_volume   295.18164502
_cell_formula_units_Z   1
loop_
 _symmetry_equiv_pos_site_id
 _symmetry_equiv_pos_as_xyz
  1  'x, y, z'
loop_
 _atom_site_type_symbol
 _atom_site_label
 _atom_site_symmetry_multiplicity
 _atom_site_fract_x
 _atom_site_fract_y
 _atom_site_fract_z
 _atom_site_occupancy
  Li  Li0  1  0.00058697  0.99844005  0.99846962  1
  Li  Li1  1  0.00058697  0.99844005  0.50153038  1
  Li  Li2  1  0.50051335  0.50058243  0.49950574  1
  Li  Li3  1  0.50051335  0.50058243  0.00049426  1
  V  V4  1  0.98020996  0.27599424  0.25000000  1
  Co  Co5  1  0.02431150  0.71945688  0.75000000  1
  Co  Co6  1  0.47665431  0.22094439  0.75000000  1
  Co  Co7  1  0.52475784  0.78018818  0.25000000  1
  P  P8  1  0.08681655  0.59520534  0.25000000  1
  P  P9  1  0.41475129  0.09223574  0.25000000  1
  P  P10  1  0.58601906  0.90552092  0.75000000  1
  P  P11  1  0.90965924  0.40763365  0.75000000  1
  O  O12  1  0.21025587  0.45577222  0.25000000  1
  O  O13  1  0.22525837  0.66607767  0.04465170  1
  O  O14  1  0.22525837  0.66607767  0.45534830  1
  O  O15  1  0.23341696  0.40208725  0.75000000  1
  O  O16  1  0.26316537  0.90191669  0.75000000  1
  O  O17  1  0.27893881  0.16350439  0.04358860  1
  O  O18  1  0.27893881  0.16350439  0.45641140  1
  O  O19  1  0.29152102  0.95304693  0.25000000  1
  O  O20  1  0.70759803  0.04619571  0.75000000  1
  O  O21  1  0.72465853  0.83502617  0.54486638  1
  O  O22  1  0.72465853  0.83502617  0.95513362  1
  O  O23  1  0.73769312  0.09494979  0.25000000  1
  O  O24  1  0.76394278  0.59852148  0.25000000  1
  O  O25  1  0.76823286  0.33745725  0.54666607  1
  O  O26  1  0.76823286  0.33745725  0.95333393  1
  O  O27  1  0.79284633  0.54815467  0.75000000  1
