# generated using pymatgen
data_Li4MnCo5O12
_symmetry_space_group_name_H-M   'P 1'
_cell_length_a   5.03297082
_cell_length_b   4.95427834
_cell_length_c   10.01485522
_cell_angle_alpha   90.67297106
_cell_angle_beta   91.32500174
_cell_angle_gamma   59.47316027
_symmetry_Int_Tables_number   1
_chemical_formula_structural   Li4MnCo5O12
_chemical_formula_sum   'Li4 Mn1 Co5 O12'
_cell_volume   215.04722292
_cell_formula_units_Z   1
loop_
 _symmetry_equiv_pos_site_id
 _symmetry_equiv_pos_as_xyz
  1  'x, y, z'
loop_
 _atom_site_type_symbol
 _atom_site_label
 _atom_site_symmetry_multiplicity
 _atom_site_fract_x
 _atom_site_fract_y
 _atom_site_fract_z
 _atom_site_occupancy
  Li  Li0  1  0.16101305  0.49094024  0.75182453  1
  Li  Li1  1  0.34804671  0.49094024  0.24817547  1
  Li  Li2  1  0.65195329  0.50905976  0.75182453  1
  Li  Li3  1  0.83898695  0.50905976  0.24817547  1
  Mn  Mn4  1  0.00000000  0.00000000  -0.00000000  1
  Co  Co5  1  0.16311473  0.67377053  0.50000000  1
  Co  Co6  1  0.66456682  0.67086636  1.00000000  1
  Co  Co7  1  0.33543318  0.32913364  0.00000000  1
  Co  Co8  1  0.83688527  0.32622947  0.50000000  1
  Co  Co9  1  0.50000000  0.00000000  0.50000000  1
  O  O10  1  0.00668574  0.66091798  0.10276115  1
  O  O11  1  0.33239628  0.66091798  0.89723885  1
  O  O12  1  0.18522661  0.32367234  0.39302416  1
  O  O13  1  0.50889995  0.67632766  0.39302416  1
  O  O14  1  0.49110005  0.32367234  0.60697584  1
  O  O15  1  0.18562249  0.00000000  0.60116686  1
  O  O16  1  0.81477339  0.67632766  0.60697584  1
  O  O17  1  0.66760372  0.33908202  0.10276115  1
  O  O18  1  0.33557595  0.00000000  0.09833008  1
  O  O19  1  0.99331426  0.33908202  0.89723885  1
  O  O20  1  0.66442405  1.00000000  0.90166992  1
  O  O21  1  0.81437751  1.00000000  0.39883314  1
