# generated using pymatgen
data_Li2VCO5
_symmetry_space_group_name_H-M   'P 1'
_cell_length_a   9.38923885
_cell_length_b   12.04996744
_cell_length_c   2.92664438
_cell_angle_alpha   90.15353424
_cell_angle_beta   88.96301976
_cell_angle_gamma   89.98978484
_symmetry_Int_Tables_number   1
_chemical_formula_structural   Li2VCO5
_chemical_formula_sum   'Li8 V4 C4 O20'
_cell_volume   331.06518380
_cell_formula_units_Z   4
loop_
 _symmetry_equiv_pos_site_id
 _symmetry_equiv_pos_as_xyz
  1  'x, y, z'
loop_
 _atom_site_type_symbol
 _atom_site_label
 _atom_site_symmetry_multiplicity
 _atom_site_fract_x
 _atom_site_fract_y
 _atom_site_fract_z
 _atom_site_occupancy
  Li  Li0  1  0.00475486  0.28140901  0.50155726  1
  Li  Li1  1  0.00000096  0.99994656  0.49952860  1
  Li  Li2  1  0.99981125  0.49983185  0.01079425  1
  Li  Li3  1  0.99523756  0.71850367  0.50413934  1
  Li  Li4  1  0.50475146  0.21857707  0.50173312  1
  Li  Li5  1  0.49999862  0.50013252  0.49443393  1
  Li  Li6  1  0.50002069  0.99998801  -0.00004676  1
  Li  Li7  1  0.49520783  0.78137958  0.49645542  1
  V  V8  1  0.24307786  0.11297466  0.99733393  1
  V  V9  1  0.25687957  0.61299409  0.99784299  1
  V  V10  1  0.74301461  0.38700304  0.99672300  1
  V  V11  1  0.75690680  0.88697692  0.00246163  1
  C  C12  1  0.23340287  0.86129792  0.00037229  1
  C  C13  1  0.26659289  0.36123186  0.99904402  1
  C  C14  1  0.73329320  0.63876556  0.99934651  1
  C  C15  1  0.76669778  0.13871906  0.00140726  1
  O  O16  1  0.11709636  0.14300177  0.47612323  1
  O  O17  1  0.12768693  0.57913636  0.53478254  1
  O  O18  1  0.13190266  0.36183477  0.00054577  1
  O  O19  1  0.16052013  0.76824070  0.00925733  1
  O  O20  1  0.15732212  0.95304711  0.99314012  1
  O  O21  1  0.34262463  0.45305413  0.99005931  1
  O  O22  1  0.33950002  0.26824988  0.00659484  1
  O  O23  1  0.36811306  0.86195600  0.99898548  1
  O  O24  1  0.37271762  0.07905124  0.52459043  1
  O  O25  1  0.38283495  0.64318418  0.46214488  1
  O  O26  1  0.61707739  0.35703760  0.47478212  1
  O  O27  1  0.62728097  0.92094607  0.47484472  1
  O  O28  1  0.63200895  0.13810739  0.99419981  1
  O  O29  1  0.66052447  0.73177225  0.99075300  1
  O  O30  1  0.65732832  0.54694260  0.99150983  1
  O  O31  1  0.84268968  0.04692677  0.00670576  1
  O  O32  1  0.83952241  0.23179401  0.00557941  1
  O  O33  1  0.86789474  0.63810657  0.01196210  1
  O  O34  1  0.87278665  0.42093025  0.52613837  1
  O  O35  1  0.88292015  0.85694794  0.52417415  1
