# generated using pymatgen
data_Li3V3P8O29
_symmetry_space_group_name_H-M   'P 1'
_cell_length_a   9.76860188
_cell_length_b   9.78674492
_cell_length_c   14.55553367
_cell_angle_alpha   90.00032921
_cell_angle_beta   90.47820187
_cell_angle_gamma   59.93646733
_symmetry_Int_Tables_number   1
_chemical_formula_structural   Li3V3P8O29
_chemical_formula_sum   'Li6 V6 P16 O58'
_cell_volume   1204.28942669
_cell_formula_units_Z   2
loop_
 _symmetry_equiv_pos_site_id
 _symmetry_equiv_pos_as_xyz
  1  'x, y, z'
loop_
 _atom_site_type_symbol
 _atom_site_label
 _atom_site_symmetry_multiplicity
 _atom_site_fract_x
 _atom_site_fract_y
 _atom_site_fract_z
 _atom_site_occupancy
  Li  Li0  1  0.76686123  0.91106592  0.55465566  1
  Li  Li1  1  0.76685133  0.32200998  0.05458041  1
  Li  Li2  1  0.31965642  0.90744647  0.05943838  1
  Li  Li3  1  0.31981792  0.77282605  0.55941378  1
  Li  Li4  1  0.98338722  0.94706353  0.01092152  1
  Li  Li5  1  0.98361167  0.06912104  0.51086493  1
  V  V6  1  0.56447974  0.43731078  0.25300423  1
  V  V7  1  0.43868498  0.56031359  0.74715958  1
  V  V8  1  0.56453518  0.99822185  0.75291744  1
  V  V9  1  0.43864814  0.00104670  0.24714897  1
  V  V10  1  0.99816487  0.56242164  0.24761874  1
  V  V11  1  0.99820488  0.43941291  0.74754362  1
  P  P12  1  0.91987908  0.77628479  0.84072752  1
  P  P13  1  0.77769546  0.90936148  0.34009701  1
  P  P14  1  0.91987937  0.30382521  0.34076401  1
  P  P15  1  0.66401581  0.66432362  0.13272953  1
  P  P16  1  0.66400602  0.67165313  0.63268278  1
  P  P17  1  0.77777284  0.31285896  0.84001257  1
  P  P18  1  0.69710919  0.21639052  0.66255496  1
  P  P19  1  0.31515443  0.90792609  0.84268986  1
  P  P20  1  0.69711034  0.08655971  0.16269372  1
  P  P21  1  0.31500223  0.77707022  0.34270677  1
  P  P22  1  0.21684304  0.69551371  0.16722599  1
  P  P23  1  0.33337461  0.33298647  0.36149867  1
  P  P24  1  0.33342449  0.33359798  0.86146539  1
  P  P25  1  0.08297425  0.69601366  0.66028361  1
  P  P26  1  0.21691355  0.08759838  0.66720142  1
  P  P27  1  0.08291770  0.22109538  0.16031208  1
  O  O28  1  0.99131572  0.79622267  0.58078049  1
  O  O29  1  0.91532757  0.73855404  0.32688109  1
  O  O30  1  0.79794456  0.00583956  0.08309913  1
  O  O31  1  0.74405674  0.91122532  0.82632280  1
  O  O32  1  0.92433319  0.61667189  0.82711237  1
  O  O33  1  0.81023020  0.66305755  0.18008773  1
  O  O34  1  0.92440511  0.45890709  0.32722821  1
  O  O35  1  0.99123386  0.21260126  0.08079763  1
  O  O36  1  0.91540895  0.34610876  0.82683354  1
  O  O37  1  0.66647419  0.81890205  0.67490965  1
  O  O38  1  0.61933122  0.90967004  0.32007607  1
  O  O39  1  0.81028581  0.52662532  0.68002604  1
  O  O40  1  0.66627252  0.65706800  0.03095954  1
  O  O41  1  0.66615096  0.67659315  0.53090958  1
  O  O42  1  0.66633837  0.51471726  0.17501848  1
  O  O43  1  0.47256359  0.90833478  0.82521762  1
  O  O44  1  0.51267185  0.81549550  0.16967426  1
  O  O45  1  0.74401183  0.34479633  0.32637559  1
  O  O46  1  0.79230914  0.19582123  0.75845877  1
  O  O47  1  0.79789600  0.19620826  0.58291808  1
  O  O48  1  0.77971379  0.24300690  0.93061922  1
  O  O49  1  0.61939289  0.47093096  0.82004932  1
  O  O50  1  0.51269483  0.67188664  0.66971349  1
  O  O51  1  0.65322975  0.26333032  0.16526364  1
  O  O52  1  0.47238650  0.61915554  0.32533414  1
  O  O53  1  0.34531225  0.91567243  0.32250935  1
  O  O54  1  0.79219664  0.01202364  0.25862511  1
  O  O55  1  0.77958419  0.97724718  0.43073580  1
  O  O56  1  0.19838348  0.99880804  0.58928707  1
  O  O57  1  0.65324476  0.08348553  0.66518802  1
  O  O58  1  0.54323796  0.38036842  0.67113467  1
  O  O59  1  0.34531277  0.73905120  0.82253275  1
  O  O60  1  0.47990307  0.33727631  0.31866593  1
  O  O61  1  0.38001044  0.54301930  0.17521545  1
  O  O62  1  0.19832626  0.80279359  0.08927699  1
  O  O63  1  0.24718333  0.78685340  0.43467342  1
  O  O64  1  0.19438740  0.78856112  0.26356107  1
  O  O65  1  0.25901354  0.65578645  0.65912162  1
  O  O66  1  0.47992905  0.18281071  0.81859737  1
  O  O67  1  0.54321647  0.07646961  0.17121734  1
  O  O68  1  0.33964077  0.47651610  0.81364193  1
  O  O69  1  0.33733994  0.33677508  0.96254369  1
  O  O70  1  0.33734532  0.32574400  0.46258185  1
  O  O71  1  0.18626181  0.47752535  0.31689466  1
  O  O72  1  0.38005475  0.07696255  0.67515333  1
  O  O73  1  0.33956915  0.18387971  0.31362904  1
  O  O74  1  0.08392512  0.65306507  0.16803334  1
  O  O75  1  0.01235201  0.79332058  0.75404369  1
  O  O76  1  0.98962773  0.79654067  0.92590688  1
  O  O77  1  0.07835011  0.54040557  0.67252425  1
  O  O78  1  0.18625696  0.33624273  0.81681510  1
  O  O79  1  0.07836043  0.38124346  0.17258363  1
  O  O80  1  0.25896286  0.08523138  0.15912393  1
  O  O81  1  0.24746710  0.96603827  0.93466502  1
  O  O82  1  0.19447062  0.01710357  0.76357016  1
  O  O83  1  0.08395051  0.26301945  0.66798136  1
  O  O84  1  0.98962746  0.21362180  0.42591650  1
  O  O85  1  0.01229962  0.19435550  0.25405509  1
