# generated using pymatgen
data_Li3MnV(PO4)3
_symmetry_space_group_name_H-M   'P 1'
_cell_length_a   9.29286235
_cell_length_b   8.36153944
_cell_length_c   8.45878554
_cell_angle_alpha   60.19876841
_cell_angle_beta   63.26097985
_cell_angle_gamma   90.45480650
_symmetry_Int_Tables_number   1
_chemical_formula_structural   Li3MnV(PO4)3
_chemical_formula_sum   'Li6 Mn2 V2 P6 O24'
_cell_volume   486.09135127
_cell_formula_units_Z   2
loop_
 _symmetry_equiv_pos_site_id
 _symmetry_equiv_pos_as_xyz
  1  'x, y, z'
loop_
 _atom_site_type_symbol
 _atom_site_label
 _atom_site_symmetry_multiplicity
 _atom_site_fract_x
 _atom_site_fract_y
 _atom_site_fract_z
 _atom_site_occupancy
  Li  Li0  1  0.14066669  0.74263622  0.18939080  1
  Li  Li1  1  0.37443625  0.18272010  0.37325312  1
  Li  Li2  1  0.59454122  0.79829428  0.66819481  1
  Li  Li3  1  0.85780125  0.67369724  0.06698416  1
  Li  Li4  1  0.91428571  0.95429635  0.34252502  1
  Li  Li5  1  0.88535552  0.24761810  0.80651305  1
  Mn  Mn6  1  0.56242807  0.85596533  0.28591925  1
  Mn  Mn7  1  0.43200627  0.15293439  0.71207809  1
  V  V8  1  0.03484991  0.34358512  0.30834451  1
  V  V9  1  0.97183882  0.64513782  0.69152796  1
  P  P10  1  0.24841400  0.05080815  0.21456839  1
  P  P11  1  0.24469682  0.45866341  0.49114357  1
  P  P12  1  0.23731675  0.73430896  0.81268314  1
  P  P13  1  0.75806324  0.25657048  0.19478747  1
  P  P14  1  0.75730547  0.54599778  0.50812909  1
  P  P15  1  0.75741086  0.95377327  0.77315347  1
  O  O16  1  0.10880321  0.84331210  0.37192637  1
  O  O17  1  0.26247689  0.12652565  0.00314996  1
  O  O18  1  0.17822675  0.17875183  0.30308056  1
  O  O19  1  0.16888185  0.48865349  0.34684701  1
  O  O20  1  0.09701001  0.45883039  0.68449120  1
  O  O21  1  0.10787957  0.76927766  0.73352413  1
  O  O22  1  0.40803376  0.03919116  0.22442759  1
  O  O23  1  0.26988806  0.25841274  0.57916119  1
  O  O24  1  0.40265609  0.62281946  0.36234787  1
  O  O25  1  0.16204745  0.51961572  0.01078590  1
  O  O26  1  0.23784482  0.86544021  0.88919173  1
  O  O27  1  0.40925598  0.76831673  0.63523813  1
  O  O28  1  0.58322924  0.21463321  0.37525862  1
  O  O29  1  0.75871384  0.13334068  0.10747881  1
  O  O30  1  0.82739303  0.47739399  0.00960811  1
  O  O31  1  0.59658018  0.38970681  0.63340837  1
  O  O32  1  0.73746920  0.75238281  0.42140717  1
  O  O33  1  0.58859484  0.95583820  0.78534600  1
  O  O34  1  0.88322301  0.20592894  0.27975545  1
  O  O35  1  0.89961280  0.55027425  0.30995948  1
  O  O36  1  0.83113143  0.51454088  0.65516092  1
  O  O37  1  0.83044158  0.83297366  0.67622083  1
  O  O38  1  0.75048255  0.87100593  0.98482706  1
  O  O39  1  0.88353400  0.16799751  0.61724567  1
