# generated using pymatgen
data_K3(Fe11O17)2
_symmetry_space_group_name_H-M   'P 1'
_cell_length_a   6.05914758
_cell_length_b   6.07034893
_cell_length_c   24.13781087
_cell_angle_alpha   89.84536055
_cell_angle_beta   89.85135092
_cell_angle_gamma   120.01548331
_symmetry_Int_Tables_number   1
_chemical_formula_structural   K3(Fe11O17)2
_chemical_formula_sum   'K3 Fe22 O34'
_cell_volume   768.74061945
_cell_formula_units_Z   1
loop_
 _symmetry_equiv_pos_site_id
 _symmetry_equiv_pos_as_xyz
  1  'x, y, z'
loop_
 _atom_site_type_symbol
 _atom_site_label
 _atom_site_symmetry_multiplicity
 _atom_site_fract_x
 _atom_site_fract_y
 _atom_site_fract_z
 _atom_site_occupancy
  K  K0  1  0.35826844  0.67939990  0.75464731  1
  K  K1  1  0.63776516  0.39723961  0.24501615  1
  K  K2  1  0.92972550  0.08508605  0.24729922  1
  Fe  Fe3  1  0.16826902  0.83164991  0.89483525  1
  Fe  Fe4  1  0.16874127  0.83295847  0.60543339  1
  Fe  Fe5  1  0.33074568  0.67093559  0.17110521  1
  Fe  Fe6  1  0.33798062  0.66939820  0.02426443  1
  Fe  Fe7  1  0.33222522  0.67002539  0.32587836  1
  Fe  Fe8  1  0.16831684  0.33653269  0.89476936  1
  Fe  Fe9  1  0.16854290  0.33614694  0.60543227  1
  Fe  Fe10  1  0.33314530  0.66624162  0.47388315  1
  Fe  Fe11  1  0.00147296  0.00066900  0.00235358  1
  Fe  Fe12  1  0.00087930  0.00045737  0.49977227  1
  Fe  Fe13  1  0.66530059  0.83301559  0.60516332  1
  Fe  Fe14  1  0.66408785  0.83197038  0.89544146  1
  Fe  Fe15  1  0.33034595  0.16623418  0.10537146  1
  Fe  Fe16  1  0.33539742  0.16819624  0.39396385  1
  Fe  Fe17  1  0.66666993  0.33336813  0.67471321  1
  Fe  Fe18  1  0.83539973  0.67020383  0.10537521  1
  Fe  Fe19  1  0.66794513  0.33432995  0.82667267  1
  Fe  Fe20  1  0.66727550  0.33349283  0.97555655  1
  Fe  Fe21  1  0.83216259  0.66506368  0.39426431  1
  Fe  Fe22  1  0.66797791  0.33401469  0.52582556  1
  Fe  Fe23  1  0.83175377  0.16844765  0.39456130  1
  Fe  Fe24  1  0.83544308  0.16707906  0.10502936  1
  O  O25  1  0.15693477  0.84335350  0.44724286  1
  O  O26  1  0.15317479  0.84952875  0.05525537  1
  O  O27  1  0.00989054  0.50496040  0.64448031  1
  O  O28  1  0.01137676  0.50615678  0.85230863  1
  O  O29  1  0.35111120  0.64487501  0.25036066  1
  O  O30  1  0.15565995  0.31317080  0.44760597  1
  O  O31  1  0.99981891  0.99917332  0.14815450  1
  O  O32  1  -0.00003292  0.00104919  0.35529270  1
  O  O33  1  0.00094439  0.00079834  0.85903133  1
  O  O34  1  0.00011363  -0.00007971  0.64091314  1
  O  O35  1  0.33404400  0.66717783  0.55324282  1
  O  O36  1  0.33038510  0.66436563  0.94098315  1
  O  O37  1  0.15068576  0.30217997  0.05439037  1
  O  O38  1  0.49698481  0.99093072  0.85288269  1
  O  O39  1  0.49637177  0.99147456  0.64436031  1
  O  O40  1  0.31354968  0.15673422  0.54873080  1
  O  O41  1  0.31535014  0.15766853  0.95085124  1
  O  O42  1  0.49600394  0.50527859  0.64438114  1
  O  O43  1  0.49725890  0.50673986  0.85283789  1
  O  O44  1  0.50491231  0.49710135  0.35357711  1
  O  O45  1  0.50281328  0.49644298  0.14804037  1
  O  O46  1  0.68744042  0.84475579  0.44778561  1
  O  O47  1  0.69802547  0.85073866  0.05525765  1
  O  O48  1  0.50874632  0.01679979  0.35108967  1
  O  O49  1  0.66680972  0.33316712  0.44425534  1
  O  O50  1  0.65955352  0.33018935  0.74923429  1
  O  O51  1  0.66752036  0.33355184  0.05673181  1
  O  O52  1  0.51001586  0.02030110  0.15160000  1
  O  O53  1  0.84295888  0.68625071  0.95114750  1
  O  O54  1  0.84459082  0.68746280  0.54873986  1
  O  O55  1  0.98071444  0.49010853  0.15175951  1
  O  O56  1  0.98380562  0.49256943  0.35106011  1
  O  O57  1  0.84468747  0.15691924  0.54884407  1
  O  O58  1  0.84271374  0.15675210  0.95094202  1
