# generated using pymatgen
data_Li2VF4
_symmetry_space_group_name_H-M   'P 1'
_cell_length_a   10.64617950
_cell_length_b   6.36256269
_cell_length_c   11.44625367
_cell_angle_alpha   90.00000000
_cell_angle_beta   56.36353882
_cell_angle_gamma   90.00000000
_symmetry_Int_Tables_number   1
_chemical_formula_structural   Li2VF4
_chemical_formula_sum   'Li16 V8 F32'
_cell_volume   645.51957309
_cell_formula_units_Z   8
loop_
 _symmetry_equiv_pos_site_id
 _symmetry_equiv_pos_as_xyz
  1  'x, y, z'
loop_
 _atom_site_type_symbol
 _atom_site_label
 _atom_site_symmetry_multiplicity
 _atom_site_fract_x
 _atom_site_fract_y
 _atom_site_fract_z
 _atom_site_occupancy
  Li  Li0  1  0.34376860  0.03666593  0.08127397  1
  Li  Li1  1  0.15637317  0.46796024  0.41827267  1
  Li  Li2  1  0.34373687  0.53814369  0.07979783  1
  Li  Li3  1  0.15660897  0.96478006  0.41455613  1
  Li  Li4  1  0.34376860  0.46333407  0.58127397  1
  Li  Li5  1  0.15637317  0.03203976  0.91827267  1
  Li  Li6  1  0.34373687  0.96185631  0.57979783  1
  Li  Li7  1  0.15660897  0.53521994  0.91455613  1
  Li  Li8  1  0.84339103  0.46478006  0.08544387  1
  Li  Li9  1  0.65626313  0.03814369  0.42020217  1
  Li  Li10  1  0.84362683  0.96796024  0.08172733  1
  Li  Li11  1  0.65623140  0.53666593  0.41872603  1
  Li  Li12  1  0.84339103  0.03521994  0.58544387  1
  Li  Li13  1  0.65626313  0.46185631  0.92020217  1
  Li  Li14  1  0.84362683  0.53203976  0.58172733  1
  Li  Li15  1  0.65623140  0.96333407  0.91872603  1
  V  V16  1  0.00044581  0.28260427  0.24843352  1
  V  V17  1  0.00044581  0.21739573  0.74843352  1
  V  V18  1  0.49934350  0.22307521  0.24907568  1
  V  V19  1  0.50065650  0.72307521  0.25092432  1
  V  V20  1  0.49934350  0.27692479  0.74907568  1
  V  V21  1  0.50065650  0.77692479  0.75092432  1
  V  V22  1  0.99955419  0.78260427  0.25156648  1
  V  V23  1  0.99955419  0.71739573  0.75156648  1
  F  F24  1  0.00130287  0.03001250  0.12160692  1
  F  F25  1  0.99565376  0.03343698  0.37985498  1
  F  F26  1  0.23583032  0.28798471  0.13299525  1
  F  F27  1  0.23436419  0.78864851  0.14948511  1
  F  F28  1  0.00130287  0.46998750  0.62160692  1
  F  F29  1  0.99565376  0.46656302  0.87985498  1
  F  F30  1  0.26390064  0.21597108  0.36485362  1
  F  F31  1  0.23583032  0.21201529  0.63299525  1
  F  F32  1  0.50118819  0.97259979  0.12171362  1
  F  F33  1  0.23436419  0.71135149  0.64948511  1
  F  F34  1  0.26520320  0.71599039  0.37943841  1
  F  F35  1  0.49898143  0.47570068  0.12292446  1
  F  F36  1  0.50101857  0.97570068  0.37707554  1
  F  F37  1  0.26390064  0.28402892  0.86485362  1
  F  F38  1  0.73479680  0.21599039  0.12056159  1
  F  F39  1  0.49881181  0.47259979  0.37828638  1
  F  F40  1  0.50118819  0.52740021  0.62171362  1
  F  F41  1  0.26520320  0.78400961  0.87943841  1
  F  F42  1  0.73609936  0.71597108  0.13514638  1
  F  F43  1  0.49898143  0.02429932  0.62292446  1
  F  F44  1  0.50101857  0.52429932  0.87707554  1
  F  F45  1  0.73479680  0.28400961  0.62056159  1
  F  F46  1  0.76563581  0.28864851  0.35051489  1
  F  F47  1  0.49881181  0.02740021  0.87828638  1
  F  F48  1  0.76416968  0.78798471  0.36700475  1
  F  F49  1  0.73609936  0.78402892  0.63514638  1
  F  F50  1  0.00434624  0.53343698  0.12014502  1
  F  F51  1  0.99869713  0.53001250  0.37839308  1
  F  F52  1  0.76563581  0.21135149  0.85051489  1
  F  F53  1  0.76416968  0.71201529  0.86700475  1
  F  F54  1  0.00434624  0.96656302  0.62014502  1
  F  F55  1  0.99869713  0.96998750  0.87839308  1
