# generated using pymatgen
data_KLi(WO3)3
_symmetry_space_group_name_H-M   'P 1'
_cell_length_a   7.62591793
_cell_length_b   7.62840884
_cell_length_c   7.88483054
_cell_angle_alpha   89.99880571
_cell_angle_beta   89.99506878
_cell_angle_gamma   119.73291612
_symmetry_Int_Tables_number   1
_chemical_formula_structural   KLi(WO3)3
_chemical_formula_sum   'K2 Li2 W6 O18'
_cell_volume   398.30120776
_cell_formula_units_Z   2
loop_
 _symmetry_equiv_pos_site_id
 _symmetry_equiv_pos_as_xyz
  1  'x, y, z'
loop_
 _atom_site_type_symbol
 _atom_site_label
 _atom_site_symmetry_multiplicity
 _atom_site_fract_x
 _atom_site_fract_y
 _atom_site_fract_z
 _atom_site_occupancy
  K  K0  1  0.00618284  0.00288131  0.26930237  1
  K  K1  1  0.00275272  0.99674242  0.76734435  1
  Li  Li2  1  0.40861697  0.70117624  0.25072469  1
  Li  Li3  1  0.70434091  0.30217598  0.74910508  1
  W  W4  1  0.00501400  0.50251771  0.49796426  1
  W  W5  1  0.00477677  0.50382876  0.00189340  1
  W  W6  1  0.50270981  0.49696959  0.50195637  1
  W  W7  1  0.50137210  0.49704723  0.99783794  1
  W  W8  1  0.49954635  0.00092903  0.99991020  1
  W  W9  1  0.49867965  0.99985209  0.50002657  1
  O  O10  1  0.00458660  0.50367841  0.74993792  1
  O  O11  1  0.20435391  0.78400132  0.00845600  1
  O  O12  1  0.20161666  0.78386421  0.49209752  1
  O  O13  1  0.20654913  0.42318123  0.49301763  1
  O  O14  1  0.50054211  0.99650824  0.74277301  1
  O  O15  1  0.20334164  0.42019514  0.00582049  1
  O  O16  1  0.57603406  0.79553724  0.01668412  1
  O  O17  1  0.57615621  0.77929249  0.48255338  1
  O  O18  1  0.50233998  0.50454177  0.75722906  1
  O  O19  1  0.50077837  0.49622283  0.24233053  1
  O  O20  1  0.41644979  0.19926901  0.98984878  1
  O  O21  1  0.41643945  0.21538017  0.50920412  1
  O  O22  1  0.79608646  0.57677833  0.50720495  1
  O  O23  1  0.50096661  0.00288563  0.25758811  1
  O  O24  1  0.79863509  0.57947654  0.99436511  1
  O  O25  1  0.79281174  0.21972134  0.98401615  1
  O  O26  1  0.79552019  0.21982195  0.51447694  1
  O  O27  1  0.99763190  0.49552374  0.25011294  1
