# generated using pymatgen
data_Li3(VS2)4
_symmetry_space_group_name_H-M   'P 1'
_cell_length_a   6.65413772
_cell_length_b   7.62994481
_cell_length_c   6.66261979
_cell_angle_alpha   64.03177285
_cell_angle_beta   60.04210434
_cell_angle_gamma   64.14761193
_symmetry_Int_Tables_number   1
_chemical_formula_structural   Li3(VS2)4
_chemical_formula_sum   'Li3 V4 S8'
_cell_volume   253.01148685
_cell_formula_units_Z   1
loop_
 _symmetry_equiv_pos_site_id
 _symmetry_equiv_pos_as_xyz
  1  'x, y, z'
loop_
 _atom_site_type_symbol
 _atom_site_label
 _atom_site_symmetry_multiplicity
 _atom_site_fract_x
 _atom_site_fract_y
 _atom_site_fract_z
 _atom_site_occupancy
  Li  Li0  1  0.34303782  0.43279863  0.34543273  1
  Li  Li1  1  0.87873081  0.43279863  0.34543273  1
  Li  Li2  1  0.34329878  0.43163843  0.88176500  1
  V  V3  1  0.00392753  0.98607529  0.00606966  1
  V  V4  1  0.94700529  0.99246766  0.53393006  1
  V  V5  1  0.52659699  0.99246766  0.53393006  1
  V  V6  1  0.52778124  0.99277535  0.95166217  1
  S  S7  1  0.27101016  0.18285077  0.27512792  1
  S  S8  1  0.76014923  0.21921848  0.26048406  1
  S  S9  1  0.72840289  0.79473621  0.24105478  1
  S  S10  1  0.23580612  0.79473621  0.24105478  1
  S  S11  1  0.25560748  0.22134679  0.76312008  1
  S  S12  1  0.75992565  0.22134679  0.76312008  1
  S  S13  1  0.23631861  0.79342088  0.73394090  1
  S  S14  1  0.74985240  0.74457121  0.75572499  1
