# generated using pymatgen
data_K2LiNbO4
_symmetry_space_group_name_H-M   'P 1'
_cell_length_a   6.15259009
_cell_length_b   8.68000761
_cell_length_c   11.58246258
_cell_angle_alpha   91.90806679
_cell_angle_beta   112.54778275
_cell_angle_gamma   90.59676223
_symmetry_Int_Tables_number   1
_chemical_formula_structural   K2LiNbO4
_chemical_formula_sum   'K8 Li4 Nb4 O16'
_cell_volume   570.77672722
_cell_formula_units_Z   4
loop_
 _symmetry_equiv_pos_site_id
 _symmetry_equiv_pos_as_xyz
  1  'x, y, z'
loop_
 _atom_site_type_symbol
 _atom_site_label
 _atom_site_symmetry_multiplicity
 _atom_site_fract_x
 _atom_site_fract_y
 _atom_site_fract_z
 _atom_site_occupancy
  K  K0  1  0.24167697  0.80696351  0.88609524  1
  K  K1  1  0.38391551  0.48972855  0.69237853  1
  K  K2  1  0.29787090  0.73976538  0.42757979  1
  K  K3  1  0.51365491  0.01798251  0.75903138  1
  K  K4  1  0.36969744  0.05107154  0.19139660  1
  K  K5  1  0.75145119  0.21497963  0.58931438  1
  K  K6  1  0.59204156  0.45554105  0.33666160  1
  K  K7  1  0.76997514  0.26214254  0.09135370  1
  Li  Li8  1  0.35928417  0.53232482  0.06274599  1
  Li  Li9  1  0.88826679  0.54497582  0.78990220  1
  Li  Li10  1  0.60603628  0.73952577  0.20919312  1
  Li  Li11  1  0.89293135  0.96144089  0.30684826  1
  Nb  Nb12  1  0.13290254  0.28677611  0.92308663  1
  Nb  Nb13  1  0.12666966  0.21609715  0.43359198  1
  Nb  Nb14  1  0.88324997  0.76792509  0.56408583  1
  Nb  Nb15  1  0.89856510  0.70680873  0.07544147  1
  O  O16  1  0.29260880  0.10633890  0.91815414  1
  O  O17  1  0.22630170  0.47802937  0.87831427  1
  O  O18  1  0.19921568  0.20996091  0.60428289  1
  O  O19  1  0.21026784  0.77489731  0.64106079  1
  O  O20  1  0.25123918  0.40334267  0.40916552  1
  O  O21  1  0.22930181  0.03808438  0.37344188  1
  O  O22  1  0.80455757  0.28300705  0.83941145  1
  O  O23  1  0.80338748  0.69588731  0.90303871  1
  O  O24  1  0.22016247  0.33154045  0.09529821  1
  O  O25  1  0.23903507  0.70540363  0.14067516  1
  O  O26  1  0.76422133  0.92489351  0.63023903  1
  O  O27  1  0.78093947  0.57913238  0.60766282  1
  O  O28  1  0.79541265  0.18783867  0.34188531  1
  O  O29  1  0.78178100  0.78195745  0.38394680  1
  O  O30  1  0.71533604  0.56674216  0.12662556  1
  O  O31  1  0.79062643  0.88741778  0.12943477  1
