# generated using pymatgen
data_Li2TiCuO4
_symmetry_space_group_name_H-M   'P 1'
_cell_length_a   5.10285643
_cell_length_b   10.39587820
_cell_length_c   9.95454362
_cell_angle_alpha   16.75480069
_cell_angle_beta   29.07359613
_cell_angle_gamma   33.18656807
_symmetry_Int_Tables_number   1
_chemical_formula_structural   Li2TiCuO4
_chemical_formula_sum   'Li2 Ti1 Cu1 O4'
_cell_volume   73.97436057
_cell_formula_units_Z   1
loop_
 _symmetry_equiv_pos_site_id
 _symmetry_equiv_pos_as_xyz
  1  'x, y, z'
loop_
 _atom_site_type_symbol
 _atom_site_label
 _atom_site_symmetry_multiplicity
 _atom_site_fract_x
 _atom_site_fract_y
 _atom_site_fract_z
 _atom_site_occupancy
  Li  Li0  1  0.00000000  0.00000000  -0.00000000  1
  Li  Li1  1  0.00000000  0.50000000  -0.00000000  1
  Ti  Ti2  1  0.50000000  0.00000000  0.50000000  1
  Cu  Cu3  1  0.50000000  0.50000000  0.50000000  1
  O  O4  1  0.20627547  0.00000000  0.26604208  1
  O  O5  1  0.26851416  0.50000000  0.22728653  1
  O  O6  1  0.79372453  1.00000000  0.73395792  1
  O  O7  1  0.73148584  0.50000000  0.77271347  1
