# generated using pymatgen
data_BaYbCo4O7
_symmetry_space_group_name_H-M   'P 1'
_cell_length_a   6.32730533
_cell_length_b   6.32730540
_cell_length_c   10.48658183
_cell_angle_alpha   90.00000000
_cell_angle_beta   90.00000000
_cell_angle_gamma   119.99999969
_symmetry_Int_Tables_number   1
_chemical_formula_structural   BaYbCo4O7
_chemical_formula_sum   'Ba2 Yb2 Co8 O14'
_cell_volume   363.58183098
_cell_formula_units_Z   2
loop_
 _symmetry_equiv_pos_site_id
 _symmetry_equiv_pos_as_xyz
  1  'x, y, z'
loop_
 _atom_site_type_symbol
 _atom_site_label
 _atom_site_symmetry_multiplicity
 _atom_site_fract_x
 _atom_site_fract_y
 _atom_site_fract_z
 _atom_site_occupancy
  Ba  Ba0  1  0.66666700  0.33333300  0.51761694  1
  Ba  Ba1  1  0.33333300  0.66666700  0.01761694  1
  Yb  Yb2  1  0.66666700  0.33333300  0.87302081  1
  Yb  Yb3  1  0.33333300  0.66666700  0.37302081  1
  Co  Co4  1  0.16976938  0.82569971  0.68067325  1
  Co  Co5  1  0.83023062  0.65593033  0.18067325  1
  Co  Co6  1  0.82569971  0.16976938  0.18067325  1
  Co  Co7  1  -0.00000000  -0.00000000  0.93712929  1
  Co  Co8  1  0.65593033  0.83023062  0.68067325  1
  Co  Co9  1  0.17430029  0.34406967  0.68067325  1
  Co  Co10  1  0.34406967  0.17430029  0.18067325  1
  Co  Co11  1  -0.00000000  -0.00000000  0.43712929  1
  O  O12  1  0.67103852  0.84008339  0.50141045  1
  O  O13  1  0.50793334  0.49756799  0.72625123  1
  O  O14  1  0.84008339  0.67103852  0.00141045  1
  O  O15  1  0.49756799  0.50793334  0.22625123  1
  O  O16  1  0.15991661  0.83095614  0.50141045  1
  O  O17  1  0.98963466  0.49206666  0.72625123  1
  O  O18  1  -0.00000000  -0.00000000  0.74792915  1
  O  O19  1  0.50243201  0.01036534  0.72625123  1
  O  O20  1  0.49206666  0.98963466  0.22625123  1
  O  O21  1  0.32896148  0.16904386  0.00141045  1
  O  O22  1  0.01036534  0.50243201  0.22625123  1
  O  O23  1  0.16904386  0.32896148  0.50141045  1
  O  O24  1  -0.00000000  -0.00000000  0.24792915  1
  O  O25  1  0.83095614  0.15991661  0.00141045  1
