# generated using pymatgen
data_BaV6O11
_symmetry_space_group_name_H-M   'P 1'
_cell_length_a   5.95460873
_cell_length_b   5.95460852
_cell_length_c   13.55212469
_cell_angle_alpha   90.00000000
_cell_angle_beta   90.00000000
_cell_angle_gamma   120.65911884
_symmetry_Int_Tables_number   1
_chemical_formula_structural   BaV6O11
_chemical_formula_sum   'Ba2 V12 O22'
_cell_volume   413.35340230
_cell_formula_units_Z   2
loop_
 _symmetry_equiv_pos_site_id
 _symmetry_equiv_pos_as_xyz
  1  'x, y, z'
loop_
 _atom_site_type_symbol
 _atom_site_label
 _atom_site_symmetry_multiplicity
 _atom_site_fract_x
 _atom_site_fract_y
 _atom_site_fract_z
 _atom_site_occupancy
  Ba  Ba0  1  0.66496471  0.33503529  0.75189253  1
  Ba  Ba1  1  0.33503529  0.66496471  0.25189253  1
  V  V2  1  0.66856834  0.33143166  0.25405360  1
  V  V3  1  0.33143166  0.66856834  0.75405360  1
  V  V4  1  0.00283820  0.99716180  0.64845916  1
  V  V5  1  0.99716180  0.00283820  0.14845916  1
  V  V6  1  0.99523558  0.00476442  0.85858490  1
  V  V7  1  0.00476442  0.99523558  0.35858490  1
  V  V8  1  0.48893141  0.98987186  0.00378475  1
  V  V9  1  0.49887015  0.50112985  0.50272511  1
  V  V10  1  0.98987186  0.48893141  0.50378475  1
  V  V11  1  0.01012814  0.51106859  0.00378475  1
  V  V12  1  0.50112985  0.49887015  0.00272511  1
  V  V13  1  0.51106859  0.01012814  0.50378475  1
  O  O14  1  0.67296807  0.32703193  0.08407478  1
  O  O15  1  0.32703193  0.67296807  0.58407478  1
  O  O16  1  0.66842146  0.33157854  0.41702931  1
  O  O17  1  0.33157854  0.66842146  0.91702931  1
  O  O18  1  0.84670502  0.70314457  0.25430376  1
  O  O19  1  0.14480814  0.85519186  0.75581987  1
  O  O20  1  0.70314457  0.84670502  0.75430376  1
  O  O21  1  0.29685543  0.15329498  0.25430376  1
  O  O22  1  0.85519186  0.14480814  0.25581987  1
  O  O23  1  0.15329498  0.29685543  0.75430376  1
  O  O24  1  0.82695251  0.64789368  0.58149652  1
  O  O25  1  0.17202943  0.82797057  0.08587791  1
  O  O26  1  0.64789368  0.82695251  0.08149652  1
  O  O27  1  0.35210632  0.17304749  0.58149652  1
  O  O28  1  0.16243079  0.34154765  0.42254059  1
  O  O29  1  0.83715628  0.16284372  0.92153159  1
  O  O30  1  0.34154765  0.16243079  0.92254059  1
  O  O31  1  0.65845235  0.83756921  0.42254059  1
  O  O32  1  0.16284372  0.83715628  0.42153159  1
  O  O33  1  0.83756921  0.65845235  0.92254059  1
  O  O34  1  0.17304749  0.35210632  0.08149652  1
  O  O35  1  0.82797057  0.17202943  0.58587791  1
