# generated using pymatgen
data_ZnSiO3
_symmetry_space_group_name_H-M   'P 1'
_cell_length_a   5.52383922
_cell_length_b   10.38339740
_cell_length_c   18.95543438
_cell_angle_alpha   90.00000000
_cell_angle_beta   90.00000000
_cell_angle_gamma   90.00000000
_symmetry_Int_Tables_number   1
_chemical_formula_structural   ZnSiO3
_chemical_formula_sum   'Zn16 Si16 O48'
_cell_volume   1087.21202270
_cell_formula_units_Z   16
loop_
 _symmetry_equiv_pos_site_id
 _symmetry_equiv_pos_as_xyz
  1  'x, y, z'
loop_
 _atom_site_type_symbol
 _atom_site_label
 _atom_site_symmetry_multiplicity
 _atom_site_fract_x
 _atom_site_fract_y
 _atom_site_fract_z
 _atom_site_occupancy
  Zn  Zn0  1  0.49932743  0.95871320  0.87497174  1
  Zn  Zn1  1  0.99932743  0.04128680  0.62502826  1
  Zn  Zn2  1  0.00067257  0.45871320  0.12502826  1
  Zn  Zn3  1  0.50067257  0.54128680  0.37497174  1
  Zn  Zn4  1  0.50067257  0.04128680  0.12502826  1
  Zn  Zn5  1  0.00067257  0.95871320  0.37497174  1
  Zn  Zn6  1  0.99932743  0.54128680  0.87497174  1
  Zn  Zn7  1  0.49932743  0.45871320  0.62502826  1
  Zn  Zn8  1  0.49933308  0.04036980  0.62497107  1
  Zn  Zn9  1  0.99933308  0.95963020  0.87502893  1
  Zn  Zn10  1  0.00066692  0.54036980  0.37502893  1
  Zn  Zn11  1  0.50066692  0.45963020  0.12497107  1
  Zn  Zn12  1  0.50066692  0.95963020  0.37502893  1
  Zn  Zn13  1  0.00066692  0.04036980  0.12497107  1
  Zn  Zn14  1  0.99933308  0.45963020  0.62497107  1
  Zn  Zn15  1  0.49933308  0.54036980  0.87502893  1
  Si  Si16  1  0.75032119  0.33092890  0.98480794  1
  Si  Si17  1  0.25032119  0.66907110  0.51519206  1
  Si  Si18  1  0.74967881  0.83092890  0.01519206  1
  Si  Si19  1  0.24967881  0.16907110  0.48480794  1
  Si  Si20  1  0.24967881  0.66907110  0.01519206  1
  Si  Si21  1  0.74967881  0.33092890  0.48480794  1
  Si  Si22  1  0.25032119  0.16907110  0.98480794  1
  Si  Si23  1  0.75032119  0.83092890  0.51519206  1
  Si  Si24  1  0.74863803  0.16907019  0.76519413  1
  Si  Si25  1  0.24863803  0.83092981  0.73480587  1
  Si  Si26  1  0.75136197  0.66907019  0.23480587  1
  Si  Si27  1  0.25136197  0.33092981  0.26519413  1
  Si  Si28  1  0.25136197  0.83092981  0.23480587  1
  Si  Si29  1  0.75136197  0.16907019  0.26519413  1
  Si  Si30  1  0.24863803  0.33092981  0.76519413  1
  Si  Si31  1  0.74863803  0.66907019  0.73480587  1
  O  O32  1  0.50057218  0.24977758  0.96854999  1
  O  O33  1  0.00057218  0.75022242  0.53145001  1
  O  O34  1  0.99942782  0.74977758  0.03145001  1
  O  O35  1  0.49942782  0.25022242  0.46854999  1
  O  O36  1  0.49942782  0.75022242  0.03145001  1
  O  O37  1  0.99942782  0.24977758  0.46854999  1
  O  O38  1  0.00057218  0.25022242  0.96854999  1
  O  O39  1  0.50057218  0.74977758  0.53145001  1
  O  O40  1  0.24979524  0.04484497  0.93189396  1
  O  O41  1  0.74979524  0.95515503  0.56810604  1
  O  O42  1  0.25020476  0.54484497  0.06810604  1
  O  O43  1  0.75020476  0.45515503  0.43189396  1
  O  O44  1  0.75020476  0.95515503  0.06810604  1
  O  O45  1  0.25020476  0.04484497  0.43189396  1
  O  O46  1  0.74979524  0.45515503  0.93189396  1
  O  O47  1  0.24979524  0.54484497  0.56810604  1
  O  O48  1  0.25030267  0.12840477  0.06824714  1
  O  O49  1  0.75030267  0.87159523  0.43175286  1
  O  O50  1  0.24969733  0.62840477  0.93175286  1
  O  O51  1  0.74900028  0.04484383  0.81810796  1
  O  O52  1  0.74969733  0.37159523  0.56824714  1
  O  O53  1  0.24969733  0.12840477  0.56824714  1
  O  O54  1  0.75030267  0.37159523  0.06824714  1
  O  O55  1  0.25030267  0.62840477  0.43175286  1
  O  O56  1  0.49841044  0.24979405  0.78144892  1
  O  O57  1  0.99841044  0.75020595  0.71855108  1
  O  O58  1  0.00158956  0.74979405  0.21855108  1
  O  O59  1  0.50158956  0.25020595  0.28144892  1
  O  O60  1  0.50158956  0.75020595  0.21855108  1
  O  O61  1  0.00158956  0.24979405  0.28144892  1
  O  O62  1  0.99841044  0.25020595  0.78144892  1
  O  O63  1  0.49841044  0.74979405  0.71855108  1
  O  O64  1  0.74884009  0.62839714  0.81824386  1
  O  O65  1  0.24884009  0.37160286  0.68175614  1
  O  O66  1  0.75115991  0.12839714  0.18175614  1
  O  O67  1  0.25115991  0.87160286  0.31824386  1
  O  O68  1  0.25115991  0.37160286  0.18175614  1
  O  O69  1  0.75115991  0.62839714  0.31824386  1
  O  O70  1  0.24884009  0.87160286  0.81824386  1
  O  O71  1  0.74884009  0.12839714  0.68175614  1
  O  O72  1  0.74900028  0.54484383  0.68189204  1
  O  O73  1  0.24900028  0.45515617  0.81810796  1
  O  O74  1  0.75099972  0.04484383  0.31810796  1
  O  O75  1  0.25099972  0.95515617  0.18189204  1
  O  O76  1  0.25099972  0.45515617  0.31810796  1
  O  O77  1  0.75099972  0.54484383  0.18189204  1
  O  O78  1  0.24900028  0.95515617  0.68189204  1
  O  O79  1  0.74969733  0.87159523  0.93175286  1
