# generated using pymatgen
data_LaGaO3
_symmetry_space_group_name_H-M   'P 1'
_cell_length_a   5.59421324
_cell_length_b   5.54631130
_cell_length_c   7.85052257
_cell_angle_alpha   90.00000000
_cell_angle_beta   90.00000000
_cell_angle_gamma   90.00000000
_symmetry_Int_Tables_number   1
_chemical_formula_structural   LaGaO3
_chemical_formula_sum   'La4 Ga4 O12'
_cell_volume   243.58011155
_cell_formula_units_Z   4
loop_
 _symmetry_equiv_pos_site_id
 _symmetry_equiv_pos_as_xyz
  1  'x, y, z'
loop_
 _atom_site_type_symbol
 _atom_site_label
 _atom_site_symmetry_multiplicity
 _atom_site_fract_x
 _atom_site_fract_y
 _atom_site_fract_z
 _atom_site_occupancy
  La  La0  1  0.49192182  0.50484195  0.75000000  1
  La  La1  1  0.00807818  0.00484195  0.75000000  1
  La  La2  1  0.99192182  0.99515805  0.25000000  1
  La  La3  1  0.50807818  0.49515805  0.25000000  1
  Ga  Ga4  1  0.50000000  -0.00000000  0.50000000  1
  Ga  Ga5  1  -0.00000000  0.50000000  -0.00000000  1
  Ga  Ga6  1  -0.00000000  0.50000000  0.50000000  1
  Ga  Ga7  1  0.50000000  -0.00000000  -0.00000000  1
  O  O8  1  0.25422808  0.25556523  0.54445831  1
  O  O9  1  0.08127000  0.50088044  0.25000000  1
  O  O10  1  0.58127000  -0.00088044  0.75000000  1
  O  O11  1  0.74577192  0.74443477  0.45554169  1
  O  O12  1  0.91873000  0.49911956  0.75000000  1
  O  O13  1  0.24577192  0.75556523  0.95554169  1
  O  O14  1  0.24577192  0.75556523  0.54445831  1
  O  O15  1  0.75422808  0.24443477  0.45554169  1
  O  O16  1  0.41873000  0.00088044  0.25000000  1
  O  O17  1  0.25422808  0.25556523  0.95554169  1
  O  O18  1  0.74577192  0.74443477  0.04445831  1
  O  O19  1  0.75422808  0.24443477  0.04445831  1
