# generated using pymatgen
data_PbWO4
_symmetry_space_group_name_H-M   'P 1'
_cell_length_a   5.82745500
_cell_length_b   7.87379638
_cell_length_c   7.98070432
_cell_angle_alpha   105.29510388
_cell_angle_beta   90.00000000
_cell_angle_gamma   90.00000000
_symmetry_Int_Tables_number   1
_chemical_formula_structural   PbWO4
_chemical_formula_sum   'Pb4 W4 O16'
_cell_volume   353.21778730
_cell_formula_units_Z   4
loop_
 _symmetry_equiv_pos_site_id
 _symmetry_equiv_pos_as_xyz
  1  'x, y, z'
loop_
 _atom_site_type_symbol
 _atom_site_label
 _atom_site_symmetry_multiplicity
 _atom_site_fract_x
 _atom_site_fract_y
 _atom_site_fract_z
 _atom_site_occupancy
  Pb  Pb0  1  0.25984573  0.63993081  0.41858884  1
  Pb  Pb1  1  0.24015427  0.63993081  0.91858884  1
  Pb  Pb2  1  0.75984573  0.36006919  0.08141116  1
  Pb  Pb3  1  0.74015427  0.36006919  0.58141116  1
  W  W4  1  0.74890326  0.82712181  0.72658779  1
  W  W5  1  0.75109674  0.82712181  0.22658779  1
  W  W6  1  0.24890326  0.17287819  0.77341221  1
  W  W7  1  0.25109674  0.17287819  0.27341221  1
  O  O8  1  0.22996258  0.16523784  0.03853642  1
  O  O9  1  0.97719366  0.65158869  0.65528592  1
  O  O10  1  0.53042808  0.63686478  0.66738895  1
  O  O11  1  0.52280634  0.65158869  0.15528592  1
  O  O12  1  0.27003742  0.16523784  0.53853642  1
  O  O13  1  0.47810335  0.98672936  0.75674617  1
  O  O14  1  0.03042808  0.36313522  0.83261105  1
  O  O15  1  0.77003742  0.83476216  0.96146358  1
  O  O16  1  0.72996258  0.83476216  0.46146358  1
  O  O17  1  0.97810335  0.01327064  0.74325383  1
  O  O18  1  0.52189665  0.01327064  0.24325383  1
  O  O19  1  0.47719366  0.34841131  0.84471408  1
  O  O20  1  0.96957192  0.63686478  0.16738895  1
  O  O21  1  0.02189665  0.98672936  0.25674617  1
  O  O22  1  0.02280634  0.34841131  0.34471408  1
  O  O23  1  0.46957192  0.36313522  0.33261105  1
