# generated using pymatgen
data_Te
_symmetry_space_group_name_H-M   'P 1'
_cell_length_a   3.13076950
_cell_length_b   4.74290835
_cell_length_c   8.98561299
_cell_angle_alpha   90.00000000
_cell_angle_beta   90.00000000
_cell_angle_gamma   90.34449433
_symmetry_Int_Tables_number   1
_chemical_formula_structural   Te
_chemical_formula_sum   Te4
_cell_volume   133.42453134
_cell_formula_units_Z   4
loop_
 _symmetry_equiv_pos_site_id
 _symmetry_equiv_pos_as_xyz
  1  'x, y, z'
loop_
 _atom_site_type_symbol
 _atom_site_label
 _atom_site_symmetry_multiplicity
 _atom_site_fract_x
 _atom_site_fract_y
 _atom_site_fract_z
 _atom_site_occupancy
  Te  Te0  1  0.50033655  0.54527140  0.76081369  1
  Te  Te1  1  0.49966345  0.45472860  0.26081369  1
  Te  Te2  1  0.50014438  0.98746828  0.00918631  1
  Te  Te3  1  0.49985562  0.01253172  0.50918631  1
