# generated using pymatgen
data_ErCu(WO4)2
_symmetry_space_group_name_H-M   'P 1'
_cell_length_a   5.15662756
_cell_length_b   6.05641705
_cell_length_c   6.07232700
_cell_angle_alpha   109.16229708
_cell_angle_beta   114.42143220
_cell_angle_gamma   91.72190862
_symmetry_Int_Tables_number   1
_chemical_formula_structural   ErCu(WO4)2
_chemical_formula_sum   'Er1 Cu1 W2 O8'
_cell_volume   160.05005903
_cell_formula_units_Z   1
loop_
 _symmetry_equiv_pos_site_id
 _symmetry_equiv_pos_as_xyz
  1  'x, y, z'
loop_
 _atom_site_type_symbol
 _atom_site_label
 _atom_site_symmetry_multiplicity
 _atom_site_fract_x
 _atom_site_fract_y
 _atom_site_fract_z
 _atom_site_occupancy
  Er  Er0  1  0.64190334  0.71051520  0.09354342  1
  Cu  Cu1  1  0.12220235  0.19472993  0.08385860  1
  W  W2  1  0.38120244  0.03466710  0.60141313  1
  W  W3  1  0.88114602  0.37184640  0.57848557  1
  O  O4  1  0.59874296  0.03192719  0.39462426  1
  O  O5  1  0.65658716  0.38108437  0.78001055  1
  O  O6  1  0.16483973  0.17131580  0.78969334  1
  O  O7  1  0.65884993  0.49709412  0.34565693  1
  O  O8  1  0.15934427  0.62821482  0.83405963  1
  O  O9  1  0.08498738  0.21853320  0.38123239  1
  O  O10  1  0.12286759  0.76546386  0.34989819  1
  O  O11  1  0.62212684  0.92320802  0.84212400  1
