# generated using pymatgen
data_BaYb3
_symmetry_space_group_name_H-M   'P 1'
_cell_length_a   8.01291534
_cell_length_b   8.01169561
_cell_length_c   6.67036969
_cell_angle_alpha   90.00142749
_cell_angle_beta   89.99800703
_cell_angle_gamma   119.98239701
_symmetry_Int_Tables_number   1
_chemical_formula_structural   BaYb3
_chemical_formula_sum   'Ba2 Yb6'
_cell_volume   370.91341261
_cell_formula_units_Z   2
loop_
 _symmetry_equiv_pos_site_id
 _symmetry_equiv_pos_as_xyz
  1  'x, y, z'
loop_
 _atom_site_type_symbol
 _atom_site_label
 _atom_site_symmetry_multiplicity
 _atom_site_fract_x
 _atom_site_fract_y
 _atom_site_fract_z
 _atom_site_occupancy
  Ba  Ba0  1  0.33333309  0.66668209  0.74998542  1
  Ba  Ba1  1  0.66666779  0.33332403  0.25001426  1
  Yb  Yb2  1  0.16430911  0.32862312  0.24998824  1
  Yb  Yb3  1  0.67138267  0.83569546  0.24998612  1
  Yb  Yb4  1  0.16432901  0.83567431  0.25004375  1
  Yb  Yb5  1  0.83571886  0.67143120  0.75001257  1
  Yb  Yb6  1  0.32856011  0.16427468  0.75001710  1
  Yb  Yb7  1  0.83569837  0.16429611  0.74995653  1
