# generated using pymatgen
data_Ba3Ca
_symmetry_space_group_name_H-M   'P 1'
_cell_length_a   8.68812538
_cell_length_b   8.68812598
_cell_length_c   7.06109358
_cell_angle_alpha   90.00000000
_cell_angle_beta   90.00000000
_cell_angle_gamma   119.99999773
_symmetry_Int_Tables_number   1
_chemical_formula_structural   Ba3Ca
_chemical_formula_sum   'Ba6 Ca2'
_cell_volume   461.58830632
_cell_formula_units_Z   2
loop_
 _symmetry_equiv_pos_site_id
 _symmetry_equiv_pos_as_xyz
  1  'x, y, z'
loop_
 _atom_site_type_symbol
 _atom_site_label
 _atom_site_symmetry_multiplicity
 _atom_site_fract_x
 _atom_site_fract_y
 _atom_site_fract_z
 _atom_site_occupancy
  Ba  Ba0  1  0.16781616  0.33563132  0.25000000  1
  Ba  Ba1  1  0.66436768  0.83218384  0.25000000  1
  Ba  Ba2  1  0.16781516  0.83218384  0.25000000  1
  Ba  Ba3  1  0.83218484  0.66436868  0.75000000  1
  Ba  Ba4  1  0.33563332  0.16781616  0.75000000  1
  Ba  Ba5  1  0.83218284  0.16781616  0.75000000  1
  Ca  Ca6  1  0.33333300  0.66666700  0.75000000  1
  Ca  Ca7  1  0.66666800  0.33333300  0.25000000  1
