# generated using pymatgen
data_Mg16Al12In
_symmetry_space_group_name_H-M   'P 1'
_cell_length_a   9.15138796
_cell_length_b   9.15138719
_cell_length_c   9.15138796
_cell_angle_alpha   109.47122211
_cell_angle_beta   109.47123059
_cell_angle_gamma   109.47122211
_symmetry_Int_Tables_number   1
_chemical_formula_structural   Mg16Al12In
_chemical_formula_sum   'Mg16 Al12 In1'
_cell_volume   589.98219398
_cell_formula_units_Z   1
loop_
 _symmetry_equiv_pos_site_id
 _symmetry_equiv_pos_as_xyz
  1  'x, y, z'
loop_
 _atom_site_type_symbol
 _atom_site_label
 _atom_site_symmetry_multiplicity
 _atom_site_fract_x
 _atom_site_fract_y
 _atom_site_fract_z
 _atom_site_occupancy
  Mg  Mg0  1  0.60065978  0.31511821  0.99999900  1
  Mg  Mg1  1  0.31511921  0.60065878  0.99999900  1
  Mg  Mg2  1  0.00000000  0.34509643  0.00000000  1
  Mg  Mg3  1  0.34509543  0.99999900  0.00000000  1
  Mg  Mg4  1  0.68488179  0.68488079  0.28554157  1
  Mg  Mg5  1  0.60065878  0.99999900  0.31511821  1
  Mg  Mg6  1  0.99999900  0.60065878  0.31511921  1
  Mg  Mg7  1  0.00000000  0.99999900  0.34509543  1
  Mg  Mg8  1  0.39934122  0.71446043  0.39934122  1
  Mg  Mg9  1  0.71446043  0.39934122  0.39934122  1
  Mg  Mg10  1  0.31511821  0.99999900  0.60065878  1
  Mg  Mg11  1  0.99999900  0.31511821  0.60065978  1
  Mg  Mg12  1  0.65490257  0.65490257  0.65490257  1
  Mg  Mg13  1  0.68488179  0.28554157  0.68488179  1
  Mg  Mg14  1  0.28554157  0.68488079  0.68488179  1
  Mg  Mg15  1  0.39934122  0.39934122  0.71446043  1
  Al  Al16  1  0.81311214  0.62993487  0.99999900  1
  Al  Al17  1  0.62993487  0.81311114  1.00000000  1
  Al  Al18  1  0.37006613  0.37006613  0.18317727  1
  Al  Al19  1  0.81682273  0.18688886  0.18688786  1
  Al  Al20  1  0.18688786  0.81682273  0.18688786  1
  Al  Al21  1  0.18317727  0.37006613  0.37006613  1
  Al  Al22  1  0.37006613  0.18317727  0.37006613  1
  Al  Al23  1  0.81311114  1.00000000  0.62993487  1
  Al  Al24  1  1.00000000  0.81311114  0.62993487  1
  Al  Al25  1  0.99999900  0.62993487  0.81311214  1
  Al  Al26  1  0.62993487  1.00000000  0.81311114  1
  Al  Al27  1  0.18688786  0.18688886  0.81682273  1
  In  In28  1  0.00000000  0.00000000  0.00000000  1
