# generated using pymatgen
data_CsK3
_symmetry_space_group_name_H-M   'P 1'
_cell_length_a   9.95586201
_cell_length_b   9.94849333
_cell_length_c   7.82145874
_cell_angle_alpha   90.00000000
_cell_angle_beta   90.00000000
_cell_angle_gamma   120.05482378
_symmetry_Int_Tables_number   1
_chemical_formula_structural   CsK3
_chemical_formula_sum   'Cs2 K6'
_cell_volume   670.52408912
_cell_formula_units_Z   2
loop_
 _symmetry_equiv_pos_site_id
 _symmetry_equiv_pos_as_xyz
  1  'x, y, z'
loop_
 _atom_site_type_symbol
 _atom_site_label
 _atom_site_symmetry_multiplicity
 _atom_site_fract_x
 _atom_site_fract_y
 _atom_site_fract_z
 _atom_site_occupancy
  Cs  Cs0  1  0.33340526  0.66653767  0.75000100  1
  Cs  Cs1  1  0.66654414  0.33339736  0.25000100  1
  K  K2  1  0.16135631  0.32243529  0.25000100  1
  K  K3  1  0.67762534  0.83863149  0.25000100  1
  K  K4  1  0.16094983  0.83881311  0.25000100  1
  K  K5  1  0.83864332  0.67762758  0.75000100  1
  K  K6  1  0.32261859  0.16162199  0.75000100  1
  K  K7  1  0.83885621  0.16093352  0.75000100  1
