# generated using pymatgen
data_Mg16Al12Pb
_symmetry_space_group_name_H-M   'P 1'
_cell_length_a   9.40012255
_cell_length_b   9.08575146
_cell_length_c   9.11238128
_cell_angle_alpha   108.29801377
_cell_angle_beta   110.26446997
_cell_angle_gamma   110.37886964
_symmetry_Int_Tables_number   1
_chemical_formula_structural   Mg16Al12Pb
_chemical_formula_sum   'Mg16 Al12 Pb1'
_cell_volume   594.98870982
_cell_formula_units_Z   1
loop_
 _symmetry_equiv_pos_site_id
 _symmetry_equiv_pos_as_xyz
  1  'x, y, z'
loop_
 _atom_site_type_symbol
 _atom_site_label
 _atom_site_symmetry_multiplicity
 _atom_site_fract_x
 _atom_site_fract_y
 _atom_site_fract_z
 _atom_site_occupancy
  Mg  Mg0  1  0.99982920  0.00116727  0.00003564  1
  Mg  Mg1  1  0.31368203  0.60293730  0.00039004  1
  Mg  Mg2  1  0.33322995  0.00110412  -0.00004679  1
  Mg  Mg3  1  0.00007801  0.34502470  0.99964060  1
  Mg  Mg4  1  0.67982289  0.68589690  0.28608447  1
  Mg  Mg5  1  0.59801462  0.99819185  0.31103474  1
  Mg  Mg6  1  0.00541797  0.60567653  0.31891850  1
  Mg  Mg7  1  0.00395334  0.99720920  0.35005554  1
  Mg  Mg8  1  0.71486561  0.39580252  0.39589391  1
  Mg  Mg9  1  0.40104250  0.71774071  0.40256809  1
  Mg  Mg10  1  0.99734931  0.31504736  0.59712210  1
  Mg  Mg11  1  0.31829217  0.00034518  0.60450569  1
  Mg  Mg12  1  0.65361019  0.64715274  0.65023316  1
  Mg  Mg13  1  0.68747559  0.28715549  0.68126186  1
  Mg  Mg14  1  0.28668743  0.68702627  0.68870030  1
  Mg  Mg15  1  0.39362697  0.39960341  0.71355958  1
  Al  Al16  1  0.82836578  0.65018473  0.00036866  1
  Al  Al17  1  0.63261067  0.80676050  0.00034986  1
  Al  Al18  1  0.35770137  0.36752329  0.18337458  1
  Al  Al19  1  0.18782527  0.82086015  0.18435184  1
  Al  Al20  1  0.82600899  0.17737144  0.19066658  1
  Al  Al21  1  0.18040243  0.36766620  0.36837657  1
  Al  Al22  1  0.36676121  0.18454127  0.36845242  1
  Al  Al23  1  0.99867581  0.81574125  0.62982436  1
  Al  Al24  1  0.81237863  0.00005298  0.63268644  1
  Al  Al25  1  0.63622374  0.98729362  0.80986933  1
  Al  Al26  1  0.00344673  0.63545619  0.81582266  1
  Al  Al27  1  0.17310559  0.18325859  0.81566288  1
  Pb  Pb28  1  0.60951598  0.31621225  0.00023540  1
