# generated using pymatgen
data_Mg16Al12Hg
_symmetry_space_group_name_H-M   'P 1'
_cell_length_a   9.33413957
_cell_length_b   9.10602707
_cell_length_c   9.02919294
_cell_angle_alpha   108.63217236
_cell_angle_beta   110.14635171
_cell_angle_gamma   110.49813088
_symmetry_Int_Tables_number   1
_chemical_formula_structural   Mg16Al12Hg
_chemical_formula_sum   'Mg16 Al12 Hg1'
_cell_volume   584.27902038
_cell_formula_units_Z   1
loop_
 _symmetry_equiv_pos_site_id
 _symmetry_equiv_pos_as_xyz
  1  'x, y, z'
loop_
 _atom_site_type_symbol
 _atom_site_label
 _atom_site_symmetry_multiplicity
 _atom_site_fract_x
 _atom_site_fract_y
 _atom_site_fract_z
 _atom_site_occupancy
  Mg  Mg0  1  0.99997159  0.34167070  0.99992328  1
  Mg  Mg1  1  0.31071844  0.60368788  0.99995524  1
  Mg  Mg2  1  0.35029536  0.01667167  -0.00000469  1
  Mg  Mg3  1  0.00336765  0.00004053  0.99992683  1
  Mg  Mg4  1  0.67545793  0.67456228  0.27293810  1
  Mg  Mg5  1  0.59727140  0.99785946  0.31185863  1
  Mg  Mg6  1  0.00246861  0.60314293  0.31665955  1
  Mg  Mg7  1  0.00336733  0.99709664  0.35163443  1
  Mg  Mg8  1  0.70739099  0.39178395  0.38639304  1
  Mg  Mg9  1  0.39848766  0.71764329  0.40199657  1
  Mg  Mg10  1  0.99649101  0.31569280  0.59815698  1
  Mg  Mg11  1  0.32124125  0.00552583  0.61374514  1
  Mg  Mg12  1  0.65168970  0.64511363  0.64807925  1
  Mg  Mg13  1  0.68575435  0.28624317  0.68322365  1
  Mg  Mg14  1  0.28543327  0.68603206  0.68827490  1
  Mg  Mg15  1  0.40237981  0.40159561  0.72680457  1
  Al  Al16  1  0.63349621  0.80988114  0.00064939  1
  Al  Al17  1  0.82072994  0.64045057  0.99989512  1
  Al  Al18  1  0.35895286  0.36909376  0.18417375  1
  Al  Al19  1  0.18721295  0.82149550  0.18679271  1
  Al  Al20  1  0.82189469  0.18035863  0.18845364  1
  Al  Al21  1  0.18100151  0.36663599  0.37089942  1
  Al  Al22  1  0.36781545  0.18587148  0.37155589  1
  Al  Al23  1  0.99614382  0.81468110  0.62842924  1
  Al  Al24  1  0.80969368  0.99569259  0.62943546  1
  Al  Al25  1  0.63352095  0.99272110  0.81145897  1
  Al  Al26  1  0.00009279  0.63441879  0.81299186  1
  Al  Al27  1  0.17456978  0.18474636  0.81571841  1
  Hg  Hg28  1  0.62309202  0.31958755  0.99998268  1
