# generated using pymatgen
data_Li10FeCo9O20
_symmetry_space_group_name_H-M   'P 1'
_cell_length_a   5.05063223
_cell_length_b   7.69708577
_cell_length_c   9.84718786
_cell_angle_alpha   99.67349605
_cell_angle_beta   94.80898801
_cell_angle_gamma   71.19292763
_symmetry_Int_Tables_number   1
_chemical_formula_structural   Li10FeCo9O20
_chemical_formula_sum   'Li10 Fe1 Co9 O20'
_cell_volume   357.03943211
_cell_formula_units_Z   1
loop_
 _symmetry_equiv_pos_site_id
 _symmetry_equiv_pos_as_xyz
  1  'x, y, z'
loop_
 _atom_site_type_symbol
 _atom_site_label
 _atom_site_symmetry_multiplicity
 _atom_site_fract_x
 _atom_site_fract_y
 _atom_site_fract_z
 _atom_site_occupancy
  Li  Li0  1  0.40020079  0.20034956  0.00103568  1
  Li  Li1  1  0.69621803  0.09985414  0.50036811  1
  Li  Li2  1  0.10551296  0.29882563  0.49906403  1
  Li  Li3  1  0.99974641  0.00041255  -0.00072522  1
  Li  Li4  1  0.79371727  0.40168045  0.00142793  1
  Li  Li5  1  0.49607925  0.50211086  0.49893265  1
  Li  Li6  1  0.20678443  0.60064104  0.00185443  1
  Li  Li7  1  0.90049312  0.69802233  0.49735929  1
  Li  Li8  1  0.30691373  0.89875862  0.49873437  1
  Li  Li9  1  0.59543225  0.79878789  0.00270412  1
  Fe  Fe10  1  0.04921018  0.15075456  0.74994323  1
  Co  Co11  1  0.35327119  0.04735048  0.25011719  1
  Co  Co12  1  0.74797324  0.25269352  0.25013388  1
  Co  Co13  1  0.14817301  0.45072553  0.24890793  1
  Co  Co14  1  0.54923289  0.65173595  0.25025874  1
  Co  Co15  1  0.95108685  0.84834654  0.25064835  1
  Co  Co16  1  0.44965722  0.35072774  0.74927494  1
  Co  Co17  1  0.85083731  0.55069427  0.75013556  1
  Co  Co18  1  0.25217138  0.74712828  0.74991274  1
  Co  Co19  1  0.64806976  0.95172162  0.75103621  1
  O  O20  1  0.03998612  0.06862515  0.36091322  1
  O  O21  1  0.38643036  0.12675939  0.63013672  1
  O  O22  1  0.66617802  0.02366809  0.13788787  1
  O  O23  1  0.71296411  0.17312124  0.87039643  1
  O  O24  1  0.06849960  0.22841698  0.13461385  1
  O  O25  1  0.12537305  0.37068884  0.86336414  1
  O  O26  1  0.42728408  0.27474957  0.36453803  1
  O  O27  1  0.77813819  0.32394214  0.63622976  1
  O  O28  1  0.17368079  0.52922182  0.63159114  1
  O  O29  1  0.47653414  0.43655486  0.13752582  1
  O  O30  1  0.52064168  0.57608302  0.86635489  1
  O  O31  1  0.81024401  0.48103753  0.36242010  1
  O  O32  1  0.23314905  0.67129374  0.36135935  1
  O  O33  1  0.56717339  0.72298788  0.63888569  1
  O  O34  1  0.94037051  0.76692232  0.86219976  1
  O  O35  1  0.86773858  0.62753716  0.13814084  1
  O  O36  1  0.32138045  0.97769567  0.86229687  1
  O  O37  1  0.28552608  0.82280114  0.13780991  1
  O  O38  1  0.62471259  0.86592311  0.36430284  1
  O  O39  1  0.97319493  0.93064579  0.63791358  1
