# generated using pymatgen
data_Lu(Mg4Al3)4
_symmetry_space_group_name_H-M   'P 1'
_cell_length_a   8.81766690
_cell_length_b   9.26581850
_cell_length_c   9.26581832
_cell_angle_alpha   110.43016380
_cell_angle_beta   108.49436850
_cell_angle_gamma   108.49435712
_symmetry_Int_Tables_number   1
_chemical_formula_structural   Lu(Mg4Al3)4
_chemical_formula_sum   'Lu1 Mg16 Al12'
_cell_volume   589.64910845
_cell_formula_units_Z   1
loop_
 _symmetry_equiv_pos_site_id
 _symmetry_equiv_pos_as_xyz
  1  'x, y, z'
loop_
 _atom_site_type_symbol
 _atom_site_label
 _atom_site_symmetry_multiplicity
 _atom_site_fract_x
 _atom_site_fract_y
 _atom_site_fract_z
 _atom_site_occupancy
  Lu  Lu0  1  0.37202818  0.99999900  0.99999900  1
  Mg  Mg1  1  0.99526832  0.34000146  0.99999900  1
  Mg  Mg2  1  0.31481702  0.59746929  1.00000000  1
  Mg  Mg3  1  0.99766556  1.00000000  0.00000100  1
  Mg  Mg4  1  0.60908982  0.32961145  0.00000000  1
  Mg  Mg5  1  0.68919844  0.68742244  0.29521804  1
  Mg  Mg6  1  0.00177599  0.60779559  0.31257656  1
  Mg  Mg7  1  0.60908982  0.00000000  0.32961145  1
  Mg  Mg8  1  0.99526832  0.99999900  0.34000246  1
  Mg  Mg9  1  0.39398140  0.70478196  0.39220541  1
  Mg  Mg10  1  0.71734873  0.40253171  0.40253171  1
  Mg  Mg11  1  0.31481702  1.00000000  0.59746929  1
  Mg  Mg12  1  0.00177599  0.31257756  0.60779659  1
  Mg  Mg13  1  0.65526686  0.65999654  0.65999654  1
  Mg  Mg14  1  0.27947837  0.67038855  0.67038855  1
  Mg  Mg15  1  0.68919844  0.29521904  0.68742244  1
  Mg  Mg16  1  0.39398140  0.39220441  0.70478196  1
  Al  Al17  1  0.62915758  0.82072114  0.00000000  1
  Al  Al18  1  0.80990364  0.63538765  0.00000000  1
  Al  Al19  1  0.36416719  0.35983056  0.17823081  1
  Al  Al20  1  0.80843544  0.17927886  0.17927786  1
  Al  Al21  1  0.18593538  0.82176819  0.18159875  1
  Al  Al22  1  0.36416719  0.17823081  0.35983056  1
  Al  Al23  1  0.17451599  0.36461435  0.36461435  1
  Al  Al24  1  0.80990364  -0.00000000  0.63538765  1
  Al  Al25  1  0.00433563  0.81840025  0.64017044  1
  Al  Al26  1  0.00433563  0.64017044  0.81840025  1
  Al  Al27  1  0.62915758  0.00000000  0.82072114  1
  Al  Al28  1  0.18593438  0.18159875  0.82176819  1
