# generated using pymatgen
data_La(Mg4Al3)4
_symmetry_space_group_name_H-M   'P 1'
_cell_length_a   8.94324987
_cell_length_b   9.29514394
_cell_length_c   9.29514560
_cell_angle_alpha   110.22536985
_cell_angle_beta   108.70611433
_cell_angle_gamma   108.70610850
_symmetry_Int_Tables_number   1
_chemical_formula_structural   La(Mg4Al3)4
_chemical_formula_sum   'La1 Mg16 Al12'
_cell_volume   600.34344006
_cell_formula_units_Z   1
loop_
 _symmetry_equiv_pos_site_id
 _symmetry_equiv_pos_as_xyz
  1  'x, y, z'
loop_
 _atom_site_type_symbol
 _atom_site_label
 _atom_site_symmetry_multiplicity
 _atom_site_fract_x
 _atom_site_fract_y
 _atom_site_fract_z
 _atom_site_occupancy
  La  La0  1  0.37538917  0.00000100  0.00000100  1
  Mg  Mg1  1  0.61525035  0.33351080  0.99999900  1
  Mg  Mg2  1  0.99319529  1.00000000  0.00000000  1
  Mg  Mg3  1  0.99523908  0.34090813  0.00000000  1
  Mg  Mg4  1  0.31538448  0.59967562  0.00000100  1
  Mg  Mg5  1  0.68821679  0.68682131  0.29402948  1
  Mg  Mg6  1  0.00139548  0.60720716  0.31317869  1
  Mg  Mg7  1  0.61525035  0.99999900  0.33351080  1
  Mg  Mg8  1  0.99523908  1.00000000  0.34090713  1
  Mg  Mg9  1  0.39418932  0.70597252  0.39279384  1
  Mg  Mg10  1  0.71570986  0.40032538  0.40032638  1
  Mg  Mg11  1  0.31538448  0.00000100  0.59967562  1
  Mg  Mg12  1  0.00139548  0.31317869  0.60720716  1
  Mg  Mg13  1  0.65433095  0.65909187  0.65909187  1
  Mg  Mg14  1  0.28173955  0.66648820  0.66648820  1
  Mg  Mg15  1  0.68821679  0.29402948  0.68682131  1
  Mg  Mg16  1  0.39418932  0.39279384  0.70597252  1
  Al  Al17  1  0.81133737  0.63832086  1.00000000  1
  Al  Al18  1  0.63119621  0.81744584  1.00000000  1
  Al  Al19  1  0.36276259  0.36436225  0.17969844  1
  Al  Al20  1  0.81374937  0.18255416  0.18255416  1
  Al  Al21  1  0.18306415  0.82030056  0.18466380  1
  Al  Al22  1  0.17301851  0.36168114  0.36168114  1
  Al  Al23  1  0.36276259  0.17969844  0.36436225  1
  Al  Al24  1  0.99840034  0.81533720  0.63563775  1
  Al  Al25  1  0.81133737  0.00000000  0.63832086  1
  Al  Al26  1  0.99840034  0.63563875  0.81533620  1
  Al  Al27  1  0.63119621  0.00000000  0.81744484  1
  Al  Al28  1  0.18306315  0.18466380  0.82030056  1
