# generated using pymatgen
data_K
_symmetry_space_group_name_H-M   'P 1'
_cell_length_a   14.13993985
_cell_length_b   14.13993985
_cell_length_c   14.13993985
_cell_angle_alpha   109.47122063
_cell_angle_beta   109.47122063
_cell_angle_gamma   109.47122063
_symmetry_Int_Tables_number   1
_chemical_formula_structural   K
_chemical_formula_sum   K29
_cell_volume   2176.31018984
_cell_formula_units_Z   29
loop_
 _symmetry_equiv_pos_site_id
 _symmetry_equiv_pos_as_xyz
  1  'x, y, z'
loop_
 _atom_site_type_symbol
 _atom_site_label
 _atom_site_symmetry_multiplicity
 _atom_site_fract_x
 _atom_site_fract_y
 _atom_site_fract_z
 _atom_site_occupancy
  K  K0  1  -0.00000000  -0.00000000  -0.00000000  1
  K  K1  1  0.63459803  0.00000000  -0.00000000  1
  K  K2  1  0.37324833  0.18988238  -0.00000000  1
  K  K3  1  0.18988238  0.37324833  0.00000000  1
  K  K4  1  0.68199957  0.40364431  -0.00000000  1
  K  K5  1  0.00000000  0.63459803  -0.00000000  1
  K  K6  1  0.40364431  0.68199957  -0.00000000  1
  K  K7  1  0.81011762  0.81011762  0.18336695  1
  K  K8  1  0.37324833  -0.00000000  0.18988238  1
  K  K9  1  0.00000000  0.37324833  0.18988238  1
  K  K10  1  0.59635569  0.59635569  0.27835525  1
  K  K11  1  0.72164475  0.31800043  0.31800043  1
  K  K12  1  0.31800043  0.72164475  0.31800043  1
  K  K13  1  0.36540197  0.36540197  0.36540197  1
  K  K14  1  0.18988238  -0.00000000  0.37324833  1
  K  K15  1  0.00000000  0.18988238  0.37324833  1
  K  K16  1  0.68199957  -0.00000000  0.40364431  1
  K  K17  1  0.00000000  0.68199957  0.40364431  1
  K  K18  1  0.59635569  0.27835525  0.59635569  1
  K  K19  1  0.27835525  0.59635569  0.59635569  1
  K  K20  1  0.81663305  0.62675167  0.62675167  1
  K  K21  1  0.62675167  0.81663305  0.62675167  1
  K  K22  1  0.00000000  0.00000000  0.63459803  1
  K  K23  1  0.40364431  0.00000000  0.68199957  1
  K  K24  1  0.00000000  0.40364431  0.68199957  1
  K  K25  1  0.31800043  0.31800043  0.72164475  1
  K  K26  1  0.81011762  0.18336695  0.81011762  1
  K  K27  1  0.18336695  0.81011762  0.81011762  1
  K  K28  1  0.62675167  0.62675167  0.81663305  1
