# generated using pymatgen
data_Mg16Al12Au
_symmetry_space_group_name_H-M   'P 1'
_cell_length_a   9.30011600
_cell_length_b   9.06955969
_cell_length_c   9.01996852
_cell_angle_alpha   108.94031471
_cell_angle_beta   110.27510664
_cell_angle_gamma   110.64804150
_symmetry_Int_Tables_number   1
_chemical_formula_structural   Mg16Al12Au
_chemical_formula_sum   'Mg16 Al12 Au1'
_cell_volume   574.85365503
_cell_formula_units_Z   1
loop_
 _symmetry_equiv_pos_site_id
 _symmetry_equiv_pos_as_xyz
  1  'x, y, z'
loop_
 _atom_site_type_symbol
 _atom_site_label
 _atom_site_symmetry_multiplicity
 _atom_site_fract_x
 _atom_site_fract_y
 _atom_site_fract_z
 _atom_site_occupancy
  Mg  Mg0  1  0.00412033  0.99887924  0.99997939  1
  Mg  Mg1  1  0.30698236  0.60262796  0.99954096  1
  Mg  Mg2  1  0.36778077  0.03733630  0.99951657  1
  Mg  Mg3  1  0.99457065  0.34075104  0.00045742  1
  Mg  Mg4  1  0.66981077  0.66137944  0.25882008  1
  Mg  Mg5  1  0.59368981  0.99568503  0.30890469  1
  Mg  Mg6  1  0.00338805  0.60539040  0.31930123  1
  Mg  Mg7  1  0.00050908  0.99528992  0.35227700  1
  Mg  Mg8  1  0.70370885  0.39142606  0.38017327  1
  Mg  Mg9  1  0.39645358  0.71913261  0.40276158  1
  Mg  Mg10  1  0.99443147  0.31550792  0.59728194  1
  Mg  Mg11  1  0.32337272  0.01093332  0.62045074  1
  Mg  Mg12  1  0.64855802  0.64186040  0.64733357  1
  Mg  Mg13  1  0.68384561  0.28493255  0.68090504  1
  Mg  Mg14  1  0.28442321  0.68697567  0.69109388  1
  Mg  Mg15  1  0.40960748  0.40188599  0.74079887  1
  Al  Al16  1  0.81712383  0.63439540  0.99935367  1
  Al  Al17  1  0.63464759  0.80829434  0.00181327  1
  Al  Al18  1  0.35232763  0.36857265  0.18357670  1
  Al  Al19  1  0.18635429  0.82235286  0.18528756  1
  Al  Al20  1  0.81795543  0.18090616  0.18845015  1
  Al  Al21  1  0.36454904  0.18607438  0.37100844  1
  Al  Al22  1  0.18062546  0.36560175  0.37384015  1
  Al  Al23  1  0.80425533  0.99110028  0.62721041  1
  Al  Al24  1  0.99295335  0.81497144  0.62824460  1
  Al  Al25  1  0.63037874  0.99416679  0.81159671  1
  Al  Al26  1  0.99953042  0.63731083  0.81424953  1
  Al  Al27  1  0.17012778  0.18539913  0.81612453  1
  Au  Au28  1  0.66392335  0.32086512  -0.00035395  1
