# generated using pymatgen
data_Ge2N2O
_symmetry_space_group_name_H-M   'P 1'
_cell_length_a   3.05444401
_cell_length_b   6.37692751
_cell_length_c   5.77413458
_cell_angle_alpha   76.49807518
_cell_angle_beta   90.00000000
_cell_angle_gamma   76.14344611
_symmetry_Int_Tables_number   1
_chemical_formula_structural   Ge2N2O
_chemical_formula_sum   'Ge4 N4 O2'
_cell_volume   105.99105656
_cell_formula_units_Z   2
loop_
 _symmetry_equiv_pos_site_id
 _symmetry_equiv_pos_as_xyz
  1  'x, y, z'
loop_
 _atom_site_type_symbol
 _atom_site_label
 _atom_site_symmetry_multiplicity
 _atom_site_fract_x
 _atom_site_fract_y
 _atom_site_fract_z
 _atom_site_occupancy
  Ge  Ge0  1  0.08361228  0.83277444  0.78860932  1
  Ge  Ge1  1  0.65708632  0.68582736  0.33510854  1
  Ge  Ge2  1  0.34291368  0.31417264  0.66489146  1
  Ge  Ge3  1  0.91638772  0.16722556  0.21139068  1
  N  N4  1  0.50125534  0.99748932  0.74967534  1
  N  N5  1  0.17587926  0.64824148  0.57167813  1
  N  N6  1  0.82412074  0.35175852  0.42832187  1
  N  N7  1  0.49874466  0.00251068  0.25032466  1
  O  O8  1  0.16324163  0.67351675  0.10360051  1
  O  O9  1  0.83675837  0.32648325  0.89639949  1
