# generated using pymatgen
data_Mg16Al12Zn
_symmetry_space_group_name_H-M   'P 1'
_cell_length_a   9.10382028
_cell_length_b   9.10381907
_cell_length_c   9.10382028
_cell_angle_alpha   109.47122833
_cell_angle_beta   109.47122120
_cell_angle_gamma   109.47122833
_symmetry_Int_Tables_number   1
_chemical_formula_structural   Mg16Al12Zn
_chemical_formula_sum   'Mg16 Al12 Zn1'
_cell_volume   580.82993799
_cell_formula_units_Z   1
loop_
 _symmetry_equiv_pos_site_id
 _symmetry_equiv_pos_as_xyz
  1  'x, y, z'
loop_
 _atom_site_type_symbol
 _atom_site_label
 _atom_site_symmetry_multiplicity
 _atom_site_fract_x
 _atom_site_fract_y
 _atom_site_fract_z
 _atom_site_occupancy
  Mg  Mg0  1  0.33085803  0.00000100  -0.00000000  1
  Mg  Mg1  1  0.00000100  0.33085703  0.00000100  1
  Mg  Mg2  1  0.59867125  0.31312662  0.00000100  1
  Mg  Mg3  1  0.31312662  0.59867125  0.00000100  1
  Mg  Mg4  1  0.68687338  0.68687338  0.28554363  1
  Mg  Mg5  1  0.59867125  0.00000100  0.31312662  1
  Mg  Mg6  1  0.00000100  0.59867125  0.31312662  1
  Mg  Mg7  1  -0.00000000  0.00000100  0.33085803  1
  Mg  Mg8  1  0.40133075  0.71445737  0.40133075  1
  Mg  Mg9  1  0.71445737  0.40133075  0.40133075  1
  Mg  Mg10  1  0.31312662  0.00000100  0.59867125  1
  Mg  Mg11  1  0.00000100  0.31312662  0.59867125  1
  Mg  Mg12  1  0.66914197  0.66914197  0.66914197  1
  Mg  Mg13  1  0.28554363  0.68687338  0.68687338  1
  Mg  Mg14  1  0.68687338  0.28554363  0.68687338  1
  Mg  Mg15  1  0.40133075  0.40133075  0.71445737  1
  Al  Al16  1  0.63161417  0.81427918  0.00000000  1
  Al  Al17  1  0.81428018  0.63161317  0.00000000  1
  Al  Al18  1  0.36838783  0.36838683  0.18266600  1
  Al  Al19  1  0.18572082  0.81733400  0.18572082  1
  Al  Al20  1  0.81733300  0.18572082  0.18572082  1
  Al  Al21  1  0.18266600  0.36838683  0.36838783  1
  Al  Al22  1  0.36838783  0.18266500  0.36838783  1
  Al  Al23  1  0.00000000  0.81427918  0.63161417  1
  Al  Al24  1  0.81427918  0.00000000  0.63161317  1
  Al  Al25  1  0.63161317  0.00000000  0.81427918  1
  Al  Al26  1  0.00000000  0.63161317  0.81428018  1
  Al  Al27  1  0.18572082  0.18572082  0.81733300  1
  Zn  Zn28  1  -0.00000000  -0.00000000  -0.00000000  1
