# generated using pymatgen
data_Mg5Ag
_symmetry_space_group_name_H-M   'P 1'
_cell_length_a   3.17190635
_cell_length_b   8.21204974
_cell_length_c   4.99559549
_cell_angle_alpha   90.00000000
_cell_angle_beta   90.00000000
_cell_angle_gamma   78.86477271
_symmetry_Int_Tables_number   1
_chemical_formula_structural   Mg5Ag
_chemical_formula_sum   'Mg5 Ag1'
_cell_volume   127.67482536
_cell_formula_units_Z   1
loop_
 _symmetry_equiv_pos_site_id
 _symmetry_equiv_pos_as_xyz
  1  'x, y, z'
loop_
 _atom_site_type_symbol
 _atom_site_label
 _atom_site_symmetry_multiplicity
 _atom_site_fract_x
 _atom_site_fract_y
 _atom_site_fract_z
 _atom_site_occupancy
  Mg  Mg0  1  0.00104915  0.99789870  0.00000000  1
  Mg  Mg1  1  0.32925488  0.34148925  0.00000000  1
  Mg  Mg2  1  0.66828529  0.66342642  0.00000000  1
  Mg  Mg3  1  0.43861321  0.12277258  0.49999900  1
  Mg  Mg4  1  0.11878942  0.76242016  0.49999900  1
  Ag  Ag5  1  0.77733605  0.44532590  0.49999900  1
