# generated using pymatgen
data_Pr3Dy
_symmetry_space_group_name_H-M   'P 1'
_cell_length_a   7.37216918
_cell_length_b   7.37262913
_cell_length_c   6.03207039
_cell_angle_alpha   89.94595577
_cell_angle_beta   90.05840844
_cell_angle_gamma   119.96673299
_symmetry_Int_Tables_number   1
_chemical_formula_structural   Pr3Dy
_chemical_formula_sum   'Pr6 Dy2'
_cell_volume   284.02719212
_cell_formula_units_Z   2
loop_
 _symmetry_equiv_pos_site_id
 _symmetry_equiv_pos_as_xyz
  1  'x, y, z'
loop_
 _atom_site_type_symbol
 _atom_site_label
 _atom_site_symmetry_multiplicity
 _atom_site_fract_x
 _atom_site_fract_y
 _atom_site_fract_z
 _atom_site_occupancy
  Pr  Pr0  1  0.16741319  0.33488450  0.24997435  1
  Pr  Pr1  1  0.66517638  0.83253455  0.24995900  1
  Pr  Pr2  1  0.16738594  0.83257818  0.25000785  1
  Pr  Pr3  1  0.83133127  0.66280873  0.75006351  1
  Pr  Pr4  1  0.33723357  0.16867618  0.75004657  1
  Pr  Pr5  1  0.83141227  0.16855644  0.74999763  1
  Dy  Dy6  1  0.33338192  0.66662751  0.75005294  1
  Dy  Dy7  1  0.66666546  0.33333491  0.24989415  1
