# generated using pymatgen
data_Mn7BiO12
_symmetry_space_group_name_H-M   'P 1'
_cell_length_a   6.57923456
_cell_length_b   6.56480427
_cell_length_c   6.57923456
_cell_angle_alpha   108.97817051
_cell_angle_beta   109.81134329
_cell_angle_gamma   109.71374187
_symmetry_Int_Tables_number   1
_chemical_formula_structural   Mn7BiO12
_chemical_formula_sum   'Mn7 Bi1 O12'
_cell_volume   218.49875274
_cell_formula_units_Z   1
loop_
 _symmetry_equiv_pos_site_id
 _symmetry_equiv_pos_as_xyz
  1  'x, y, z'
loop_
 _atom_site_type_symbol
 _atom_site_label
 _atom_site_symmetry_multiplicity
 _atom_site_fract_x
 _atom_site_fract_y
 _atom_site_fract_z
 _atom_site_occupancy
  Mn  Mn0  1  0.50000000  -0.00000000  0.50000000  1
  Mn  Mn1  1  0.50000000  0.50000000  -0.00000000  1
  Mn  Mn2  1  -0.00000000  0.50000000  0.50000000  1
  Mn  Mn3  1  0.00000100  0.00000100  0.50000000  1
  Mn  Mn4  1  0.50000100  0.00000100  -0.00000000  1
  Mn  Mn5  1  0.50000100  0.50000000  0.49999900  1
  Mn  Mn6  1  -0.00000000  0.49999900  0.99999900  1
  Bi  Bi7  1  -0.00000000  -0.00000000  -0.00000000  1
  O  O8  1  0.30951811  0.17630855  0.48265296  1
  O  O9  1  0.30634540  0.82369245  0.13321056  1
  O  O10  1  0.69048189  0.82369245  0.51734704  1
  O  O11  1  0.69365460  0.17630855  0.86678944  1
  O  O12  1  0.48554256  0.30868258  0.17494096  1
  O  O13  1  0.86625838  0.69131742  0.17685898  1
  O  O14  1  0.51445744  0.69131742  0.82505804  1
  O  O15  1  0.13374162  0.30868258  0.82314002  1
  O  O16  1  0.82359470  0.13259300  0.30899830  1
  O  O17  1  0.17640630  0.86740900  0.69100270  1
  O  O18  1  0.17530291  0.48399677  0.30869386  1
  O  O19  1  0.82469609  0.51600423  0.69130714  1
