# generated using pymatgen
data_Mg17Al11Si
_symmetry_space_group_name_H-M   'P 1'
_cell_length_a   9.11509218
_cell_length_b   9.07928672
_cell_length_c   9.11617202
_cell_angle_alpha   109.48811244
_cell_angle_beta   109.52205884
_cell_angle_gamma   109.29173378
_symmetry_Int_Tables_number   1
_chemical_formula_structural   Mg17Al11Si
_chemical_formula_sum   'Mg17 Al11 Si1'
_cell_volume   581.56656769
_cell_formula_units_Z   1
loop_
 _symmetry_equiv_pos_site_id
 _symmetry_equiv_pos_as_xyz
  1  'x, y, z'
loop_
 _atom_site_type_symbol
 _atom_site_label
 _atom_site_symmetry_multiplicity
 _atom_site_fract_x
 _atom_site_fract_y
 _atom_site_fract_z
 _atom_site_occupancy
  Mg  Mg0  1  0.60415338  0.32056278  0.00007983  1
  Mg  Mg1  1  0.31526836  0.60163460  0.99988323  1
  Mg  Mg2  1  0.00067809  0.00053348  0.99991479  1
  Mg  Mg3  1  0.00121966  0.34419749  0.99995166  1
  Mg  Mg4  1  0.34496569  0.00003864  0.00001370  1
  Mg  Mg5  1  0.68349187  0.68526478  0.28706936  1
  Mg  Mg6  1  0.99971338  0.60277025  0.31392704  1
  Mg  Mg7  1  0.60363297  0.00094179  0.31617115  1
  Mg  Mg8  1  0.99924230  0.99949679  0.34506168  1
  Mg  Mg9  1  0.39674893  0.71400778  0.39793837  1
  Mg  Mg10  1  0.71429113  0.39833902  0.39809850  1
  Mg  Mg11  1  0.31627202  0.00016849  0.60187548  1
  Mg  Mg12  1  0.99900967  0.31604151  0.60224400  1
  Mg  Mg13  1  0.65416624  0.65458081  0.65503020  1
  Mg  Mg14  1  0.28761651  0.68486805  0.68388680  1
  Mg  Mg15  1  0.68565324  0.28869357  0.68599079  1
  Mg  Mg16  1  0.39633482  0.39824900  0.71294277  1
  Al  Al17  1  0.63725286  0.80788966  0.99983586  1
  Al  Al18  1  0.36669631  0.36586042  0.18063095  1
  Al  Al19  1  0.18007319  0.81669750  0.18362317  1
  Al  Al20  1  0.81921811  0.18354594  0.18455578  1
  Al  Al21  1  0.36586316  0.18155773  0.36656043  1
  Al  Al22  1  0.18118704  0.36725016  0.36627791  1
  Al  Al23  1  0.81505413  0.00104155  0.63368171  1
  Al  Al24  1  0.99926996  0.81518308  0.63346361  1
  Al  Al25  1  0.63440681  0.99885843  0.81524679  1
  Al  Al26  1  0.99642258  0.63301593  0.81634413  1
  Al  Al27  1  0.18582484  0.18526659  0.81933159  1
  Si  Si28  1  0.81627574  0.63344620  0.00037269  1
