# generated using pymatgen
data_Sr(Mg4Al3)4
_symmetry_space_group_name_H-M   'P 1'
_cell_length_a   9.21308013
_cell_length_b   9.21307958
_cell_length_c   9.21308013
_cell_angle_alpha   109.47122067
_cell_angle_beta   109.47121751
_cell_angle_gamma   109.47122067
_symmetry_Int_Tables_number   1
_chemical_formula_structural   Sr(Mg4Al3)4
_chemical_formula_sum   'Sr1 Mg16 Al12'
_cell_volume   601.99466838
_cell_formula_units_Z   1
loop_
 _symmetry_equiv_pos_site_id
 _symmetry_equiv_pos_as_xyz
  1  'x, y, z'
loop_
 _atom_site_type_symbol
 _atom_site_label
 _atom_site_symmetry_multiplicity
 _atom_site_fract_x
 _atom_site_fract_y
 _atom_site_fract_z
 _atom_site_occupancy
  Sr  Sr0  1  0.00000000  0.00000000  0.00000000  1
  Mg  Mg1  1  0.99999900  0.36162530  0.99999900  1
  Mg  Mg2  1  0.60245590  0.31951696  1.00000000  1
  Mg  Mg3  1  0.36162530  0.99999900  0.99999900  1
  Mg  Mg4  1  0.31951696  0.60245490  0.00000100  1
  Mg  Mg5  1  0.68048404  0.68048304  0.28293894  1
  Mg  Mg6  1  0.00000100  0.60245490  0.31951696  1
  Mg  Mg7  1  0.60245490  1.00000000  0.31951696  1
  Mg  Mg8  1  0.99999900  0.99999900  0.36162530  1
  Mg  Mg9  1  0.39754510  0.71706206  0.39754510  1
  Mg  Mg10  1  0.71706206  0.39754510  0.39754610  1
  Mg  Mg11  1  0.31951696  1.00000000  0.60245490  1
  Mg  Mg12  1  1.00000000  0.31951696  0.60245590  1
  Mg  Mg13  1  0.63837270  0.63837270  0.63837270  1
  Mg  Mg14  1  0.68048304  0.28293894  0.68048304  1
  Mg  Mg15  1  0.28293894  0.68048304  0.68048404  1
  Mg  Mg16  1  0.39754610  0.39754510  0.71706206  1
  Al  Al17  1  0.81125646  0.62889121  0.99999900  1
  Al  Al18  1  0.62889121  0.81125546  1.00000000  1
  Al  Al19  1  0.37110979  0.37110979  0.18236526  1
  Al  Al20  1  0.18874354  0.81763374  0.18874354  1
  Al  Al21  1  0.81763374  0.18874354  0.18874354  1
  Al  Al22  1  0.37110979  0.18236526  0.37110979  1
  Al  Al23  1  0.18236526  0.37110979  0.37110979  1
  Al  Al24  1  0.81125646  1.00000000  0.62889021  1
  Al  Al25  1  1.00000000  0.81125546  0.62889121  1
  Al  Al26  1  0.99999900  0.62889121  0.81125646  1
  Al  Al27  1  0.62889021  1.00000000  0.81125646  1
  Al  Al28  1  0.18874354  0.18874354  0.81763374  1
