# generated using pymatgen
data_Mn7BiO12
_symmetry_space_group_name_H-M   'P 1'
_cell_length_a   6.55021686
_cell_length_b   6.55021686
_cell_length_c   6.57954589
_cell_angle_alpha   109.38299281
_cell_angle_beta   109.31932642
_cell_angle_gamma   109.53111918
_symmetry_Int_Tables_number   1
_chemical_formula_structural   Mn7BiO12
_chemical_formula_sum   'Mn7 Bi1 O12'
_cell_volume   217.79425762
_cell_formula_units_Z   1
loop_
 _symmetry_equiv_pos_site_id
 _symmetry_equiv_pos_as_xyz
  1  'x, y, z'
loop_
 _atom_site_type_symbol
 _atom_site_label
 _atom_site_symmetry_multiplicity
 _atom_site_fract_x
 _atom_site_fract_y
 _atom_site_fract_z
 _atom_site_occupancy
  Mn  Mn0  1  0.50000000  0.00000000  0.50000000  1
  Mn  Mn1  1  0.00000000  0.50000000  0.50000000  1
  Mn  Mn2  1  0.50000000  0.50000000  0.00000000  1
  Mn  Mn3  1  0.50000000  0.00000000  0.00000000  1
  Mn  Mn4  1  0.00000000  0.50000000  0.00000000  1
  Mn  Mn5  1  0.00000000  0.00000000  0.50000000  1
  Mn  Mn6  1  0.50000000  0.50000000  0.50000000  1
  Bi  Bi7  1  0.00000000  0.00000000  0.00000000  1
  O  O8  1  0.17009127  0.86631217  0.68567332  1
  O  O9  1  0.18063885  0.48441795  0.31432668  1
  O  O10  1  0.82990873  0.13368783  0.31432668  1
  O  O11  1  0.81936115  0.51558205  0.68567332  1
  O  O12  1  0.30258259  0.83090533  0.13348792  1
  O  O13  1  0.69741741  0.16909467  0.86651208  1
  O  O14  1  0.68549907  0.81870072  0.50419979  1
  O  O15  1  0.31450093  0.18129928  0.49580021  1
  O  O16  1  0.51761839  0.69996543  0.83364777  1
  O  O17  1  0.86631766  0.68397062  0.16635223  1
  O  O18  1  0.48238161  0.30003457  0.16635223  1
  O  O19  1  0.13368234  0.31602938  0.83364777  1
