# generated using pymatgen
data_Th(Mg4Al3)4
_symmetry_space_group_name_H-M   'P 1'
_cell_length_a   9.17405403
_cell_length_b   9.17405334
_cell_length_c   9.17405403
_cell_angle_alpha   109.47121630
_cell_angle_beta   109.47122383
_cell_angle_gamma   109.47121630
_symmetry_Int_Tables_number   1
_chemical_formula_structural   Th(Mg4Al3)4
_chemical_formula_sum   'Th1 Mg16 Al12'
_cell_volume   594.37698848
_cell_formula_units_Z   1
loop_
 _symmetry_equiv_pos_site_id
 _symmetry_equiv_pos_as_xyz
  1  'x, y, z'
loop_
 _atom_site_type_symbol
 _atom_site_label
 _atom_site_symmetry_multiplicity
 _atom_site_fract_x
 _atom_site_fract_y
 _atom_site_fract_z
 _atom_site_occupancy
  Th  Th0  1  0.00000000  0.00000000  0.00000000  1
  Mg  Mg1  1  0.36622102  0.00000000  0.99999900  1
  Mg  Mg2  1  0.60367447  0.32043434  -0.00000000  1
  Mg  Mg3  1  0.00000000  0.36622202  0.00000000  1
  Mg  Mg4  1  0.32043434  0.60367347  0.00000000  1
  Mg  Mg5  1  0.67956566  0.67956566  0.28324013  1
  Mg  Mg6  1  0.60367447  0.00000100  0.32043334  1
  Mg  Mg7  1  0.00000000  0.60367347  0.32043434  1
  Mg  Mg8  1  0.99999900  0.00000000  0.36622102  1
  Mg  Mg9  1  0.71676087  0.39632753  0.39632653  1
  Mg  Mg10  1  0.39632753  0.71676087  0.39632753  1
  Mg  Mg11  1  0.32043334  0.00000100  0.60367447  1
  Mg  Mg12  1  -0.00000000  0.32043434  0.60367447  1
  Mg  Mg13  1  0.63377698  0.63377698  0.63377698  1
  Mg  Mg14  1  0.67956566  0.28324013  0.67956566  1
  Mg  Mg15  1  0.28324013  0.67956566  0.67956566  1
  Mg  Mg16  1  0.39632653  0.39632753  0.71676087  1
  Al  Al17  1  0.63021775  0.81332327  0.00000000  1
  Al  Al18  1  0.81332327  0.63021775  1.00000000  1
  Al  Al19  1  0.36978325  0.36978325  0.18310551  1
  Al  Al20  1  0.81689249  0.18667673  0.18667673  1
  Al  Al21  1  0.18667673  0.81689249  0.18667673  1
  Al  Al22  1  0.18310551  0.36978325  0.36978325  1
  Al  Al23  1  0.36978325  0.18310551  0.36978325  1
  Al  Al24  1  0.81332327  0.00000000  0.63021675  1
  Al  Al25  1  0.00000000  0.81332327  0.63021775  1
  Al  Al26  1  1.00000000  0.63021775  0.81332327  1
  Al  Al27  1  0.63021675  0.00000000  0.81332327  1
  Al  Al28  1  0.18667673  0.18667673  0.81689249  1
