# generated using pymatgen
data_Fe2CoO6
_symmetry_space_group_name_H-M   'P 1'
_cell_length_a   8.38254829
_cell_length_b   8.38655332
_cell_length_c   4.41412259
_cell_angle_alpha   90.29279042
_cell_angle_beta   90.00000000
_cell_angle_gamma   119.98420887
_symmetry_Int_Tables_number   1
_chemical_formula_structural   Fe2CoO6
_chemical_formula_sum   'Fe6 Co3 O18'
_cell_volume   268.77948872
_cell_formula_units_Z   3
loop_
 _symmetry_equiv_pos_site_id
 _symmetry_equiv_pos_as_xyz
  1  'x, y, z'
loop_
 _atom_site_type_symbol
 _atom_site_label
 _atom_site_symmetry_multiplicity
 _atom_site_fract_x
 _atom_site_fract_y
 _atom_site_fract_z
 _atom_site_occupancy
  Fe  Fe0  1  0.99981718  0.64321031  0.00189592  1
  Fe  Fe1  1  0.99936071  0.31098564  0.50007806  1
  Fe  Fe2  1  0.35660686  0.35678969  0.99810408  1
  Fe  Fe3  1  0.31262117  1.00000000  0.50000000  1
  Fe  Fe4  1  0.68837407  0.68901436  0.49992194  1
  Fe  Fe5  1  0.64548535  0.00000000  0.00000000  1
  Co  Co6  1  0.33362158  0.66664522  0.50439516  1
  Co  Co7  1  0.00241043  0.00000000  1.00000000  1
  Co  Co8  1  0.66697736  0.33335478  0.49560484  1
  O  O9  1  0.09632055  0.88271776  0.77354039  1
  O  O10  1  0.22408304  0.77336492  0.27158948  1
  O  O11  1  0.11866204  0.54224975  0.73503475  1
  O  O12  1  0.42382690  0.88053043  0.73729437  1
  O  O13  1  0.22544281  0.44914070  0.27256897  1
  O  O14  1  0.11619634  0.21422557  0.77003450  1
  O  O15  1  0.54850194  0.77447632  0.27236831  1
  O  O16  1  0.21360279  0.11728224  0.22645961  1
  O  O17  1  0.45770103  0.57712053  0.73631052  1
  O  O18  1  0.78453386  0.90208275  0.77104243  1
  O  O19  1  0.45071612  0.22663508  0.72841052  1
  O  O20  1  0.57641129  0.45775025  0.26496525  1
  O  O21  1  0.54329647  0.11947057  0.26270563  1
  O  O22  1  0.77630211  0.55085930  0.72743103  1
  O  O23  1  0.90197077  0.78577443  0.22996550  1
  O  O24  1  0.77402563  0.22552368  0.72763169  1
  O  O25  1  0.88057951  0.42287947  0.26368948  1
  O  O26  1  0.88245110  0.09791725  0.22895757  1
