# generated using pymatgen
data_V5Si3
_symmetry_space_group_name_H-M   'P 1'
_cell_length_a   6.18661635
_cell_length_b   6.18661635
_cell_length_c   7.04540616
_cell_angle_alpha   116.04349197
_cell_angle_beta   116.04349197
_cell_angle_gamma   90.00000000
_symmetry_Int_Tables_number   1
_chemical_formula_structural   V5Si3
_chemical_formula_sum   'V10 Si6'
_cell_volume   211.37848610
_cell_formula_units_Z   2
loop_
 _symmetry_equiv_pos_site_id
 _symmetry_equiv_pos_as_xyz
  1  'x, y, z'
loop_
 _atom_site_type_symbol
 _atom_site_label
 _atom_site_symmetry_multiplicity
 _atom_site_fract_x
 _atom_site_fract_y
 _atom_site_fract_z
 _atom_site_occupancy
  V  V0  1  0.50000000  0.50000000  -0.00000000  1
  V  V1  1  -0.00000000  -0.00000000  -0.00000000  1
  V  V2  1  0.98600690  0.81721052  0.30321743  1
  V  V3  1  0.31721052  0.48600690  0.30321743  1
  V  V4  1  0.81721052  0.31721052  0.30321743  1
  V  V5  1  0.48600690  0.98600690  0.30321743  1
  V  V6  1  0.01399310  0.18278948  0.69678257  1
  V  V7  1  0.68278948  0.51399310  0.69678257  1
  V  V8  1  0.18278948  0.68278948  0.69678257  1
  V  V9  1  0.51399310  0.01399310  0.69678257  1
  Si  Si10  1  0.75000000  0.75000000  0.50000000  1
  Si  Si11  1  0.25000000  0.25000000  0.50000000  1
  Si  Si12  1  0.36717442  0.13282558  -0.00000000  1
  Si  Si13  1  0.63282558  0.86717442  -0.00000000  1
  Si  Si14  1  0.13282558  0.63282558  1.00000000  1
  Si  Si15  1  0.86717442  0.36717442  0.00000000  1
