# generated using pymatgen
data_Cd(CoO2)2
_symmetry_space_group_name_H-M   'P 1'
_cell_length_a   5.11535614
_cell_length_b   5.95511195
_cell_length_c   10.99651224
_cell_angle_alpha   90.00889372
_cell_angle_beta   90.01795046
_cell_angle_gamma   90.07114748
_symmetry_Int_Tables_number   1
_chemical_formula_structural   Cd(CoO2)2
_chemical_formula_sum   'Cd4 Co8 O16'
_cell_volume   334.98117877
_cell_formula_units_Z   4
loop_
 _symmetry_equiv_pos_site_id
 _symmetry_equiv_pos_as_xyz
  1  'x, y, z'
loop_
 _atom_site_type_symbol
 _atom_site_label
 _atom_site_symmetry_multiplicity
 _atom_site_fract_x
 _atom_site_fract_y
 _atom_site_fract_z
 _atom_site_occupancy
  Cd  Cd0  1  0.02464205  0.74363220  0.25005753  1
  Cd  Cd1  1  0.35326140  0.75416743  0.75015370  1
  Cd  Cd2  1  0.64647145  0.24434940  0.25022341  1
  Cd  Cd3  1  0.97535588  0.25637936  0.75033688  1
  Co  Co4  1  0.01109836  0.24970531  0.01478972  1
  Co  Co5  1  0.98929276  0.75009203  0.98501213  1
  Co  Co6  1  0.01074816  0.25004778  0.48525118  1
  Co  Co7  1  0.98837274  0.75023639  0.51468654  1
  Co  Co8  1  0.50075320  0.99912729  0.00060121  1
  Co  Co9  1  0.49966077  0.00170843  0.50120124  1
  Co  Co10  1  0.50036834  0.49892342  0.99890635  1
  Co  Co11  1  0.49952941  0.50116908  0.49854172  1
  O  O12  1  0.16583955  0.00485345  0.89579069  1
  O  O13  1  0.16495931  0.00265287  0.60686947  1
  O  O14  1  0.16535652  0.49918747  0.60426195  1
  O  O15  1  0.16699883  0.50000124  0.89343788  1
  O  O16  1  0.33710628  0.24984535  0.09852348  1
  O  O17  1  0.33482465  0.24943768  0.40174416  1
  O  O18  1  0.32307555  0.74916660  0.08810984  1
  O  O19  1  0.32239037  0.75087640  0.41167118  1
  O  O20  1  0.67664734  0.25148850  0.58832998  1
  O  O21  1  0.67667791  0.24916799  0.91145526  1
  O  O22  1  0.66414452  0.75023321  0.59843477  1
  O  O23  1  0.66496460  0.75045215  0.90156896  1
  O  O24  1  0.83539020  0.99713821  0.10686152  1
  O  O25  1  0.83368247  0.99586528  0.39601264  1
  O  O26  1  0.83529086  0.50012526  0.10399569  1
  O  O27  1  0.83309649  0.49997024  0.39316991  1
