# generated using pymatgen
data_Sm3BeCrS7
_symmetry_space_group_name_H-M   'P 1'
_cell_length_a   5.99686538
_cell_length_b   9.79554208
_cell_length_c   9.79563326
_cell_angle_alpha   119.99928632
_cell_angle_beta   90.00000000
_cell_angle_gamma   90.00000000
_symmetry_Int_Tables_number   1
_chemical_formula_structural   Sm3BeCrS7
_chemical_formula_sum   'Sm6 Be2 Cr2 S14'
_cell_volume   498.33231053
_cell_formula_units_Z   2
loop_
 _symmetry_equiv_pos_site_id
 _symmetry_equiv_pos_as_xyz
  1  'x, y, z'
loop_
 _atom_site_type_symbol
 _atom_site_label
 _atom_site_symmetry_multiplicity
 _atom_site_fract_x
 _atom_site_fract_y
 _atom_site_fract_z
 _atom_site_occupancy
  Sm  Sm0  1  0.25700225  0.24819320  0.39072180  1
  Sm  Sm1  1  0.25701633  0.60926875  0.85745901  1
  Sm  Sm2  1  0.25700264  0.14253985  0.75180941  1
  Sm  Sm3  1  0.75700225  0.75180680  0.60927820  1
  Sm  Sm4  1  0.75701633  0.39073125  0.14254099  1
  Sm  Sm5  1  0.75700264  0.85746015  0.24819059  1
  Be  Be6  1  0.83966128  0.33333014  0.66666721  1
  Be  Be7  1  0.33966128  0.66666986  0.33333279  1
  Cr  Cr8  1  0.47930759  0.99988989  -0.00000536  1
  Cr  Cr9  1  0.97930759  0.00011011  0.00000536  1
  S  S10  1  0.72132131  0.14193834  0.22308386  1
  S  S11  1  0.72133806  0.77688155  0.91883228  1
  S  S12  1  0.72129835  0.08115367  0.85804981  1
  S  S13  1  0.22132131  0.85806166  0.77691614  1
  S  S14  1  0.22133806  0.22311845  0.08116772  1
  S  S15  1  0.22129835  0.91884633  0.14195019  1
  S  S16  1  0.97435682  0.10666508  0.51960668  1
  S  S17  1  0.97436912  0.48039218  0.58706409  1
  S  S18  1  0.97436385  0.41295671  0.89333728  1
  S  S19  1  0.47435682  0.89333492  0.48039332  1
  S  S20  1  0.47436912  0.51960782  0.41293591  1
  S  S21  1  0.47436385  0.58704329  0.10666272  1
  S  S22  1  0.49096239  0.33332617  0.66665541  1
  S  S23  1  0.99096239  0.66667383  0.33334459  1
