# generated using pymatgen
data_Nd3AlFeS7
_symmetry_space_group_name_H-M   'P 1'
_cell_length_a   6.24413659
_cell_length_b   9.81471548
_cell_length_c   9.81609013
_cell_angle_alpha   119.99583583
_cell_angle_beta   90.00000000
_cell_angle_gamma   90.00000000
_symmetry_Int_Tables_number   1
_chemical_formula_structural   Nd3AlFeS7
_chemical_formula_sum   'Nd6 Al2 Fe2 S14'
_cell_volume   520.99973155
_cell_formula_units_Z   2
loop_
 _symmetry_equiv_pos_site_id
 _symmetry_equiv_pos_as_xyz
  1  'x, y, z'
loop_
 _atom_site_type_symbol
 _atom_site_label
 _atom_site_symmetry_multiplicity
 _atom_site_fract_x
 _atom_site_fract_y
 _atom_site_fract_z
 _atom_site_occupancy
  Nd  Nd0  1  0.27679285  0.21993965  0.37372774  1
  Nd  Nd1  1  0.27696241  0.62613485  0.84605684  1
  Nd  Nd2  1  0.27702568  0.15378951  0.78016093  1
  Nd  Nd3  1  0.77679285  0.78006035  0.62627226  1
  Nd  Nd4  1  0.77696241  0.37386515  0.15394316  1
  Nd  Nd5  1  0.77702568  0.84621049  0.21983907  1
  Al  Al6  1  0.85050751  0.33319161  0.66672286  1
  Al  Al7  1  0.35050751  0.66680839  0.33327714  1
  Fe  Fe8  1  0.43366267  0.00008401  0.00018121  1
  Fe  Fe9  1  0.93366267  0.99991599  0.99981879  1
  S  S10  1  0.68110153  0.12241666  0.21073652  1
  S  S11  1  0.68103163  0.78915396  0.91162426  1
  S  S12  1  0.68107351  0.08845782  0.87763592  1
  S  S13  1  0.18110153  0.87758334  0.78926348  1
  S  S14  1  0.18103163  0.21084604  0.08837574  1
  S  S15  1  0.18107351  0.91154218  0.12236408  1
  S  S16  1  0.99544369  0.09137075  0.52151481  1
  S  S17  1  0.99515698  0.47842945  0.56994096  1
  S  S18  1  0.99548622  0.42998941  0.90860381  1
  S  S19  1  0.49544369  0.90862925  0.47848519  1
  S  S20  1  0.49515698  0.52157055  0.43005904  1
  S  S21  1  0.49548622  0.57001059  0.09139619  1
  S  S22  1  0.49175533  0.33321607  0.66658414  1
  S  S23  1  0.99175533  0.66678393  0.33341586  1
