# generated using pymatgen
data_PH6NO4
_symmetry_space_group_name_H-M   'P 1'
_cell_length_a   6.50406968
_cell_length_b   6.50406968
_cell_length_c   6.50406968
_cell_angle_alpha   114.51664559
_cell_angle_beta   107.00895741
_cell_angle_gamma   107.00895741
_symmetry_Int_Tables_number   1
_chemical_formula_structural   PH6NO4
_chemical_formula_sum   'P2 H12 N2 O8'
_cell_volume   210.56086491
_cell_formula_units_Z   2
loop_
 _symmetry_equiv_pos_site_id
 _symmetry_equiv_pos_as_xyz
  1  'x, y, z'
loop_
 _atom_site_type_symbol
 _atom_site_label
 _atom_site_symmetry_multiplicity
 _atom_site_fract_x
 _atom_site_fract_y
 _atom_site_fract_z
 _atom_site_occupancy
  P  P0  1  0.50000000  0.75000000  0.25000000  1
  P  P1  1  0.00000000  -0.00000000  0.00000000  1
  H  H2  1  0.61832811  0.26742808  0.67500343  1
  H  H3  1  0.90757534  0.48257192  0.60090002  1
  H  H4  1  0.38167189  0.05667532  0.64909998  1
  H  H5  1  0.09242466  0.69332468  0.57499657  1
  H  H6  1  0.59242466  0.32499657  0.94332468  1
  H  H7  1  0.11832811  0.42500343  0.51742808  1
  H  H8  1  0.40757534  0.35090002  0.73257192  1
  H  H9  1  0.88167189  0.39909998  0.30667532  1
  H  H10  1  0.88399846  0.00899846  0.62500000  1
  H  H11  1  0.11600154  0.74100154  0.12500000  1
  H  H12  1  0.38399846  0.37500000  0.25899846  1
  H  H13  1  0.61600154  0.87500000  0.99100154  1
  N  N14  1  0.50000000  0.25000000  0.75000000  1
  N  N15  1  0.00000000  0.50000000  0.50000000  1
  O  O16  1  0.73065786  0.01401326  0.46988010  1
  O  O17  1  0.95586684  0.73598674  0.96664461  1
  O  O18  1  0.26934214  0.73922224  0.28335539  1
  O  O19  1  0.04413316  0.01077776  0.78011990  1
  O  O20  1  0.54413316  0.53011990  0.26077776  1
  O  O21  1  0.23065786  0.21988010  0.26401326  1
  O  O22  1  0.45586684  0.71664461  0.98598674  1
  O  O23  1  0.76934214  0.03335539  0.98922224  1
