# generated using pymatgen
data_Pr3AlNiS7
_symmetry_space_group_name_H-M   'P 1'
_cell_length_a   6.05686557
_cell_length_b   10.03442163
_cell_length_c   10.03404778
_cell_angle_alpha   119.99902350
_cell_angle_beta   90.00000000
_cell_angle_gamma   90.00000000
_symmetry_Int_Tables_number   1
_chemical_formula_structural   Pr3AlNiS7
_chemical_formula_sum   'Pr6 Al2 Ni2 S14'
_cell_volume   528.14278324
_cell_formula_units_Z   2
loop_
 _symmetry_equiv_pos_site_id
 _symmetry_equiv_pos_as_xyz
  1  'x, y, z'
loop_
 _atom_site_type_symbol
 _atom_site_label
 _atom_site_symmetry_multiplicity
 _atom_site_fract_x
 _atom_site_fract_y
 _atom_site_fract_z
 _atom_site_occupancy
  Pr  Pr0  1  0.25752277  0.23074087  0.37228111  1
  Pr  Pr1  1  0.25751533  0.62773556  0.85846477  1
  Pr  Pr2  1  0.25752668  0.14154767  0.76926460  1
  Pr  Pr3  1  0.75752277  0.76925913  0.62771889  1
  Pr  Pr4  1  0.75751533  0.37226444  0.14153523  1
  Pr  Pr5  1  0.75752668  0.85845233  0.23073540  1
  Al  Al6  1  0.83418744  0.33335119  0.66667365  1
  Al  Al7  1  0.33418744  0.66664881  0.33332635  1
  Ni  Ni8  1  0.48093707  0.99999231  0.00000507  1
  Ni  Ni9  1  0.98093707  0.00000769  0.99999493  1
  S  S10  1  0.71257712  0.13898712  0.22626945  1
  S  S11  1  0.71257910  0.77373039  0.91272353  1
  S  S12  1  0.71258328  0.08726967  0.86099973  1
  S  S13  1  0.21257712  0.86101288  0.77373055  1
  S  S14  1  0.21257910  0.22626961  0.08727647  1
  S  S15  1  0.21258328  0.91273033  0.13900027  1
  S  S16  1  0.98098044  0.09734150  0.51802065  1
  S  S17  1  0.98100624  0.48199394  0.57930734  1
  S  S18  1  0.98100915  0.42069484  0.90268644  1
  S  S19  1  0.48098044  0.90265850  0.48197935  1
  S  S20  1  0.48100624  0.51800606  0.42069266  1
  S  S21  1  0.48100915  0.57930516  0.09731356  1
  S  S22  1  0.46757539  0.33335657  0.66667836  1
  S  S23  1  0.96757539  0.66664343  0.33332164  1
