# generated using pymatgen
data_SmAl5
_symmetry_space_group_name_H-M   'P 1'
_cell_length_a   5.44832993
_cell_length_b   5.44843444
_cell_length_c   17.85511890
_cell_angle_alpha   90.00000000
_cell_angle_beta   90.00000000
_cell_angle_gamma   119.99936583
_symmetry_Int_Tables_number   1
_chemical_formula_structural   SmAl5
_chemical_formula_sum   'Sm4 Al20'
_cell_volume   459.01965459
_cell_formula_units_Z   4
loop_
 _symmetry_equiv_pos_site_id
 _symmetry_equiv_pos_as_xyz
  1  'x, y, z'
loop_
 _atom_site_type_symbol
 _atom_site_label
 _atom_site_symmetry_multiplicity
 _atom_site_fract_x
 _atom_site_fract_y
 _atom_site_fract_z
 _atom_site_occupancy
  Sm  Sm0  1  0.66667873  0.33333733  0.35055495  1
  Sm  Sm1  1  0.33334140  0.66666267  0.64944505  1
  Sm  Sm2  1  0.33332127  0.66666267  0.85055495  1
  Sm  Sm3  1  0.66665860  0.33333733  0.14944505  1
  Al  Al4  1  0.65824318  0.00000000  0.50000000  1
  Al  Al5  1  0.34177014  0.34176250  0.49999985  1
  Al  Al6  1  0.00000764  0.65823750  0.50000015  1
  Al  Al7  1  0.34175682  -0.00000000  0.00000000  1
  Al  Al8  1  0.65822986  0.65823750  -0.00000015  1
  Al  Al9  1  0.99999236  0.34176250  0.00000015  1
  Al  Al10  1  0.66668516  0.33332988  0.61943654  1
  Al  Al11  1  0.33335527  0.66667012  0.38056346  1
  Al  Al12  1  0.33331484  0.66667012  0.11943654  1
  Al  Al13  1  0.66664473  0.33332988  0.88056346  1
  Al  Al14  1  0.83479241  0.66958482  0.75000000  1
  Al  Al15  1  0.83479256  0.16521295  0.75000283  1
  Al  Al16  1  0.33042039  0.16521295  0.74999717  1
  Al  Al17  1  0.16520759  0.33041518  0.25000000  1
  Al  Al18  1  0.66957961  0.83478705  0.24999717  1
  Al  Al19  1  0.16520744  0.83478705  0.25000283  1
  Al  Al20  1  0.99999161  0.99999534  0.11556714  1
  Al  Al21  1  0.99999627  0.00000466  0.88443286  1
  Al  Al22  1  0.00000839  0.00000466  0.61556714  1
  Al  Al23  1  0.00000373  0.99999534  0.38443286  1
