# generated using pymatgen
data_Sm3AlCoS7
_symmetry_space_group_name_H-M   'P 1'
_cell_length_a   6.17256423
_cell_length_b   9.74264228
_cell_length_c   9.73567083
_cell_angle_alpha   120.05459649
_cell_angle_beta   90.00000000
_cell_angle_gamma   90.00000000
_symmetry_Int_Tables_number   1
_chemical_formula_structural   Sm3AlCoS7
_chemical_formula_sum   'Sm6 Al2 Co2 S14'
_cell_volume   506.75693159
_cell_formula_units_Z   2
loop_
 _symmetry_equiv_pos_site_id
 _symmetry_equiv_pos_as_xyz
  1  'x, y, z'
loop_
 _atom_site_type_symbol
 _atom_site_label
 _atom_site_symmetry_multiplicity
 _atom_site_fract_x
 _atom_site_fract_y
 _atom_site_fract_z
 _atom_site_occupancy
  Sm  Sm0  1  0.27384334  0.22355811  0.37318624  1
  Sm  Sm1  1  0.27360598  0.62651953  0.85016696  1
  Sm  Sm2  1  0.27306554  0.15026732  0.77654810  1
  Sm  Sm3  1  0.77384334  0.77644189  0.62681376  1
  Sm  Sm4  1  0.77360598  0.37348047  0.14983304  1
  Sm  Sm5  1  0.77306554  0.84973268  0.22345190  1
  Al  Al6  1  0.84913929  0.33393694  0.66676463  1
  Al  Al7  1  0.34913929  0.66606306  0.33323537  1
  Co  Co8  1  0.43734737  0.99976282  0.99913799  1
  Co  Co9  1  0.93734737  0.00023718  0.00086201  1
  S  S10  1  0.68144181  0.12662247  0.21533736  1
  S  S11  1  0.68298630  0.78028850  0.90932344  1
  S  S12  1  0.68303352  0.09045572  0.87085205  1
  S  S13  1  0.18144181  0.87337753  0.78466264  1
  S  S14  1  0.18298630  0.21971150  0.09067656  1
  S  S15  1  0.18303352  0.90954428  0.12914795  1
  S  S16  1  0.99769252  0.09304914  0.51840130  1
  S  S17  1  0.99804854  0.48093397  0.57275783  1
  S  S18  1  0.99824797  0.42713305  0.90772584  1
  S  S19  1  0.49769252  0.90695086  0.48159870  1
  S  S20  1  0.49804854  0.51906603  0.42724217  1
  S  S21  1  0.49824797  0.57286695  0.09227416  1
  S  S22  1  0.48754781  0.33308710  0.66644165  1
  S  S23  1  0.98754781  0.66691290  0.33355835  1
