# generated using pymatgen
data_La3BeVS7
_symmetry_space_group_name_H-M   'P 1'
_cell_length_a   5.94881934
_cell_length_b   10.19603771
_cell_length_c   10.22687437
_cell_angle_alpha   120.30734468
_cell_angle_beta   90.00000000
_cell_angle_gamma   90.00000000
_symmetry_Int_Tables_number   1
_chemical_formula_structural   La3BeVS7
_chemical_formula_sum   'La6 Be2 V2 S14'
_cell_volume   535.52827256
_cell_formula_units_Z   2
loop_
 _symmetry_equiv_pos_site_id
 _symmetry_equiv_pos_as_xyz
  1  'x, y, z'
loop_
 _atom_site_type_symbol
 _atom_site_label
 _atom_site_symmetry_multiplicity
 _atom_site_fract_x
 _atom_site_fract_y
 _atom_site_fract_z
 _atom_site_occupancy
  La  La0  1  0.25280499  0.25140318  0.38889065  1
  La  La1  1  0.25196423  0.61202906  0.86440055  1
  La  La2  1  0.25237447  0.13670221  0.74725188  1
  La  La3  1  0.75280499  0.74859682  0.61110935  1
  La  La4  1  0.75196423  0.38797094  0.13559945  1
  La  La5  1  0.75237447  0.86329779  0.25274812  1
  Be  Be6  1  0.83927874  0.33363691  0.66685132  1
  Be  Be7  1  0.33927874  0.66636309  0.33314868  1
  V  V8  1  0.48306064  0.99967494  0.00002634  1
  V  V9  1  0.98306064  0.00032506  -0.00002634  1
  S  S10  1  0.73210527  0.14120526  0.21781046  1
  S  S11  1  0.73271998  0.78324429  0.92611421  1
  S  S12  1  0.73211645  0.07560098  0.85619791  1
  S  S13  1  0.23210527  0.85879474  0.78218954  1
  S  S14  1  0.23271998  0.21675571  0.07388579  1
  S  S15  1  0.23211645  0.92439902  0.14380209  1
  S  S16  1  0.96868179  0.11296218  0.51838981  1
  S  S17  1  0.96820158  0.48190921  0.59504888  1
  S  S18  1  0.96861331  0.40636933  0.88731819  1
  S  S19  1  0.46868179  0.88703782  0.48161019  1
  S  S20  1  0.46820158  0.51809079  0.40495112  1
  S  S21  1  0.46861331  0.59363067  0.11268181  1
  S  S22  1  0.48607855  0.33339369  0.66655559  1
  S  S23  1  0.98607855  0.66660631  0.33344441  1
