# generated using pymatgen
data_CaSeO4
_symmetry_space_group_name_H-M   'P 1'
_cell_length_a   6.76461415
_cell_length_b   8.34770728
_cell_length_c   6.46674800
_cell_angle_alpha   90.00000000
_cell_angle_beta   90.00000000
_cell_angle_gamma   106.18932413
_symmetry_Int_Tables_number   1
_chemical_formula_structural   CaSeO4
_chemical_formula_sum   'Ca4 Se4 O16'
_cell_volume   350.69029987
_cell_formula_units_Z   4
loop_
 _symmetry_equiv_pos_site_id
 _symmetry_equiv_pos_as_xyz
  1  'x, y, z'
loop_
 _atom_site_type_symbol
 _atom_site_label
 _atom_site_symmetry_multiplicity
 _atom_site_fract_x
 _atom_site_fract_y
 _atom_site_fract_z
 _atom_site_occupancy
  Ca  Ca0  1  0.68841395  0.87299682  0.64104105  1
  Ca  Ca1  1  0.18841395  0.37299682  0.85895895  1
  Ca  Ca2  1  0.31158605  0.12700318  0.35895895  1
  Ca  Ca3  1  0.81158605  0.62700318  0.14104105  1
  Se  Se4  1  0.81896563  0.04756757  0.19355672  1
  Se  Se5  1  0.31896563  0.54756757  0.30644328  1
  Se  Se6  1  0.18103437  0.95243243  0.80644328  1
  Se  Se7  1  0.68103437  0.45243243  0.69355672  1
  O  O8  1  0.02044089  0.21387416  0.15650272  1
  O  O9  1  0.52044089  0.71387416  0.34349728  1
  O  O10  1  0.97955911  0.78612584  0.84349728  1
  O  O11  1  0.47955911  0.28612584  0.65650272  1
  O  O12  1  0.42224162  0.40712721  0.18742349  1
  O  O13  1  0.92224162  0.90712721  0.31257651  1
  O  O14  1  0.57775838  0.59287279  0.81257651  1
  O  O15  1  0.07775838  0.09287279  0.68742349  1
  O  O16  1  0.80225465  0.52947327  0.47956685  1
  O  O17  1  0.30225465  0.02947327  0.02043315  1
  O  O18  1  0.19774535  0.47052673  0.52043315  1
  O  O19  1  0.69774535  0.97052673  0.97956685  1
  O  O20  1  0.65780080  0.08786284  0.36995807  1
  O  O21  1  0.15780080  0.58786284  0.13004193  1
  O  O22  1  0.34219920  0.91213716  0.63004193  1
  O  O23  1  0.84219920  0.41213716  0.86995807  1
