# generated using pymatgen
data_Li2V6O15
_symmetry_space_group_name_H-M   'P 1'
_cell_length_a   3.69360567
_cell_length_b   8.00265751
_cell_length_c   10.27004369
_cell_angle_alpha   106.77403803
_cell_angle_beta   90.00000000
_cell_angle_gamma   103.34262658
_symmetry_Int_Tables_number   1
_chemical_formula_structural   Li2V6O15
_chemical_formula_sum   'Li2 V6 O15'
_cell_volume   282.08294594
_cell_formula_units_Z   1
loop_
 _symmetry_equiv_pos_site_id
 _symmetry_equiv_pos_as_xyz
  1  'x, y, z'
loop_
 _atom_site_type_symbol
 _atom_site_label
 _atom_site_symmetry_multiplicity
 _atom_site_fract_x
 _atom_site_fract_y
 _atom_site_fract_z
 _atom_site_occupancy
  Li  Li0  1  0.54721120  0.09442241  0.33576827  1
  Li  Li1  1  0.45278880  0.90557759  0.66423173  1
  V  V2  1  0.11347369  0.22694739  0.11514992  1
  V  V3  1  0.88652631  0.77305261  0.88485008  1
  V  V4  1  0.33160722  0.66321445  0.09293026  1
  V  V5  1  0.66839278  0.33678555  0.90706974  1
  V  V6  1  0.28504285  0.57008571  0.40618952  1
  V  V7  1  0.71495715  0.42991429  0.59381048  1
  O  O8  1  -0.00000000  -0.00000000  0.00000000  1
  O  O9  1  0.81018510  0.62037021  0.04193688  1
  O  O10  1  0.18981490  0.37962979  0.95806312  1
  O  O11  1  0.63139362  0.26278724  0.08005952  1
  O  O12  1  0.36860638  0.73721276  0.91994048  1
  O  O13  1  0.42927074  0.85854149  0.21281635  1
  O  O14  1  0.57072926  0.14145851  0.78718365  1
  O  O15  1  0.25731687  0.51463374  0.22486763  1
  O  O16  1  0.74268313  0.48536626  0.77513237  1
  O  O17  1  0.09613892  0.19227783  0.26891117  1
  O  O18  1  0.90386108  0.80772217  0.73108883  1
  O  O19  1  0.24507460  0.49014921  0.57426733  1
  O  O20  1  0.75492540  0.50985079  0.42573267  1
  O  O21  1  0.39489426  0.78978851  0.46690339  1
  O  O22  1  0.60510574  0.21021149  0.53309661  1
