# generated using pymatgen
data_Sm3AlFeS7
_symmetry_space_group_name_H-M   'P 1'
_cell_length_a   6.23679300
_cell_length_b   9.79207355
_cell_length_c   9.78995734
_cell_angle_alpha   119.96272041
_cell_angle_beta   90.00000000
_cell_angle_gamma   90.00000000
_symmetry_Int_Tables_number   1
_chemical_formula_structural   Sm3AlFeS7
_chemical_formula_sum   'Sm6 Al2 Fe2 S14'
_cell_volume   517.97696864
_cell_formula_units_Z   2
loop_
 _symmetry_equiv_pos_site_id
 _symmetry_equiv_pos_as_xyz
  1  'x, y, z'
loop_
 _atom_site_type_symbol
 _atom_site_label
 _atom_site_symmetry_multiplicity
 _atom_site_fract_x
 _atom_site_fract_y
 _atom_site_fract_z
 _atom_site_occupancy
  Sm  Sm0  1  0.27156354  0.22700677  0.37635046  1
  Sm  Sm1  1  0.27150415  0.62354986  0.85056976  1
  Sm  Sm2  1  0.27151004  0.14921700  0.77295460  1
  Sm  Sm3  1  0.77156354  0.77299323  0.62364954  1
  Sm  Sm4  1  0.77150415  0.37645014  0.14943024  1
  Sm  Sm5  1  0.77151004  0.85078300  0.22704540  1
  Al  Al6  1  0.84639204  0.33336027  0.66663420  1
  Al  Al7  1  0.34639204  0.66663973  0.33336580  1
  Fe  Fe8  1  0.44530246  0.99982875  0.99984216  1
  Fe  Fe9  1  0.94530246  0.00017125  0.00015784  1
  S  S10  1  0.68302558  0.13548889  0.23052275  1
  S  S11  1  0.68314449  0.76908227  0.90479101  1
  S  S12  1  0.68303719  0.09514987  0.86455225  1
  S  S13  1  0.18302558  0.86451111  0.76947725  1
  S  S14  1  0.18314449  0.23091773  0.09520899  1
  S  S15  1  0.18303719  0.90485013  0.13544775  1
  S  S16  1  0.99796007  0.09396115  0.51931162  1
  S  S17  1  0.99795272  0.48063888  0.57448277  1
  S  S18  1  0.99801108  0.42529912  0.90595830  1
  S  S19  1  0.49796007  0.90603885  0.48068838  1
  S  S20  1  0.49795272  0.51936112  0.42551723  1
  S  S21  1  0.49801108  0.57470088  0.09404170  1
  S  S22  1  0.48659663  0.33322367  0.66661683  1
  S  S23  1  0.98659663  0.66677633  0.33338317  1
