# generated using pymatgen
data_DyWBrO4
_symmetry_space_group_name_H-M   'P 1'
_cell_length_a   6.99412919
_cell_length_b   7.32133581
_cell_length_c   11.08389936
_cell_angle_alpha   104.39430337
_cell_angle_beta   107.88295727
_cell_angle_gamma   93.82427080
_symmetry_Int_Tables_number   1
_chemical_formula_structural   DyWBrO4
_chemical_formula_sum   'Dy4 W4 Br4 O16'
_cell_volume   516.85183674
_cell_formula_units_Z   4
loop_
 _symmetry_equiv_pos_site_id
 _symmetry_equiv_pos_as_xyz
  1  'x, y, z'
loop_
 _atom_site_type_symbol
 _atom_site_label
 _atom_site_symmetry_multiplicity
 _atom_site_fract_x
 _atom_site_fract_y
 _atom_site_fract_z
 _atom_site_occupancy
  Dy  Dy0  1  0.65562201  0.11558953  0.73084923  1
  Dy  Dy1  1  0.34437799  0.88441047  0.26915077  1
  Dy  Dy2  1  0.38305593  0.65744964  0.76779083  1
  Dy  Dy3  1  0.61694407  0.34255036  0.23220917  1
  W  W4  1  0.72918931  0.81357747  0.13283658  1
  W  W5  1  0.27081069  0.18642253  0.86716342  1
  W  W6  1  0.76855454  0.59045444  0.62675727  1
  W  W7  1  0.23144546  0.40954556  0.37324273  1
  Br  Br8  1  0.26283503  0.00061003  0.51894398  1
  Br  Br9  1  0.73716497  0.99938997  0.48105602  1
  Br  Br10  1  0.19177738  0.71872147  0.98122442  1
  Br  Br11  1  0.80822262  0.28127853  0.01877558  1
  O  O12  1  0.65927378  0.72995875  0.95581552  1
  O  O13  1  0.34072622  0.27004125  0.04418448  1
  O  O14  1  0.00200019  0.87529442  0.20606458  1
  O  O15  1  0.99799981  0.12470558  0.79393542  1
  O  O16  1  0.63025121  0.63958263  0.20002910  1
  O  O17  1  0.36974879  0.36041737  0.79997090  1
  O  O18  1  0.39826883  0.98305497  0.81691431  1
  O  O19  1  0.60173117  0.01694503  0.18308569  1
  O  O20  1  0.03925262  0.65001438  0.67060299  1
  O  O21  1  0.96074738  0.34998562  0.32939701  1
  O  O22  1  0.71886064  0.40639072  0.70030120  1
  O  O23  1  0.28113936  0.59360928  0.29969880  1
  O  O24  1  0.66473002  0.50129282  0.44755428  1
  O  O25  1  0.33526998  0.49870718  0.55244572  1
  O  O26  1  0.65549098  0.79193860  0.70311571  1
  O  O27  1  0.34450902  0.20806140  0.29688429  1
