# generated using pymatgen
data_Zr3ZnCu2
_symmetry_space_group_name_H-M   'P 1'
_cell_length_a   8.45830937
_cell_length_b   8.45830937
_cell_length_c   8.45830937
_cell_angle_alpha   60.00000000
_cell_angle_beta   60.00000000
_cell_angle_gamma   60.00000000
_symmetry_Int_Tables_number   1
_chemical_formula_structural   Zr3ZnCu2
_chemical_formula_sum   'Zr12 Zn4 Cu8'
_cell_volume   427.89350949
_cell_formula_units_Z   4
loop_
 _symmetry_equiv_pos_site_id
 _symmetry_equiv_pos_as_xyz
  1  'x, y, z'
loop_
 _atom_site_type_symbol
 _atom_site_label
 _atom_site_symmetry_multiplicity
 _atom_site_fract_x
 _atom_site_fract_y
 _atom_site_fract_z
 _atom_site_occupancy
  Zr  Zr0  1  0.42793407  0.82206593  0.82206593  1
  Zr  Zr1  1  0.82206593  0.42793407  0.42793407  1
  Zr  Zr2  1  0.82206593  0.42793407  0.82206593  1
  Zr  Zr3  1  0.42793407  0.82206593  0.42793407  1
  Zr  Zr4  1  0.82206593  0.82206593  0.42793407  1
  Zr  Zr5  1  0.42793407  0.42793407  0.82206593  1
  Zr  Zr6  1  0.57206593  0.17793407  0.17793407  1
  Zr  Zr7  1  0.17793407  0.57206593  0.57206593  1
  Zr  Zr8  1  0.17793407  0.57206593  0.17793407  1
  Zr  Zr9  1  0.57206593  0.17793407  0.57206593  1
  Zr  Zr10  1  0.17793407  0.17793407  0.57206593  1
  Zr  Zr11  1  0.57206593  0.57206593  0.17793407  1
  Zn  Zn12  1  -0.00000000  -0.00000000  0.50000000  1
  Zn  Zn13  1  -0.00000000  0.50000000  -0.00000000  1
  Zn  Zn14  1  0.50000000  -0.00000000  -0.00000000  1
  Zn  Zn15  1  -0.00000000  -0.00000000  -0.00000000  1
  Cu  Cu16  1  0.20675563  0.20675563  0.87973310  1
  Cu  Cu17  1  0.20675563  0.87973310  0.20675563  1
  Cu  Cu18  1  0.87973310  0.20675563  0.20675563  1
  Cu  Cu19  1  0.20675563  0.20675563  0.20675563  1
  Cu  Cu20  1  0.79324437  0.79324437  0.12026690  1
  Cu  Cu21  1  0.79324437  0.12026690  0.79324437  1
  Cu  Cu22  1  0.12026690  0.79324437  0.79324437  1
  Cu  Cu23  1  0.79324437  0.79324437  0.79324437  1
