# generated using pymatgen
data_Ce3(GaNi)2
_symmetry_space_group_name_H-M   'P 1'
_cell_length_a   5.64417863
_cell_length_b   8.14539415
_cell_length_c   12.50458888
_cell_angle_alpha   90.00000000
_cell_angle_beta   90.00000000
_cell_angle_gamma   90.00000000
_symmetry_Int_Tables_number   1
_chemical_formula_structural   Ce3(GaNi)2
_chemical_formula_sum   'Ce12 Ga8 Ni8'
_cell_volume   574.88671437
_cell_formula_units_Z   4
loop_
 _symmetry_equiv_pos_site_id
 _symmetry_equiv_pos_as_xyz
  1  'x, y, z'
loop_
 _atom_site_type_symbol
 _atom_site_label
 _atom_site_symmetry_multiplicity
 _atom_site_fract_x
 _atom_site_fract_y
 _atom_site_fract_z
 _atom_site_occupancy
  Ce  Ce0  1  0.16044986  0.89770636  0.59323188  1
  Ce  Ce1  1  0.83955014  0.10229364  0.09323188  1
  Ce  Ce2  1  0.16044986  0.60229364  0.40676812  1
  Ce  Ce3  1  0.83955014  0.39770636  0.90676812  1
  Ce  Ce4  1  0.83955014  0.10229364  0.40676812  1
  Ce  Ce5  1  0.16044986  0.89770636  0.90676812  1
  Ce  Ce6  1  0.83955014  0.39770636  0.59323188  1
  Ce  Ce7  1  0.16044986  0.60229364  0.09323188  1
  Ce  Ce8  1  0.35824309  0.25082694  0.75000000  1
  Ce  Ce9  1  0.64175691  0.74917306  0.25000000  1
  Ce  Ce10  1  0.35824309  0.24917306  0.25000000  1
  Ce  Ce11  1  0.64175691  0.75082694  0.75000000  1
  Ga  Ga12  1  0.85939831  0.10172035  0.75000000  1
  Ga  Ga13  1  0.14060169  0.89827965  0.25000000  1
  Ga  Ga14  1  0.85939831  0.39827965  0.25000000  1
  Ga  Ga15  1  0.14060169  0.60172035  0.75000000  1
  Ga  Ga16  1  0.34269536  0.25000000  0.50000000  1
  Ga  Ga17  1  0.65730464  0.75000000  0.00000000  1
  Ga  Ga18  1  0.65730464  0.75000000  0.50000000  1
  Ga  Ga19  1  0.34269536  0.25000000  0.00000000  1
  Ni  Ni20  1  0.61996715  0.03476622  0.58991818  1
  Ni  Ni21  1  0.38003285  0.96523378  0.08991818  1
  Ni  Ni22  1  0.61996715  0.46523378  0.41008182  1
  Ni  Ni23  1  0.38003285  0.53476622  0.91008182  1
  Ni  Ni24  1  0.38003285  0.96523378  0.41008182  1
  Ni  Ni25  1  0.61996715  0.03476622  0.91008182  1
  Ni  Ni26  1  0.38003285  0.53476622  0.58991818  1
  Ni  Ni27  1  0.61996715  0.46523378  0.08991818  1
