# generated using pymatgen
data_CsCaH2N9O
_symmetry_space_group_name_H-M   'P 1'
_cell_length_a   6.93498865
_cell_length_b   7.63670846
_cell_length_c   8.98841345
_cell_angle_alpha   71.85279865
_cell_angle_beta   83.31698432
_cell_angle_gamma   81.36403216
_symmetry_Int_Tables_number   1
_chemical_formula_structural   CsCaH2N9O
_chemical_formula_sum   'Cs2 Ca2 H4 N18 O2'
_cell_volume   445.99484174
_cell_formula_units_Z   2
loop_
 _symmetry_equiv_pos_site_id
 _symmetry_equiv_pos_as_xyz
  1  'x, y, z'
loop_
 _atom_site_type_symbol
 _atom_site_label
 _atom_site_symmetry_multiplicity
 _atom_site_fract_x
 _atom_site_fract_y
 _atom_site_fract_z
 _atom_site_occupancy
  Cs  Cs0  1  0.75216442  0.81607194  0.90599675  1
  Cs  Cs1  1  0.24783558  0.18392806  0.09400325  1
  Ca  Ca2  1  0.30874909  0.18671903  0.60065191  1
  Ca  Ca3  1  0.69125091  0.81328097  0.39934809  1
  H  H4  1  0.97080535  0.44667996  0.70357785  1
  H  H5  1  0.02919465  0.55332004  0.29642215  1
  H  H6  1  0.15579356  0.49549648  0.76049343  1
  H  H7  1  0.84420644  0.50450352  0.23950657  1
  N  N8  1  0.52575135  0.29982684  0.75498293  1
  N  N9  1  0.47424865  0.70017316  0.24501707  1
  N  N10  1  0.60578329  0.43461879  0.70604042  1
  N  N11  1  0.39421671  0.56538121  0.29395958  1
  N  N12  1  0.68853676  0.56921858  0.65826011  1
  N  N13  1  0.31146324  0.43078142  0.34173989  1
  N  N14  1  0.66830628  0.07912180  0.52124288  1
  N  N15  1  0.33169372  0.92087820  0.47875712  1
  N  N16  1  0.81700284  0.13134591  0.53607789  1
  N  N17  1  0.18299716  0.86865409  0.46392211  1
  N  N18  1  0.96300408  0.18115715  0.55195658  1
  N  N19  1  0.03699592  0.81884285  0.44804342  1
  N  N20  1  0.27839403  0.93567141  0.84686542  1
  N  N21  1  0.72160597  0.06432859  0.15313458  1
  N  N22  1  0.25080639  0.77814613  0.87284584  1
  N  N23  1  0.74919361  0.22185387  0.12715416  1
  N  N24  1  0.22217397  0.62234018  0.90084486  1
  N  N25  1  0.77782603  0.37765982  0.09915514  1
  O  O26  1  0.10896144  0.40179682  0.72313574  1
  O  O27  1  0.89103856  0.59820318  0.27686426  1
