# generated using pymatgen
data_NaSr3Be3B3O9F4
_symmetry_space_group_name_H-M   'P 1'
_cell_length_a   6.76163641
_cell_length_b   6.76163641
_cell_length_c   6.76163678
_cell_angle_alpha   103.68584753
_cell_angle_beta   103.68584753
_cell_angle_gamma   103.68585331
_symmetry_Int_Tables_number   1
_chemical_formula_structural   NaSr3Be3B3O9F4
_chemical_formula_sum   'Na1 Sr3 Be3 B3 O9 F4'
_cell_volume   277.46515211
_cell_formula_units_Z   1
loop_
 _symmetry_equiv_pos_site_id
 _symmetry_equiv_pos_as_xyz
  1  'x, y, z'
loop_
 _atom_site_type_symbol
 _atom_site_label
 _atom_site_symmetry_multiplicity
 _atom_site_fract_x
 _atom_site_fract_y
 _atom_site_fract_z
 _atom_site_occupancy
  Na  Na0  1  0.28304395  0.28304395  0.28304395  1
  Sr  Sr1  1  0.87625960  0.48252648  0.48252648  1
  Sr  Sr2  1  0.48252648  0.48252648  0.87625960  1
  Sr  Sr3  1  0.48252648  0.87625960  0.48252648  1
  Be  Be4  1  0.79434436  0.06941797  0.06941797  1
  Be  Be5  1  0.06941797  0.06941797  0.79434436  1
  Be  Be6  1  0.06941797  0.79434436  0.06941797  1
  B  B7  1  0.39727795  0.93403254  0.93403254  1
  B  B8  1  0.93403254  0.93403254  0.39727795  1
  B  B9  1  0.93403254  0.39727795  0.93403254  1
  O  O10  1  0.83664078  0.31056704  0.06512864  1
  O  O11  1  0.31056704  0.06512864  0.83664078  1
  O  O12  1  0.06512864  0.83664078  0.31056704  1
  O  O13  1  0.83664078  0.06512864  0.31056704  1
  O  O14  1  0.06512864  0.31056704  0.83664078  1
  O  O15  1  0.31056704  0.83664078  0.06512864  1
  O  O16  1  0.58255912  0.89790593  0.89790593  1
  O  O17  1  0.89790593  0.89790593  0.58255912  1
  O  O18  1  0.89790593  0.58255912  0.89790593  1
  F  F19  1  0.26322852  0.54574105  0.54574105  1
  F  F20  1  0.54574105  0.54574105  0.26322852  1
  F  F21  1  0.54574105  0.26322852  0.54574105  1
  F  F22  1  0.99863564  0.99863564  0.99863564  1
