# generated using pymatgen
data_SiH2
_symmetry_space_group_name_H-M   'P 1'
_cell_length_a   5.31104412
_cell_length_b   7.43114792
_cell_length_c   13.88744483
_cell_angle_alpha   90.00000000
_cell_angle_beta   90.00000000
_cell_angle_gamma   100.55324255
_symmetry_Int_Tables_number   1
_chemical_formula_structural   SiH2
_chemical_formula_sum   'Si10 H20'
_cell_volume   538.82693023
_cell_formula_units_Z   10
loop_
 _symmetry_equiv_pos_site_id
 _symmetry_equiv_pos_as_xyz
  1  'x, y, z'
loop_
 _atom_site_type_symbol
 _atom_site_label
 _atom_site_symmetry_multiplicity
 _atom_site_fract_x
 _atom_site_fract_y
 _atom_site_fract_z
 _atom_site_occupancy
  Si  Si0  1  0.54430045  0.41514449  0.25000000  1
  Si  Si1  1  0.45569955  0.58485551  0.75000000  1
  Si  Si2  1  0.31880902  0.28594153  0.11251910  1
  Si  Si3  1  0.68119098  0.71405847  0.61251910  1
  Si  Si4  1  0.68119098  0.71405847  0.88748090  1
  Si  Si5  1  0.31880902  0.28594153  0.38748090  1
  Si  Si6  1  0.07012084  0.00675518  0.16523966  1
  Si  Si7  1  0.92987916  0.99324482  0.66523966  1
  Si  Si8  1  0.92987916  0.99324482  0.83476034  1
  Si  Si9  1  0.07012084  0.00675518  0.33476034  1
  H  H10  1  0.15060222  0.41075567  0.07371124  1
  H  H11  1  0.84939778  0.58924433  0.57371124  1
  H  H12  1  0.84939778  0.58924433  0.92628876  1
  H  H13  1  0.15060222  0.41075567  0.42628876  1
  H  H14  1  0.58570423  0.61972155  0.25000000  1
  H  H15  1  0.41429577  0.38027845  0.75000000  1
  H  H16  1  0.80241324  0.98082055  0.12705812  1
  H  H17  1  0.19758676  0.01917945  0.62705812  1
  H  H18  1  0.19758676  0.01917945  0.87294188  1
  H  H19  1  0.80241324  0.98082055  0.37294188  1
  H  H20  1  0.49906702  0.25614026  0.03372127  1
  H  H21  1  0.50093298  0.74385974  0.53372127  1
  H  H22  1  0.50093298  0.74385974  0.96627873  1
  H  H23  1  0.49906702  0.25614026  0.46627873  1
  H  H24  1  0.18713635  0.84883809  0.13166286  1
  H  H25  1  0.81286365  0.15116191  0.63166286  1
  H  H26  1  0.81286365  0.15116191  0.86833714  1
  H  H27  1  0.18713635  0.84883809  0.36833714  1
  H  H28  1  0.80427394  0.36259715  0.25000000  1
  H  H29  1  0.19572606  0.63740285  0.75000000  1
