# generated using pymatgen
data_NbFe2
_symmetry_space_group_name_H-M   'P 1'
_cell_length_a   4.79099866
_cell_length_b   4.79099866
_cell_length_c   15.58585855
_cell_angle_alpha   90.00000000
_cell_angle_beta   90.00000000
_cell_angle_gamma   120.23016143
_symmetry_Int_Tables_number   1
_chemical_formula_structural   NbFe2
_chemical_formula_sum   'Nb8 Fe16'
_cell_volume   309.10180481
_cell_formula_units_Z   8
loop_
 _symmetry_equiv_pos_site_id
 _symmetry_equiv_pos_as_xyz
  1  'x, y, z'
loop_
 _atom_site_type_symbol
 _atom_site_label
 _atom_site_symmetry_multiplicity
 _atom_site_fract_x
 _atom_site_fract_y
 _atom_site_fract_z
 _atom_site_occupancy
  Nb  Nb0  1  0.00049154  0.99950846  0.59250254  1
  Nb  Nb1  1  0.99950846  0.00049154  0.40749746  1
  Nb  Nb2  1  0.99950846  0.00049154  0.09250254  1
  Nb  Nb3  1  0.00049154  0.99950846  0.90749746  1
  Nb  Nb4  1  0.66658852  0.33341148  0.34407489  1
  Nb  Nb5  1  0.33341148  0.66658852  0.65592511  1
  Nb  Nb6  1  0.33341148  0.66658852  0.84407489  1
  Nb  Nb7  1  0.66658852  0.33341148  0.15592511  1
  Fe  Fe8  1  0.66711620  0.33288380  0.62651604  1
  Fe  Fe9  1  0.33288380  0.66711620  0.37348396  1
  Fe  Fe10  1  0.33288380  0.66711620  0.12651604  1
  Fe  Fe11  1  0.66711620  0.33288380  0.87348396  1
  Fe  Fe12  1  0.50000000  -0.00000000  0.50000000  1
  Fe  Fe13  1  0.50000000  0.50000000  0.50000000  1
  Fe  Fe14  1  -0.00000000  0.50000000  0.50000000  1
  Fe  Fe15  1  0.50000000  -0.00000000  0.00000000  1
  Fe  Fe16  1  0.50000000  0.50000000  0.00000000  1
  Fe  Fe17  1  -0.00000000  0.50000000  0.00000000  1
  Fe  Fe18  1  0.83677043  0.67383728  0.75000000  1
  Fe  Fe19  1  0.83606612  0.16393388  0.75000000  1
  Fe  Fe20  1  0.32616272  0.16322957  0.75000000  1
  Fe  Fe21  1  0.16322957  0.32616272  0.25000000  1
  Fe  Fe22  1  0.16393388  0.83606612  0.25000000  1
  Fe  Fe23  1  0.67383728  0.83677043  0.25000000  1
