# generated using pymatgen
data_UH18C7(N2O3)4
_symmetry_space_group_name_H-M   'P 1'
_cell_length_a   7.56238287
_cell_length_b   9.93677280
_cell_length_c   14.62504442
_cell_angle_alpha   73.11467453
_cell_angle_beta   78.37270922
_cell_angle_gamma   71.55272616
_symmetry_Int_Tables_number   1
_chemical_formula_structural   UH18C7(N2O3)4
_chemical_formula_sum   'U2 H36 C14 N16 O24'
_cell_volume   990.28767546
_cell_formula_units_Z   2
loop_
 _symmetry_equiv_pos_site_id
 _symmetry_equiv_pos_as_xyz
  1  'x, y, z'
loop_
 _atom_site_type_symbol
 _atom_site_label
 _atom_site_symmetry_multiplicity
 _atom_site_fract_x
 _atom_site_fract_y
 _atom_site_fract_z
 _atom_site_occupancy
  U  U0  1  0.76208898  0.76936817  0.79409015  1
  U  U1  1  0.23791102  0.23063183  0.20590985  1
  H  H2  1  0.69896522  0.27436747  0.07616255  1
  H  H3  1  0.30103478  0.72563253  0.92383745  1
  H  H4  1  0.72759396  0.28166502  0.95448443  1
  H  H5  1  0.27240604  0.71833498  0.04551557  1
  H  H6  1  0.70927176  0.47954461  0.12833863  1
  H  H7  1  0.29072824  0.52045539  0.87166137  1
  H  H8  1  0.74841538  0.63183695  0.03869400  1
  H  H9  1  0.25158462  0.36816305  0.96130600  1
  H  H10  1  0.85888092  0.81262387  0.11256141  1
  H  H11  1  0.14111908  0.18737613  0.88743859  1
  H  H12  1  0.00857428  0.63859085  0.16189297  1
  H  H13  1  0.99142572  0.36140915  0.83810703  1
  H  H14  1  0.68189792  0.96615994  0.21269296  1
  H  H15  1  0.31810208  0.03384006  0.78730704  1
  H  H16  1  0.71876393  0.91291943  0.33442475  1
  H  H17  1  0.28123607  0.08708057  0.66557525  1
  H  H18  1  0.03926962  0.57199194  0.32588960  1
  H  H19  1  0.96073038  0.42800806  0.67411040  1
  H  H20  1  0.89350363  0.68054702  0.40150452  1
  H  H21  1  0.10649637  0.31945298  0.59849548  1
  H  H22  1  0.28948570  0.90728552  0.56511718  1
  H  H23  1  0.71051430  0.09271448  0.43488282  1
  H  H24  1  0.24883445  0.76303948  0.66047246  1
  H  H25  1  0.75116555  0.23696052  0.33952754  1
  H  H26  1  0.26660394  0.52783683  0.51822803  1
  H  H27  1  0.73339606  0.47216317  0.48177197  1
  H  H28  1  0.32859924  0.52738314  0.62800228  1
  H  H29  1  0.67140076  0.47261686  0.37199772  1
  H  H30  1  0.27804161  0.89754683  0.40963419  1
  H  H31  1  0.72195839  0.10245317  0.59036581  1
  H  H32  1  0.29842151  0.72945876  0.38680580  1
  H  H33  1  0.70157849  0.27054124  0.61319420  1
  H  H34  1  0.41775249  0.49313022  0.28275445  1
  H  H35  1  0.58224751  0.50686978  0.71724555  1
  H  H36  1  0.45064216  0.64506576  0.22800501  1
  H  H37  1  0.54935784  0.35493424  0.77199499  1
  C  C38  1  0.73820720  0.94971940  0.95319948  1
  C  C39  1  0.26179280  0.05028060  0.04680052  1
  C  C40  1  0.70180053  0.07177647  0.85839370  1
  C  C41  1  0.29819947  0.92822353  0.14160630  1
  C  C42  1  0.75277340  0.83886140  0.55864879  1
  C  C43  1  0.24722660  0.16113860  0.44135121  1
  C  C44  1  0.77526304  0.67227024  0.59345223  1
  C  C45  1  0.22473696  0.32772976  0.40654777  1
  C  C46  1  0.75713679  0.46142626  0.98685593  1
  C  C47  1  0.24286321  0.53857374  0.01314407  1
  C  C48  1  0.86899902  0.76436908  0.25726931  1
  C  C49  1  0.13100098  0.23563092  0.74273069  1
  C  C50  1  0.28927609  0.72315576  0.52895340  1
  C  C51  1  0.71072391  0.27684424  0.47104660  1
  N  N52  1  0.74017805  0.32516332  0.00764154  1
  N  N53  1  0.25982195  0.67483668  0.99235846  1
  N  N54  1  0.74327382  0.52589220  0.05788378  1
  N  N55  1  0.25672618  0.47410780  0.94211622  1
  N  N56  1  0.90931565  0.73228116  0.17148796  1
  N  N57  1  0.09068435  0.26771884  0.82851204  1
  N  N58  1  0.74615493  0.89120166  0.26831877  1
  N  N59  1  0.25384507  0.10879834  0.73168123  1
  N  N60  1  0.95095757  0.67090016  0.33322584  1
  N  N61  1  0.04904243  0.32909984  0.66677416  1
  N  N62  1  0.30228486  0.79647468  0.59055523  1
  N  N63  1  0.69771514  0.20352532  0.40944477  1
  N  N64  1  0.27935084  0.58499415  0.56331881  1
  N  N65  1  0.72064916  0.41500585  0.43668119  1
  N  N66  1  0.28686382  0.78803727  0.43518402  1
  N  N67  1  0.71313618  0.21196273  0.56481598  1
  O  O68  1  0.01633201  0.73697434  0.77175530  1
  O  O69  1  0.98366799  0.26302566  0.22824470  1
  O  O70  1  0.50743600  0.80260445  0.81302172  1
  O  O71  1  0.49256400  0.19739555  0.18697828  1
  O  O72  1  0.75861371  0.82023638  0.94222873  1
  O  O73  1  0.24138629  0.17976362  0.05777127  1
  O  O74  1  0.74412101  0.90070751  0.62614172  1
  O  O75  1  0.25587899  0.09929249  0.37385828  1
  O  O76  1  0.79270753  0.52949301  0.89827871  1
  O  O77  1  0.20729247  0.47050699  0.10172129  1
  O  O78  1  0.77773962  0.61993445  0.68558612  1
  O  O79  1  0.22226038  0.38006555  0.31441388  1
  O  O80  1  0.71252905  0.02102556  0.78525613  1
  O  O81  1  0.28747095  0.97897444  0.21474387  1
  O  O82  1  0.79051919  0.59982707  0.53455172  1
  O  O83  1  0.20948081  0.40017293  0.46544828  1
  O  O84  1  0.74594258  0.97883313  0.02893308  1
  O  O85  1  0.25405742  0.02116687  0.97106692  1
  O  O86  1  0.74507526  0.90026042  0.47148862  1
  O  O87  1  0.25492474  0.09973958  0.52851138  1
  O  O88  1  0.66585484  0.20330389  0.85840816  1
  O  O89  1  0.33414516  0.79669611  0.14159184  1
  O  O90  1  0.50854883  0.54989394  0.27131470  1
  O  O91  1  0.49145117  0.45010606  0.72868530  1
