# generated using pymatgen
data_NdP3(H5O7)2
_symmetry_space_group_name_H-M   'P 1'
_cell_length_a   7.76969956
_cell_length_b   11.37392453
_cell_length_c   14.35528227
_cell_angle_alpha   90.00000000
_cell_angle_beta   106.47069344
_cell_angle_gamma   90.00000000
_symmetry_Int_Tables_number   1
_chemical_formula_structural   NdP3(H5O7)2
_chemical_formula_sum   'Nd4 P12 H40 O56'
_cell_volume   1216.54732474
_cell_formula_units_Z   4
loop_
 _symmetry_equiv_pos_site_id
 _symmetry_equiv_pos_as_xyz
  1  'x, y, z'
loop_
 _atom_site_type_symbol
 _atom_site_label
 _atom_site_symmetry_multiplicity
 _atom_site_fract_x
 _atom_site_fract_y
 _atom_site_fract_z
 _atom_site_occupancy
  Nd  Nd0  1  0.31992027  0.75479047  0.65251396  1
  Nd  Nd1  1  0.68007973  0.25479047  0.84748604  1
  Nd  Nd2  1  0.68007973  0.24520953  0.34748604  1
  Nd  Nd3  1  0.31992027  0.74520953  0.15251396  1
  P  P4  1  0.26009060  0.04536955  0.51284901  1
  P  P5  1  0.73990940  0.54536955  0.98715099  1
  P  P6  1  0.73990940  0.95463045  0.48715099  1
  P  P7  1  0.26009060  0.45463045  0.01284901  1
  P  P8  1  0.09273928  0.25393531  0.56699299  1
  P  P9  1  0.90726072  0.75393531  0.93300701  1
  P  P10  1  0.90726072  0.74606469  0.43300701  1
  P  P11  1  0.09273928  0.24606469  0.06699299  1
  P  P12  1  0.47816987  0.25640865  0.56531644  1
  P  P13  1  0.52183013  0.75640865  0.93468356  1
  P  P14  1  0.52183013  0.74359135  0.43468356  1
  P  P15  1  0.47816987  0.24359135  0.06531644  1
  H  H16  1  0.05619092  0.67397196  0.76095818  1
  H  H17  1  0.94380908  0.17397196  0.73904182  1
  H  H18  1  0.94380908  0.32602804  0.23904182  1
  H  H19  1  0.05619092  0.82602804  0.26095818  1
  H  H20  1  0.01574656  0.58216247  0.67499763  1
  H  H21  1  0.98425344  0.08216247  0.82500237  1
  H  H22  1  0.98425344  0.41783753  0.32500237  1
  H  H23  1  0.01574656  0.91783753  0.17499763  1
  H  H24  1  0.00226933  0.91653591  0.66357875  1
  H  H25  1  0.99773067  0.41653591  0.83642125  1
  H  H26  1  0.99773067  0.08346409  0.33642125  1
  H  H27  1  0.00226933  0.58346409  0.16357875  1
  H  H28  1  0.13745125  0.91180872  0.77102015  1
  H  H29  1  0.86254875  0.41180872  0.72897985  1
  H  H30  1  0.86254875  0.08819128  0.22897985  1
  H  H31  1  0.13745125  0.58819128  0.27102015  1
  H  H32  1  0.66706051  0.89734270  0.65763343  1
  H  H33  1  0.33293949  0.39734270  0.84236657  1
  H  H34  1  0.33293949  0.10265730  0.34236657  1
  H  H35  1  0.66706051  0.60265730  0.15763343  1
  H  H36  1  0.71770946  0.82938758  0.75698799  1
  H  H37  1  0.28229054  0.32938758  0.74301201  1
  H  H38  1  0.28229054  0.17061242  0.24301201  1
  H  H39  1  0.71770946  0.67061242  0.25698799  1
  H  H40  1  0.55998367  0.52667491  0.66841842  1
  H  H41  1  0.44001633  0.02667491  0.83158158  1
  H  H42  1  0.44001633  0.47332509  0.33158158  1
  H  H43  1  0.55998367  0.97332509  0.16841842  1
  H  H44  1  0.43219947  0.49316603  0.73222245  1
  H  H45  1  0.56780053  0.99316603  0.76777755  1
  H  H46  1  0.56780053  0.50683397  0.26777755  1
  H  H47  1  0.43219947  0.00683397  0.23222245  1
  H  H48  1  0.23881926  0.05944569  0.94270138  1
  H  H49  1  0.76118074  0.55944569  0.55729862  1
  H  H50  1  0.76118074  0.94055431  0.05729862  1
  H  H51  1  0.23881926  0.44055431  0.44270138  1
  H  H52  1  0.16251493  0.93197861  0.93301087  1
  H  H53  1  0.83748507  0.43197861  0.56698913  1
  H  H54  1  0.83748507  0.06802139  0.06698913  1
  H  H55  1  0.16251493  0.56802139  0.43301087  1
  O  O56  1  0.11948045  0.11383338  0.55847031  1
  O  O57  1  0.88051955  0.61383338  0.94152969  1
  O  O58  1  0.88051955  0.88616662  0.44152969  1
  O  O59  1  0.11948045  0.38616662  0.05847031  1
  O  O60  1  0.44470449  0.11590437  0.56162498  1
  O  O61  1  0.55529551  0.61590437  0.93837502  1
  O  O62  1  0.55529551  0.88409563  0.43837502  1
  O  O63  1  0.44470449  0.38409563  0.06162498  1
  O  O64  1  0.27246165  0.30781060  0.54441994  1
  O  O65  1  0.72753835  0.80781060  0.95558006  1
  O  O66  1  0.72753835  0.69218940  0.45558006  1
  O  O67  1  0.27246165  0.19218940  0.04441994  1
  O  O68  1  0.20448488  0.06375157  0.40489195  1
  O  O69  1  0.79551512  0.56375157  0.09510805  1
  O  O70  1  0.79551512  0.93624843  0.59510805  1
  O  O71  1  0.20448488  0.43624843  0.90489195  1
  O  O72  1  0.28455888  0.92406830  0.55250845  1
  O  O73  1  0.71544112  0.42406830  0.94749155  1
  O  O74  1  0.71544112  0.07593170  0.44749155  1
  O  O75  1  0.28455888  0.57593170  0.05250845  1
  O  O76  1  0.93643337  0.29844001  0.48653683  1
  O  O77  1  0.06356663  0.79844001  0.01346317  1
  O  O78  1  0.06356663  0.70155999  0.51346317  1
  O  O79  1  0.93643337  0.20155999  0.98653683  1
  O  O80  1  0.09281112  0.27956106  0.66939023  1
  O  O81  1  0.90718888  0.77956106  0.83060977  1
  O  O82  1  0.90718888  0.72043894  0.33060977  1
  O  O83  1  0.09281112  0.22043894  0.16939023  1
  O  O84  1  0.58552575  0.28497019  0.66692603  1
  O  O85  1  0.41447425  0.78497019  0.83307397  1
  O  O86  1  0.41447425  0.71502981  0.33307397  1
  O  O87  1  0.58552575  0.21502981  0.16692603  1
  O  O88  1  0.53975631  0.29876789  0.48102769  1
  O  O89  1  0.46024369  0.79876789  0.01897231  1
  O  O90  1  0.46024369  0.70123211  0.51897231  1
  O  O91  1  0.53975631  0.20123211  0.98102769  1
  O  O92  1  0.11219570  0.63066512  0.71792345  1
  O  O93  1  0.88780430  0.13066512  0.78207655  1
  O  O94  1  0.88780430  0.36933488  0.28207655  1
  O  O95  1  0.11219570  0.86933488  0.21792345  1
  O  O96  1  0.12662766  0.89520295  0.70292681  1
  O  O97  1  0.87337234  0.39520295  0.79707319  1
  O  O98  1  0.87337234  0.10479705  0.29707319  1
  O  O99  1  0.12662766  0.60479705  0.20292681  1
  O  O100  1  0.61139736  0.86569447  0.70820846  1
  O  O101  1  0.38860264  0.36569447  0.79179154  1
  O  O102  1  0.38860264  0.13430553  0.29179154  1
  O  O103  1  0.61139736  0.63430553  0.20820846  1
  O  O104  1  0.46350663  0.55774412  0.69244798  1
  O  O105  1  0.53649337  0.05774412  0.80755202  1
  O  O106  1  0.53649337  0.44225588  0.30755202  1
  O  O107  1  0.46350663  0.94225588  0.19244798  1
  O  O108  1  0.17942705  0.00040049  0.89467326  1
  O  O109  1  0.82057295  0.50040049  0.60532674  1
  O  O110  1  0.82057295  0.99959951  0.10532674  1
  O  O111  1  0.17942705  0.49959951  0.39467326  1
