# generated using pymatgen
data_Hg2H8C2NCl5
_symmetry_space_group_name_H-M   'P 1'
_cell_length_a   7.33882976
_cell_length_b   10.72471928
_cell_length_c   17.04167469
_cell_angle_alpha   102.42904147
_cell_angle_beta   90.00000000
_cell_angle_gamma   90.00000000
_symmetry_Int_Tables_number   1
_chemical_formula_structural   Hg2H8C2NCl5
_chemical_formula_sum   'Hg8 H32 C8 N4 Cl20'
_cell_volume   1309.86163158
_cell_formula_units_Z   4
loop_
 _symmetry_equiv_pos_site_id
 _symmetry_equiv_pos_as_xyz
  1  'x, y, z'
loop_
 _atom_site_type_symbol
 _atom_site_label
 _atom_site_symmetry_multiplicity
 _atom_site_fract_x
 _atom_site_fract_y
 _atom_site_fract_z
 _atom_site_occupancy
  Hg  Hg0  1  0.12175323  0.15193965  0.65226490  1
  Hg  Hg1  1  0.62175323  0.34806035  0.84773510  1
  Hg  Hg2  1  0.87824677  0.84806035  0.34773510  1
  Hg  Hg3  1  0.37824677  0.65193965  0.15226490  1
  Hg  Hg4  1  0.61692208  0.94069242  0.59685761  1
  Hg  Hg5  1  0.11692208  0.55930758  0.90314239  1
  Hg  Hg6  1  0.38307792  0.05930758  0.40314239  1
  Hg  Hg7  1  0.88307792  0.44069242  0.09685761  1
  H  H8  1  0.72826825  0.61456337  0.68177397  1
  H  H9  1  0.22826825  0.88543663  0.81822603  1
  H  H10  1  0.27173175  0.38543663  0.31822603  1
  H  H11  1  0.77173175  0.11456337  0.18177397  1
  H  H12  1  0.85638195  0.49439970  0.70049722  1
  H  H13  1  0.35638195  0.00560030  0.79950278  1
  H  H14  1  0.14361805  0.50560030  0.29950278  1
  H  H15  1  0.64361805  0.99439970  0.20049722  1
  H  H16  1  0.05633019  0.52753569  0.58515281  1
  H  H17  1  0.55633019  0.97246431  0.91484719  1
  H  H18  1  0.94366981  0.47246431  0.41484719  1
  H  H19  1  0.44366981  0.02753569  0.08515281  1
  H  H20  1  0.93975334  0.67840700  0.59804980  1
  H  H21  1  0.43975334  0.82159300  0.90195020  1
  H  H22  1  0.06024666  0.32159300  0.40195020  1
  H  H23  1  0.56024666  0.17840700  0.09804980  1
  H  H24  1  0.06886769  0.64009928  0.67912651  1
  H  H25  1  0.56886769  0.85990072  0.82087349  1
  H  H26  1  0.93113231  0.35990072  0.32087349  1
  H  H27  1  0.43113231  0.14009928  0.17912651  1
  H  H28  1  0.67694593  0.50005329  0.54444144  1
  H  H29  1  0.17694593  -0.00005329  0.95555856  1
  H  H30  1  0.32305407  0.49994671  0.45555856  1
  H  H31  1  0.82305407  0.00005329  0.04444144  1
  H  H32  1  0.80958544  0.37158644  0.56787485  1
  H  H33  1  0.30958544  0.12841356  0.93212515  1
  H  H34  1  0.19041456  0.62841356  0.43212515  1
  H  H35  1  0.69041456  0.87158644  0.06787485  1
  H  H36  1  0.59792044  0.41676204  0.61861028  1
  H  H37  1  0.09792044  0.08323796  0.88138972  1
  H  H38  1  0.40207956  0.58323796  0.38138972  1
  H  H39  1  0.90207956  0.91676204  0.11861028  1
  C  C40  1  0.98247045  0.60170225  0.62725170  1
  C  C41  1  0.48247045  0.89829775  0.87274830  1
  C  C42  1  0.01752955  0.39829775  0.37274830  1
  C  C43  1  0.51752955  0.10170225  0.12725170  1
  C  C44  1  0.71831493  0.45135366  0.59188970  1
  C  C45  1  0.21831493  0.04864634  0.90811030  1
  C  C46  1  0.28168507  0.54864634  0.40811030  1
  C  C47  1  0.78168507  0.95135366  0.09188970  1
  N  N48  1  0.81729793  0.54329240  0.65578358  1
  N  N49  1  0.31729793  0.95670760  0.84421642  1
  N  N50  1  0.18270207  0.45670760  0.34421642  1
  N  N51  1  0.68270207  0.04329240  0.15578358  1
  Cl  Cl52  1  0.97911304  0.98038253  0.69929837  1
  Cl  Cl53  1  0.47911304  0.51961747  0.80070163  1
  Cl  Cl54  1  0.02088696  0.01961747  0.30070163  1
  Cl  Cl55  1  0.52088696  0.48038253  0.19929837  1
  Cl  Cl56  1  0.20993193  0.28193311  0.56118553  1
  Cl  Cl57  1  0.70993193  0.21806689  0.93881447  1
  Cl  Cl58  1  0.79006807  0.71806689  0.43881447  1
  Cl  Cl59  1  0.29006807  0.78193311  0.06118553  1
  Cl  Cl60  1  0.45304571  0.13264875  0.73055473  1
  Cl  Cl61  1  0.95304571  0.36735125  0.76944527  1
  Cl  Cl62  1  0.54695429  0.86735125  0.26944527  1
  Cl  Cl63  1  0.04695429  0.63264875  0.23055473  1
  Cl  Cl64  1  0.50480207  0.76889655  0.65029861  1
  Cl  Cl65  1  0.00480207  0.73110345  0.84970139  1
  Cl  Cl66  1  0.49519793  0.23110345  0.34970139  1
  Cl  Cl67  1  0.99519793  0.26889655  0.15029861  1
  Cl  Cl68  1  0.73570174  0.08205762  0.52090814  1
  Cl  Cl69  1  0.23570174  0.41794238  0.97909186  1
  Cl  Cl70  1  0.26429826  0.91794238  0.47909186  1
  Cl  Cl71  1  0.76429826  0.58205762  0.02090814  1
