# generated using pymatgen
data_H2SO5
_symmetry_space_group_name_H-M   'P 1'
_cell_length_a   6.45555716
_cell_length_b   8.32149122
_cell_length_c   14.03038148
_cell_angle_alpha   90.00000000
_cell_angle_beta   90.00000000
_cell_angle_gamma   90.00000000
_symmetry_Int_Tables_number   1
_chemical_formula_structural   H2SO5
_chemical_formula_sum   'H16 S8 O40'
_cell_volume   753.71016010
_cell_formula_units_Z   8
loop_
 _symmetry_equiv_pos_site_id
 _symmetry_equiv_pos_as_xyz
  1  'x, y, z'
loop_
 _atom_site_type_symbol
 _atom_site_label
 _atom_site_symmetry_multiplicity
 _atom_site_fract_x
 _atom_site_fract_y
 _atom_site_fract_z
 _atom_site_occupancy
  H  H0  1  0.70705182  0.12419365  0.73474591  1
  H  H1  1  0.20705182  0.87580635  0.76525409  1
  H  H2  1  0.29294818  0.37580635  0.23474591  1
  H  H3  1  0.79294818  0.62419365  0.26525409  1
  H  H4  1  0.29294818  0.87580635  0.26525409  1
  H  H5  1  0.79294818  0.12419365  0.23474591  1
  H  H6  1  0.70705182  0.62419365  0.76525409  1
  H  H7  1  0.20705182  0.37580635  0.73474591  1
  H  H8  1  0.15557022  0.91573883  0.92228413  1
  H  H9  1  0.65557022  0.08426117  0.57771587  1
  H  H10  1  0.84442978  0.58426117  0.42228413  1
  H  H11  1  0.34442978  0.41573883  0.07771587  1
  H  H12  1  0.84442978  0.08426117  0.07771587  1
  H  H13  1  0.34442978  0.91573883  0.42228413  1
  H  H14  1  0.15557022  0.41573883  0.57771587  1
  H  H15  1  0.65557022  0.58426117  0.92228413  1
  S  S16  1  0.73560418  0.05583988  0.88175711  1
  S  S17  1  0.23560418  0.94416012  0.61824289  1
  S  S18  1  0.26439582  0.44416012  0.38175711  1
  S  S19  1  0.76439582  0.55583988  0.11824289  1
  S  S20  1  0.26439582  0.94416012  0.11824289  1
  S  S21  1  0.76439582  0.05583988  0.38175711  1
  S  S22  1  0.73560418  0.55583988  0.61824289  1
  S  S23  1  0.23560418  0.44416012  0.88175711  1
  O  O24  1  0.77501749  0.16777894  0.79606766  1
  O  O25  1  0.27501749  0.83222106  0.70393234  1
  O  O26  1  0.22498251  0.33222106  0.29606766  1
  O  O27  1  0.72498251  0.66777894  0.20393234  1
  O  O28  1  0.22498251  0.83222106  0.20393234  1
  O  O29  1  0.72498251  0.16777894  0.29606766  1
  O  O30  1  0.77501749  0.66777894  0.70393234  1
  O  O31  1  0.27501749  0.33222106  0.79606766  1
  O  O32  1  0.80614784  0.14175943  0.96453419  1
  O  O33  1  0.30614784  0.85824057  0.53546581  1
  O  O34  1  0.19385216  0.35824057  0.46453419  1
  O  O35  1  0.69385216  0.64175943  0.03546581  1
  O  O36  1  0.19385216  0.85824057  0.03546581  1
  O  O37  1  0.69385216  0.14175943  0.46453419  1
  O  O38  1  0.80614784  0.64175943  0.53546581  1
  O  O39  1  0.30614784  0.35824057  0.96453419  1
  O  O40  1  0.53708726  0.97919940  0.87850248  1
  O  O41  1  0.03708726  0.02080060  0.62149752  1
  O  O42  1  0.46291274  0.52080060  0.37850248  1
  O  O43  1  0.96291274  0.47919940  0.12149752  1
  O  O44  1  0.46291274  0.02080060  0.12149752  1
  O  O45  1  0.96291274  0.97919940  0.37850248  1
  O  O46  1  0.53708726  0.47919940  0.62149752  1
  O  O47  1  0.03708726  0.52080060  0.87850248  1
  O  O48  1  0.88673640  0.89914721  0.86255861  1
  O  O49  1  0.38673640  0.10085279  0.63744139  1
  O  O50  1  0.11326360  0.60085279  0.36255861  1
  O  O51  1  0.61326360  0.39914721  0.13744139  1
  O  O52  1  0.11326360  0.10085279  0.13744139  1
  O  O53  1  0.61326360  0.89914721  0.36255861  1
  O  O54  1  0.88673640  0.39914721  0.63744139  1
  O  O55  1  0.38673640  0.60085279  0.86255861  1
  O  O56  1  0.10443854  0.95088389  0.85763759  1
  O  O57  1  0.60443854  0.04911611  0.64236241  1
  O  O58  1  0.89556146  0.54911611  0.35763759  1
  O  O59  1  0.39556146  0.45088389  0.14236241  1
  O  O60  1  0.89556146  0.04911611  0.14236241  1
  O  O61  1  0.39556146  0.95088389  0.35763759  1
  O  O62  1  0.10443854  0.45088389  0.64236241  1
  O  O63  1  0.60443854  0.54911611  0.85763759  1
