# generated using pymatgen
data_TiH9(SO6)2
_symmetry_space_group_name_H-M   'P 1'
_cell_length_a   5.67863038
_cell_length_b   9.95810993
_cell_length_c   18.62524522
_cell_angle_alpha   90.00000000
_cell_angle_beta   90.00000000
_cell_angle_gamma   90.00000000
_symmetry_Int_Tables_number   1
_chemical_formula_structural   TiH9(SO6)2
_chemical_formula_sum   'Ti4 H36 S8 O48'
_cell_volume   1053.22829316
_cell_formula_units_Z   4
loop_
 _symmetry_equiv_pos_site_id
 _symmetry_equiv_pos_as_xyz
  1  'x, y, z'
loop_
 _atom_site_type_symbol
 _atom_site_label
 _atom_site_symmetry_multiplicity
 _atom_site_fract_x
 _atom_site_fract_y
 _atom_site_fract_z
 _atom_site_occupancy
  Ti  Ti0  1  0.50000000  0.00000000  0.50000000  1
  Ti  Ti1  1  -0.00000000  0.50000000  0.00000000  1
  Ti  Ti2  1  0.50000000  0.00000000  -0.00000000  1
  Ti  Ti3  1  0.00000000  0.50000000  0.50000000  1
  H  H4  1  0.83338304  0.07191357  0.40117148  1
  H  H5  1  0.66661696  0.57191357  0.09882852  1
  H  H6  1  0.16661696  0.92808643  0.90117148  1
  H  H7  1  0.33338304  0.42808643  0.59882852  1
  H  H8  1  0.16661696  0.92808643  0.59882852  1
  H  H9  1  0.33338304  0.42808643  0.90117148  1
  H  H10  1  0.83338304  0.07191357  0.09882852  1
  H  H11  1  0.66661696  0.57191357  0.40117148  1
  H  H12  1  0.82965599  0.91210955  0.40144782  1
  H  H13  1  0.67034401  0.41210955  0.09855218  1
  H  H14  1  0.17034401  0.08789045  0.90144782  1
  H  H15  1  0.32965599  0.58789045  0.59855218  1
  H  H16  1  0.17034401  0.08789045  0.59855218  1
  H  H17  1  0.32965599  0.58789045  0.90144782  1
  H  H18  1  0.82965599  0.91210955  0.09855218  1
  H  H19  1  0.67034401  0.41210955  0.40144782  1
  H  H20  1  0.54588606  0.84359549  0.29281366  1
  H  H21  1  0.95411394  0.34359549  0.20718634  1
  H  H22  1  0.45411394  0.15640451  0.79281366  1
  H  H23  1  0.04588606  0.65640451  0.70718634  1
  H  H24  1  0.45411394  0.15640451  0.70718634  1
  H  H25  1  0.04588606  0.65640451  0.79281366  1
  H  H26  1  0.54588606  0.84359549  0.20718634  1
  H  H27  1  0.95411394  0.34359549  0.29281366  1
  H  H28  1  0.50105221  0.19264243  0.29470753  1
  H  H29  1  0.99894779  0.69264243  0.20529247  1
  H  H30  1  0.49894779  0.80735757  0.79470753  1
  H  H31  1  0.00105221  0.30735757  0.70529247  1
  H  H32  1  0.49894779  0.80735757  0.70529247  1
  H  H33  1  0.00105221  0.30735757  0.79470753  1
  H  H34  1  0.50105221  0.19264243  0.20529247  1
  H  H35  1  0.99894779  0.69264243  0.29470753  1
  H  H36  1  0.55313081  0.03580694  0.25000000  1
  H  H37  1  0.94686919  0.53580694  0.25000000  1
  H  H38  1  0.44686919  0.96419306  0.75000000  1
  H  H39  1  0.05313081  0.46419306  0.75000000  1
  S  S40  1  0.27973870  0.73764068  0.40837475  1
  S  S41  1  0.22026130  0.23764068  0.09162525  1
  S  S42  1  0.72026130  0.26235932  0.90837475  1
  S  S43  1  0.77973870  0.76235932  0.59162525  1
  S  S44  1  0.72026130  0.26235932  0.59162525  1
  S  S45  1  0.77973870  0.76235932  0.90837475  1
  S  S46  1  0.27973870  0.73764068  0.09162525  1
  S  S47  1  0.22026130  0.23764068  0.40837475  1
  O  O48  1  0.49631105  0.72240034  0.36559104  1
  O  O49  1  0.00368895  0.22240034  0.13440896  1
  O  O50  1  0.50368895  0.27759966  0.86559104  1
  O  O51  1  0.99631105  0.77759966  0.63440896  1
  O  O52  1  0.50368895  0.27759966  0.63440896  1
  O  O53  1  0.99631105  0.77759966  0.86559104  1
  O  O54  1  0.49631105  0.72240034  0.13440896  1
  O  O55  1  0.00368895  0.22240034  0.36559104  1
  O  O56  1  0.07560515  0.78020949  0.36475447  1
  O  O57  1  0.42439485  0.28020949  0.13524553  1
  O  O58  1  0.92439485  0.21979051  0.86475447  1
  O  O59  1  0.57560515  0.71979051  0.63524553  1
  O  O60  1  0.92439485  0.21979051  0.63524553  1
  O  O61  1  0.57560515  0.71979051  0.86475447  1
  O  O62  1  0.07560515  0.78020949  0.13524553  1
  O  O63  1  0.42439485  0.28020949  0.36475447  1
  O  O64  1  0.73384527  0.99207305  0.41145318  1
  O  O65  1  0.76615473  0.49207305  0.08854682  1
  O  O66  1  0.26615473  0.00792695  0.91145318  1
  O  O67  1  0.23384527  0.50792695  0.58854682  1
  O  O68  1  0.26615473  0.00792695  0.58854682  1
  O  O69  1  0.23384527  0.50792695  0.91145318  1
  O  O70  1  0.73384527  0.99207305  0.08854682  1
  O  O71  1  0.76615473  0.49207305  0.41145318  1
  O  O72  1  0.31256600  0.83337581  0.46970178  1
  O  O73  1  0.18743400  0.33337581  0.03029822  1
  O  O74  1  0.68743400  0.16662419  0.96970178  1
  O  O75  1  0.81256600  0.66662419  0.53029822  1
  O  O76  1  0.68743400  0.16662419  0.53029822  1
  O  O77  1  0.81256600  0.66662419  0.96970178  1
  O  O78  1  0.31256600  0.83337581  0.03029822  1
  O  O79  1  0.18743400  0.33337581  0.46970178  1
  O  O80  1  0.23009481  0.60285475  0.44201500  1
  O  O81  1  0.26990519  0.10285475  0.05798500  1
  O  O82  1  0.76990519  0.39714525  0.94201500  1
  O  O83  1  0.73009481  0.89714525  0.55798500  1
  O  O84  1  0.76990519  0.39714525  0.55798500  1
  O  O85  1  0.73009481  0.89714525  0.94201500  1
  O  O86  1  0.23009481  0.60285475  0.05798500  1
  O  O87  1  0.26990519  0.10285475  0.44201500  1
  O  O88  1  0.57801780  0.89926568  0.25000000  1
  O  O89  1  0.92198220  0.39926568  0.25000000  1
  O  O90  1  0.42198220  0.10073432  0.75000000  1
  O  O91  1  0.07801780  0.60073432  0.75000000  1
  O  O92  1  0.56058977  0.14581688  0.25000000  1
  O  O93  1  0.93941023  0.64581688  0.25000000  1
  O  O94  1  0.43941023  0.85418312  0.75000000  1
  O  O95  1  0.06058977  0.35418312  0.75000000  1
