# generated using pymatgen
data_BaV6O11
_symmetry_space_group_name_H-M   'P 1'
_cell_length_a   5.93163674
_cell_length_b   5.93163674
_cell_length_c   13.59201111
_cell_angle_alpha   90.00000000
_cell_angle_beta   90.00000000
_cell_angle_gamma   119.99999686
_symmetry_Int_Tables_number   1
_chemical_formula_structural   BaV6O11
_chemical_formula_sum   'Ba2 V12 O22'
_cell_volume   414.15552465
_cell_formula_units_Z   2
loop_
 _symmetry_equiv_pos_site_id
 _symmetry_equiv_pos_as_xyz
  1  'x, y, z'
loop_
 _atom_site_type_symbol
 _atom_site_label
 _atom_site_symmetry_multiplicity
 _atom_site_fract_x
 _atom_site_fract_y
 _atom_site_fract_z
 _atom_site_occupancy
  Ba  Ba0  1  0.33333300  0.66666700  0.25050246  1
  Ba  Ba1  1  0.66666700  0.33333300  0.75050246  1
  V  V2  1  0.49997441  -0.00005118  0.50236023  1
  V  V3  1  0.49997441  0.50002559  0.50236023  1
  V  V4  1  0.00005118  0.50002559  0.50236023  1
  V  V5  1  0.50002559  0.00005118  0.00236023  1
  V  V6  1  0.50002559  0.49997441  0.00236023  1
  V  V7  1  -0.00005118  0.49997441  0.00236023  1
  V  V8  1  0.33333300  0.66666700  0.75582483  1
  V  V9  1  0.66666700  0.33333300  0.25582483  1
  V  V10  1  -0.00000000  -0.00000000  0.35608548  1
  V  V11  1  -0.00000000  -0.00000000  0.85608548  1
  V  V12  1  -0.00000000  -0.00000000  0.14851730  1
  V  V13  1  -0.00000000  -0.00000000  0.64851730  1
  O  O14  1  0.17424440  0.34848880  0.42502679  1
  O  O15  1  0.17424440  0.82575560  0.42502679  1
  O  O16  1  0.65151120  0.82575560  0.42502679  1
  O  O17  1  0.82575560  0.65151120  0.92502679  1
  O  O18  1  0.82575560  0.17424440  0.92502679  1
  O  O19  1  0.34848880  0.17424440  0.92502679  1
  O  O20  1  0.17462712  0.34925424  0.07976344  1
  O  O21  1  0.17462712  0.82537288  0.07976344  1
  O  O22  1  0.65074576  0.82537288  0.07976344  1
  O  O23  1  0.82537288  0.65074576  0.57976344  1
  O  O24  1  0.82537288  0.17462712  0.57976344  1
  O  O25  1  0.34925424  0.17462712  0.57976344  1
  O  O26  1  0.14835996  0.29671991  0.75306991  1
  O  O27  1  0.14835996  0.85164004  0.75306991  1
  O  O28  1  0.70328009  0.85164004  0.75306991  1
  O  O29  1  0.85164004  0.70328009  0.25306991  1
  O  O30  1  0.85164004  0.14835996  0.25306991  1
  O  O31  1  0.29671991  0.14835996  0.25306991  1
  O  O32  1  0.33333300  0.66666700  0.91839150  1
  O  O33  1  0.66666700  0.33333300  0.41839150  1
  O  O34  1  0.33333300  0.66666700  0.58579734  1
  O  O35  1  0.66666700  0.33333300  0.08579734  1
