# generated using pymatgen
data_Th3Se3O16
_symmetry_space_group_name_H-M   'P 1'
_cell_length_a   9.71678497
_cell_length_b   9.71678497
_cell_length_c   9.71678497
_cell_angle_alpha   107.67125340
_cell_angle_beta   107.67125340
_cell_angle_gamma   113.13443727
_symmetry_Int_Tables_number   1
_chemical_formula_structural   Th3Se3O16
_chemical_formula_sum   'Th6 Se6 O32'
_cell_volume   704.04966589
_cell_formula_units_Z   2
loop_
 _symmetry_equiv_pos_site_id
 _symmetry_equiv_pos_as_xyz
  1  'x, y, z'
loop_
 _atom_site_type_symbol
 _atom_site_label
 _atom_site_symmetry_multiplicity
 _atom_site_fract_x
 _atom_site_fract_y
 _atom_site_fract_z
 _atom_site_occupancy
  Th  Th0  1  0.25240919  0.03773582  0.29014501  1
  Th  Th1  1  0.74759081  0.96226418  0.70985499  1
  Th  Th2  1  0.03773582  0.74759081  0.78532662  1
  Th  Th3  1  0.96226418  0.25240919  0.21467338  1
  Th  Th4  1  0.75191913  0.75191913  -0.00000000  1
  Th  Th5  1  0.24808087  0.24808087  0.00000000  1
  Se  Se6  1  0.37688999  0.72080764  0.09769763  1
  Se  Se7  1  0.62311001  0.27919236  0.90230237  1
  Se  Se8  1  0.72080764  0.62311001  0.34391764  1
  Se  Se9  1  0.27919236  0.37688999  0.65608236  1
  Se  Se10  1  0.25000000  0.75000000  0.50000000  1
  Se  Se11  1  0.75000000  0.25000000  0.50000000  1
  O  O12  1  0.23827480  0.67804790  0.91632270  1
  O  O13  1  0.76172520  0.32195210  0.08367730  1
  O  O14  1  0.67804790  0.76172520  0.43977311  1
  O  O15  1  0.32195210  0.23827480  0.56022689  1
  O  O16  1  0.44278534  0.77754495  0.55323995  1
  O  O17  1  0.22430500  0.88954539  0.44676005  1
  O  O18  1  0.77754495  0.22430500  0.33475962  1
  O  O19  1  0.88954539  0.44278534  0.66524038  1
  O  O20  1  0.55721466  0.22245505  0.44676005  1
  O  O21  1  0.77569500  0.11045461  0.55323995  1
  O  O22  1  0.22245505  0.77569500  0.66524038  1
  O  O23  1  0.11045461  0.55721466  0.33475962  1
  O  O24  1  0.38490125  0.86572979  0.25063104  1
  O  O25  1  0.61509875  0.13427021  0.74936896  1
  O  O26  1  0.86572979  0.61509875  0.48082853  1
  O  O27  1  0.13427021  0.38490125  0.51917147  1
  O  O28  1  0.98478845  0.02028404  0.23117089  1
  O  O29  1  0.78911315  0.75361756  0.76882911  1
  O  O30  1  0.02028404  0.78911315  0.03549559  1
  O  O31  1  0.75361756  0.98478845  0.96450441  1
  O  O32  1  0.01521155  0.97971596  0.76882911  1
  O  O33  1  0.21088685  0.24638244  0.23117089  1
  O  O34  1  0.97971596  0.21088685  0.96450441  1
  O  O35  1  0.24638244  0.01521155  0.03549559  1
  O  O36  1  0.31740296  0.54308555  0.11518366  1
  O  O37  1  0.42790189  0.20221930  0.88481634  1
  O  O38  1  0.54308555  0.42790189  0.22568259  1
  O  O39  1  0.20221930  0.31740296  0.77431741  1
  O  O40  1  0.68259704  0.45691445  0.88481634  1
  O  O41  1  0.57209811  0.79778070  0.11518366  1
  O  O42  1  0.45691445  0.57209811  0.77431741  1
  O  O43  1  0.79778070  0.68259704  0.22568259  1
