# generated using pymatgen
data_NaZnH2C3O7
_symmetry_space_group_name_H-M   'P 1'
_cell_length_a   5.99481577
_cell_length_b   7.28581174
_cell_length_c   15.58566437
_cell_angle_alpha   90.00000000
_cell_angle_beta   90.00000000
_cell_angle_gamma   100.77760994
_symmetry_Int_Tables_number   1
_chemical_formula_structural   NaZnH2C3O7
_chemical_formula_sum   'Na4 Zn4 H8 C12 O28'
_cell_volume   668.72868670
_cell_formula_units_Z   4
loop_
 _symmetry_equiv_pos_site_id
 _symmetry_equiv_pos_as_xyz
  1  'x, y, z'
loop_
 _atom_site_type_symbol
 _atom_site_label
 _atom_site_symmetry_multiplicity
 _atom_site_fract_x
 _atom_site_fract_y
 _atom_site_fract_z
 _atom_site_occupancy
  Na  Na0  1  0.02603964  0.19238984  0.68184073  1
  Na  Na1  1  0.97396036  0.30761016  0.18184073  1
  Na  Na2  1  0.97396036  0.80761016  0.31815927  1
  Na  Na3  1  0.02603964  0.69238984  0.81815927  1
  Zn  Zn4  1  0.22813043  0.78490675  0.60032119  1
  Zn  Zn5  1  0.77186957  0.71509325  0.10032119  1
  Zn  Zn6  1  0.77186957  0.21509325  0.39967881  1
  Zn  Zn7  1  0.22813043  0.28490675  0.89967881  1
  H  H8  1  0.32557784  0.12481204  0.52576019  1
  H  H9  1  0.67442216  0.37518796  0.02576019  1
  H  H10  1  0.67442216  0.87518796  0.47423981  1
  H  H11  1  0.32557784  0.62481204  0.97423981  1
  H  H12  1  0.44500715  0.13488010  0.61990637  1
  H  H13  1  0.55499285  0.36511990  0.11990637  1
  H  H14  1  0.55499285  0.86511990  0.38009363  1
  H  H15  1  0.44500715  0.63488010  0.88009363  1
  C  C16  1  0.70144528  0.78625541  0.65126060  1
  C  C17  1  0.29855472  0.71374459  0.15126060  1
  C  C18  1  0.29855472  0.21374459  0.34873940  1
  C  C19  1  0.70144528  0.28625541  0.84873940  1
  C  C20  1  0.54813584  0.74482245  0.73264564  1
  C  C21  1  0.45186416  0.75517755  0.23264564  1
  C  C22  1  0.45186416  0.25517755  0.26735436  1
  C  C23  1  0.54813584  0.24482245  0.76735436  1
  C  C24  1  0.00450066  0.57195349  0.46330712  1
  C  C25  1  0.99549934  0.92804651  0.96330712  1
  C  C26  1  0.99549934  0.42804651  0.53669288  1
  C  C27  1  0.00450066  0.07195349  0.03669288  1
  O  O28  1  0.11154813  0.73704984  0.47663914  1
  O  O29  1  0.88845187  0.76295016  0.97663914  1
  O  O30  1  0.88845187  0.26295016  0.52336086  1
  O  O31  1  0.11154813  0.23704984  0.02336086  1
  O  O32  1  0.90363270  0.51571596  0.39429659  1
  O  O33  1  0.09636730  0.98428404  0.89429659  1
  O  O34  1  0.09636730  0.48428404  0.60570341  1
  O  O35  1  0.90363270  0.01571596  0.10570341  1
  O  O36  1  0.30649726  0.07821893  0.58571286  1
  O  O37  1  0.69350274  0.42178107  0.08571286  1
  O  O38  1  0.69350274  0.92178107  0.41428714  1
  O  O39  1  0.30649726  0.57821893  0.91428714  1
  O  O40  1  0.63641649  0.70166824  0.80120227  1
  O  O41  1  0.36358351  0.79833176  0.30120227  1
  O  O42  1  0.36358351  0.29833176  0.19879773  1
  O  O43  1  0.63641649  0.20166824  0.69879773  1
  O  O44  1  0.91382249  0.82175484  0.66424560  1
  O  O45  1  0.08617751  0.67824516  0.16424560  1
  O  O46  1  0.08617751  0.17824516  0.33575440  1
  O  O47  1  0.91382249  0.32175484  0.83575440  1
  O  O48  1  0.59830259  0.78233750  0.57990597  1
  O  O49  1  0.40169741  0.71766250  0.07990597  1
  O  O50  1  0.40169741  0.21766250  0.42009403  1
  O  O51  1  0.59830259  0.28233750  0.92009403  1
  O  O52  1  0.34009784  0.75776775  0.72374056  1
  O  O53  1  0.65990216  0.74223225  0.22374056  1
  O  O54  1  0.65990216  0.24223225  0.27625944  1
  O  O55  1  0.34009784  0.25776775  0.77625944  1
