# generated using pymatgen
data_Ga2SnGeS6
_symmetry_space_group_name_H-M   'P 1'
_cell_length_a   7.03802816
_cell_length_b   7.03802816
_cell_length_c   23.15976835
_cell_angle_alpha   94.63558348
_cell_angle_beta   94.63558348
_cell_angle_gamma   117.91174190
_symmetry_Int_Tables_number   1
_chemical_formula_structural   Ga2SnGeS6
_chemical_formula_sum   'Ga8 Sn4 Ge4 S24'
_cell_volume   1001.21307001
_cell_formula_units_Z   4
loop_
 _symmetry_equiv_pos_site_id
 _symmetry_equiv_pos_as_xyz
  1  'x, y, z'
loop_
 _atom_site_type_symbol
 _atom_site_label
 _atom_site_symmetry_multiplicity
 _atom_site_fract_x
 _atom_site_fract_y
 _atom_site_fract_z
 _atom_site_occupancy
  Ga  Ga0  1  0.66192749  0.99199088  0.13404347  1
  Ga  Ga1  1  0.00800912  0.33807251  0.86595653  1
  Ga  Ga2  1  0.77788401  0.60794741  0.36595653  1
  Ga  Ga3  1  0.39205259  0.22211599  0.63404347  1
  Ga  Ga4  1  0.52542673  0.81115484  0.26777762  1
  Ga  Ga5  1  0.18884516  0.47457327  0.73222238  1
  Ga  Ga6  1  0.50764911  0.29337722  0.23222238  1
  Ga  Ga7  1  0.70662278  0.49235089  0.76777762  1
  Sn  Sn8  1  0.04377472  0.53850913  0.14722073  1
  Sn  Sn9  1  0.46149087  0.95622528  0.85277927  1
  Sn  Sn10  1  0.14655399  0.14128839  0.35277927  1
  Sn  Sn11  1  0.85871161  0.85344601  0.64722073  1
  Ge  Ge12  1  0.28088145  0.71911855  0.00000000  1
  Ge  Ge13  1  0.53088145  0.46911855  0.50000000  1
  Ge  Ge14  1  0.78932900  0.21067100  0.00000000  1
  Ge  Ge15  1  0.03932900  0.96067100  0.50000000  1
  S  S16  1  0.95391917  0.15142301  0.07841367  1
  S  S17  1  0.84857699  0.04608083  0.92158633  1
  S  S18  1  0.12550550  0.82300934  0.42158633  1
  S  S19  1  0.17699066  0.87449450  0.57841367  1
  S  S20  1  0.80194105  0.92036988  0.21304436  1
  S  S21  1  0.07963012  0.19805895  0.78695564  1
  S  S22  1  0.83889669  0.45732551  0.28695564  1
  S  S23  1  0.54267449  0.16110331  0.71304436  1
  S  S24  1  0.28228463  0.44979899  0.23686735  1
  S  S25  1  0.55020101  0.71771537  0.76313265  1
  S  S26  1  0.29541728  0.96293163  0.26313265  1
  S  S27  1  0.03706837  0.70458272  0.73686735  1
  S  S28  1  0.91765033  0.57881045  0.00953185  1
  S  S29  1  0.42118955  0.08234967  0.99046815  1
  S  S30  1  0.15811847  0.31927859  0.49046815  1
  S  S31  1  0.68072141  0.84188153  0.50953185  1
  S  S32  1  0.56441659  0.25523018  0.13746939  1
  S  S33  1  0.74476982  0.43558341  0.86253061  1
  S  S34  1  0.67694720  0.86776079  0.36253061  1
  S  S35  1  0.13223921  0.32305280  0.63746939  1
  S  S36  1  0.42700028  0.65790409  0.08030455  1
  S  S37  1  0.34209591  0.57299972  0.91969545  1
  S  S38  1  0.59669573  0.32759953  0.41969545  1
  S  S39  1  0.67240047  0.40330427  0.58030455  1
