# generated using pymatgen
data_Te7WBr5O
_symmetry_space_group_name_H-M   'P 1'
_cell_length_a   7.77282203
_cell_length_b   8.70958544
_cell_length_c   27.61062482
_cell_angle_alpha   90.00000000
_cell_angle_beta   90.00000000
_cell_angle_gamma   90.00000000
_symmetry_Int_Tables_number   1
_chemical_formula_structural   Te7WBr5O
_chemical_formula_sum   'Te28 W4 Br20 O4'
_cell_volume   1869.18566889
_cell_formula_units_Z   4
loop_
 _symmetry_equiv_pos_site_id
 _symmetry_equiv_pos_as_xyz
  1  'x, y, z'
loop_
 _atom_site_type_symbol
 _atom_site_label
 _atom_site_symmetry_multiplicity
 _atom_site_fract_x
 _atom_site_fract_y
 _atom_site_fract_z
 _atom_site_occupancy
  Te  Te0  1  0.50000000  -0.00000000  -0.00000000  1
  Te  Te1  1  0.50000000  -0.00000000  0.50000000  1
  Te  Te2  1  0.00000000  -0.00000000  0.50000000  1
  Te  Te3  1  0.00000000  -0.00000000  -0.00000000  1
  Te  Te4  1  0.41510844  0.78773901  0.08247404  1
  Te  Te5  1  0.41510844  0.21226099  0.41752596  1
  Te  Te6  1  0.08489156  0.21226099  0.58247404  1
  Te  Te7  1  0.08489156  0.78773901  0.91752596  1
  Te  Te8  1  0.58489156  0.21226099  0.91752596  1
  Te  Te9  1  0.58489156  0.78773901  0.58247404  1
  Te  Te10  1  0.91510844  0.78773901  0.41752596  1
  Te  Te11  1  0.91510844  0.21226099  0.08247404  1
  Te  Te12  1  0.54462141  0.26229455  0.06765134  1
  Te  Te13  1  0.54462141  0.73770545  0.43234866  1
  Te  Te14  1  0.95537859  0.73770545  0.56765134  1
  Te  Te15  1  0.95537859  0.26229455  0.93234866  1
  Te  Te16  1  0.45537859  0.73770545  0.93234866  1
  Te  Te17  1  0.45537859  0.26229455  0.56765134  1
  Te  Te18  1  0.04462141  0.26229455  0.43234866  1
  Te  Te19  1  0.04462141  0.73770545  0.06765134  1
  Te  Te20  1  0.41552774  0.05525299  0.13654767  1
  Te  Te21  1  0.41552774  0.94474701  0.36345233  1
  Te  Te22  1  0.08447226  0.94474701  0.63654767  1
  Te  Te23  1  0.08447226  0.05525299  0.86345233  1
  Te  Te24  1  0.58447226  0.94474701  0.86345233  1
  Te  Te25  1  0.58447226  0.05525299  0.63654767  1
  Te  Te26  1  0.91552774  0.05525299  0.36345233  1
  Te  Te27  1  0.91552774  0.94474701  0.13654767  1
  W  W28  1  0.23879025  0.50000000  0.75000000  1
  W  W29  1  0.26120975  0.50000000  0.25000000  1
  W  W30  1  0.76120975  0.50000000  0.25000000  1
  W  W31  1  0.73879025  0.50000000  0.75000000  1
  Br  Br32  1  0.24820204  0.44233925  0.84128423  1
  Br  Br33  1  0.24820204  0.55766075  0.65871577  1
  Br  Br34  1  0.25179796  0.55766075  0.34128423  1
  Br  Br35  1  0.25179796  0.44233925  0.15871577  1
  Br  Br36  1  0.75179796  0.55766075  0.15871577  1
  Br  Br37  1  0.75179796  0.44233925  0.34128423  1
  Br  Br38  1  0.74820204  0.44233925  0.65871577  1
  Br  Br39  1  0.74820204  0.55766075  0.84128423  1
  Br  Br40  1  0.24480595  0.21217985  0.73182396  1
  Br  Br41  1  0.24480595  0.78782015  0.76817604  1
  Br  Br42  1  0.25519405  0.78782015  0.23182396  1
  Br  Br43  1  0.25519405  0.21217985  0.26817604  1
  Br  Br44  1  0.75519405  0.78782015  0.26817604  1
  Br  Br45  1  0.75519405  0.21217985  0.23182396  1
  Br  Br46  1  0.74480595  0.21217985  0.76817604  1
  Br  Br47  1  0.74480595  0.78782015  0.73182396  1
  Br  Br48  1  0.25000000  0.48509613  -0.00000000  1
  Br  Br49  1  0.25000000  0.51490387  0.50000000  1
  Br  Br50  1  0.75000000  0.51490387  -0.00000000  1
  Br  Br51  1  0.75000000  0.48509613  0.50000000  1
  O  O52  1  0.99329413  0.50000000  0.75000000  1
  O  O53  1  0.50670587  0.50000000  0.25000000  1
  O  O54  1  0.00670587  0.50000000  0.25000000  1
  O  O55  1  0.49329413  0.50000000  0.75000000  1
