# generated using pymatgen
data_Na3H4Au(SO2)4
_symmetry_space_group_name_H-M   'P 1'
_cell_length_a   5.51880117
_cell_length_b   11.61949364
_cell_length_c   18.41358110
_cell_angle_alpha   90.00000000
_cell_angle_beta   97.95315830
_cell_angle_gamma   90.00000000
_symmetry_Int_Tables_number   1
_chemical_formula_structural   Na3H4Au(SO2)4
_chemical_formula_sum   'Na12 H16 Au4 S16 O32'
_cell_volume   1169.42597573
_cell_formula_units_Z   4
loop_
 _symmetry_equiv_pos_site_id
 _symmetry_equiv_pos_as_xyz
  1  'x, y, z'
loop_
 _atom_site_type_symbol
 _atom_site_label
 _atom_site_symmetry_multiplicity
 _atom_site_fract_x
 _atom_site_fract_y
 _atom_site_fract_z
 _atom_site_occupancy
  Na  Na0  1  0.35042699  0.17587027  0.71732709  1
  Na  Na1  1  0.64957301  0.67587027  0.78267291  1
  Na  Na2  1  0.64957301  0.82412973  0.28267291  1
  Na  Na3  1  0.35042699  0.32412973  0.21732709  1
  Na  Na4  1  0.68409506  0.41135095  0.87569575  1
  Na  Na5  1  0.31590494  0.91135095  0.62430425  1
  Na  Na6  1  0.31590494  0.58864905  0.12430425  1
  Na  Na7  1  0.68409506  0.08864905  0.37569575  1
  Na  Na8  1  0.24088029  0.59913151  0.91146555  1
  Na  Na9  1  0.75911971  0.09913151  0.58853445  1
  Na  Na10  1  0.75911971  0.40086849  0.08853445  1
  Na  Na11  1  0.24088029  0.90086849  0.41146555  1
  H  H12  1  0.47388605  0.19557006  0.87063965  1
  H  H13  1  0.52611395  0.69557006  0.62936035  1
  H  H14  1  0.52611395  0.80442994  0.12936035  1
  H  H15  1  0.47388605  0.30442994  0.37063965  1
  H  H16  1  0.71968125  0.17054028  0.84085720  1
  H  H17  1  0.28031875  0.67054028  0.65914280  1
  H  H18  1  0.28031875  0.82945972  0.15914280  1
  H  H19  1  0.71968125  0.32945972  0.34085720  1
  H  H20  1  0.19055632  0.79408069  0.80285665  1
  H  H21  1  0.80944368  0.29408069  0.69714335  1
  H  H22  1  0.80944368  0.20591931  0.19714335  1
  H  H23  1  0.19055632  0.70591931  0.30285665  1
  H  H24  1  0.37696966  0.81842551  0.87374156  1
  H  H25  1  0.62303034  0.31842551  0.62625844  1
  H  H26  1  0.62303034  0.18157449  0.12625844  1
  H  H27  1  0.37696966  0.68157449  0.37374156  1
  Au  Au28  1  0.15182470  0.43045370  0.57377657  1
  Au  Au29  1  0.84817530  0.93045370  0.92622343  1
  Au  Au30  1  0.84817530  0.56954630  0.42622343  1
  Au  Au31  1  0.15182470  0.06954630  0.07377657  1
  S  S32  1  0.98093002  0.54061047  0.65782607  1
  S  S33  1  0.01906998  0.04061047  0.84217393  1
  S  S34  1  0.01906998  0.45938953  0.34217393  1
  S  S35  1  0.98093002  0.95938953  0.15782607  1
  S  S36  1  0.34802900  0.32462780  0.49385697  1
  S  S37  1  0.65197100  0.82462780  0.00614303  1
  S  S38  1  0.65197100  0.67537220  0.50614303  1
  S  S39  1  0.34802900  0.17537220  0.99385697  1
  S  S40  1  0.12114311  0.46548414  0.75865569  1
  S  S41  1  0.87885689  0.96548414  0.74134431  1
  S  S42  1  0.87885689  0.53451586  0.24134431  1
  S  S43  1  0.12114311  0.03451586  0.25865569  1
  S  S44  1  0.21892283  0.15697860  0.50124612  1
  S  S45  1  0.78107717  0.65697860  0.99875388  1
  S  S46  1  0.78107717  0.84302140  0.49875388  1
  S  S47  1  0.21892283  0.34302140  0.00124612  1
  O  O48  1  0.96470281  0.51729161  0.81004700  1
  O  O49  1  0.03529719  0.01729161  0.68995300  1
  O  O50  1  0.03529719  0.48270839  0.18995300  1
  O  O51  1  0.96470281  0.98270839  0.31004700  1
  O  O52  1  0.08698304  0.33946257  0.75230599  1
  O  O53  1  0.91301696  0.83946257  0.74769401  1
  O  O54  1  0.91301696  0.66053743  0.24769401  1
  O  O55  1  0.08698304  0.16053743  0.25230599  1
  O  O56  1  0.38032428  0.49765110  0.78010941  1
  O  O57  1  0.61967572  0.99765110  0.71989059  1
  O  O58  1  0.61967572  0.50234890  0.21989059  1
  O  O59  1  0.38032428  0.00234890  0.28010941  1
  O  O60  1  0.94958200  0.15284944  0.48376993  1
  O  O61  1  0.05041800  0.65284944  0.01623007  1
  O  O62  1  0.05041800  0.84715056  0.51623007  1
  O  O63  1  0.94958200  0.34715056  0.98376993  1
  O  O64  1  0.34250423  0.09358782  0.44710712  1
  O  O65  1  0.65749577  0.59358782  0.05289288  1
  O  O66  1  0.65749577  0.90641218  0.55289288  1
  O  O67  1  0.34250423  0.40641218  0.94710712  1
  O  O68  1  0.29820358  0.11511413  0.57705665  1
  O  O69  1  0.70179642  0.61511413  0.92294335  1
  O  O70  1  0.70179642  0.88488587  0.42294335  1
  O  O71  1  0.29820358  0.38488587  0.07705665  1
  O  O72  1  0.57556733  0.22269566  0.83440511  1
  O  O73  1  0.42443267  0.72269566  0.66559489  1
  O  O74  1  0.42443267  0.77730434  0.16559489  1
  O  O75  1  0.57556733  0.27730434  0.33440511  1
  O  O76  1  0.32279654  0.75868420  0.83752063  1
  O  O77  1  0.67720346  0.25868420  0.66247937  1
  O  O78  1  0.67720346  0.24131580  0.16247937  1
  O  O79  1  0.32279654  0.74131580  0.33752063  1
