# generated using pymatgen
data_AlSnPH18(C3Cl2)2
_symmetry_space_group_name_H-M   'P 1'
_cell_length_a   9.19312864
_cell_length_b   11.35710095
_cell_length_c   18.88850939
_cell_angle_alpha   90.00000000
_cell_angle_beta   90.00000000
_cell_angle_gamma   90.00000000
_symmetry_Int_Tables_number   1
_chemical_formula_structural   AlSnPH18(C3Cl2)2
_chemical_formula_sum   'Al4 Sn4 P4 H72 C24 Cl16'
_cell_volume   1972.09807775
_cell_formula_units_Z   4
loop_
 _symmetry_equiv_pos_site_id
 _symmetry_equiv_pos_as_xyz
  1  'x, y, z'
loop_
 _atom_site_type_symbol
 _atom_site_label
 _atom_site_symmetry_multiplicity
 _atom_site_fract_x
 _atom_site_fract_y
 _atom_site_fract_z
 _atom_site_occupancy
  Al  Al0  1  0.31062961  0.75000000  0.87537111  1
  Al  Al1  1  0.18937039  0.75000000  0.37537111  1
  Al  Al2  1  0.68937039  0.25000000  0.12462889  1
  Al  Al3  1  0.81062961  0.25000000  0.62462889  1
  Sn  Sn4  1  0.82068377  0.75000000  0.69742508  1
  Sn  Sn5  1  0.67931623  0.75000000  0.19742508  1
  Sn  Sn6  1  0.17931623  0.25000000  0.30257492  1
  Sn  Sn7  1  0.32068377  0.25000000  0.80257492  1
  P  P8  1  0.64083372  0.75000000  0.58756150  1
  P  P9  1  0.85916628  0.75000000  0.08756150  1
  P  P10  1  0.35916628  0.25000000  0.41243850  1
  P  P11  1  0.14083372  0.25000000  0.91243850  1
  H  H12  1  0.45357989  0.87137549  0.53551919  1
  H  H13  1  0.04642011  0.62862451  0.03551919  1
  H  H14  1  0.54642011  0.37137549  0.46448081  1
  H  H15  1  0.95357989  0.12862451  0.96448081  1
  H  H16  1  0.54642011  0.12862451  0.46448081  1
  H  H17  1  0.95357989  0.37137549  0.96448081  1
  H  H18  1  0.45357989  0.62862451  0.53551919  1
  H  H19  1  0.04642011  0.87137549  0.03551919  1
  H  H20  1  0.45034003  0.87744874  0.63019547  1
  H  H21  1  0.04965997  0.62255126  0.13019547  1
  H  H22  1  0.54965997  0.37744874  0.36980453  1
  H  H23  1  0.95034003  0.12255126  0.86980453  1
  H  H24  1  0.54965997  0.12255126  0.36980453  1
  H  H25  1  0.95034003  0.37744874  0.86980453  1
  H  H26  1  0.45034003  0.62255126  0.63019547  1
  H  H27  1  0.04965997  0.87744874  0.13019547  1
  H  H28  1  0.58552736  0.95833951  0.58215580  1
  H  H29  1  0.91447264  0.54166049  0.08215580  1
  H  H30  1  0.41447264  0.45833951  0.41784420  1
  H  H31  1  0.08552736  0.04166049  0.91784420  1
  H  H32  1  0.41447264  0.04166049  0.41784420  1
  H  H33  1  0.08552736  0.45833951  0.91784420  1
  H  H34  1  0.58552736  0.54166049  0.58215580  1
  H  H35  1  0.91447264  0.95833951  0.08215580  1
  H  H36  1  0.66501068  0.75000000  0.46055097  1
  H  H37  1  0.83498932  0.75000000  0.96055097  1
  H  H38  1  0.33498932  0.25000000  0.53944903  1
  H  H39  1  0.16501068  0.25000000  0.03944903  1
  H  H40  1  0.81083131  0.82868466  0.50261498  1
  H  H41  1  0.68916869  0.67131534  0.00261498  1
  H  H42  1  0.18916869  0.32868466  0.49738502  1
  H  H43  1  0.31083131  0.17131534  0.99738502  1
  H  H44  1  0.18916869  0.17131534  0.49738502  1
  H  H45  1  0.31083131  0.32868466  0.99738502  1
  H  H46  1  0.81083131  0.67131534  0.50261498  1
  H  H47  1  0.68916869  0.82868466  0.00261498  1
  H  H48  1  0.87292185  0.96190032  0.75880096  1
  H  H49  1  0.62707815  0.53809968  0.25880096  1
  H  H50  1  0.12707815  0.46190032  0.24119904  1
  H  H51  1  0.37292185  0.03809968  0.74119904  1
  H  H52  1  0.12707815  0.03809968  0.24119904  1
  H  H53  1  0.37292185  0.46190032  0.74119904  1
  H  H54  1  0.87292185  0.53809968  0.75880096  1
  H  H55  1  0.62707815  0.96190032  0.25880096  1
  H  H56  1  0.69161121  0.96187381  0.72504938  1
  H  H57  1  0.80838879  0.53812619  0.22504938  1
  H  H58  1  0.30838879  0.46187381  0.27495062  1
  H  H59  1  0.19161121  0.03812619  0.77495062  1
  H  H60  1  0.30838879  0.03812619  0.27495062  1
  H  H61  1  0.19161121  0.46187381  0.77495062  1
  H  H62  1  0.69161121  0.53812619  0.72504938  1
  H  H63  1  0.80838879  0.96187381  0.22504938  1
  H  H64  1  0.73043989  0.88701272  0.80609408  1
  H  H65  1  0.76956011  0.61298728  0.30609408  1
  H  H66  1  0.26956011  0.38701272  0.19390592  1
  H  H67  1  0.23043989  0.11298728  0.69390592  1
  H  H68  1  0.26956011  0.11298728  0.19390592  1
  H  H69  1  0.23043989  0.38701272  0.69390592  1
  H  H70  1  0.73043989  0.61298728  0.80609408  1
  H  H71  1  0.76956011  0.88701272  0.30609408  1
  H  H72  1  0.11300921  0.75000000  0.68726341  1
  H  H73  1  0.38699079  0.75000000  0.18726341  1
  H  H74  1  0.88699079  0.25000000  0.31273659  1
  H  H75  1  0.61300921  0.25000000  0.81273659  1
  H  H76  1  0.03987456  0.67078513  0.61327526  1
  H  H77  1  0.46012544  0.82921487  0.11327526  1
  H  H78  1  0.96012544  0.17078513  0.38672474  1
  H  H79  1  0.53987456  0.32921487  0.88672474  1
  H  H80  1  0.96012544  0.32921487  0.38672474  1
  H  H81  1  0.53987456  0.17078513  0.88672474  1
  H  H82  1  0.03987456  0.82921487  0.61327526  1
  H  H83  1  0.46012544  0.67078513  0.11327526  1
  C  C84  1  0.52116680  0.87697124  0.58353147  1
  C  C85  1  0.97883320  0.62302876  0.08353147  1
  C  C86  1  0.47883320  0.37697124  0.41646853  1
  C  C87  1  0.02116680  0.12302876  0.91646853  1
  C  C88  1  0.47883320  0.12302876  0.41646853  1
  C  C89  1  0.02116680  0.37697124  0.91646853  1
  C  C90  1  0.52116680  0.62302876  0.58353147  1
  C  C91  1  0.97883320  0.87697124  0.08353147  1
  C  C92  1  0.74195805  0.75000000  0.50533706  1
  C  C93  1  0.75804195  0.75000000  0.00533706  1
  C  C94  1  0.25804195  0.25000000  0.49466294  1
  C  C95  1  0.24195805  0.25000000  0.99466294  1
  C  C96  1  0.77296911  0.91017090  0.75377350  1
  C  C97  1  0.72703089  0.58982910  0.25377350  1
  C  C98  1  0.22703089  0.41017090  0.24622650  1
  C  C99  1  0.27296911  0.08982910  0.74622650  1
  C  C100  1  0.22703089  0.08982910  0.24622650  1
  C  C101  1  0.27296911  0.41017090  0.74622650  1
  C  C102  1  0.77296911  0.58982910  0.75377350  1
  C  C103  1  0.72703089  0.91017090  0.25377350  1
  C  C104  1  0.02915789  0.75000000  0.64599655  1
  C  C105  1  0.47084211  0.75000000  0.14599655  1
  C  C106  1  0.97084211  0.25000000  0.35400345  1
  C  C107  1  0.52915789  0.25000000  0.85400345  1
  Cl  Cl108  1  0.41113899  0.75000000  0.77172809  1
  Cl  Cl109  1  0.08886101  0.75000000  0.27172809  1
  Cl  Cl110  1  0.58886101  0.25000000  0.22827191  1
  Cl  Cl111  1  0.91113899  0.25000000  0.72827191  1
  Cl  Cl112  1  0.07547044  0.75000000  0.86245115  1
  Cl  Cl113  1  0.42452956  0.75000000  0.36245115  1
  Cl  Cl114  1  0.92452956  0.25000000  0.13754885  1
  Cl  Cl115  1  0.57547044  0.25000000  0.63754885  1
  Cl  Cl116  1  0.37353191  0.90640880  0.93289997  1
  Cl  Cl117  1  0.12646809  0.59359120  0.43289997  1
  Cl  Cl118  1  0.62646809  0.40640880  0.06710003  1
  Cl  Cl119  1  0.87353191  0.09359120  0.56710003  1
  Cl  Cl120  1  0.62646809  0.09359120  0.06710003  1
  Cl  Cl121  1  0.87353191  0.40640880  0.56710003  1
  Cl  Cl122  1  0.37353191  0.59359120  0.93289997  1
  Cl  Cl123  1  0.12646809  0.90640880  0.43289997  1
