# generated using pymatgen
data_Ta13Co40Si31
_symmetry_space_group_name_H-M   'P 1'
_cell_length_a   7.86891333
_cell_length_b   17.15083495
_cell_length_c   17.15123079
_cell_angle_alpha   119.99923357
_cell_angle_beta   90.00000000
_cell_angle_gamma   90.00000000
_symmetry_Int_Tables_number   1
_chemical_formula_structural   Ta13Co40Si31
_chemical_formula_sum   'Ta26 Co80 Si62'
_cell_volume   2004.60729354
_cell_formula_units_Z   2
loop_
 _symmetry_equiv_pos_site_id
 _symmetry_equiv_pos_as_xyz
  1  'x, y, z'
loop_
 _atom_site_type_symbol
 _atom_site_label
 _atom_site_symmetry_multiplicity
 _atom_site_fract_x
 _atom_site_fract_y
 _atom_site_fract_z
 _atom_site_occupancy
  Ta  Ta0  1  0.29731392  0.27258333  1.00000000  1
  Ta  Ta1  1  0.29706042  0.72742121  0.72742109  1
  Ta  Ta2  1  0.29706042  0.00000011  0.27257891  1
  Ta  Ta3  1  0.29697903  0.72738629  0.00000000  1
  Ta  Ta4  1  0.29722154  0.27256096  0.27257620  1
  Ta  Ta5  1  0.29722154  -0.00001524  0.72742380  1
  Ta  Ta6  1  0.70302097  0.72738629  0.00000000  1
  Ta  Ta7  1  0.70277846  0.27256096  0.27257620  1
  Ta  Ta8  1  0.70277846  -0.00001524  0.72742380  1
  Ta  Ta9  1  0.70268608  0.27258333  1.00000000  1
  Ta  Ta10  1  0.70293958  0.72742121  0.72742109  1
  Ta  Ta11  1  0.70293958  0.00000011  0.27257891  1
  Ta  Ta12  1  0.50000000  0.57682585  0.15336356  1
  Ta  Ta13  1  0.50000000  0.57672723  0.42338184  1
  Ta  Ta14  1  0.50000000  0.84659665  0.42321536  1
  Ta  Ta15  1  0.50000000  0.42346228  0.84663644  1
  Ta  Ta16  1  0.50000000  0.15334539  0.57661816  1
  Ta  Ta17  1  0.50000000  0.42338129  0.57678464  1
  Ta  Ta18  1  -0.00000000  0.24382083  0.48763799  1
  Ta  Ta19  1  -0.00000000  0.24390792  0.75612165  1
  Ta  Ta20  1  -0.00000000  0.51242241  0.75623091  1
  Ta  Ta21  1  -0.00000000  0.75618285  0.51236201  1
  Ta  Ta22  1  -0.00000000  0.48778628  0.24387835  1
  Ta  Ta23  1  -0.00000000  0.75619150  0.24376909  1
  Ta  Ta24  1  0.19983896  0.99993055  0.00000000  1
  Ta  Ta25  1  0.80016104  0.99993055  0.00000000  1
  Co  Co26  1  0.22951355  0.10248436  0.44491583  1
  Co  Co27  1  0.22954887  0.34248348  0.89749625  1
  Co  Co28  1  0.22949750  0.55506522  0.65760922  1
  Co  Co29  1  0.22951355  0.65756853  0.55508417  1
  Co  Co30  1  0.22954887  0.44498723  0.10250375  1
  Co  Co31  1  0.22949750  0.89745600  0.34239078  1
  Co  Co32  1  0.22948271  0.89748725  0.55500801  1
  Co  Co33  1  0.22953073  0.65764780  0.10253305  1
  Co  Co34  1  0.22953314  0.44497516  0.34247170  1
  Co  Co35  1  0.22948271  0.34247924  0.44499199  1
  Co  Co36  1  0.22953073  0.55511475  0.89746695  1
  Co  Co37  1  0.22953314  0.10250346  0.65752830  1
  Co  Co38  1  0.77051729  0.89748725  0.55500801  1
  Co  Co39  1  0.77046927  0.65764780  0.10253305  1
  Co  Co40  1  0.77046686  0.44497516  0.34247170  1
  Co  Co41  1  0.77051729  0.34247924  0.44499199  1
  Co  Co42  1  0.77046927  0.55511475  0.89746695  1
  Co  Co43  1  0.77046686  0.10250346  0.65752830  1
  Co  Co44  1  0.77048645  0.10248436  0.44491583  1
  Co  Co45  1  0.77045113  0.34248348  0.89749625  1
  Co  Co46  1  0.77050250  0.55506522  0.65760922  1
  Co  Co47  1  0.77048645  0.65756853  0.55508417  1
  Co  Co48  1  0.77045113  0.44498723  0.10250375  1
  Co  Co49  1  0.77050250  0.89745600  0.34239078  1
  Co  Co50  1  -0.00000000  0.08554476  0.32127099  1
  Co  Co51  1  -0.00000000  0.23562940  0.91433792  1
  Co  Co52  1  -0.00000000  0.67865613  0.76429687  1
  Co  Co53  1  -0.00000000  0.76427377  0.67872901  1
  Co  Co54  1  -0.00000000  0.32129148  0.08566208  1
  Co  Co55  1  -0.00000000  0.91435926  0.23570313  1
  Co  Co56  1  -0.00000000  0.91431562  0.67866888  1
  Co  Co57  1  -0.00000000  0.76422219  0.08555161  1
  Co  Co58  1  -0.00000000  0.32125744  0.23562385  1
  Co  Co59  1  -0.00000000  0.23564674  0.32133112  1
  Co  Co60  1  -0.00000000  0.67867058  0.91444839  1
  Co  Co61  1  -0.00000000  0.08563358  0.76437615  1
  Co  Co62  1  0.24290081  0.08886324  0.17789304  1
  Co  Co63  1  0.24294432  0.08886991  0.91102652  1
  Co  Co64  1  0.24293783  0.82205427  0.91105778  1
  Co  Co65  1  0.24290081  0.91097019  0.82210696  1
  Co  Co66  1  0.24294432  0.17784339  0.08897348  1
  Co  Co67  1  0.24293783  0.91099649  0.08894222  1
  Co  Co68  1  0.75709919  0.91097019  0.82210696  1
  Co  Co69  1  0.75706217  0.91099649  0.08894222  1
  Co  Co70  1  0.75705568  0.17784339  0.08897348  1
  Co  Co71  1  0.75709919  0.08886324  0.17789304  1
  Co  Co72  1  0.75706217  0.82205427  0.91105778  1
  Co  Co73  1  0.75705568  0.08886991  0.91102652  1
  Co  Co74  1  0.34214016  0.26213905  0.52430828  1
  Co  Co75  1  0.34215532  0.26216266  0.73782504  1
  Co  Co76  1  0.34223899  0.47573032  0.73787511  1
  Co  Co77  1  0.34214016  0.73783077  0.47569172  1
  Co  Co78  1  0.34215532  0.52433762  0.26217496  1
  Co  Co79  1  0.34223899  0.73785521  0.26212489  1
  Co  Co80  1  0.65785984  0.73783077  0.47569172  1
  Co  Co81  1  0.65776101  0.73785521  0.26212489  1
  Co  Co82  1  0.65784468  0.52433762  0.26217496  1
  Co  Co83  1  0.65785984  0.26213905  0.52430828  1
  Co  Co84  1  0.65776101  0.47573032  0.73787511  1
  Co  Co85  1  0.65784468  0.26216266  0.73782504  1
  Co  Co86  1  0.50000000  0.14172477  0.28345749  1
  Co  Co87  1  0.50000000  0.14181454  0.85820500  1
  Co  Co88  1  0.50000000  0.71659867  0.85831619  1
  Co  Co89  1  0.50000000  0.85826728  0.71654251  1
  Co  Co90  1  0.50000000  0.28360954  0.14179500  1
  Co  Co91  1  0.50000000  0.85828248  0.14168381  1
  Co  Co92  1  -0.00000000  0.54392338  0.08774036  1
  Co  Co93  1  -0.00000000  0.54390788  0.45616072  1
  Co  Co94  1  -0.00000000  0.91224220  0.45611254  1
  Co  Co95  1  -0.00000000  0.45618302  0.91225964  1
  Co  Co96  1  -0.00000000  0.08774716  0.54383928  1
  Co  Co97  1  -0.00000000  0.45612966  0.54388746  1
  Co  Co98  1  0.50000000  0.41772305  0.00000000  1
  Co  Co99  1  0.50000000  0.58237949  0.58241046  1
  Co  Co100  1  0.50000000  0.99996904  0.41758954  1
  Co  Co101  1  0.50000000  0.58240432  1.00000000  1
  Co  Co102  1  0.50000000  0.41764002  0.41769047  1
  Co  Co103  1  0.50000000  -0.00005045  0.58230953  1
  Co  Co104  1  -0.00000000  0.33335439  0.66668186  1
  Co  Co105  1  -0.00000000  0.66667253  0.33331814  1
  Si  Si106  1  0.50000000  0.12911989  0.41100829  1
  Si  Si107  1  0.50000000  0.28166912  0.87078864  1
  Si  Si108  1  0.50000000  0.58893306  0.71811427  1
  Si  Si109  1  0.50000000  0.71811160  0.58899171  1
  Si  Si110  1  0.50000000  0.41088048  0.12921136  1
  Si  Si111  1  0.50000000  0.87081879  0.28188573  1
  Si  Si112  1  0.50000000  0.87083533  0.58900605  1
  Si  Si113  1  0.50000000  0.71808081  0.12914330  1
  Si  Si114  1  0.50000000  0.41090741  0.28170881  1
  Si  Si115  1  0.50000000  0.28182929  0.41099395  1
  Si  Si116  1  0.50000000  0.58893751  0.87085670  1
  Si  Si117  1  0.50000000  0.12919861  0.71829119  1
  Si  Si118  1  0.23463820  0.17862649  0.35729211  1
  Si  Si119  1  0.23496054  0.17865895  0.82135625  1
  Si  Si120  1  0.23444599  0.64273554  0.82139534  1
  Si  Si121  1  0.23463820  0.82133438  0.64270789  1
  Si  Si122  1  0.23496054  0.35730270  0.17864375  1
  Si  Si123  1  0.23444599  0.82134020  0.17860466  1
  Si  Si124  1  0.76536180  0.82133438  0.64270789  1
  Si  Si125  1  0.76555401  0.82134020  0.17860466  1
  Si  Si126  1  0.76503946  0.35730270  0.17864375  1
  Si  Si127  1  0.76536180  0.17862649  0.35729211  1
  Si  Si128  1  0.76555401  0.64273554  0.82139534  1
  Si  Si129  1  0.76503946  0.17865895  0.82135625  1
  Si  Si130  1  0.18018108  0.60459228  0.20907177  1
  Si  Si131  1  0.18006464  0.60452369  0.39548609  1
  Si  Si132  1  0.18010023  0.79099533  0.39545342  1
  Si  Si133  1  0.18018108  0.39552051  0.79092823  1
  Si  Si134  1  0.18006464  0.20903759  0.60451391  1
  Si  Si135  1  0.18010023  0.39554191  0.60454658  1
  Si  Si136  1  0.81981892  0.39552051  0.79092823  1
  Si  Si137  1  0.81989977  0.39554191  0.60454658  1
  Si  Si138  1  0.81993536  0.20903759  0.60451391  1
  Si  Si139  1  0.81981892  0.60459228  0.20907177  1
  Si  Si140  1  0.81989977  0.79099533  0.39545342  1
  Si  Si141  1  0.81993536  0.60452369  0.39548609  1
  Si  Si142  1  0.50000000  0.14500808  1.00000000  1
  Si  Si143  1  0.50000000  0.85509310  0.85510857  1
  Si  Si144  1  0.50000000  0.99998453  0.14489143  1
  Si  Si145  1  0.50000000  0.85510853  0.00000000  1
  Si  Si146  1  0.50000000  0.14492185  0.14499999  1
  Si  Si147  1  0.50000000  -0.00007814  0.85500001  1
  Si  Si148  1  -0.00000000  0.16143666  1.00000000  1
  Si  Si149  1  -0.00000000  0.83841012  0.83847555  1
  Si  Si150  1  -0.00000000  0.99993457  0.16152445  1
  Si  Si151  1  -0.00000000  0.83830611  0.00000000  1
  Si  Si152  1  -0.00000000  0.16136285  0.16151158  1
  Si  Si153  1  -0.00000000  0.99985127  0.83848842  1
  Si  Si154  1  -0.00000000  0.38790746  1.00000000  1
  Si  Si155  1  -0.00000000  0.61220111  0.61228432  1
  Si  Si156  1  -0.00000000  0.99991679  0.38771568  1
  Si  Si157  1  -0.00000000  0.61237671  0.00000000  1
  Si  Si158  1  -0.00000000  0.38786347  0.38796702  1
  Si  Si159  1  -0.00000000  -0.00010355  0.61203298  1
  Si  Si160  1  0.26257734  0.50014939  0.00000000  1
  Si  Si161  1  0.26249775  0.50003660  0.50008412  1
  Si  Si162  1  0.26249775  0.99995249  0.49991588  1
  Si  Si163  1  0.73742266  0.50014939  0.00000000  1
  Si  Si164  1  0.73750225  0.50003660  0.50008412  1
  Si  Si165  1  0.73750225  0.99995249  0.49991588  1
  Si  Si166  1  0.50000000  0.33337644  0.66669232  1
  Si  Si167  1  0.50000000  0.66668411  0.33330768  1
