# generated using pymatgen
data_Co3P4H48(NO15)2
_symmetry_space_group_name_H-M   'P 1'
_cell_length_a   6.19672711
_cell_length_b   7.04126285
_cell_length_c   17.78336556
_cell_angle_alpha   101.41846674
_cell_angle_beta   90.87873825
_cell_angle_gamma   90.00000000
_symmetry_Int_Tables_number   1
_chemical_formula_structural   Co3P4H48(NO15)2
_chemical_formula_sum   'Co3 P4 H48 N2 O30'
_cell_volume   760.48684437
_cell_formula_units_Z   1
loop_
 _symmetry_equiv_pos_site_id
 _symmetry_equiv_pos_as_xyz
  1  'x, y, z'
loop_
 _atom_site_type_symbol
 _atom_site_label
 _atom_site_symmetry_multiplicity
 _atom_site_fract_x
 _atom_site_fract_y
 _atom_site_fract_z
 _atom_site_occupancy
  Co  Co0  1  0.75073823  0.16652967  0.33305934  1
  Co  Co1  1  0.24926177  0.83347033  0.66694066  1
  Co  Co2  1  -0.00000000  0.50000000  0.00000000  1
  P  P3  1  0.34785149  0.04893871  0.09787743  1
  P  P4  1  0.65214851  0.95106129  0.90212257  1
  P  P5  1  0.37017374  0.70439325  0.40878649  1
  P  P6  1  0.62982626  0.29560675  0.59121351  1
  H  H7  1  0.32163881  0.00877763  0.01755525  1
  H  H8  1  0.67836119  0.99122237  0.98244475  1
  H  H9  1  0.57992431  0.72032462  0.44064923  1
  H  H10  1  0.42007569  0.27967538  0.55935077  1
  H  H11  1  0.36975834  0.31895540  0.40535173  1
  H  H12  1  0.36975834  0.08639632  0.40535173  1
  H  H13  1  0.63024166  0.68104460  0.59464827  1
  H  H14  1  0.63024166  0.91360368  0.59464827  1
  H  H15  1  0.79734139  0.42802413  0.46644882  1
  H  H16  1  0.79734139  0.03842470  0.46644882  1
  H  H17  1  0.20265861  0.57197587  0.53355118  1
  H  H18  1  0.20265861  0.96157530  0.53355118  1
  H  H19  1  0.99466549  0.46136639  0.41495700  1
  H  H20  1  0.99466549  0.95359061  0.41495700  1
  H  H21  1  0.00533451  0.53863361  0.58504300  1
  H  H22  1  0.00533451  0.04640939  0.58504300  1
  H  H23  1  0.19190806  0.15509772  0.31019545  1
  H  H24  1  0.80809194  0.84490228  0.68980455  1
  H  H25  1  0.07920915  0.11256591  0.22513183  1
  H  H26  1  0.92079085  0.88743409  0.77486817  1
  H  H27  1  0.55708723  0.81984281  0.28485133  1
  H  H28  1  0.55708723  0.46500852  0.28485133  1
  H  H29  1  0.44291277  0.18015719  0.71514867  1
  H  H30  1  0.44291277  0.53499148  0.71514867  1
  H  H31  1  0.58270604  0.90261701  0.20806694  1
  H  H32  1  0.58270604  0.30544993  0.20806694  1
  H  H33  1  0.41729396  0.09738299  0.79193306  1
  H  H34  1  0.41729396  0.69455007  0.79193306  1
  H  H35  1  0.03980755  0.77409621  0.91059417  1
  H  H36  1  0.03980755  0.13649796  0.91059417  1
  H  H37  1  0.96019245  0.22590379  0.08940583  1
  H  H38  1  0.96019245  0.86350204  0.08940583  1
  H  H39  1  0.28358739  0.70569980  0.91759890  1
  H  H40  1  0.28358739  0.21189910  0.91759890  1
  H  H41  1  0.71641261  0.29430020  0.08240110  1
  H  H42  1  0.71641261  0.78810090  0.08240110  1
  H  H43  1  0.34522932  0.66219475  0.09245183  1
  H  H44  1  0.34522932  0.43025708  0.09245183  1
  H  H45  1  0.65477068  0.33780525  0.90754817  1
  H  H46  1  0.65477068  0.56974292  0.90754817  1
  H  H47  1  0.15323801  0.63452517  0.26905033  1
  H  H48  1  0.84676199  0.36547483  0.73094967  1
  H  H49  1  0.91780628  0.50351770  0.24356069  1
  H  H50  1  0.91780628  0.74004299  0.24356069  1
  H  H51  1  0.08219372  0.49648230  0.75643931  1
  H  H52  1  0.08219372  0.25995701  0.75643931  1
  H  H53  1  0.06031816  0.58828225  0.17656450  1
  H  H54  1  0.93968184  0.41171775  0.82343550  1
  N  N55  1  0.01355995  0.61672471  0.23344943  1
  N  N56  1  0.98644005  0.38327529  0.76655057  1
  O  O57  1  0.47379482  0.87739463  0.11940721  1
  O  O58  1  0.47379482  0.24201258  0.11940721  1
  O  O59  1  0.52620518  0.12260537  0.88059279  1
  O  O60  1  0.52620518  0.75798742  0.88059279  1
  O  O61  1  0.11649993  0.06485545  0.12971089  1
  O  O62  1  0.88350007  0.93514455  0.87028911  1
  O  O63  1  0.39624200  0.66016187  0.32032374  1
  O  O64  1  0.60375800  0.33983813  0.67967626  1
  O  O65  1  0.25797177  0.90116429  0.43705404  1
  O  O66  1  0.25797177  0.53588975  0.43705404  1
  O  O67  1  0.74202823  0.09883571  0.56294596  1
  O  O68  1  0.74202823  0.46411025  0.56294596  1
  O  O69  1  0.41946462  0.18839146  0.37678292  1
  O  O70  1  0.58053538  0.81160854  0.62321708  1
  O  O71  1  0.84052522  0.41916171  0.41192318  1
  O  O72  1  0.84052522  0.99276147  0.41192318  1
  O  O73  1  0.15947478  0.58083829  0.58807682  1
  O  O74  1  0.15947478  0.00723853  0.58807682  1
  O  O75  1  0.05205564  0.14088043  0.28176086  1
  O  O76  1  0.94794436  0.85911957  0.71823914  1
  O  O77  1  0.65395206  0.90094727  0.25898878  1
  O  O78  1  0.65395206  0.35804152  0.25898878  1
  O  O79  1  0.34604794  0.09905273  0.74101122  1
  O  O80  1  0.34604794  0.64195848  0.74101122  1
  O  O81  1  0.13232700  0.67839200  0.93029646  1
  O  O82  1  0.13232700  0.25190446  0.93029646  1
  O  O83  1  0.86767300  0.32160800  0.06970354  1
  O  O84  1  0.86767300  0.74809554  0.06970354  1
  O  O85  1  0.25628829  0.54082050  0.08164100  1
  O  O86  1  0.74371171  0.45917950  0.91835900  1
