# generated using pymatgen
data_Mg(BH3)2
_symmetry_space_group_name_H-M   'P 1'
_cell_length_a   7.77987442
_cell_length_b   7.97689077
_cell_length_c   8.81460437
_cell_angle_alpha   87.82821158
_cell_angle_beta   86.22943769
_cell_angle_gamma   92.90074997
_symmetry_Int_Tables_number   1
_chemical_formula_structural   Mg(BH3)2
_chemical_formula_sum   'Mg4 B8 H24'
_cell_volume   544.67726262
_cell_formula_units_Z   4
loop_
 _symmetry_equiv_pos_site_id
 _symmetry_equiv_pos_as_xyz
  1  'x, y, z'
loop_
 _atom_site_type_symbol
 _atom_site_label
 _atom_site_symmetry_multiplicity
 _atom_site_fract_x
 _atom_site_fract_y
 _atom_site_fract_z
 _atom_site_occupancy
  Mg  Mg0  1  0.65003102  0.87028410  0.01742993  1
  Mg  Mg1  1  0.15657613  0.18602186  0.87244681  1
  Mg  Mg2  1  0.18021624  0.67447892  0.13888989  1
  Mg  Mg3  1  0.32513296  0.71852878  0.64261830  1
  B  B4  1  0.91106126  0.03656274  0.00602671  1
  B  B5  1  0.94413492  0.82242863  0.05189952  1
  B  B6  1  0.52727155  0.86912166  0.77117469  1
  B  B7  1  0.33505588  0.98010516  0.77652837  1
  B  B8  1  0.31703881  0.71000583  0.37334938  1
  B  B9  1  0.44460481  0.80165389  0.21545234  1
  B  B10  1  0.20045838  0.47013467  0.78105805  1
  B  B11  1  0.22728931  0.44399010  0.97872791  1
  H  H12  1  0.07027596  0.78808352  0.97035620  1
  H  H13  1  0.77123866  0.09919922  0.04002469  1
  H  H14  1  0.35809238  0.11736759  0.70831835  1
  H  H15  1  0.51783166  0.74459371  0.86198597  1
  H  H16  1  0.36628680  0.86511271  0.10977905  1
  H  H17  1  0.19601013  0.60504486  0.35557306  1
  H  H18  1  0.09115087  0.45725115  0.05898998  1
  H  H19  1  0.34498286  0.47876912  0.71150212  1
  H  H20  1  0.92875168  0.06525118  0.86511424  1
  H  H21  1  0.83749151  0.70780499  0.02570353  1
  H  H22  1  0.57936650  0.80936046  0.65036660  1
  H  H23  1  0.19982534  0.91599851  0.73006122  1
  H  H24  1  0.01209780  0.12355733  0.07373076  1
  H  H25  1  0.96597091  0.80191178  0.18986895  1
  H  H26  1  0.29834070  0.99665912  0.91366711  1
  H  H27  1  0.64728541  0.96613589  0.79676745  1
  H  H28  1  0.24746161  0.81954269  0.44824304  1
  H  H29  1  0.53139265  0.69086067  0.15851362  1
  H  H30  1  0.11907019  0.36397665  0.71021011  1
  H  H31  1  0.28482460  0.31293095  0.02995307  1
  H  H32  1  0.41461827  0.62650814  0.44620009  1
  H  H33  1  0.53872786  0.91682999  0.25406905  1
  H  H34  1  0.34101960  0.54731288  0.00733513  1
  H  H35  1  0.11901378  0.59662158  0.75806367  1
