# generated using pymatgen
data_LaMoI4O15
_symmetry_space_group_name_H-M   'P 1'
_cell_length_a   7.14393372
_cell_length_b   7.24361127
_cell_length_c   14.38034054
_cell_angle_alpha   90.00000000
_cell_angle_beta   90.00000000
_cell_angle_gamma   114.95408910
_symmetry_Int_Tables_number   1
_chemical_formula_structural   LaMoI4O15
_chemical_formula_sum   'La2 Mo2 I8 O30'
_cell_volume   674.68264541
_cell_formula_units_Z   2
loop_
 _symmetry_equiv_pos_site_id
 _symmetry_equiv_pos_as_xyz
  1  'x, y, z'
loop_
 _atom_site_type_symbol
 _atom_site_label
 _atom_site_symmetry_multiplicity
 _atom_site_fract_x
 _atom_site_fract_y
 _atom_site_fract_z
 _atom_site_occupancy
  La  La0  1  0.92756810  0.08676790  0.87436275  1
  La  La1  1  0.07243190  0.91323210  0.37436275  1
  Mo  Mo2  1  0.59262916  0.29446862  0.53712323  1
  Mo  Mo3  1  0.40737084  0.70553138  0.03712323  1
  I  I4  1  0.76436946  0.81157877  0.62518620  1
  I  I5  1  0.23563054  0.18842123  0.12518620  1
  I  I6  1  0.84365786  0.54772094  0.00254792  1
  I  I7  1  0.15634214  0.45227906  0.50254792  1
  I  I8  1  0.52726593  0.26625347  0.77729506  1
  I  I9  1  0.47273407  0.73374653  0.27729506  1
  I  I10  1  0.24371152  0.65024884  0.77917137  1
  I  I11  1  0.75628848  0.34975116  0.27917137  1
  O  O12  1  0.76513726  0.55324755  0.63082904  1
  O  O13  1  0.23486274  0.44675245  0.13082904  1
  O  O14  1  0.93118088  0.91887440  0.72477783  1
  O  O15  1  0.06881912  0.08112560  0.22477783  1
  O  O16  1  0.95439534  0.90977183  0.53255856  1
  O  O17  1  0.04560466  0.09022817  0.03255856  1
  O  O18  1  0.57311789  0.50455572  0.02729007  1
  O  O19  1  0.42688211  0.49544428  0.52729007  1
  O  O20  1  0.90484106  0.72632928  0.90530731  1
  O  O21  1  0.09515894  0.27367072  0.40530731  1
  O  O22  1  0.76531739  0.31287501  0.93602601  1
  O  O23  1  0.23468261  0.68712499  0.43602601  1
  O  O24  1  0.40788681  0.20887482  0.65959385  1
  O  O25  1  0.59211319  0.79112518  0.15959385  1
  O  O26  1  0.29240387  0.14990140  0.84540117  1
  O  O27  1  0.70759613  0.85009860  0.34540117  1
  O  O28  1  0.60478478  0.05410608  0.78303437  1
  O  O29  1  0.39521522  0.94589392  0.28303437  1
  O  O30  1  0.47875795  0.60524986  0.77087089  1
  O  O31  1  0.52124205  0.39475014  0.27087089  1
  O  O32  1  0.25316298  0.72703047  0.65596212  1
  O  O33  1  0.74683702  0.27296953  0.15596212  1
  O  O34  1  0.03868710  0.39292666  0.76987567  1
  O  O35  1  0.96131290  0.60707334  0.26987567  1
  O  O36  1  0.77137216  0.45233144  0.44403834  1
  O  O37  1  0.22862784  0.54766856  0.94403834  1
  O  O38  1  0.39697963  0.11372752  0.46795839  1
  O  O39  1  0.60302037  0.88627248  0.96795839  1
  O  O40  1  0.74234858  0.16992606  0.57808985  1
  O  O41  1  0.25765142  0.83007394  0.07808985  1
