# generated using pymatgen
data_Na5P3(H14O11)2
_symmetry_space_group_name_H-M   'P 1'
_cell_length_a   7.07768292
_cell_length_b   12.18232904
_cell_length_c   13.78798774
_cell_angle_alpha   79.25301307
_cell_angle_beta   78.08976248
_cell_angle_gamma   75.73314448
_symmetry_Int_Tables_number   1
_chemical_formula_structural   Na5P3(H14O11)2
_chemical_formula_sum   'Na10 P6 H56 O44'
_cell_volume   1115.78020391
_cell_formula_units_Z   2
loop_
 _symmetry_equiv_pos_site_id
 _symmetry_equiv_pos_as_xyz
  1  'x, y, z'
loop_
 _atom_site_type_symbol
 _atom_site_label
 _atom_site_symmetry_multiplicity
 _atom_site_fract_x
 _atom_site_fract_y
 _atom_site_fract_z
 _atom_site_occupancy
  Na  Na0  1  0.13609186  0.85697787  0.50447131  1
  Na  Na1  1  0.86390814  0.14302213  0.49552869  1
  Na  Na2  1  0.81461047  0.79090219  0.67777339  1
  Na  Na3  1  0.18538953  0.20909781  0.32222661  1
  Na  Na4  1  0.91122486  0.47588743  0.78890685  1
  Na  Na5  1  0.08877514  0.52411257  0.21109315  1
  Na  Na6  1  0.69135945  0.26168334  0.78462342  1
  Na  Na7  1  0.30864055  0.73831666  0.21537658  1
  Na  Na8  1  0.61868691  0.10113057  0.00255846  1
  Na  Na9  1  0.38131309  0.89886943  0.99744154  1
  P  P10  1  0.30513372  0.81496157  0.72530523  1
  P  P11  1  0.69486628  0.18503843  0.27469477  1
  P  P12  1  0.26208921  0.70413530  0.87433854  1
  P  P13  1  0.73791079  0.29586470  0.12566146  1
  P  P14  1  0.37000142  0.98303074  0.74044563  1
  P  P15  1  0.62999858  0.01696926  0.25955437  1
  H  H16  1  0.01199310  0.94238853  0.31862738  1
  H  H17  1  0.98800690  0.05761147  0.68137262  1
  H  H18  1  0.24151554  0.93991484  0.30262942  1
  H  H19  1  0.75848446  0.06008516  0.69737058  1
  H  H20  1  0.56838114  0.83700906  0.42319182  1
  H  H21  1  0.43161886  0.16299094  0.57680818  1
  H  H22  1  0.50868593  0.77330356  0.53490260  1
  H  H23  1  0.49131407  0.22669644  0.46509740  1
  H  H24  1  0.91150440  0.61894948  0.56686123  1
  H  H25  1  0.08849560  0.38105052  0.43313877  1
  H  H26  1  0.00416961  0.67186232  0.46060792  1
  H  H27  1  0.99583039  0.32813768  0.53939208  1
  H  H28  1  0.74827930  0.94828382  0.45742177  1
  H  H29  1  0.25172070  0.05171618  0.54257823  1
  H  H30  1  0.68013056  0.96873966  0.57342332  1
  H  H31  1  0.31986944  0.03126034  0.42657668  1
  H  H32  1  0.88502312  0.69607014  0.86717048  1
  H  H33  1  0.11497688  0.30392986  0.13282952  1
  H  H34  1  0.66345033  0.68626283  0.87046261  1
  H  H35  1  0.33654967  0.31373717  0.12953739  1
  H  H36  1  0.63077266  0.61600099  0.65996719  1
  H  H37  1  0.36922734  0.38399901  0.34003281  1
  H  H38  1  0.69436552  0.48982714  0.62962815  1
  H  H39  1  0.30563448  0.51017286  0.37037185  1
  H  H40  1  0.24723725  0.55959490  0.73811655  1
  H  H41  1  0.75276275  0.44040510  0.26188345  1
  H  H42  1  0.18426773  0.58153694  0.62786358  1
  H  H43  1  0.81573227  0.41846306  0.37213642  1
  H  H44  1  0.50566139  0.47705580  0.86928502  1
  H  H45  1  0.49433861  0.52294420  0.13071498  1
  H  H46  1  0.59943251  0.37397206  0.94725423  1
  H  H47  1  0.40056749  0.62602794  0.05274577  1
  H  H48  1  0.05577906  0.35843553  0.97697150  1
  H  H49  1  0.94422094  0.64156447  0.02302850  1
  H  H50  1  0.17736712  0.45441975  0.91531018  1
  H  H51  1  0.82263288  0.54558025  0.08468982  1
  H  H52  1  0.17564967  0.27820753  0.67890361  1
  H  H53  1  0.82435033  0.72179247  0.32109639  1
  H  H54  1  0.00665838  0.22075691  0.68298808  1
  H  H55  1  0.99334162  0.77924309  0.31701192  1
  H  H56  1  0.54849435  0.32540233  0.59472005  1
  H  H57  1  0.45150565  0.67459767  0.40527995  1
  H  H58  1  0.42948314  0.42728928  0.65486227  1
  H  H59  1  0.57051686  0.57271072  0.34513773  1
  H  H60  1  0.35454740  0.13658602  0.85865387  1
  H  H61  1  0.64545260  0.86341398  0.14134613  1
  H  H62  1  0.30660140  0.26526312  0.88221550  1
  H  H63  1  0.69339860  0.73473688  0.11778450  1
  H  H64  1  0.93824932  0.19213424  0.95915957  1
  H  H65  1  0.06175068  0.80786576  0.04084043  1
  H  H66  1  0.03266180  0.10177201  0.88401460  1
  H  H67  1  0.96733820  0.89822799  0.11598540  1
  H  H68  1  0.17457761  0.12536623  0.08306057  1
  H  H69  1  0.82542239  0.87463377  0.91693943  1
  H  H70  1  0.32176906  0.05829200  0.15628036  1
  H  H71  1  0.67823094  0.94170800  0.84371964  1
  O  O72  1  0.29633480  0.58262701  0.84677747  1
  O  O73  1  0.70366520  0.41737299  0.15322253  1
  O  O74  1  0.41612718  0.71753887  0.93278813  1
  O  O75  1  0.58387282  0.28246113  0.06721187  1
  O  O76  1  0.04636703  0.74464107  0.92789964  1
  O  O77  1  0.95363297  0.25535893  0.07210036  1
  O  O78  1  0.49769044  0.75405298  0.66273176  1
  O  O79  1  0.50230956  0.24594702  0.33726824  1
  O  O80  1  0.11843426  0.83868952  0.67826198  1
  O  O81  1  0.88156574  0.16131048  0.32173802  1
  O  O82  1  0.28194341  0.06859700  0.65428688  1
  O  O83  1  0.71805659  0.93140300  0.34571312  1
  O  O84  1  0.59905682  0.96547059  0.72208422  1
  O  O85  1  0.40094318  0.03452941  0.27791578  1
  O  O86  1  0.27409138  0.01518378  0.84473692  1
  O  O87  1  0.72590862  0.98481622  0.15526308  1
  O  O88  1  0.14160208  0.89080556  0.32399903  1
  O  O89  1  0.85839792  0.10919444  0.67600097  1
  O  O90  1  0.48379351  0.78549012  0.46451573  1
  O  O91  1  0.51620649  0.21450988  0.53548427  1
  O  O92  1  0.00554190  0.66945705  0.53251987  1
  O  O93  1  0.99445810  0.33054295  0.46748013  1
  O  O94  1  0.79497772  0.95046330  0.52084601  1
  O  O95  1  0.20502228  0.04953670  0.47915399  1
  O  O96  1  0.80007053  0.66978543  0.83135064  1
  O  O97  1  0.19992947  0.33021457  0.16864936  1
  O  O98  1  0.74561097  0.55102348  0.64730802  1
  O  O99  1  0.25438903  0.44897652  0.35269198  1
  O  O100  1  0.21484405  0.52334767  0.68558128  1
  O  O101  1  0.78515595  0.47665233  0.31441872  1
  O  O102  1  0.62195693  0.41267251  0.87705001  1
  O  O103  1  0.37804307  0.58732749  0.12294999  1
  O  O104  1  0.12031202  0.39013058  0.91011189  1
  O  O105  1  0.87968798  0.60986942  0.08988811  1
  O  O106  1  0.03407540  0.29706678  0.67680076  1
  O  O107  1  0.96592460  0.70293322  0.32319924  1
  O  O108  1  0.56273476  0.37543861  0.64065646  1
  O  O109  1  0.43726524  0.62456139  0.35934354  1
  O  O110  1  0.41557438  0.19844300  0.86773406  1
  O  O111  1  0.58442562  0.80155700  0.13226594  1
  O  O112  1  0.90955222  0.15716561  0.90613449  1
  O  O113  1  0.09044778  0.84283439  0.09386551  1
  O  O114  1  0.29817626  0.06709584  0.08657264  1
  O  O115  1  0.70182374  0.93290416  0.91342736  1
