# generated using pymatgen
data_Hg3Sb3H8C2Se8N
_symmetry_space_group_name_H-M   'P 1'
_cell_length_a   9.99751722
_cell_length_b   9.99751722
_cell_length_c   11.94403949
_cell_angle_alpha   90.00000000
_cell_angle_beta   90.00000000
_cell_angle_gamma   108.69147120
_symmetry_Int_Tables_number   1
_chemical_formula_structural   Hg3Sb3H8C2Se8N
_chemical_formula_sum   'Hg6 Sb6 H16 C4 Se16 N2'
_cell_volume   1130.84694832
_cell_formula_units_Z   2
loop_
 _symmetry_equiv_pos_site_id
 _symmetry_equiv_pos_as_xyz
  1  'x, y, z'
loop_
 _atom_site_type_symbol
 _atom_site_label
 _atom_site_symmetry_multiplicity
 _atom_site_fract_x
 _atom_site_fract_y
 _atom_site_fract_z
 _atom_site_occupancy
  Hg  Hg0  1  0.30836453  0.06053445  0.82115737  1
  Hg  Hg1  1  0.06053445  0.30836453  0.17884263  1
  Hg  Hg2  1  0.80836453  0.56053445  0.17884263  1
  Hg  Hg3  1  0.56053445  0.80836453  0.82115737  1
  Hg  Hg4  1  0.93076920  0.93076920  -0.00000000  1
  Hg  Hg5  1  0.43076920  0.43076920  -0.00000000  1
  Sb  Sb6  1  0.19093224  0.69093224  0.01437620  1
  Sb  Sb7  1  0.69093224  0.19093224  0.98562380  1
  Sb  Sb8  1  0.92529774  0.89538539  0.66437293  1
  Sb  Sb9  1  0.89538539  0.92529774  0.33562707  1
  Sb  Sb10  1  0.42529774  0.39538539  0.33562707  1
  Sb  Sb11  1  0.39538539  0.42529774  0.66437293  1
  H  H12  1  0.82742078  0.22653220  0.65368293  1
  H  H13  1  0.22653220  0.82742078  0.34631707  1
  H  H14  1  0.32742078  0.72653220  0.34631707  1
  H  H15  1  0.72653220  0.32742078  0.65368293  1
  H  H16  1  0.93908271  0.43908271  0.76241052  1
  H  H17  1  0.43908271  0.93908271  0.23758948  1
  H  H18  1  0.93174965  0.54241980  0.64155222  1
  H  H19  1  0.54241980  0.93174965  0.35844778  1
  H  H20  1  0.43174965  0.04241980  0.35844778  1
  H  H21  1  0.04241980  0.43174965  0.64155222  1
  H  H22  1  0.72741881  0.22741881  0.47551700  1
  H  H23  1  0.22741881  0.72741881  0.52448300  1
  H  H24  1  0.91581425  0.30462083  0.46856421  1
  H  H25  1  0.30462083  0.91581425  0.53143579  1
  H  H26  1  0.41581425  0.80462083  0.53143579  1
  H  H27  1  0.80462083  0.41581425  0.46856421  1
  C  C28  1  0.94238483  0.44238483  0.67104487  1
  C  C29  1  0.44238483  0.94238483  0.32895513  1
  C  C30  1  0.81801941  0.31801941  0.50013534  1
  C  C31  1  0.31801941  0.81801941  0.49986466  1
  Se  Se32  1  0.04553263  0.09072478  0.81682330  1
  Se  Se33  1  0.09072478  0.04553263  0.18317670  1
  Se  Se34  1  0.54553263  0.59072478  0.18317670  1
  Se  Se35  1  0.59072478  0.54553263  0.81682330  1
  Se  Se36  1  0.46023598  0.19773562  0.64600988  1
  Se  Se37  1  0.19773562  0.46023598  0.35399012  1
  Se  Se38  1  0.96023598  0.69773562  0.35399012  1
  Se  Se39  1  0.69773562  0.96023598  0.64600988  1
  Se  Se40  1  0.42531451  0.15801865  0.02814751  1
  Se  Se41  1  0.15801865  0.42531451  0.97185249  1
  Se  Se42  1  0.92531451  0.65801865  0.97185249  1
  Se  Se43  1  0.65801865  0.92531451  0.02814751  1
  Se  Se44  1  0.27722763  0.77722763  0.81178591  1
  Se  Se45  1  0.77722763  0.27722763  0.18821409  1
  Se  Se46  1  0.05810135  0.05810135  0.50000000  1
  Se  Se47  1  0.55810135  0.55810135  0.50000000  1
  N  N48  1  0.82366202  0.32366202  0.62476617  1
  N  N49  1  0.32366202  0.82366202  0.37523383  1
