# generated using pymatgen
data_Ca4Mg13Zn29
_symmetry_space_group_name_H-M   'P 1'
_cell_length_a   8.54253081
_cell_length_b   15.01048228
_cell_length_c   15.01048228
_cell_angle_alpha   120.00619928
_cell_angle_beta   89.99999825
_cell_angle_gamma   90.00000175
_symmetry_Int_Tables_number   1
_chemical_formula_structural   Ca4Mg13Zn29
_chemical_formula_sum   'Ca8 Mg26 Zn58'
_cell_volume   1666.78408355
_cell_formula_units_Z   2
loop_
 _symmetry_equiv_pos_site_id
 _symmetry_equiv_pos_as_xyz
  1  'x, y, z'
loop_
 _atom_site_type_symbol
 _atom_site_label
 _atom_site_symmetry_multiplicity
 _atom_site_fract_x
 _atom_site_fract_y
 _atom_site_fract_z
 _atom_site_occupancy
  Ca  Ca0  1  0.74999994  0.54343673  0.08684931  1
  Ca  Ca1  1  0.74999993  0.54342542  0.45657458  1
  Ca  Ca2  1  0.74999994  0.91315069  0.45656327  1
  Ca  Ca3  1  0.25000006  0.45656327  0.91315069  1
  Ca  Ca4  1  0.25000007  0.45657458  0.54342542  1
  Ca  Ca5  1  0.25000006  0.08684931  0.54343673  1
  Ca  Ca6  1  0.50000000  -0.00000000  -0.00000000  1
  Ca  Ca7  1  0.00000000  -0.00000000  -0.00000000  1
  Mg  Mg8  1  0.06666063  0.87956201  0.75912293  1
  Mg  Mg9  1  0.06668275  0.87956704  0.12043296  1
  Mg  Mg10  1  0.06666063  0.24087707  0.12043799  1
  Mg  Mg11  1  0.93333937  0.12043799  0.24087707  1
  Mg  Mg12  1  0.93331725  0.12043296  0.87956704  1
  Mg  Mg13  1  0.93333937  0.75912293  0.87956201  1
  Mg  Mg14  1  0.56666037  0.12043809  0.24087726  1
  Mg  Mg15  1  0.56668242  0.12043313  0.87956687  1
  Mg  Mg16  1  0.56666037  0.75912274  0.87956191  1
  Mg  Mg17  1  0.43333963  0.87956191  0.75912274  1
  Mg  Mg18  1  0.43331758  0.87956687  0.12043313  1
  Mg  Mg19  1  0.43333963  0.24087726  0.12043809  1
  Mg  Mg20  1  0.54754954  0.76882648  0.53763874  1
  Mg  Mg21  1  0.54751477  0.76881530  0.23118470  1
  Mg  Mg22  1  0.54754954  0.46236126  0.23117352  1
  Mg  Mg23  1  0.45245046  0.23117352  0.46236126  1
  Mg  Mg24  1  0.45248523  0.23118470  0.76881530  1
  Mg  Mg25  1  0.45245046  0.53763874  0.76882648  1
  Mg  Mg26  1  0.04754949  0.23117354  0.46236128  1
  Mg  Mg27  1  0.04751434  0.23118470  0.76881530  1
  Mg  Mg28  1  0.04754949  0.53763872  0.76882646  1
  Mg  Mg29  1  0.95245051  0.76882646  0.53763872  1
  Mg  Mg30  1  0.95248566  0.76881530  0.23118470  1
  Mg  Mg31  1  0.95245051  0.46236128  0.23117354  1
  Mg  Mg32  1  0.24999997  0.66667958  0.33332042  1
  Mg  Mg33  1  0.75000003  0.33332042  0.66667958  1
  Zn  Zn34  1  0.59219495  0.43226584  0.86453325  1
  Zn  Zn35  1  0.59219759  0.43226008  0.56773992  1
  Zn  Zn36  1  0.59219495  0.13546675  0.56773416  1
  Zn  Zn37  1  0.40780505  0.56773416  0.13546675  1
  Zn  Zn38  1  0.40780241  0.56773992  0.43226008  1
  Zn  Zn39  1  0.40780505  0.86453325  0.43226584  1
  Zn  Zn40  1  0.09219491  0.56773422  0.13546676  1
  Zn  Zn41  1  0.09219745  0.56773999  0.43226001  1
  Zn  Zn42  1  0.09219491  0.86453324  0.43226578  1
  Zn  Zn43  1  0.90780509  0.43226578  0.86453324  1
  Zn  Zn44  1  0.90780255  0.43226001  0.56773999  1
  Zn  Zn45  1  0.90780509  0.13546676  0.56773422  1
  Zn  Zn46  1  0.74999998  0.93417354  0.69090000  1
  Zn  Zn47  1  0.75000003  0.75672453  0.06580970  1
  Zn  Zn48  1  0.74999993  0.30908910  0.24329082  1
  Zn  Zn49  1  0.74999993  0.75670918  0.69091090  1
  Zn  Zn50  1  0.74999998  0.30910000  0.06582646  1
  Zn  Zn51  1  0.75000003  0.93419030  0.24327547  1
  Zn  Zn52  1  0.25000002  0.06582646  0.30910000  1
  Zn  Zn53  1  0.24999997  0.24327547  0.93419030  1
  Zn  Zn54  1  0.25000007  0.69091090  0.75670918  1
  Zn  Zn55  1  0.25000007  0.24329082  0.30908910  1
  Zn  Zn56  1  0.25000002  0.69090000  0.93417354  1
  Zn  Zn57  1  0.24999997  0.06580970  0.75672453  1
  Zn  Zn58  1  0.75000006  0.59073893  0.88098086  1
  Zn  Zn59  1  0.75000008  0.29024611  0.40925389  1
  Zn  Zn60  1  0.74999999  0.11900711  0.70974812  1
  Zn  Zn61  1  0.74999999  0.29025188  0.88099289  1
  Zn  Zn62  1  0.75000006  0.11901914  0.40926107  1
  Zn  Zn63  1  0.75000008  0.59074611  0.70975389  1
  Zn  Zn64  1  0.24999994  0.40926107  0.11901914  1
  Zn  Zn65  1  0.24999992  0.70975389  0.59074611  1
  Zn  Zn66  1  0.25000001  0.88099289  0.29025188  1
  Zn  Zn67  1  0.25000001  0.70974812  0.11900711  1
  Zn  Zn68  1  0.24999994  0.88098086  0.59073893  1
  Zn  Zn69  1  0.24999992  0.40925389  0.29024611  1
  Zn  Zn70  1  0.49999120  0.63572825  0.99998725  1
  Zn  Zn71  1  0.50000000  0.36429018  0.36429018  1
  Zn  Zn72  1  0.50000880  0.99998725  0.63572825  1
  Zn  Zn73  1  0.50000880  0.36427175  0.00001275  1
  Zn  Zn74  1  0.49999120  0.00001275  0.36427175  1
  Zn  Zn75  1  0.50000000  0.63570982  0.63570982  1
  Zn  Zn76  1  0.99999112  0.36427181  0.00001278  1
  Zn  Zn77  1  0.00000000  0.63570986  0.63570986  1
  Zn  Zn78  1  0.00000888  0.00001278  0.36427181  1
  Zn  Zn79  1  0.00000888  0.63572819  0.99998722  1
  Zn  Zn80  1  0.99999112  0.99998722  0.63572819  1
  Zn  Zn81  1  0.00000000  0.36429014  0.36429014  1
  Zn  Zn82  1  0.59756773  0.66667661  0.33332339  1
  Zn  Zn83  1  0.40243227  0.33332339  0.66667661  1
  Zn  Zn84  1  0.09756757  0.33332338  0.66667662  1
  Zn  Zn85  1  0.90243243  0.66667662  0.33332338  1
  Zn  Zn86  1  0.75000005  0.93069339  0.86140461  1
  Zn  Zn87  1  0.75000007  0.93070830  0.06929170  1
  Zn  Zn88  1  0.75000005  0.13859539  0.06930661  1
  Zn  Zn89  1  0.24999995  0.06930661  0.13859539  1
  Zn  Zn90  1  0.24999993  0.06929170  0.93070830  1
  Zn  Zn91  1  0.24999995  0.86140461  0.93069339  1
