# generated using pymatgen
data_NaCa2Fe5(SiO3)8
_symmetry_space_group_name_H-M   'P 1'
_cell_length_a   5.31629581
_cell_length_b   10.25619483
_cell_length_c   10.53523547
_cell_angle_alpha   60.87236024
_cell_angle_beta   82.46675703
_cell_angle_gamma   74.37520718
_symmetry_Int_Tables_number   1
_chemical_formula_structural   NaCa2Fe5(SiO3)8
_chemical_formula_sum   'Na1 Ca2 Fe5 Si8 O24'
_cell_volume   483.24602131
_cell_formula_units_Z   1
loop_
 _symmetry_equiv_pos_site_id
 _symmetry_equiv_pos_as_xyz
  1  'x, y, z'
loop_
 _atom_site_type_symbol
 _atom_site_label
 _atom_site_symmetry_multiplicity
 _atom_site_fract_x
 _atom_site_fract_y
 _atom_site_fract_z
 _atom_site_occupancy
  Na  Na0  1  -0.00000000  0.50000000  0.00000000  1
  Ca  Ca1  1  0.50000000  0.27632350  0.44735300  1
  Ca  Ca2  1  0.50000000  0.72367650  0.55264700  1
  Fe  Fe3  1  0.50000000  0.08232425  0.83535150  1
  Fe  Fe4  1  0.50000000  0.91767575  0.16464850  1
  Fe  Fe5  1  1.00000000  0.17852247  0.64295507  1
  Fe  Fe6  1  0.00000000  0.82147753  0.35704493  1
  Fe  Fe7  1  -0.00000000  -0.00000000  0.00000000  1
  Si  Si8  1  0.70565828  0.36110322  0.83340129  1
  Si  Si9  1  0.70565828  0.19450451  0.16659871  1
  Si  Si10  1  0.29434172  0.63889678  0.16659871  1
  Si  Si11  1  0.29434172  0.80549549  0.83340129  1
  Si  Si12  1  0.19961860  0.45603217  0.66072545  1
  Si  Si13  1  0.19961860  0.11675762  0.33927455  1
  Si  Si14  1  0.80038140  0.54396783  0.33927455  1
  Si  Si15  1  0.80038140  0.88324238  0.66072545  1
  O  O16  1  0.79053402  0.20257727  0.82573942  1
  O  O17  1  0.79053402  0.02831669  0.17426058  1
  O  O18  1  0.20946598  0.79742273  0.17426058  1
  O  O19  1  0.20946598  0.97168331  0.82573942  1
  O  O20  1  0.28070608  0.29735789  0.65019015  1
  O  O21  1  0.28070608  0.94754805  0.34980985  1
  O  O22  1  0.71929392  0.70264211  0.34980985  1
  O  O23  1  0.71929392  0.05245195  0.65019015  1
  O  O24  1  0.25621053  0.10003574  0.00000000  1
  O  O25  1  0.74378947  0.89996426  1.00000000  1
  O  O26  1  0.21004597  0.61177015  0.51261838  1
  O  O27  1  0.21004597  0.12438852  0.48738162  1
  O  O28  1  0.78995403  0.38822985  0.48738162  1
  O  O29  1  0.78995403  0.87561148  0.51261838  1
  O  O30  1  0.90078420  0.47770265  0.73624023  1
  O  O31  1  0.90078420  0.21394288  0.26375977  1
  O  O32  1  0.09921580  0.52229735  0.26375977  1
  O  O33  1  0.09921580  0.78605712  0.73624023  1
  O  O34  1  0.40737113  0.45669670  0.77005938  1
  O  O35  1  0.40737113  0.22675608  0.22994062  1
  O  O36  1  0.59262887  0.54330330  0.22994062  1
  O  O37  1  0.59262887  0.77324392  0.77005938  1
  O  O38  1  0.70975348  0.33947004  1.00000000  1
  O  O39  1  0.29024652  0.66052996  0.00000000  1
