# generated using pymatgen
data_Na6Sn4Ge5O22
_symmetry_space_group_name_H-M   'P 1'
_cell_length_a   6.52927787
_cell_length_b   10.39560984
_cell_length_c   15.79018441
_cell_angle_alpha   91.67294321
_cell_angle_beta   96.74861698
_cell_angle_gamma   107.62575835
_symmetry_Int_Tables_number   1
_chemical_formula_structural   Na6Sn4Ge5O22
_chemical_formula_sum   'Na12 Sn8 Ge10 O44'
_cell_volume   1012.00107625
_cell_formula_units_Z   2
loop_
 _symmetry_equiv_pos_site_id
 _symmetry_equiv_pos_as_xyz
  1  'x, y, z'
loop_
 _atom_site_type_symbol
 _atom_site_label
 _atom_site_symmetry_multiplicity
 _atom_site_fract_x
 _atom_site_fract_y
 _atom_site_fract_z
 _atom_site_occupancy
  Na  Na0  1  0.38187482  0.14051305  0.45431941  1
  Na  Na1  1  0.61812518  0.85948695  0.54568059  1
  Na  Na2  1  0.11585323  0.35843830  0.75489955  1
  Na  Na3  1  0.88414677  0.64156170  0.24510045  1
  Na  Na4  1  0.17926059  0.02637741  0.26421341  1
  Na  Na5  1  0.82073941  0.97362259  0.73578659  1
  Na  Na6  1  0.27138375  0.98050240  0.05306030  1
  Na  Na7  1  0.72861625  0.01949760  0.94693970  1
  Na  Na8  1  0.26473802  0.45516402  0.55288501  1
  Na  Na9  1  0.73526198  0.54483598  0.44711499  1
  Na  Na10  1  0.62019887  0.39048614  0.05150435  1
  Na  Na11  1  0.37980113  0.60951386  0.94849565  1
  Sn  Sn12  1  0.73428189  0.94774321  0.34158800  1
  Sn  Sn13  1  0.26571811  0.05225679  0.65841200  1
  Sn  Sn14  1  0.15251276  0.82363940  0.84561002  1
  Sn  Sn15  1  0.84748724  0.17636060  0.15438998  1
  Sn  Sn16  1  0.27375680  0.53114997  0.15926306  1
  Sn  Sn17  1  0.72624320  0.46885003  0.84073694  1
  Sn  Sn18  1  0.90820795  0.67803936  0.66001393  1
  Sn  Sn19  1  0.09179205  0.32196064  0.33998607  1
  Ge  Ge20  1  0.33019062  0.65961182  0.36766292  1
  Ge  Ge21  1  0.66980938  0.34038818  0.63233708  1
  Ge  Ge22  1  0.69709245  0.83531512  0.13355639  1
  Ge  Ge23  1  0.30290755  0.16468488  0.86644361  1
  Ge  Ge24  1  0.09349302  0.84369100  0.48356273  1
  Ge  Ge25  1  0.90650698  0.15630900  0.51643727  1
  Ge  Ge26  1  0.95066923  0.67660825  0.01886078  1
  Ge  Ge27  1  0.04933077  0.32339175  0.98113922  1
  Ge  Ge28  1  0.42290678  0.66023697  0.73174204  1
  Ge  Ge29  1  0.57709322  0.33976303  0.26825796  1
  O  O30  1  0.82218266  0.39551728  0.34409636  1
  O  O31  1  0.17781734  0.60448272  0.65590364  1
  O  O32  1  0.36205119  0.25236492  0.32525925  1
  O  O33  1  0.63794881  0.74763508  0.67474075  1
  O  O34  1  0.88864190  0.12942409  0.28511940  1
  O  O35  1  0.11135810  0.87057591  0.71488060  1
  O  O36  1  0.82380514  0.84949970  0.24065750  1
  O  O37  1  0.17619486  0.15050030  0.75934250  1
  O  O38  1  0.54120965  0.49246669  0.22903363  1
  O  O39  1  0.45879035  0.50753331  0.77096637  1
  O  O40  1  0.07087839  0.36207372  0.21062339  1
  O  O41  1  0.92912161  0.63792628  0.78937661  1
  O  O42  1  0.58832337  0.23948810  0.17641080  1
  O  O43  1  0.41167663  0.76051190  0.82358920  1
  O  O44  1  0.98965675  0.56514224  0.09779648  1
  O  O45  1  0.01034325  0.43485776  0.90220352  1
  O  O46  1  0.47560890  0.69005966  0.10459598  1
  O  O47  1  0.52439110  0.30994034  0.89540402  1
  O  O48  1  0.90643976  0.82067422  0.07122901  1
  O  O49  1  0.09356024  0.17932578  0.92877099  1
  O  O50  1  0.82208584  0.24523331  0.03285252  1
  O  O51  1  0.17791416  0.75476669  0.96714748  1
  O  O52  1  0.28379729  0.41440635  0.05190216  1
  O  O53  1  0.71620271  0.58559365  0.94809784  1
  O  O54  1  0.35345630  0.01379232  0.90002617  1
  O  O55  1  0.64654370  0.98620768  0.09997383  1
  O  O56  1  0.76181319  0.34437367  0.74180121  1
  O  O57  1  0.23818681  0.65562633  0.25819879  1
  O  O58  1  0.96610334  0.04442092  0.59128422  1
  O  O59  1  0.03389666  0.95557908  0.40871578  1
  O  O60  1  0.40451623  0.23263162  0.60145596  1
  O  O61  1  0.59548377  0.76736838  0.39854404  1
  O  O62  1  0.68134138  0.50225304  0.59715924  1
  O  O63  1  0.31865862  0.49774696  0.40284076  1
  O  O64  1  0.86360576  0.29272164  0.57724280  1
  O  O65  1  0.13639424  0.70727836  0.42275720  1
  O  O66  1  0.88828857  0.74689131  0.53956575  1
  O  O67  1  0.11171143  0.25310869  0.46043425  1
  O  O68  1  0.67789686  0.05975228  0.44497295  1
  O  O69  1  0.32210314  0.94024772  0.55502705  1
  O  O70  1  0.44304778  0.93357314  0.27139649  1
  O  O71  1  0.55695222  0.06642686  0.72860351  1
  O  O72  1  0.10626853  0.10911873  0.13124169  1
  O  O73  1  0.89373147  0.89088127  0.86875831  1
