# generated using pymatgen
data_Ba2YCu3(PbO4)2
_symmetry_space_group_name_H-M   'P 1'
_cell_length_a   5.49909679
_cell_length_b   5.56115662
_cell_length_c   16.56940360
_cell_angle_alpha   90.00000000
_cell_angle_beta   90.00000000
_cell_angle_gamma   90.00000000
_symmetry_Int_Tables_number   1
_chemical_formula_structural   Ba2YCu3(PbO4)2
_chemical_formula_sum   'Ba4 Y2 Cu6 Pb4 O16'
_cell_volume   506.71454053
_cell_formula_units_Z   2
loop_
 _symmetry_equiv_pos_site_id
 _symmetry_equiv_pos_as_xyz
  1  'x, y, z'
loop_
 _atom_site_type_symbol
 _atom_site_label
 _atom_site_symmetry_multiplicity
 _atom_site_fract_x
 _atom_site_fract_y
 _atom_site_fract_z
 _atom_site_occupancy
  Ba  Ba0  1  0.24953311  0.50225456  0.72328893  1
  Ba  Ba1  1  0.24953311  0.49774544  0.27671107  1
  Ba  Ba2  1  0.75046689  0.00225456  0.27671107  1
  Ba  Ba3  1  0.75046689  0.99774544  0.72328893  1
  Y  Y4  1  0.25026388  0.50000000  0.50000000  1
  Y  Y5  1  0.74973612  -0.00000000  0.50000000  1
  Cu  Cu6  1  0.23186279  0.50000000  -0.00000000  1
  Cu  Cu7  1  0.76813721  0.00000000  0.00000000  1
  Cu  Cu8  1  0.25006259  0.00035166  0.59934592  1
  Cu  Cu9  1  0.25006259  0.99964834  0.40065408  1
  Cu  Cu10  1  0.74993741  0.50035166  0.40065408  1
  Cu  Cu11  1  0.74993741  0.49964834  0.59934592  1
  Pb  Pb12  1  0.23920661  0.99105483  0.88995896  1
  Pb  Pb13  1  0.23920661  0.00894517  0.11004104  1
  Pb  Pb14  1  0.76079339  0.49105483  0.11004104  1
  Pb  Pb15  1  0.76079339  0.50894517  0.88995896  1
  O  O16  1  0.25197912  0.00575308  0.75648653  1
  O  O17  1  0.25197912  0.99424692  0.24351347  1
  O  O18  1  0.74802088  0.50575308  0.24351347  1
  O  O19  1  0.74802088  0.49424692  0.75648653  1
  O  O20  1  0.21730842  0.57039894  0.89074363  1
  O  O21  1  0.21730842  0.42960106  0.10925637  1
  O  O22  1  0.78269158  0.07039894  0.10925637  1
  O  O23  1  0.78269158  0.92960106  0.89074363  1
  O  O24  1  0.50000000  0.75000000  0.41295086  1
  O  O25  1  0.50000000  0.25000000  0.58704914  1
  O  O26  1  0.00000000  0.75000000  0.58768446  1
  O  O27  1  0.00000000  0.25000000  0.41231554  1
  O  O28  1  0.50000000  0.75000000  0.58762999  1
  O  O29  1  0.50000000  0.25000000  0.41237001  1
  O  O30  1  0.00000000  0.75000000  0.41266834  1
  O  O31  1  -0.00000000  0.25000000  0.58733166  1
