# generated using pymatgen
data_Ce4Sn25Pd12
_symmetry_space_group_name_H-M   'P 1'
_cell_length_a   10.73607228
_cell_length_b   10.73607228
_cell_length_c   10.73607228
_cell_angle_alpha   109.47122063
_cell_angle_beta   109.47122063
_cell_angle_gamma   109.47122063
_symmetry_Int_Tables_number   1
_chemical_formula_structural   Ce4Sn25Pd12
_chemical_formula_sum   'Ce4 Sn25 Pd12'
_cell_volume   952.60836139
_cell_formula_units_Z   1
loop_
 _symmetry_equiv_pos_site_id
 _symmetry_equiv_pos_as_xyz
  1  'x, y, z'
loop_
 _atom_site_type_symbol
 _atom_site_label
 _atom_site_symmetry_multiplicity
 _atom_site_fract_x
 _atom_site_fract_y
 _atom_site_fract_z
 _atom_site_occupancy
  Ce  Ce0  1  -0.00000000  0.00000000  0.50000000  1
  Ce  Ce1  1  0.50000000  0.00000000  0.00000000  1
  Ce  Ce2  1  -0.00000000  0.50000000  0.00000000  1
  Ce  Ce3  1  0.50000000  0.50000000  0.50000000  1
  Sn  Sn4  1  -0.00000000  0.00000000  0.00000000  1
  Sn  Sn5  1  0.37288767  0.99458875  0.62170108  1
  Sn  Sn6  1  0.62711233  0.00541125  0.37829892  1
  Sn  Sn7  1  0.62711233  0.24881341  0.62170108  1
  Sn  Sn8  1  0.37288767  0.75118659  0.37829892  1
  Sn  Sn9  1  0.99458875  0.62170108  0.37288767  1
  Sn  Sn10  1  0.00541125  0.37829892  0.62711233  1
  Sn  Sn11  1  0.24881341  0.62170108  0.62711233  1
  Sn  Sn12  1  0.75118659  0.37829892  0.37288767  1
  Sn  Sn13  1  0.62170108  0.37288767  0.99458875  1
  Sn  Sn14  1  0.37829892  0.62711233  0.00541125  1
  Sn  Sn15  1  0.62170108  0.62711233  0.24881341  1
  Sn  Sn16  1  0.37829892  0.37288767  0.75118659  1
  Sn  Sn17  1  0.25049744  0.12699408  0.87649663  1
  Sn  Sn18  1  0.74950256  0.87300592  0.12350337  1
  Sn  Sn19  1  0.74950256  0.62599919  0.87649663  1
  Sn  Sn20  1  0.25049744  0.37400081  0.12350337  1
  Sn  Sn21  1  0.12699408  0.87649663  0.25049744  1
  Sn  Sn22  1  0.87300592  0.12350337  0.74950256  1
  Sn  Sn23  1  0.62599919  0.87649663  0.74950256  1
  Sn  Sn24  1  0.37400081  0.12350337  0.25049744  1
  Sn  Sn25  1  0.87649663  0.25049744  0.12699408  1
  Sn  Sn26  1  0.12350337  0.74950256  0.87300592  1
  Sn  Sn27  1  0.87649663  0.74950256  0.62599919  1
  Sn  Sn28  1  0.12350337  0.25049744  0.37400081  1
  Pd  Pd29  1  0.16723682  0.84769389  0.68045707  1
  Pd  Pd30  1  0.83276318  0.15230611  0.31954293  1
  Pd  Pd31  1  0.83276318  0.51322025  0.68045707  1
  Pd  Pd32  1  0.16723682  0.48677975  0.31954293  1
  Pd  Pd33  1  0.84769389  0.68045707  0.16723682  1
  Pd  Pd34  1  0.15230611  0.31954293  0.83276318  1
  Pd  Pd35  1  0.51322025  0.68045707  0.83276318  1
  Pd  Pd36  1  0.48677975  0.31954293  0.16723682  1
  Pd  Pd37  1  0.68045707  0.16723682  0.84769389  1
  Pd  Pd38  1  0.31954293  0.83276318  0.15230611  1
  Pd  Pd39  1  0.68045707  0.83276318  0.51322025  1
  Pd  Pd40  1  0.31954293  0.16723682  0.48677975  1
