# generated using pymatgen
data_Na2FeP2(HO3)2
_symmetry_space_group_name_H-M   'P 1'
_cell_length_a   5.50472042
_cell_length_b   9.40076836
_cell_length_c   12.34220507
_cell_angle_alpha   90.00000000
_cell_angle_beta   90.00000000
_cell_angle_gamma   90.00000000
_symmetry_Int_Tables_number   1
_chemical_formula_structural   Na2FeP2(HO3)2
_chemical_formula_sum   'Na8 Fe4 P8 H8 O24'
_cell_volume   638.69185248
_cell_formula_units_Z   4
loop_
 _symmetry_equiv_pos_site_id
 _symmetry_equiv_pos_as_xyz
  1  'x, y, z'
loop_
 _atom_site_type_symbol
 _atom_site_label
 _atom_site_symmetry_multiplicity
 _atom_site_fract_x
 _atom_site_fract_y
 _atom_site_fract_z
 _atom_site_occupancy
  Na  Na0  1  0.75000000  0.27342453  0.59736688  1
  Na  Na1  1  0.75000000  0.22657547  0.09736688  1
  Na  Na2  1  0.25000000  0.72657547  0.40263312  1
  Na  Na3  1  0.25000000  0.77342453  0.90263312  1
  Na  Na4  1  0.25000000  0.17355744  0.77801309  1
  Na  Na5  1  0.25000000  0.32644256  0.27801309  1
  Na  Na6  1  0.75000000  0.82644256  0.22198691  1
  Na  Na7  1  0.75000000  0.67355744  0.72198691  1
  Fe  Fe8  1  0.25000000  0.86370615  0.65818444  1
  Fe  Fe9  1  0.25000000  0.63629385  0.15818444  1
  Fe  Fe10  1  0.75000000  0.13629385  0.34181556  1
  Fe  Fe11  1  0.75000000  0.36370615  0.84181556  1
  P  P12  1  0.75000000  0.87182605  0.51522348  1
  P  P13  1  0.75000000  0.62817395  0.01522348  1
  P  P14  1  0.25000000  0.12817395  0.48477652  1
  P  P15  1  0.25000000  0.37182605  0.98477652  1
  P  P16  1  0.25000000  0.49663277  0.68672811  1
  P  P17  1  0.25000000  0.00336723  0.18672811  1
  P  P18  1  0.75000000  0.50336723  0.31327189  1
  P  P19  1  0.75000000  0.99663277  0.81327189  1
  H  H20  1  0.25000000  0.50416637  0.57227674  1
  H  H21  1  0.25000000  0.99583363  0.07227674  1
  H  H22  1  0.75000000  0.49583363  0.42772326  1
  H  H23  1  0.75000000  0.00416637  0.92772326  1
  H  H24  1  0.75000000  0.99718227  0.57760363  1
  H  H25  1  0.75000000  0.50281773  0.07760363  1
  H  H26  1  0.25000000  0.00281773  0.42239637  1
  H  H27  1  0.25000000  0.49718227  0.92239637  1
  O  O28  1  0.97984563  0.78870692  0.54859968  1
  O  O29  1  0.52015437  0.71129308  0.04859968  1
  O  O30  1  0.47984563  0.21129308  0.45140032  1
  O  O31  1  0.02015437  0.28870692  0.95140032  1
  O  O32  1  0.02015437  0.21129308  0.45140032  1
  O  O33  1  0.47984563  0.28870692  0.95140032  1
  O  O34  1  0.52015437  0.78870692  0.54859968  1
  O  O35  1  0.97984563  0.71129308  0.04859968  1
  O  O36  1  0.25000000  0.65028324  0.72980362  1
  O  O37  1  0.25000000  0.84971676  0.22980362  1
  O  O38  1  0.75000000  0.34971676  0.27019638  1
  O  O39  1  0.75000000  0.15028324  0.77019638  1
  O  O40  1  0.98351784  0.91425538  0.78386701  1
  O  O41  1  0.51648216  0.58574462  0.28386701  1
  O  O42  1  0.48351784  0.08574462  0.21613299  1
  O  O43  1  0.01648216  0.41425538  0.71613299  1
  O  O44  1  0.01648216  0.08574462  0.21613299  1
  O  O45  1  0.48351784  0.41425538  0.71613299  1
  O  O46  1  0.51648216  0.91425538  0.78386701  1
  O  O47  1  0.98351784  0.58574462  0.28386701  1
  O  O48  1  0.25000000  0.08288418  0.60447794  1
  O  O49  1  0.25000000  0.41711582  0.10447794  1
  O  O50  1  0.75000000  0.91711582  0.39552206  1
  O  O51  1  0.75000000  0.58288418  0.89552206  1
