# generated using pymatgen
data_AlH12(NF2)3
_symmetry_space_group_name_H-M   'P 1'
_cell_length_a   6.34836386
_cell_length_b   6.34836386
_cell_length_c   9.06347611
_cell_angle_alpha   90.00000000
_cell_angle_beta   90.00000000
_cell_angle_gamma   88.92249375
_symmetry_Int_Tables_number   1
_chemical_formula_structural   AlH12(NF2)3
_chemical_formula_sum   'Al2 H24 N6 F12'
_cell_volume   365.20911903
_cell_formula_units_Z   2
loop_
 _symmetry_equiv_pos_site_id
 _symmetry_equiv_pos_as_xyz
  1  'x, y, z'
loop_
 _atom_site_type_symbol
 _atom_site_label
 _atom_site_symmetry_multiplicity
 _atom_site_fract_x
 _atom_site_fract_y
 _atom_site_fract_z
 _atom_site_occupancy
  Al  Al0  1  0.50063167  0.49936833  0.50000000  1
  Al  Al1  1  0.00063167  0.99936833  0.00000000  1
  H  H2  1  0.50184833  0.85890737  0.30940545  1
  H  H3  1  0.14109263  0.49815167  0.69059455  1
  H  H4  1  0.00184833  0.35890737  0.19059455  1
  H  H5  1  0.64109263  0.99815167  0.80940545  1
  H  H6  1  0.49340924  0.12853023  0.31842058  1
  H  H7  1  0.87146977  0.50659076  0.68157942  1
  H  H8  1  0.99340924  0.62853023  0.18157942  1
  H  H9  1  0.37146977  0.00659076  0.81842058  1
  H  H10  1  0.62816885  0.99336503  0.17938537  1
  H  H11  1  0.00663497  0.37183115  0.82061463  1
  H  H12  1  0.12816885  0.49336503  0.32061463  1
  H  H13  1  0.50663497  0.87183115  0.67938537  1
  H  H14  1  0.36006413  0.00156063  0.18840097  1
  H  H15  1  0.99843937  0.63993587  0.81159903  1
  H  H16  1  0.86006413  0.50156063  0.31159903  1
  H  H17  1  0.49843937  0.13993587  0.68840097  1
  H  H18  1  0.49428006  0.63269427  0.93653161  1
  H  H19  1  0.36730573  0.50571994  0.06346839  1
  H  H20  1  0.99428006  0.13269427  0.56346839  1
  H  H21  1  0.86730573  0.00571994  0.43653161  1
  H  H22  1  0.49967769  0.36877422  0.93428271  1
  H  H23  1  0.63122578  0.50032231  0.06571729  1
  H  H24  1  0.99967769  0.86877422  0.56571729  1
  H  H25  1  0.13122578  0.00032231  0.43428271  1
  N  N26  1  0.49881307  0.99830524  0.24925036  1
  N  N27  1  0.00169476  0.50118693  0.75074964  1
  N  N28  1  0.99881307  0.49830524  0.25074964  1
  N  N29  1  0.50169476  0.00118693  0.74925036  1
  N  N30  1  0.49989423  0.50010577  0.00000000  1
  N  N31  1  -0.00010577  0.00010577  0.50000000  1
  F  F32  1  0.29552693  0.70447307  0.50000000  1
  F  F33  1  0.79552693  0.20447307  0.00000000  1
  F  F34  1  0.70607800  0.29392200  0.50000000  1
  F  F35  1  0.20607800  0.79392200  0.00000000  1
  F  F36  1  0.56346813  0.56194248  0.30727053  1
  F  F37  1  0.43805752  0.43653187  0.69272947  1
  F  F38  1  0.06346813  0.06194248  0.19272947  1
  F  F39  1  0.93805752  0.93653187  0.80727053  1
  F  F40  1  0.30841422  0.30619508  0.43736393  1
  F  F41  1  0.69380492  0.69158578  0.56263607  1
  F  F42  1  0.80841422  0.80619508  0.06263607  1
  F  F43  1  0.19380492  0.19158578  0.93736393  1
