# generated using pymatgen
data_NaZn(BH4)3
_symmetry_space_group_name_H-M   'P 1'
_cell_length_a   4.77677339
_cell_length_b   8.44091814
_cell_length_c   18.00634859
_cell_angle_alpha   98.84594552
_cell_angle_beta   90.00000000
_cell_angle_gamma   90.00000000
_symmetry_Int_Tables_number   1
_chemical_formula_structural   NaZn(BH4)3
_chemical_formula_sum   'Na4 Zn4 B12 H48'
_cell_volume   717.38657739
_cell_formula_units_Z   4
loop_
 _symmetry_equiv_pos_site_id
 _symmetry_equiv_pos_as_xyz
  1  'x, y, z'
loop_
 _atom_site_type_symbol
 _atom_site_label
 _atom_site_symmetry_multiplicity
 _atom_site_fract_x
 _atom_site_fract_y
 _atom_site_fract_z
 _atom_site_occupancy
  Na  Na0  1  0.13594306  0.31570823  0.15847538  1
  Na  Na1  1  0.63594306  0.68429177  0.34152462  1
  Na  Na2  1  0.86405694  0.68429177  0.84152462  1
  Na  Na3  1  0.36405694  0.31570823  0.65847538  1
  Zn  Zn4  1  0.74545644  0.79367170  0.10484316  1
  Zn  Zn5  1  0.24545644  0.20632830  0.39515684  1
  Zn  Zn6  1  0.25454356  0.20632830  0.89515684  1
  Zn  Zn7  1  0.75454356  0.79367170  0.60484316  1
  B  B8  1  0.11912580  0.24852650  0.51274596  1
  B  B9  1  0.61912580  0.75147350  0.98725404  1
  B  B10  1  0.88087420  0.75147350  0.48725404  1
  B  B11  1  0.38087420  0.24852650  0.01274596  1
  B  B12  1  0.76939266  0.57833612  0.66700074  1
  B  B13  1  0.26939266  0.42166388  0.83299926  1
  B  B14  1  0.23060734  0.42166388  0.33299926  1
  B  B15  1  0.73060734  0.57833612  0.16700074  1
  B  B16  1  0.00091316  0.00547177  0.15816446  1
  B  B17  1  0.50091316  0.99452823  0.34183554  1
  B  B18  1  0.99908684  0.99452823  0.84183554  1
  B  B19  1  0.49908684  0.00547177  0.65816446  1
  H  H20  1  0.01655134  0.18954783  0.56409390  1
  H  H21  1  0.51655134  0.81045217  0.93590610  1
  H  H22  1  0.98344866  0.81045217  0.43590610  1
  H  H23  1  0.48344866  0.18954783  0.06409390  1
  H  H24  1  0.99929129  0.36878254  0.50207260  1
  H  H25  1  0.49929129  0.63121746  0.99792740  1
  H  H26  1  0.00070871  0.63121746  0.49792740  1
  H  H27  1  0.50070871  0.36878254  0.00207260  1
  H  H28  1  0.37476715  0.26518518  0.52033470  1
  H  H29  1  0.87476715  0.73481482  0.97966530  1
  H  H30  1  0.62523285  0.73481482  0.47966530  1
  H  H31  1  0.12523285  0.26518518  0.02033470  1
  H  H32  1  0.06289220  0.12680421  0.46398335  1
  H  H33  1  0.56289220  0.87319579  0.03601665  1
  H  H34  1  0.93710780  0.87319579  0.53601665  1
  H  H35  1  0.43710780  0.12680421  0.96398335  1
  H  H36  1  0.96205768  0.67862065  0.67831344  1
  H  H37  1  0.46205768  0.32137935  0.82168656  1
  H  H38  1  0.03794232  0.32137935  0.32168656  1
  H  H39  1  0.53794232  0.67862065  0.17831344  1
  H  H40  1  0.60537480  0.59849377  0.71961706  1
  H  H41  1  0.10537480  0.40150623  0.78038294  1
  H  H42  1  0.39462520  0.40150623  0.28038294  1
  H  H43  1  0.89462520  0.59849377  0.21961706  1
  H  H44  1  0.63297603  0.58753056  0.60846681  1
  H  H45  1  0.13297603  0.41246944  0.89153319  1
  H  H46  1  0.36702397  0.41246944  0.39153319  1
  H  H47  1  0.86702397  0.58753056  0.10846681  1
  H  H48  1  0.87574682  0.44610077  0.65518961  1
  H  H49  1  0.37574682  0.55389923  0.84481039  1
  H  H50  1  0.12425318  0.55389923  0.34481039  1
  H  H51  1  0.62425318  0.44610077  0.15518961  1
  H  H52  1  0.19833776  0.95750384  0.11830050  1
  H  H53  1  0.69833776  0.04249616  0.38169950  1
  H  H54  1  0.80166224  0.04249616  0.88169950  1
  H  H55  1  0.30166224  0.95750384  0.61830050  1
  H  H56  1  0.07758012  0.08141480  0.21753573  1
  H  H57  1  0.57758012  0.91858520  0.28246427  1
  H  H58  1  0.92241988  0.91858520  0.78246427  1
  H  H59  1  0.42241988  0.08141480  0.71753573  1
  H  H60  1  0.83189775  0.08044604  0.12659491  1
  H  H61  1  0.33189775  0.91955396  0.37340509  1
  H  H62  1  0.16810225  0.91955396  0.87340509  1
  H  H63  1  0.66810225  0.08044604  0.62659491  1
  H  H64  1  0.89023613  0.89524657  0.18828989  1
  H  H65  1  0.39023613  0.10475343  0.31171011  1
  H  H66  1  0.10976387  0.10475343  0.81171011  1
  H  H67  1  0.60976387  0.89524657  0.68828989  1
