# generated using pymatgen
data_La2Ta2O9
_symmetry_space_group_name_H-M   'P 1'
_cell_length_a   14.55027765
_cell_length_b   3.92810577
_cell_length_c   6.80879747
_cell_angle_alpha   90.00000000
_cell_angle_beta   92.98553604
_cell_angle_gamma   90.00000000
_symmetry_Int_Tables_number   1
_chemical_formula_structural   La2Ta2O9
_chemical_formula_sum   'La4 Ta4 O18'
_cell_volume   388.62882384
_cell_formula_units_Z   2
loop_
 _symmetry_equiv_pos_site_id
 _symmetry_equiv_pos_as_xyz
  1  'x, y, z'
loop_
 _atom_site_type_symbol
 _atom_site_label
 _atom_site_symmetry_multiplicity
 _atom_site_fract_x
 _atom_site_fract_y
 _atom_site_fract_z
 _atom_site_occupancy
  La  La0  1  0.19552663  0.50592573  0.00871464  1
  La  La1  1  0.69552663  0.99407427  0.50871464  1
  La  La2  1  0.80447337  0.49407427  0.99128536  1
  La  La3  1  0.30447337  0.00592573  0.49128536  1
  Ta  Ta4  1  0.96210087  0.99584814  0.76649948  1
  Ta  Ta5  1  0.46210087  0.50415186  0.26649948  1
  Ta  Ta6  1  0.03789913  0.00415186  0.23350052  1
  Ta  Ta7  1  0.53789913  0.49584814  0.73350052  1
  O  O8  1  0.92037349  0.00112743  0.07603670  1
  O  O9  1  0.42037349  0.49887257  0.57603670  1
  O  O10  1  0.07962651  0.99887257  0.92396330  1
  O  O11  1  0.57962651  0.50112743  0.42396330  1
  O  O12  1  0.95316937  0.49821523  0.79119273  1
  O  O13  1  0.45316937  0.00178477  0.29119273  1
  O  O14  1  0.04683063  0.50178477  0.20880727  1
  O  O15  1  0.54683063  0.99821523  0.70880727  1
  O  O16  1  -0.00000000  0.00000000  0.50000000  1
  O  O17  1  0.50000000  0.50000000  0.00000000  1
  O  O18  1  0.32569951  0.50203513  0.24513424  1
  O  O19  1  0.82569951  0.99796487  0.74513424  1
  O  O20  1  0.67430049  0.49796487  0.75486576  1
  O  O21  1  0.17430049  0.00203513  0.25486576  1
  O  O22  1  0.27900271  0.00780911  0.84143045  1
  O  O23  1  0.77900271  0.49219089  0.34143045  1
  O  O24  1  0.72099729  0.99219089  0.15856955  1
  O  O25  1  0.22099729  0.50780911  0.65856955  1
