# generated using pymatgen
data_Sc(BRu)4
_symmetry_space_group_name_H-M   'P 1'
_cell_length_a   7.38987715
_cell_length_b   7.38987715
_cell_length_c   9.13631259
_cell_angle_alpha   113.85499931
_cell_angle_beta   113.85499931
_cell_angle_gamma   90.00000000
_symmetry_Int_Tables_number   1
_chemical_formula_structural   Sc(BRu)4
_chemical_formula_sum   'Sc4 B16 Ru16'
_cell_volume   409.27508271
_cell_formula_units_Z   4
loop_
 _symmetry_equiv_pos_site_id
 _symmetry_equiv_pos_as_xyz
  1  'x, y, z'
loop_
 _atom_site_type_symbol
 _atom_site_label
 _atom_site_symmetry_multiplicity
 _atom_site_fract_x
 _atom_site_fract_y
 _atom_site_fract_z
 _atom_site_occupancy
  Sc  Sc0  1  0.12500000  0.37500000  0.25000000  1
  Sc  Sc1  1  0.62500000  0.87500000  0.25000000  1
  Sc  Sc2  1  0.87500000  0.62500000  0.75000000  1
  Sc  Sc3  1  0.37500000  0.12500000  0.75000000  1
  B  B4  1  0.78707182  0.34214423  0.91285821  1
  B  B5  1  0.62578639  0.84214423  0.91285821  1
  B  B6  1  0.84214423  0.28707182  0.41285821  1
  B  B7  1  0.07071398  0.78707182  0.41285821  1
  B  B8  1  0.21292818  0.65785577  0.08714179  1
  B  B9  1  0.37421361  0.15785577  0.08714179  1
  B  B10  1  0.15785577  0.71292818  0.58714179  1
  B  B11  1  0.92928602  0.21292818  0.58714179  1
  B  B12  1  0.28707182  0.57071398  0.91285821  1
  B  B13  1  0.12578639  0.07071398  0.91285821  1
  B  B14  1  0.34214423  0.12578639  0.41285821  1
  B  B15  1  0.57071398  0.62578639  0.41285821  1
  B  B16  1  0.71292818  0.42928602  0.08714179  1
  B  B17  1  0.87421361  0.92928602  0.08714179  1
  B  B18  1  0.65785577  0.87421361  0.58714179  1
  B  B19  1  0.42928602  0.37421361  0.58714179  1
  Ru  Ru20  1  0.94852855  0.65977996  0.12685009  1
  Ru  Ru21  1  0.67832154  0.15977996  0.12685009  1
  Ru  Ru22  1  0.15977996  0.44852855  0.62685009  1
  Ru  Ru23  1  0.96707013  0.94852855  0.62685009  1
  Ru  Ru24  1  0.05147145  0.34022004  0.87314991  1
  Ru  Ru25  1  0.32167846  0.84022004  0.87314991  1
  Ru  Ru26  1  0.84022004  0.55147145  0.37314991  1
  Ru  Ru27  1  0.03292987  0.05147145  0.37314991  1
  Ru  Ru28  1  0.44852855  0.46707013  0.12685009  1
  Ru  Ru29  1  0.17832154  0.96707013  0.12685009  1
  Ru  Ru30  1  0.65977996  0.17832154  0.62685009  1
  Ru  Ru31  1  0.46707013  0.67832154  0.62685009  1
  Ru  Ru32  1  0.55147145  0.53292987  0.87314991  1
  Ru  Ru33  1  0.82167846  0.03292987  0.87314991  1
  Ru  Ru34  1  0.34022004  0.82167846  0.37314991  1
  Ru  Ru35  1  0.53292987  0.32167846  0.37314991  1
