# generated using pymatgen
data_NaLiB2(H5N)2
_symmetry_space_group_name_H-M   'P 1'
_cell_length_a   5.20369544
_cell_length_b   7.14280364
_cell_length_c   8.76430868
_cell_angle_alpha   103.67206735
_cell_angle_beta   102.76123219
_cell_angle_gamma   103.91678931
_symmetry_Int_Tables_number   1
_chemical_formula_structural   NaLiB2(H5N)2
_chemical_formula_sum   'Na2 Li2 B4 H20 N4'
_cell_volume   293.61462930
_cell_formula_units_Z   2
loop_
 _symmetry_equiv_pos_site_id
 _symmetry_equiv_pos_as_xyz
  1  'x, y, z'
loop_
 _atom_site_type_symbol
 _atom_site_label
 _atom_site_symmetry_multiplicity
 _atom_site_fract_x
 _atom_site_fract_y
 _atom_site_fract_z
 _atom_site_occupancy
  Na  Na0  1  0.34004528  0.23327264  0.01354483  1
  Na  Na1  1  0.65995472  0.76672736  0.98645517  1
  Li  Li2  1  0.94843113  0.56228617  0.36786730  1
  Li  Li3  1  0.05156887  0.43771383  0.63213270  1
  B  B4  1  0.14366878  0.79966820  0.80407424  1
  B  B5  1  0.85633122  0.20033180  0.19592576  1
  B  B6  1  0.48755137  0.63782337  0.25151822  1
  B  B7  1  0.51244863  0.36217663  0.74848178  1
  H  H8  1  0.94269883  0.82387787  0.57288950  1
  H  H9  1  0.05730117  0.17612213  0.42711050  1
  H  H10  1  0.75793936  0.64274204  0.62208106  1
  H  H11  1  0.24206064  0.35725796  0.37791894  1
  H  H12  1  0.16517590  0.66104702  0.86292549  1
  H  H13  1  0.83482410  0.33895298  0.13707451  1
  H  H14  1  0.04599165  0.90716202  0.89363388  1
  H  H15  1  0.95400835  0.09283798  0.10636612  1
  H  H16  1  0.37660592  0.90362170  0.81195129  1
  H  H17  1  0.62339408  0.09637830  0.18804871  1
  H  H18  1  0.30138137  0.86579239  0.32588583  1
  H  H19  1  0.69861863  0.13420761  0.67411417  1
  H  H20  1  0.42082419  0.78564424  0.47641095  1
  H  H21  1  0.57917581  0.21435576  0.52358905  1
  H  H22  1  0.72508371  0.74935096  0.27059949  1
  H  H23  1  0.27491629  0.25064904  0.72940051  1
  H  H24  1  0.36013764  0.58155114  0.10366657  1
  H  H25  1  0.63986236  0.41844886  0.89633343  1
  H  H26  1  0.51623434  0.48587701  0.28990078  1
  H  H27  1  0.48376566  0.51412299  0.71009922  1
  N  N28  1  0.95534577  0.70860931  0.62179455  1
  N  N29  1  0.04465423  0.29139069  0.37820545  1
  N  N30  1  0.31956886  0.73705156  0.35292977  1
  N  N31  1  0.68043114  0.26294844  0.64707023  1
