# generated using pymatgen
data_AlP3H10O11
_symmetry_space_group_name_H-M   'P 1'
_cell_length_a   6.51036518
_cell_length_b   8.42349748
_cell_length_c   19.74156053
_cell_angle_alpha   90.00000000
_cell_angle_beta   90.00000000
_cell_angle_gamma   90.00000000
_symmetry_Int_Tables_number   1
_chemical_formula_structural   AlP3H10O11
_chemical_formula_sum   'Al4 P12 H40 O44'
_cell_volume   1082.62806167
_cell_formula_units_Z   4
loop_
 _symmetry_equiv_pos_site_id
 _symmetry_equiv_pos_as_xyz
  1  'x, y, z'
loop_
 _atom_site_type_symbol
 _atom_site_label
 _atom_site_symmetry_multiplicity
 _atom_site_fract_x
 _atom_site_fract_y
 _atom_site_fract_z
 _atom_site_occupancy
  Al  Al0  1  0.19132681  0.73947129  0.94153256  1
  Al  Al1  1  0.69132681  0.26052871  0.05846744  1
  Al  Al2  1  0.69132681  0.76052871  0.44153256  1
  Al  Al3  1  0.19132681  0.23947129  0.55846744  1
  P  P4  1  0.99523233  0.94523658  0.06731156  1
  P  P5  1  0.49523233  0.05476342  0.93268844  1
  P  P6  1  0.49523233  0.55476342  0.56731156  1
  P  P7  1  0.99523233  0.44523658  0.43268844  1
  P  P8  1  0.02573503  0.38351645  0.95323802  1
  P  P9  1  0.52573503  0.61648355  0.04676198  1
  P  P10  1  0.52573503  0.11648355  0.45323802  1
  P  P11  1  0.02573503  0.88351645  0.54676198  1
  P  P12  1  0.49927662  0.64120617  0.81952050  1
  P  P13  1  -0.00072338  0.35879383  0.18047950  1
  P  P14  1  -0.00072338  0.85879383  0.31952050  1
  P  P15  1  0.49927662  0.14120617  0.68047950  1
  H  H16  1  0.98156913  0.82529854  0.11601781  1
  H  H17  1  0.48156913  0.17470146  0.88398219  1
  H  H18  1  0.48156913  0.67470146  0.61601781  1
  H  H19  1  0.98156913  0.32529854  0.38398219  1
  H  H20  1  0.19173907  0.33168242  0.99222557  1
  H  H21  1  0.69173907  0.66831758  0.00777443  1
  H  H22  1  0.69173907  0.16831758  0.49222557  1
  H  H23  1  0.19173907  0.83168242  0.50777443  1
  H  H24  1  0.47857338  0.79762821  0.79491110  1
  H  H25  1  0.97857338  0.20237179  0.20508890  1
  H  H26  1  0.97857338  0.70237179  0.29491110  1
  H  H27  1  0.47857338  0.29762821  0.70508890  1
  H  H28  1  0.31020104  0.04513760  0.04277403  1
  H  H29  1  0.81020104  0.95486240  0.95722597  1
  H  H30  1  0.81020104  0.45486240  0.54277403  1
  H  H31  1  0.31020104  0.54513760  0.45722597  1
  H  H32  1  0.02329104  0.23857688  0.85584633  1
  H  H33  1  0.52329104  0.76142312  0.14415367  1
  H  H34  1  0.52329104  0.26142312  0.35584633  1
  H  H35  1  0.02329104  0.73857688  0.64415367  1
  H  H36  1  0.25134566  0.55078535  0.75271187  1
  H  H37  1  0.75134566  0.44921465  0.24728813  1
  H  H38  1  0.75134566  0.94921465  0.25271187  1
  H  H39  1  0.25134566  0.05078535  0.74728813  1
  H  H40  1  0.88482074  0.85310674  0.88055096  1
  H  H41  1  0.38482074  0.14689326  0.11944904  1
  H  H42  1  0.38482074  0.64689326  0.38055096  1
  H  H43  1  0.88482074  0.35310674  0.61944904  1
  H  H44  1  0.91220007  0.68854646  0.85019214  1
  H  H45  1  0.41220007  0.31145354  0.14980786  1
  H  H46  1  0.41220007  0.81145354  0.35019214  1
  H  H47  1  0.91220007  0.18854646  0.64980786  1
  H  H48  1  0.90027111  0.06979740  0.75270464  1
  H  H49  1  0.40027111  0.93020260  0.24729536  1
  H  H50  1  0.40027111  0.43020260  0.25270464  1
  H  H51  1  0.90027111  0.56979740  0.74729536  1
  H  H52  1  0.02370623  0.96870238  0.80646863  1
  H  H53  1  0.52370623  0.03129762  0.19353137  1
  H  H54  1  0.52370623  0.53129762  0.30646863  1
  H  H55  1  0.02370623  0.46870238  0.69353137  1
  O  O56  1  0.99347901  0.87372031  0.99559791  1
  O  O57  1  0.49347901  0.12627969  0.00440209  1
  O  O58  1  0.49347901  0.62627969  0.49559791  1
  O  O59  1  0.99347901  0.37372031  0.50440209  1
  O  O60  1  0.21043233  0.02550149  0.08179597  1
  O  O61  1  0.71043233  0.97449851  0.91820403  1
  O  O62  1  0.71043233  0.47449851  0.58179597  1
  O  O63  1  0.21043233  0.52550149  0.41820403  1
  O  O64  1  0.82161374  0.06106238  0.07916854  1
  O  O65  1  0.32161374  0.93893762  0.92083146  1
  O  O66  1  0.32161374  0.43893762  0.57916854  1
  O  O67  1  0.82161374  0.56106238  0.42083146  1
  O  O68  1  0.01982932  0.56338882  0.95679277  1
  O  O69  1  0.51982932  0.43661118  0.04320723  1
  O  O70  1  0.51982932  0.93661118  0.45679277  1
  O  O71  1  0.01982932  0.06338882  0.54320723  1
  O  O72  1  0.83418303  0.29671880  0.97770220  1
  O  O73  1  0.33418303  0.70328120  0.02229780  1
  O  O74  1  0.33418303  0.20328120  0.47770220  1
  O  O75  1  0.83418303  0.79671880  0.52229780  1
  O  O76  1  0.07805514  0.33496978  0.87756346  1
  O  O77  1  0.57805514  0.66503022  0.12243654  1
  O  O78  1  0.57805514  0.16503022  0.37756346  1
  O  O79  1  0.07805514  0.83496978  0.62243654  1
  O  O80  1  0.37343163  0.63082512  0.88528449  1
  O  O81  1  0.87343163  0.36917488  0.11471551  1
  O  O82  1  0.87343163  0.86917488  0.38528449  1
  O  O83  1  0.37343163  0.13082512  0.61471551  1
  O  O84  1  0.72310346  0.59320801  0.82309351  1
  O  O85  1  0.22310346  0.40679199  0.17690649  1
  O  O86  1  0.22310346  0.90679199  0.32309351  1
  O  O87  1  0.72310346  0.09320801  0.67690649  1
  O  O88  1  0.40064109  0.53194281  0.76266886  1
  O  O89  1  0.90064109  0.46805719  0.23733114  1
  O  O90  1  0.90064109  0.96805719  0.26266886  1
  O  O91  1  0.40064109  0.03194281  0.73733114  1
  O  O92  1  0.99922747  0.78442531  0.86549028  1
  O  O93  1  0.49922747  0.21557469  0.13450972  1
  O  O94  1  0.49922747  0.71557469  0.36549028  1
  O  O95  1  0.99922747  0.28442531  0.63450972  1
  O  O96  1  0.01901555  0.07339807  0.78436388  1
  O  O97  1  0.51901555  0.92660193  0.21563612  1
  O  O98  1  0.51901555  0.42660193  0.28436388  1
  O  O99  1  0.01901555  0.57339807  0.71563612  1
