# generated using pymatgen
data_UP2H10CO11
_symmetry_space_group_name_H-M   'P 1'
_cell_length_a   7.63758870
_cell_length_b   9.73534477
_cell_length_c   14.90394815
_cell_angle_alpha   90.00000000
_cell_angle_beta   90.00000000
_cell_angle_gamma   90.00000000
_symmetry_Int_Tables_number   1
_chemical_formula_structural   UP2H10CO11
_chemical_formula_sum   'U4 P8 H40 C4 O44'
_cell_volume   1108.17649512
_cell_formula_units_Z   4
loop_
 _symmetry_equiv_pos_site_id
 _symmetry_equiv_pos_as_xyz
  1  'x, y, z'
loop_
 _atom_site_type_symbol
 _atom_site_label
 _atom_site_symmetry_multiplicity
 _atom_site_fract_x
 _atom_site_fract_y
 _atom_site_fract_z
 _atom_site_occupancy
  U  U0  1  0.33985051  0.25000000  0.93757466  1
  U  U1  1  0.83985051  0.25000000  0.56242534  1
  U  U2  1  0.66014949  0.75000000  0.06242534  1
  U  U3  1  0.16014949  0.75000000  0.43757466  1
  P  P4  1  0.54451063  0.09390978  0.13293778  1
  P  P5  1  0.04451063  0.40609022  0.36706222  1
  P  P6  1  0.45548937  0.59390978  0.86706222  1
  P  P7  1  0.95548937  0.90609022  0.63293778  1
  P  P8  1  0.45548937  0.90609022  0.86706222  1
  P  P9  1  0.95548937  0.59390978  0.63293778  1
  P  P10  1  0.54451063  0.40609022  0.13293778  1
  P  P11  1  0.04451063  0.09390978  0.36706222  1
  H  H12  1  0.74917730  0.25000000  0.06748039  1
  H  H13  1  0.24917730  0.25000000  0.43251961  1
  H  H14  1  0.25082270  0.75000000  0.93251961  1
  H  H15  1  0.75082270  0.75000000  0.56748039  1
  H  H16  1  0.76355125  0.25000000  0.18704098  1
  H  H17  1  0.26355125  0.25000000  0.31295902  1
  H  H18  1  0.23644875  0.75000000  0.81295902  1
  H  H19  1  0.73644875  0.75000000  0.68704098  1
  H  H20  1  0.29342031  0.16937404  0.73415849  1
  H  H21  1  0.79342031  0.33062596  0.76584151  1
  H  H22  1  0.70657969  0.66937404  0.26584151  1
  H  H23  1  0.20657969  0.83062596  0.23415849  1
  H  H24  1  0.70657969  0.83062596  0.26584151  1
  H  H25  1  0.20657969  0.66937404  0.23415849  1
  H  H26  1  0.29342031  0.33062596  0.73415849  1
  H  H27  1  0.79342031  0.16937404  0.76584151  1
  H  H28  1  0.52358509  0.03579555  0.27846010  1
  H  H29  1  0.02358509  0.46420445  0.22153990  1
  H  H30  1  0.47641491  0.53579555  0.72153990  1
  H  H31  1  0.97641491  0.96420445  0.77846010  1
  H  H32  1  0.47641491  0.96420445  0.72153990  1
  H  H33  1  0.97641491  0.53579555  0.77846010  1
  H  H34  1  0.52358509  0.46420445  0.27846010  1
  H  H35  1  0.02358509  0.03579555  0.22153990  1
  H  H36  1  0.71309570  0.00393238  0.38621478  1
  H  H37  1  0.21309570  0.49606762  0.11378522  1
  H  H38  1  0.28690430  0.50393238  0.61378522  1
  H  H39  1  0.78690430  0.99606762  0.88621478  1
  H  H40  1  0.28690430  0.99606762  0.61378522  1
  H  H41  1  0.78690430  0.50393238  0.88621478  1
  H  H42  1  0.71309570  0.49606762  0.38621478  1
  H  H43  1  0.21309570  0.00393238  0.11378522  1
  H  H44  1  0.54818580  0.90318982  0.39493071  1
  H  H45  1  0.04818580  0.59681018  0.10506929  1
  H  H46  1  0.45181420  0.40318982  0.60506929  1
  H  H47  1  0.95181420  0.09681018  0.89493071  1
  H  H48  1  0.45181420  0.09681018  0.60506929  1
  H  H49  1  0.95181420  0.40318982  0.89493071  1
  H  H50  1  0.54818580  0.59681018  0.39493071  1
  H  H51  1  0.04818580  0.90318982  0.10506929  1
  C  C52  1  0.67234719  0.25000000  0.12984160  1
  C  C53  1  0.17234719  0.25000000  0.37015840  1
  C  C54  1  0.32765281  0.75000000  0.87015840  1
  C  C55  1  0.82765281  0.75000000  0.62984160  1
  O  O56  1  0.57370945  0.25000000  0.91835097  1
  O  O57  1  0.07370945  0.25000000  0.58164903  1
  O  O58  1  0.42629055  0.75000000  0.08164903  1
  O  O59  1  0.92629055  0.75000000  0.41835097  1
  O  O60  1  0.10193114  0.25000000  0.95675485  1
  O  O61  1  0.60193114  0.25000000  0.54324515  1
  O  O62  1  0.89806886  0.75000000  0.04324515  1
  O  O63  1  0.39806886  0.75000000  0.45675485  1
  O  O64  1  0.32924338  0.02575677  0.88353019  1
  O  O65  1  0.82924338  0.47424323  0.61646981  1
  O  O66  1  0.67075662  0.52575677  0.11646981  1
  O  O67  1  0.17075662  0.97424323  0.38353019  1
  O  O68  1  0.67075662  0.97424323  0.11646981  1
  O  O69  1  0.17075662  0.52575677  0.38353019  1
  O  O70  1  0.32924338  0.47424323  0.88353019  1
  O  O71  1  0.82924338  0.02575677  0.61646981  1
  O  O72  1  0.39155904  0.10490144  0.06622276  1
  O  O73  1  0.89155904  0.39509856  0.43377724  1
  O  O74  1  0.60844096  0.60490144  0.93377724  1
  O  O75  1  0.10844096  0.89509856  0.56622276  1
  O  O76  1  0.60844096  0.89509856  0.93377724  1
  O  O77  1  0.10844096  0.60490144  0.56622276  1
  O  O78  1  0.39155904  0.39509856  0.06622276  1
  O  O79  1  0.89155904  0.10490144  0.43377724  1
  O  O80  1  0.27333548  0.25000000  0.77318372  1
  O  O81  1  0.77333548  0.25000000  0.72681628  1
  O  O82  1  0.72666452  0.75000000  0.22681628  1
  O  O83  1  0.22666452  0.75000000  0.27318372  1
  O  O84  1  0.45614993  0.08390356  0.22812245  1
  O  O85  1  0.95614993  0.41609644  0.27187755  1
  O  O86  1  0.54385007  0.58390356  0.77187755  1
  O  O87  1  0.04385007  0.91609644  0.72812245  1
  O  O88  1  0.54385007  0.91609644  0.77187755  1
  O  O89  1  0.04385007  0.58390356  0.72812245  1
  O  O90  1  0.45614993  0.41609644  0.22812245  1
  O  O91  1  0.95614993  0.08390356  0.27187755  1
  O  O92  1  0.62178049  0.95341578  0.35205780  1
  O  O93  1  0.12178049  0.54658422  0.14794220  1
  O  O94  1  0.37821951  0.45341578  0.64794220  1
  O  O95  1  0.87821951  0.04658422  0.85205780  1
  O  O96  1  0.37821951  0.04658422  0.64794220  1
  O  O97  1  0.87821951  0.45341578  0.85205780  1
  O  O98  1  0.62178049  0.54658422  0.35205780  1
  O  O99  1  0.12178049  0.95341578  0.14794220  1
