# generated using pymatgen
data_InH12C4Se2Cl3
_symmetry_space_group_name_H-M   'P 1'
_cell_length_a   11.99612026
_cell_length_b   12.25319634
_cell_length_c   18.65272421
_cell_angle_alpha   90.00000000
_cell_angle_beta   90.00000000
_cell_angle_gamma   90.00000000
_symmetry_Int_Tables_number   1
_chemical_formula_structural   InH12C4Se2Cl3
_chemical_formula_sum   'In8 H96 C32 Se16 Cl24'
_cell_volume   2741.77916837
_cell_formula_units_Z   8
loop_
 _symmetry_equiv_pos_site_id
 _symmetry_equiv_pos_as_xyz
  1  'x, y, z'
loop_
 _atom_site_type_symbol
 _atom_site_label
 _atom_site_symmetry_multiplicity
 _atom_site_fract_x
 _atom_site_fract_y
 _atom_site_fract_z
 _atom_site_occupancy
  In  In0  1  0.42419909  0.57041098  0.41701267  1
  In  In1  1  0.92419909  0.92958902  0.58298733  1
  In  In2  1  0.57580091  0.07041098  0.08298733  1
  In  In3  1  0.07580091  0.42958902  0.91701267  1
  In  In4  1  0.57580091  0.42958902  0.58298733  1
  In  In5  1  0.07580091  0.07041098  0.41701267  1
  In  In6  1  0.42419909  0.92958902  0.91701267  1
  In  In7  1  0.92419909  0.57041098  0.08298733  1
  H  H8  1  0.09657477  0.50063538  0.38876852  1
  H  H9  1  0.59657477  0.99936462  0.61123148  1
  H  H10  1  0.90342523  0.00063538  0.11123148  1
  H  H11  1  0.40342523  0.49936462  0.88876852  1
  H  H12  1  0.90342523  0.49936462  0.61123148  1
  H  H13  1  0.40342523  0.00063538  0.38876852  1
  H  H14  1  0.09657477  0.99936462  0.88876852  1
  H  H15  1  0.59657477  0.50063538  0.11123148  1
  H  H16  1  0.13373550  0.64316760  0.39940771  1
  H  H17  1  0.63373550  0.85683240  0.60059229  1
  H  H18  1  0.86626450  0.14316760  0.10059229  1
  H  H19  1  0.36626450  0.35683240  0.89940771  1
  H  H20  1  0.86626450  0.35683240  0.60059229  1
  H  H21  1  0.36626450  0.14316760  0.39940771  1
  H  H22  1  0.13373550  0.85683240  0.89940771  1
  H  H23  1  0.63373550  0.64316760  0.10059229  1
  H  H24  1  0.03251368  0.58187836  0.45818764  1
  H  H25  1  0.53251368  0.91812164  0.54181236  1
  H  H26  1  0.96748632  0.08187836  0.04181236  1
  H  H27  1  0.46748632  0.41812164  0.95818764  1
  H  H28  1  0.96748632  0.41812164  0.54181236  1
  H  H29  1  0.46748632  0.08187836  0.45818764  1
  H  H30  1  0.03251368  0.91812164  0.95818764  1
  H  H31  1  0.53251368  0.58187836  0.04181236  1
  H  H32  1  0.26695164  0.63455167  0.60259524  1
  H  H33  1  0.76695164  0.86544833  0.39740476  1
  H  H34  1  0.73304836  0.13455167  0.89740476  1
  H  H35  1  0.23304836  0.36544833  0.10259524  1
  H  H36  1  0.73304836  0.36544833  0.39740476  1
  H  H37  1  0.23304836  0.13455167  0.60259524  1
  H  H38  1  0.26695164  0.86544833  0.10259524  1
  H  H39  1  0.76695164  0.63455167  0.89740476  1
  H  H40  1  0.23757626  0.72387917  0.52768695  1
  H  H41  1  0.73757626  0.77612083  0.47231305  1
  H  H42  1  0.76242374  0.22387917  0.97231305  1
  H  H43  1  0.26242374  0.27612083  0.02768695  1
  H  H44  1  0.76242374  0.27612083  0.47231305  1
  H  H45  1  0.26242374  0.22387917  0.52768695  1
  H  H46  1  0.23757626  0.77612083  0.02768695  1
  H  H47  1  0.73757626  0.72387917  0.97231305  1
  H  H48  1  0.12468332  0.65714051  0.57359587  1
  H  H49  1  0.62468332  0.84285949  0.42640413  1
  H  H50  1  0.87531668  0.15714051  0.92640413  1
  H  H51  1  0.37531668  0.34285949  0.07359587  1
  H  H52  1  0.87531668  0.34285949  0.42640413  1
  H  H53  1  0.37531668  0.15714051  0.57359587  1
  H  H54  1  0.12468332  0.84285949  0.07359587  1
  H  H55  1  0.62468332  0.65714051  0.92640413  1
  H  H56  1  0.33607649  0.66179500  0.23079500  1
  H  H57  1  0.83607649  0.83820500  0.76920500  1
  H  H58  1  0.66392351  0.16179500  0.26920500  1
  H  H59  1  0.16392351  0.33820500  0.73079500  1
  H  H60  1  0.66392351  0.33820500  0.76920500  1
  H  H61  1  0.16392351  0.16179500  0.23079500  1
  H  H62  1  0.33607649  0.83820500  0.73079500  1
  H  H63  1  0.83607649  0.66179500  0.26920500  1
  H  H64  1  0.47251799  0.60021722  0.23260617  1
  H  H65  1  0.97251799  0.89978278  0.76739383  1
  H  H66  1  0.52748201  0.10021722  0.26739383  1
  H  H67  1  0.02748201  0.39978278  0.73260617  1
  H  H68  1  0.52748201  0.39978278  0.76739383  1
  H  H69  1  0.02748201  0.10021722  0.23260617  1
  H  H70  1  0.47251799  0.89978278  0.73260617  1
  H  H71  1  0.97251799  0.60021722  0.26739383  1
  H  H72  1  0.36725456  0.55355923  0.16902059  1
  H  H73  1  0.86725456  0.94644077  0.83097941  1
  H  H74  1  0.63274544  0.05355923  0.33097941  1
  H  H75  1  0.13274544  0.44644077  0.66902059  1
  H  H76  1  0.63274544  0.44644077  0.83097941  1
  H  H77  1  0.13274544  0.05355923  0.16902059  1
  H  H78  1  0.36725456  0.94644077  0.66902059  1
  H  H79  1  0.86725456  0.55355923  0.33097941  1
  H  H80  1  0.40752418  0.29445478  0.30599616  1
  H  H81  1  0.90752418  0.20554522  0.69400384  1
  H  H82  1  0.59247582  0.79445478  0.19400384  1
  H  H83  1  0.09247582  0.70554522  0.80599616  1
  H  H84  1  0.59247582  0.70554522  0.69400384  1
  H  H85  1  0.09247582  0.79445478  0.30599616  1
  H  H86  1  0.40752418  0.20554522  0.80599616  1
  H  H87  1  0.90752418  0.29445478  0.19400384  1
  H  H88  1  0.51516094  0.38864934  0.27871966  1
  H  H89  1  0.01516094  0.11135066  0.72128034  1
  H  H90  1  0.48483906  0.88864934  0.22128034  1
  H  H91  1  0.98483906  0.61135066  0.77871966  1
  H  H92  1  0.48483906  0.61135066  0.72128034  1
  H  H93  1  0.98483906  0.88864934  0.27871966  1
  H  H94  1  0.51516094  0.11135066  0.77871966  1
  H  H95  1  0.01516094  0.38864934  0.22128034  1
  H  H96  1  0.41566125  0.33685533  0.21399359  1
  H  H97  1  0.91566125  0.16314467  0.78600641  1
  H  H98  1  0.58433875  0.83685533  0.28600641  1
  H  H99  1  0.08433875  0.66314467  0.71399359  1
  H  H100  1  0.58433875  0.66314467  0.78600641  1
  H  H101  1  0.08433875  0.83685533  0.21399359  1
  H  H102  1  0.41566125  0.16314467  0.71399359  1
  H  H103  1  0.91566125  0.33685533  0.28600641  1
  C  C104  1  0.42926029  0.36131652  0.26971478  1
  C  C105  1  0.92926029  0.13868348  0.73028522  1
  C  C106  1  0.57073971  0.86131652  0.23028522  1
  C  C107  1  0.07073971  0.63868348  0.76971478  1
  C  C108  1  0.57073971  0.63868348  0.73028522  1
  C  C109  1  0.07073971  0.86131652  0.26971478  1
  C  C110  1  0.42926029  0.13868348  0.76971478  1
  C  C111  1  0.92926029  0.36131652  0.23028522  1
  C  C112  1  0.10816754  0.56781160  0.42665678  1
  C  C113  1  0.60816754  0.93218840  0.57334322  1
  C  C114  1  0.89183246  0.06781160  0.07334322  1
  C  C115  1  0.39183246  0.43218840  0.92665678  1
  C  C116  1  0.89183246  0.43218840  0.57334322  1
  C  C117  1  0.39183246  0.06781160  0.42665678  1
  C  C118  1  0.10816754  0.93218840  0.92665678  1
  C  C119  1  0.60816754  0.56781160  0.07334322  1
  C  C120  1  0.21205159  0.65054870  0.55694899  1
  C  C121  1  0.71205159  0.84945130  0.44305101  1
  C  C122  1  0.78794841  0.15054870  0.94305101  1
  C  C123  1  0.28794841  0.34945130  0.05694899  1
  C  C124  1  0.78794841  0.34945130  0.44305101  1
  C  C125  1  0.28794841  0.15054870  0.55694899  1
  C  C126  1  0.21205159  0.84945130  0.05694899  1
  C  C127  1  0.71205159  0.65054870  0.94305101  1
  C  C128  1  0.38376011  0.58664939  0.22256226  1
  C  C129  1  0.88376011  0.91335061  0.77743774  1
  C  C130  1  0.61623989  0.08664939  0.27743774  1
  C  C131  1  0.11623989  0.41335061  0.72256226  1
  C  C132  1  0.61623989  0.41335061  0.77743774  1
  C  C133  1  0.11623989  0.08664939  0.22256226  1
  C  C134  1  0.38376011  0.91335061  0.72256226  1
  C  C135  1  0.88376011  0.58664939  0.27743774  1
  Se  Se136  1  0.22398732  0.52186810  0.49474004  1
  Se  Se137  1  0.72398732  0.97813190  0.50525996  1
  Se  Se138  1  0.77601268  0.02186810  0.00525996  1
  Se  Se139  1  0.27601268  0.47813190  0.99474004  1
  Se  Se140  1  0.77601268  0.47813190  0.50525996  1
  Se  Se141  1  0.27601268  0.02186810  0.49474004  1
  Se  Se142  1  0.22398732  0.97813190  0.99474004  1
  Se  Se143  1  0.72398732  0.52186810  0.00525996  1
  Se  Se144  1  0.32550642  0.48027953  0.29162406  1
  Se  Se145  1  0.82550642  0.01972047  0.70837594  1
  Se  Se146  1  0.67449358  0.98027953  0.20837594  1
  Se  Se147  1  0.17449358  0.51972047  0.79162406  1
  Se  Se148  1  0.67449358  0.51972047  0.70837594  1
  Se  Se149  1  0.17449358  0.98027953  0.29162406  1
  Se  Se150  1  0.32550642  0.01972047  0.79162406  1
  Se  Se151  1  0.82550642  0.48027953  0.20837594  1
  Cl  Cl152  1  0.34720229  0.75395440  0.38826859  1
  Cl  Cl153  1  0.84720229  0.74604560  0.61173141  1
  Cl  Cl154  1  0.65279771  0.25395440  0.11173141  1
  Cl  Cl155  1  0.15279771  0.24604560  0.88826859  1
  Cl  Cl156  1  0.65279771  0.24604560  0.61173141  1
  Cl  Cl157  1  0.15279771  0.25395440  0.38826859  1
  Cl  Cl158  1  0.34720229  0.74604560  0.88826859  1
  Cl  Cl159  1  0.84720229  0.75395440  0.11173141  1
  Cl  Cl160  1  0.60292414  0.58970437  0.35337147  1
  Cl  Cl161  1  0.10292414  0.91029563  0.64662853  1
  Cl  Cl162  1  0.39707586  0.08970437  0.14662853  1
  Cl  Cl163  1  0.89707586  0.41029563  0.85337147  1
  Cl  Cl164  1  0.39707586  0.41029563  0.64662853  1
  Cl  Cl165  1  0.89707586  0.08970437  0.35337147  1
  Cl  Cl166  1  0.60292414  0.91029563  0.85337147  1
  Cl  Cl167  1  0.10292414  0.58970437  0.14662853  1
  Cl  Cl168  1  0.48579988  0.37126922  0.45963907  1
  Cl  Cl169  1  0.98579988  0.12873078  0.54036093  1
  Cl  Cl170  1  0.51420012  0.87126922  0.04036093  1
  Cl  Cl171  1  0.01420012  0.62873078  0.95963907  1
  Cl  Cl172  1  0.51420012  0.62873078  0.54036093  1
  Cl  Cl173  1  0.01420012  0.87126922  0.45963907  1
  Cl  Cl174  1  0.48579988  0.12873078  0.95963907  1
  Cl  Cl175  1  0.98579988  0.37126922  0.04036093  1
