# generated using pymatgen
data_Zn4Cu5(TeO6)3
_symmetry_space_group_name_H-M   'P 1'
_cell_length_a   8.73092753
_cell_length_b   8.73092753
_cell_length_c   10.54364553
_cell_angle_alpha   86.64337165
_cell_angle_beta   86.64337165
_cell_angle_gamma   60.86110278
_symmetry_Int_Tables_number   1
_chemical_formula_structural   Zn4Cu5(TeO6)3
_chemical_formula_sum   'Zn8 Cu10 Te6 O36'
_cell_volume   700.39326471
_cell_formula_units_Z   2
loop_
 _symmetry_equiv_pos_site_id
 _symmetry_equiv_pos_as_xyz
  1  'x, y, z'
loop_
 _atom_site_type_symbol
 _atom_site_label
 _atom_site_symmetry_multiplicity
 _atom_site_fract_x
 _atom_site_fract_y
 _atom_site_fract_z
 _atom_site_occupancy
  Zn  Zn0  1  0.43877790  0.51517317  0.79999410  1
  Zn  Zn1  1  0.48482683  0.56122210  0.20000590  1
  Zn  Zn2  1  0.12717006  0.82964771  0.29915996  1
  Zn  Zn3  1  0.17035229  0.87282994  0.70084004  1
  Zn  Zn4  1  0.46232131  0.13338449  0.67565273  1
  Zn  Zn5  1  0.86661551  0.53767869  0.32434727  1
  Zn  Zn6  1  0.74078852  0.85587338  0.17567408  1
  Zn  Zn7  1  0.14412662  0.25921148  0.82432592  1
  Cu  Cu8  1  0.98716923  0.01283077  0.00000000  1
  Cu  Cu9  1  0.93588667  0.74150654  0.80165215  1
  Cu  Cu10  1  0.25849346  0.06411333  0.19834785  1
  Cu  Cu11  1  0.34120475  0.33793473  0.30139465  1
  Cu  Cu12  1  0.66206527  0.65879525  0.69860535  1
  Cu  Cu13  1  0.50599394  0.19912188  0.01101060  1
  Cu  Cu14  1  0.80087812  0.49400606  0.98898940  1
  Cu  Cu15  1  0.80752856  0.89262019  0.51069626  1
  Cu  Cu16  1  0.10737981  0.19247144  0.48930374  1
  Cu  Cu17  1  0.62172021  0.37827979  0.50000000  1
  Te  Te18  1  0.80445129  0.19464035  0.25078122  1
  Te  Te19  1  0.80535965  0.19554871  0.74921878  1
  Te  Te20  1  0.13897644  0.53796863  0.05320955  1
  Te  Te21  1  0.46203137  0.86102356  0.94679045  1
  Te  Te22  1  0.14598113  0.53199652  0.55371465  1
  Te  Te23  1  0.46800348  0.85401887  0.44628535  1
  O  O24  1  0.22786638  0.61919663  0.68483645  1
  O  O25  1  0.38080337  0.77213362  0.31516355  1
  O  O26  1  0.36868217  0.43360980  0.45526221  1
  O  O27  1  0.56639020  0.63131783  0.54473779  1
  O  O28  1  0.54058520  0.96946810  0.07233866  1
  O  O29  1  0.03053190  0.45941480  0.92766134  1
  O  O30  1  0.04330651  0.75990301  0.95383206  1
  O  O31  1  0.24009699  0.95669349  0.04616794  1
  O  O32  1  0.23010390  0.61646586  0.18519265  1
  O  O33  1  0.38353414  0.76989610  0.81480735  1
  O  O34  1  0.71529313  0.43374638  0.30835539  1
  O  O35  1  0.56625362  0.28470687  0.69164461  1
  O  O36  1  0.56785256  0.28676423  0.18562241  1
  O  O37  1  0.71323577  0.43214744  0.81437759  1
  O  O38  1  0.04092180  0.10350344  0.31587206  1
  O  O39  1  0.89649656  0.95907820  0.68412794  1
  O  O40  1  0.06923836  0.42341092  0.42605555  1
  O  O41  1  0.57658908  0.93076164  0.57394445  1
  O  O42  1  0.89510932  0.95615630  0.19176568  1
  O  O43  1  0.04384370  0.10489068  0.80823432  1
  O  O44  1  0.04602412  0.75050769  0.45159056  1
  O  O45  1  0.24949231  0.95397588  0.54840944  1
  O  O46  1  0.35811944  0.43544722  0.95165757  1
  O  O47  1  0.56455278  0.64188056  0.04834243  1
  O  O48  1  0.75148399  0.11092445  0.91330822  1
  O  O49  1  0.88907555  0.24851601  0.08669178  1
  O  O50  1  0.72069390  0.13978609  0.41453703  1
  O  O51  1  0.86021391  0.27930610  0.58546297  1
  O  O52  1  0.39449266  0.08442128  0.85291594  1
  O  O53  1  0.91557872  0.60550734  0.14708406  1
  O  O54  1  0.69184542  0.78873357  0.35306416  1
  O  O55  1  0.21126643  0.30815458  0.64693584  1
  O  O56  1  0.25173986  0.30590930  0.14432635  1
  O  O57  1  0.69409070  0.74826014  0.85567365  1
  O  O58  1  0.91209859  0.64681545  0.64173464  1
  O  O59  1  0.35318455  0.08790141  0.35826536  1
