# generated using pymatgen
data_Cr6CuSi2(Pb5O17)2
_symmetry_space_group_name_H-M   'P 1'
_cell_length_a   9.79662134
_cell_length_b   10.11722218
_cell_length_c   10.10982108
_cell_angle_alpha   65.07001069
_cell_angle_beta   68.36945720
_cell_angle_gamma   71.67045268
_symmetry_Int_Tables_number   1
_chemical_formula_structural   Cr6CuSi2(Pb5O17)2
_chemical_formula_sum   'Cr6 Cu1 Si2 Pb10 O34'
_cell_volume   829.49503720
_cell_formula_units_Z   1
loop_
 _symmetry_equiv_pos_site_id
 _symmetry_equiv_pos_as_xyz
  1  'x, y, z'
loop_
 _atom_site_type_symbol
 _atom_site_label
 _atom_site_symmetry_multiplicity
 _atom_site_fract_x
 _atom_site_fract_y
 _atom_site_fract_z
 _atom_site_occupancy
  Cr  Cr0  1  0.96564088  0.72092158  0.35477493  1
  Cr  Cr1  1  0.03435912  0.27907842  0.64522507  1
  Cr  Cr2  1  0.26465334  0.01827271  0.15423957  1
  Cr  Cr3  1  0.73534666  0.98172729  0.84576043  1
  Cr  Cr4  1  0.22297463  0.48787095  0.83549483  1
  Cr  Cr5  1  0.77702537  0.51212905  0.16450517  1
  Cu  Cu6  1  0.50000000  0.50000000  0.00000000  1
  Si  Si7  1  0.52097778  0.79246500  0.66551619  1
  Si  Si8  1  0.47902222  0.20753500  0.33448381  1
  Pb  Pb9  1  0.63452568  0.84392791  0.26090087  1
  Pb  Pb10  1  0.36547432  0.15607209  0.73909913  1
  Pb  Pb11  1  0.64514213  0.42577804  0.66767976  1
  Pb  Pb12  1  0.35485787  0.57422196  0.33232024  1
  Pb  Pb13  1  0.81845925  0.21543622  0.02776563  1
  Pb  Pb14  1  0.18154075  0.78456378  0.97223437  1
  Pb  Pb15  1  0.85609240  0.67321566  0.74698008  1
  Pb  Pb16  1  0.14390760  0.32678434  0.25301992  1
  Pb  Pb17  1  0.23652945  0.91652550  0.53207529  1
  Pb  Pb18  1  0.76347055  0.08347450  0.46792471  1
  O  O19  1  0.01743500  0.74581915  0.48176974  1
  O  O20  1  0.98256500  0.25418085  0.51823026  1
  O  O21  1  0.81883924  0.63796157  0.43866418  1
  O  O22  1  0.18116076  0.36203843  0.56133582  1
  O  O23  1  0.88538950  0.38118106  0.73643049  1
  O  O24  1  0.11461050  0.61881894  0.26356951  1
  O  O25  1  0.91717313  0.88248477  0.22834204  1
  O  O26  1  0.08282687  0.11751523  0.77165796  1
  O  O27  1  0.35627383  0.86656935  0.27146572  1
  O  O28  1  0.64372617  0.13343065  0.72853428  1
  O  O29  1  0.36856516  0.14366819  0.05524302  1
  O  O30  1  0.63143484  0.85633181  0.94475698  1
  O  O31  1  0.22137582  0.97439046  0.03467707  1
  O  O32  1  0.77862418  0.02560954  0.96532293  1
  O  O33  1  0.11086121  0.08862536  0.26794166  1
  O  O34  1  0.88913879  0.91137464  0.73205834  1
  O  O35  1  0.10740977  0.37271977  0.91303105  1
  O  O36  1  0.89259023  0.62728023  0.08696895  1
  O  O37  1  0.14156401  0.65529529  0.73951533  1
  O  O38  1  0.85843599  0.34470471  0.26048467  1
  O  O39  1  0.26605691  0.50854343  0.97200064  1
  O  O40  1  0.73394309  0.49145657  0.02799936  1
  O  O41  1  0.37929154  0.41980440  0.71842680  1
  O  O42  1  0.62070846  0.58019560  0.28157320  1
  O  O43  1  0.49005128  0.78546042  0.51775014  1
  O  O44  1  0.50994872  0.21453958  0.48224986  1
  O  O45  1  0.56441382  0.61733593  0.78269953  1
  O  O46  1  0.43558618  0.38266407  0.21730047  1
  O  O47  1  0.63792246  0.11206304  0.26015911  1
  O  O48  1  0.36207754  0.88793696  0.73984089  1
  O  O49  1  0.66985007  0.86172410  0.61715731  1
  O  O50  1  0.33014993  0.13827590  0.38284269  1
  O  O51  1  0.59874912  0.34222725  0.94159968  1
  O  O52  1  0.40125088  0.65777275  0.05840032  1
