# generated using pymatgen
data_Na8H10S8O17
_symmetry_space_group_name_H-M   'P 1'
_cell_length_a   11.34532178
_cell_length_b   11.65210698
_cell_length_c   17.62331504
_cell_angle_alpha   94.92961685
_cell_angle_beta   90.00000000
_cell_angle_gamma   90.00000000
_symmetry_Int_Tables_number   1
_chemical_formula_structural   Na8H10S8O17
_chemical_formula_sum   'Na32 H40 S32 O68'
_cell_volume   2321.12995796
_cell_formula_units_Z   4
loop_
 _symmetry_equiv_pos_site_id
 _symmetry_equiv_pos_as_xyz
  1  'x, y, z'
loop_
 _atom_site_type_symbol
 _atom_site_label
 _atom_site_symmetry_multiplicity
 _atom_site_fract_x
 _atom_site_fract_y
 _atom_site_fract_z
 _atom_site_occupancy
  Na  Na0  1  0.35782293  0.51388996  0.89775973  1
  Na  Na1  1  0.85782293  0.48611004  0.60224027  1
  Na  Na2  1  0.64217707  0.48611004  0.10224027  1
  Na  Na3  1  0.14217707  0.51388996  0.39775973  1
  Na  Na4  1  0.11497233  0.51042362  0.75275155  1
  Na  Na5  1  0.61497233  0.48957638  0.74724845  1
  Na  Na6  1  0.88502767  0.48957638  0.24724845  1
  Na  Na7  1  0.38502767  0.51042362  0.25275155  1
  Na  Na8  1  0.13273155  0.16780097  0.75362486  1
  Na  Na9  1  0.63273155  0.83219903  0.74637514  1
  Na  Na10  1  0.86726845  0.83219903  0.24637514  1
  Na  Na11  1  0.36726845  0.16780097  0.25362486  1
  Na  Na12  1  0.12729567  0.65997400  0.59262141  1
  Na  Na13  1  0.62729567  0.34002600  0.90737859  1
  Na  Na14  1  0.87270433  0.34002600  0.40737859  1
  Na  Na15  1  0.37270433  0.65997400  0.09262141  1
  Na  Na16  1  0.12831440  0.34395752  0.91111513  1
  Na  Na17  1  0.62831440  0.65604248  0.58888487  1
  Na  Na18  1  0.87168560  0.65604248  0.08888487  1
  Na  Na19  1  0.37168560  0.34395752  0.41111513  1
  Na  Na20  1  0.85854236  0.51218443  0.89296586  1
  Na  Na21  1  0.35854236  0.48781557  0.60703414  1
  Na  Na22  1  0.14145764  0.48781557  0.10703414  1
  Na  Na23  1  0.64145764  0.51218443  0.39296586  1
  Na  Na24  1  0.90153069  0.81512963  0.90012146  1
  Na  Na25  1  0.40153069  0.18487037  0.59987854  1
  Na  Na26  1  0.09846931  0.18487037  0.09987854  1
  Na  Na27  1  0.59846931  0.81512963  0.40012146  1
  Na  Na28  1  0.39846607  0.82361917  0.90808622  1
  Na  Na29  1  0.89846607  0.17638083  0.59191378  1
  Na  Na30  1  0.60153393  0.17638083  0.09191378  1
  Na  Na31  1  0.10153393  0.82361917  0.40808622  1
  H  H32  1  0.88846741  0.06401765  0.88192970  1
  H  H33  1  0.38846741  0.93598235  0.61807030  1
  H  H34  1  0.11153259  0.93598235  0.11807030  1
  H  H35  1  0.61153259  0.06401765  0.38192970  1
  H  H36  1  0.90059838  0.07376132  0.97165144  1
  H  H37  1  0.40059838  0.92623868  0.52834856  1
  H  H38  1  0.09940162  0.92623868  0.02834856  1
  H  H39  1  0.59940162  0.07376132  0.47165144  1
  H  H40  1  0.06253905  0.92655249  0.72271892  1
  H  H41  1  0.56253905  0.07344751  0.77728108  1
  H  H42  1  0.93746095  0.07344751  0.27728108  1
  H  H43  1  0.43746095  0.92655249  0.22271892  1
  H  H44  1  0.20160794  0.92860775  0.72190996  1
  H  H45  1  0.70160794  0.07139225  0.77809004  1
  H  H46  1  0.79839206  0.07139225  0.27809004  1
  H  H47  1  0.29839206  0.92860775  0.22190996  1
  H  H48  1  0.06736053  0.09075274  0.90276070  1
  H  H49  1  0.56736053  0.90924726  0.59723930  1
  H  H50  1  0.93263947  0.90924726  0.09723930  1
  H  H51  1  0.43263947  0.09075274  0.40276070  1
  H  H52  1  0.20699775  0.09734577  0.90459210  1
  H  H53  1  0.70699775  0.90265423  0.59540790  1
  H  H54  1  0.79300225  0.90265423  0.09540790  1
  H  H55  1  0.29300225  0.09734577  0.40459210  1
  H  H56  1  0.38291290  0.07197599  0.87987268  1
  H  H57  1  0.88291290  0.92802401  0.62012732  1
  H  H58  1  0.61708710  0.92802401  0.12012732  1
  H  H59  1  0.11708710  0.07197599  0.37987268  1
  H  H60  1  0.37305951  0.07901815  0.96973752  1
  H  H61  1  0.87305951  0.92098185  0.53026248  1
  H  H62  1  0.62694049  0.92098185  0.03026248  1
  H  H63  1  0.12694049  0.07901815  0.46973752  1
  H  H64  1  0.21802950  0.85839719  0.53634906  1
  H  H65  1  0.71802950  0.14160281  0.96365094  1
  H  H66  1  0.78197050  0.14160281  0.46365094  1
  H  H67  1  0.28197050  0.85839719  0.03634906  1
  H  H68  1  0.13196407  0.90740005  0.60173181  1
  H  H69  1  0.63196407  0.09259995  0.89826819  1
  H  H70  1  0.86803593  0.09259995  0.39826819  1
  H  H71  1  0.36803593  0.90740005  0.10173181  1
  S  S72  1  0.88495616  0.85473373  0.73706727  1
  S  S73  1  0.38495616  0.14526627  0.76293273  1
  S  S74  1  0.11504384  0.14526627  0.26293273  1
  S  S75  1  0.61504384  0.85473373  0.23706727  1
  S  S76  1  0.38041455  0.85620207  0.73561201  1
  S  S77  1  0.88041455  0.14379793  0.76438799  1
  S  S78  1  0.61958545  0.14379793  0.26438799  1
  S  S79  1  0.11958545  0.85620207  0.23561201  1
  S  S80  1  0.35223722  0.19918513  0.08361194  1
  S  S81  1  0.85223722  0.80081487  0.41638806  1
  S  S82  1  0.64776278  0.80081487  0.91638806  1
  S  S83  1  0.14776278  0.19918513  0.58361194  1
  S  S84  1  0.85150984  0.19497976  0.07469312  1
  S  S85  1  0.35150984  0.80502024  0.42530688  1
  S  S86  1  0.14849016  0.80502024  0.92530688  1
  S  S87  1  0.64849016  0.19497976  0.57469312  1
  S  S88  1  0.87882244  0.68041717  0.73173404  1
  S  S89  1  0.37882244  0.31958283  0.76826596  1
  S  S90  1  0.12117756  0.31958283  0.26826596  1
  S  S91  1  0.62117756  0.68041717  0.23173404  1
  S  S92  1  0.37698114  0.68190905  0.73492122  1
  S  S93  1  0.87698114  0.31809095  0.76507878  1
  S  S94  1  0.62301886  0.31809095  0.26507878  1
  S  S95  1  0.12301886  0.68190905  0.23492122  1
  S  S96  1  0.38439728  0.35796699  0.04734764  1
  S  S97  1  0.88439728  0.64203301  0.45265236  1
  S  S98  1  0.61560272  0.64203301  0.95265236  1
  S  S99  1  0.11560272  0.35796699  0.54734764  1
  S  S100  1  0.88779803  0.35446820  0.04283698  1
  S  S101  1  0.38779803  0.64553180  0.45716302  1
  S  S102  1  0.11220197  0.64553180  0.95716302  1
  S  S103  1  0.61220197  0.35446820  0.54283698  1
  O  O104  1  0.75950004  0.64250925  0.70328493  1
  O  O105  1  0.25950004  0.35749075  0.79671507  1
  O  O106  1  0.24049996  0.35749075  0.29671507  1
  O  O107  1  0.74049996  0.64250925  0.20328493  1
  O  O108  1  0.89871742  0.64761944  0.80992748  1
  O  O109  1  0.39871742  0.35238056  0.69007252  1
  O  O110  1  0.10128258  0.35238056  0.19007252  1
  O  O111  1  0.60128258  0.64761944  0.30992748  1
  O  O112  1  0.97153239  0.62827288  0.67982648  1
  O  O113  1  0.47153239  0.37172712  0.82017352  1
  O  O114  1  0.02846761  0.37172712  0.32017352  1
  O  O115  1  0.52846761  0.62827288  0.17982648  1
  O  O116  1  0.38662831  0.65488797  0.81506205  1
  O  O117  1  0.88662831  0.34511203  0.68493795  1
  O  O118  1  0.61337169  0.34511203  0.18493795  1
  O  O119  1  0.11337169  0.65488797  0.31506205  1
  O  O120  1  0.26650501  0.63441231  0.69931298  1
  O  O121  1  0.76650501  0.36558769  0.80068702  1
  O  O122  1  0.73349499  0.36558769  0.30068702  1
  O  O123  1  0.23349499  0.63441231  0.19931298  1
  O  O124  1  0.48141997  0.63388655  0.69055678  1
  O  O125  1  0.98141997  0.36611345  0.80944322  1
  O  O126  1  0.51858003  0.36611345  0.30944322  1
  O  O127  1  0.01858003  0.63388655  0.19055678  1
  O  O128  1  0.30709594  0.37313149  0.98107521  1
  O  O129  1  0.80709594  0.62686851  0.51892479  1
  O  O130  1  0.69290406  0.62686851  0.01892479  1
  O  O131  1  0.19290406  0.37313149  0.48107521  1
  O  O132  1  0.51092393  0.36448466  0.02539412  1
  O  O133  1  0.01092393  0.63551534  0.47460588  1
  O  O134  1  0.48907607  0.63551534  0.97460588  1
  O  O135  1  0.98907607  0.36448466  0.52539412  1
  O  O136  1  0.35674417  0.44730147  0.11041526  1
  O  O137  1  0.85674417  0.55269853  0.38958474  1
  O  O138  1  0.64325583  0.55269853  0.88958474  1
  O  O139  1  0.14325583  0.44730147  0.61041526  1
  O  O140  1  0.85826278  0.44294188  0.10627415  1
  O  O141  1  0.35826278  0.55705812  0.39372585  1
  O  O142  1  0.14173722  0.55705812  0.89372585  1
  O  O143  1  0.64173722  0.44294188  0.60627415  1
  O  O144  1  0.01660643  0.35960940  0.02525405  1
  O  O145  1  0.51660643  0.64039060  0.47474595  1
  O  O146  1  0.98339357  0.64039060  0.97474595  1
  O  O147  1  0.48339357  0.35960940  0.52525405  1
  O  O148  1  0.81568013  0.37347864  0.97501311  1
  O  O149  1  0.31568013  0.62652136  0.52498689  1
  O  O150  1  0.18431987  0.62652136  0.02498689  1
  O  O151  1  0.68431987  0.37347864  0.47501311  1
  O  O152  1  0.92004362  0.02351773  0.92472697  1
  O  O153  1  0.42004362  0.97648227  0.57527303  1
  O  O154  1  0.07995638  0.97648227  0.07527303  1
  O  O155  1  0.57995638  0.02351773  0.42472697  1
  O  O156  1  0.13106549  0.96827903  0.70334262  1
  O  O157  1  0.63106549  0.03172097  0.79665738  1
  O  O158  1  0.86893451  0.03172097  0.29665738  1
  O  O159  1  0.36893451  0.96827903  0.20334262  1
  O  O160  1  0.13516499  0.13908542  0.89041847  1
  O  O161  1  0.63516499  0.86091458  0.60958153  1
  O  O162  1  0.86483501  0.86091458  0.10958153  1
  O  O163  1  0.36483501  0.13908542  0.39041847  1
  O  O164  1  0.35183076  0.03107871  0.92257651  1
  O  O165  1  0.85183076  0.96892129  0.57742349  1
  O  O166  1  0.64816924  0.96892129  0.07742349  1
  O  O167  1  0.14816924  0.03107871  0.42257651  1
  O  O168  1  0.13730926  0.85246091  0.55561538  1
  O  O169  1  0.63730926  0.14753909  0.94438462  1
  O  O170  1  0.86269074  0.14753909  0.44438462  1
  O  O171  1  0.36269074  0.85246091  0.05561538  1
