# generated using pymatgen
data_Sm(Ga4Fe)2
_symmetry_space_group_name_H-M   'P 1'
_cell_length_a   4.00004645
_cell_length_b   12.69757843
_cell_length_c   14.35219984
_cell_angle_alpha   90.00000000
_cell_angle_beta   90.00000000
_cell_angle_gamma   90.00000000
_symmetry_Int_Tables_number   1
_chemical_formula_structural   Sm(Ga4Fe)2
_chemical_formula_sum   'Sm4 Ga32 Fe8'
_cell_volume   728.96119741
_cell_formula_units_Z   4
loop_
 _symmetry_equiv_pos_site_id
 _symmetry_equiv_pos_as_xyz
  1  'x, y, z'
loop_
 _atom_site_type_symbol
 _atom_site_label
 _atom_site_symmetry_multiplicity
 _atom_site_fract_x
 _atom_site_fract_y
 _atom_site_fract_z
 _atom_site_occupancy
  Sm  Sm0  1  0.00000000  0.84261073  0.18074684  1
  Sm  Sm1  1  0.00000000  0.15738927  0.81925316  1
  Sm  Sm2  1  0.00000000  0.65738927  0.68074684  1
  Sm  Sm3  1  -0.00000000  0.34261073  0.31925316  1
  Ga  Ga4  1  -0.00000000  0.50000000  0.50000000  1
  Ga  Ga5  1  0.00000000  0.00000000  0.00000000  1
  Ga  Ga6  1  0.50000000  0.00000000  0.50000000  1
  Ga  Ga7  1  0.50000000  0.50000000  0.00000000  1
  Ga  Ga8  1  0.50000000  0.73875801  0.32581472  1
  Ga  Ga9  1  0.50000000  0.26124199  0.67418528  1
  Ga  Ga10  1  0.50000000  0.76124199  0.82581472  1
  Ga  Ga11  1  0.50000000  0.23875801  0.17418528  1
  Ga  Ga12  1  0.50000000  0.95070389  0.31804637  1
  Ga  Ga13  1  0.50000000  0.04929611  0.68195363  1
  Ga  Ga14  1  0.50000000  0.54929611  0.81804637  1
  Ga  Ga15  1  0.50000000  0.45070389  0.18195363  1
  Ga  Ga16  1  0.50000000  0.66447079  0.12169053  1
  Ga  Ga17  1  0.50000000  0.33552921  0.87830947  1
  Ga  Ga18  1  0.50000000  0.83552921  0.62169053  1
  Ga  Ga19  1  0.50000000  0.16447079  0.37830947  1
  Ga  Ga20  1  -0.00000000  0.83820963  0.45444134  1
  Ga  Ga21  1  0.00000000  0.16179037  0.54555866  1
  Ga  Ga22  1  -0.00000000  0.66179037  0.95444134  1
  Ga  Ga23  1  -0.00000000  0.33820963  0.04555866  1
  Ga  Ga24  1  -0.00000000  0.59900229  0.24579781  1
  Ga  Ga25  1  0.00000000  0.40099771  0.75420219  1
  Ga  Ga26  1  -0.00000000  0.90099771  0.74579781  1
  Ga  Ga27  1  0.00000000  0.09900229  0.25420219  1
  Ga  Ga28  1  0.50000000  0.83151185  0.00907517  1
  Ga  Ga29  1  0.50000000  0.16848815  0.99092483  1
  Ga  Ga30  1  0.50000000  0.66848815  0.50907517  1
  Ga  Ga31  1  0.50000000  0.33151185  0.49092483  1
  Ga  Ga32  1  0.50000000  0.52425541  0.36609895  1
  Ga  Ga33  1  0.50000000  0.47574459  0.63390105  1
  Ga  Ga34  1  0.50000000  0.97574459  0.86609895  1
  Ga  Ga35  1  0.50000000  0.02425541  0.13390105  1
  Fe  Fe36  1  -0.00000000  0.65188716  0.40293680  1
  Fe  Fe37  1  0.00000000  0.34811284  0.59706320  1
  Fe  Fe38  1  0.00000000  0.84811284  0.90293680  1
  Fe  Fe39  1  -0.00000000  0.15188716  0.09706320  1
  Fe  Fe40  1  0.00000000  0.53485823  0.09371873  1
  Fe  Fe41  1  -0.00000000  0.46514177  0.90628127  1
  Fe  Fe42  1  0.00000000  0.96514177  0.59371873  1
  Fe  Fe43  1  -0.00000000  0.03485823  0.40628127  1
