# generated using pymatgen
data_Sr3Ta7Si(BiO4)9
_symmetry_space_group_name_H-M   'P 1'
_cell_length_a   5.55841423
_cell_length_b   5.53253758
_cell_length_c   25.31513937
_cell_angle_alpha   90.49933902
_cell_angle_beta   88.78923634
_cell_angle_gamma   89.76514486
_symmetry_Int_Tables_number   1
_chemical_formula_structural   Sr3Ta7Si(BiO4)9
_chemical_formula_sum   'Sr3 Ta7 Si1 Bi9 O36'
_cell_volume   778.28408512
_cell_formula_units_Z   1
loop_
 _symmetry_equiv_pos_site_id
 _symmetry_equiv_pos_as_xyz
  1  'x, y, z'
loop_
 _atom_site_type_symbol
 _atom_site_label
 _atom_site_symmetry_multiplicity
 _atom_site_fract_x
 _atom_site_fract_y
 _atom_site_fract_z
 _atom_site_occupancy
  Sr  Sr0  1  0.00691736  0.24872194  0.00052094  1
  Sr  Sr1  1  0.01182022  0.74369150  0.49626721  1
  Sr  Sr2  1  0.50585980  0.75204594  0.00049091  1
  Ta  Ta3  1  0.52394109  0.24971418  0.91711719  1
  Ta  Ta4  1  0.01667658  0.25073705  0.58436701  1
  Ta  Ta5  1  0.01366126  0.75532883  0.08595712  1
  Ta  Ta6  1  0.01243446  0.24218325  0.41500026  1
  Ta  Ta7  1  0.02482128  0.74942405  0.91625377  1
  Ta  Ta8  1  0.51881239  0.74109067  0.58415175  1
  Ta  Ta9  1  0.51425397  0.24725601  0.08665849  1
  Si  Si10  1  0.52264381  0.73447069  0.41995845  1
  Bi  Bi11  1  0.47405663  0.21854966  0.48864125  1
  Bi  Bi12  1  0.47621247  0.77305446  0.20589703  1
  Bi  Bi13  1  0.47477508  0.27977353  0.70180764  1
  Bi  Bi14  1  0.94666788  0.22204228  0.80246019  1
  Bi  Bi15  1  0.92858751  0.73034339  0.30950399  1
  Bi  Bi16  1  0.98034707  0.22037909  0.20595598  1
  Bi  Bi17  1  0.97912336  0.72516161  0.70211299  1
  Bi  Bi18  1  0.45121186  0.78637333  0.80187283  1
  Bi  Bi19  1  0.44926854  0.28832891  0.30525065  1
  O  O20  1  0.52952854  0.30004348  0.99772632  1
  O  O21  1  0.53504443  0.79822775  0.49109257  1
  O  O22  1  0.03793569  0.70327401  0.99794918  1
  O  O23  1  0.06302631  0.20660547  0.49789704  1
  O  O24  1  0.55581396  0.69140363  0.35278772  1
  O  O25  1  0.55394696  0.17546905  0.84201719  1
  O  O26  1  0.02431000  0.31662378  0.65649228  1
  O  O27  1  0.00613859  0.82530713  0.15824681  1
  O  O28  1  0.04163667  0.30937033  0.34226085  1
  O  O29  1  0.04602751  0.82730917  0.84193221  1
  O  O30  1  0.51400101  0.68788375  0.65598437  1
  O  O31  1  0.51907355  0.18723007  0.15857503  1
  O  O32  1  0.73269094  0.99767790  0.25622430  1
  O  O33  1  0.73325986  0.49679145  0.75124030  1
  O  O34  1  0.23615973  0.01078520  0.74795678  1
  O  O35  1  0.23538311  0.51140710  0.25168447  1
  O  O36  1  0.23788477  0.01234007  0.25440893  1
  O  O37  1  0.23388137  0.51191493  0.75152613  1
  O  O38  1  0.73540106  0.99647814  0.74791697  1
  O  O39  1  0.73000204  0.50285614  0.25376662  1
  O  O40  1  0.75448036  0.98455738  0.06658561  1
  O  O41  1  0.75820390  0.47864670  0.56526028  1
  O  O42  1  0.26407738  0.02281542  0.93056980  1
  O  O43  1  0.29547801  0.50956215  0.43095103  1
  O  O44  1  0.25445113  0.02020417  0.06826444  1
  O  O45  1  0.25506164  0.52509107  0.56648841  1
  O  O46  1  0.76401098  0.97746119  0.93195653  1
  O  O47  1  0.76977583  0.48850906  0.43146227  1
  O  O48  1  0.80520721  0.97061253  0.58231249  1
  O  O49  1  0.79257925  0.47921911  0.08363015  1
  O  O50  1  0.31777029  0.00238645  0.41742302  1
  O  O51  1  0.31901040  0.53375251  0.91116325  1
  O  O52  1  0.30974109  0.03081803  0.58035112  1
  O  O53  1  0.29247783  0.52595668  0.08554030  1
  O  O54  1  0.79656391  0.97579506  0.41585765  1
  O  O55  1  0.81897209  0.46644359  0.91228191  1
