# generated using pymatgen
data_SiBH6C2NCl2
_symmetry_space_group_name_H-M   'P 1'
_cell_length_a   11.32943430
_cell_length_b   11.32943430
_cell_length_c   11.32943414
_cell_angle_alpha   105.14619896
_cell_angle_beta   105.14619896
_cell_angle_gamma   105.14620042
_symmetry_Int_Tables_number   1
_chemical_formula_structural   SiBH6C2NCl2
_chemical_formula_sum   'Si6 B6 H36 C12 N6 Cl12'
_cell_volume   1267.34230188
_cell_formula_units_Z   6
loop_
 _symmetry_equiv_pos_site_id
 _symmetry_equiv_pos_as_xyz
  1  'x, y, z'
loop_
 _atom_site_type_symbol
 _atom_site_label
 _atom_site_symmetry_multiplicity
 _atom_site_fract_x
 _atom_site_fract_y
 _atom_site_fract_z
 _atom_site_occupancy
  Si  Si0  1  0.12731911  0.54160500  0.35605203  1
  Si  Si1  1  0.54160500  0.35605203  0.12731911  1
  Si  Si2  1  0.35605203  0.12731911  0.54160500  1
  Si  Si3  1  0.62731911  0.85605203  0.04160500  1
  Si  Si4  1  0.85605203  0.04160500  0.62731911  1
  Si  Si5  1  0.04160500  0.62731911  0.85605203  1
  B  B6  1  0.12140885  0.28418612  0.20995166  1
  B  B7  1  0.28418612  0.20995166  0.12140885  1
  B  B8  1  0.20995166  0.12140885  0.28418612  1
  B  B9  1  0.62140885  0.70995166  0.78418612  1
  B  B10  1  0.70995166  0.78418612  0.62140885  1
  B  B11  1  0.78418612  0.62140885  0.70995166  1
  H  H12  1  0.07215700  0.19511762  0.34173125  1
  H  H13  1  0.19511762  0.34173125  0.07215700  1
  H  H14  1  0.34173125  0.07215700  0.19511762  1
  H  H15  1  0.57215700  0.84173125  0.69511762  1
  H  H16  1  0.84173125  0.69511762  0.57215700  1
  H  H17  1  0.69511762  0.57215700  0.84173125  1
  H  H18  1  0.00645775  0.39811967  0.13239203  1
  H  H19  1  0.39811967  0.13239203  0.00645775  1
  H  H20  1  0.13239203  0.00645775  0.39811967  1
  H  H21  1  0.50645775  0.63239203  0.89811967  1
  H  H22  1  0.63239203  0.89811967  0.50645775  1
  H  H23  1  0.89811967  0.50645775  0.63239203  1
  H  H24  1  0.95113937  0.33336822  0.24269988  1
  H  H25  1  0.33336822  0.24269988  0.95113937  1
  H  H26  1  0.24269988  0.95113937  0.33336822  1
  H  H27  1  0.45113937  0.74269988  0.83336822  1
  H  H28  1  0.74269988  0.83336822  0.45113937  1
  H  H29  1  0.83336822  0.45113937  0.74269988  1
  H  H30  1  0.32146665  0.73888654  0.42914903  1
  H  H31  1  0.73888654  0.42914903  0.32146665  1
  H  H32  1  0.42914903  0.32146665  0.73888654  1
  H  H33  1  0.82146665  0.92914903  0.23888654  1
  H  H34  1  0.92914903  0.23888654  0.82146665  1
  H  H35  1  0.23888654  0.82146665  0.92914903  1
  H  H36  1  0.34770896  0.59703352  0.34378710  1
  H  H37  1  0.59703352  0.34378710  0.34770896  1
  H  H38  1  0.34378710  0.34770896  0.59703352  1
  H  H39  1  0.84770896  0.84378710  0.09703352  1
  H  H40  1  0.84378710  0.09703352  0.84770896  1
  H  H41  1  0.09703352  0.84770896  0.84378710  1
  H  H42  1  0.25280401  0.66960969  0.25499954  1
  H  H43  1  0.66960969  0.25499954  0.25280401  1
  H  H44  1  0.25499954  0.25280401  0.66960969  1
  H  H45  1  0.75280401  0.75499954  0.16960969  1
  H  H46  1  0.75499954  0.16960969  0.75280401  1
  H  H47  1  0.16960969  0.75280401  0.75499954  1
  C  C48  1  0.03941605  0.37816068  0.22333027  1
  C  C49  1  0.37816068  0.22333027  0.03941605  1
  C  C50  1  0.22333027  0.03941605  0.37816068  1
  C  C51  1  0.53941605  0.72333027  0.87816068  1
  C  C52  1  0.72333027  0.87816068  0.53941605  1
  C  C53  1  0.87816068  0.53941605  0.72333027  1
  C  C54  1  0.27667215  0.64697510  0.34498598  1
  C  C55  1  0.64697510  0.34498598  0.27667215  1
  C  C56  1  0.34498598  0.27667215  0.64697510  1
  C  C57  1  0.77667215  0.84498598  0.14697510  1
  C  C58  1  0.84498598  0.14697510  0.77667215  1
  C  C59  1  0.14697510  0.77667215  0.84498598  1
  N  N60  1  0.12679769  0.19812361  0.28326178  1
  N  N61  1  0.19812361  0.28326178  0.12679769  1
  N  N62  1  0.28326178  0.12679769  0.19812361  1
  N  N63  1  0.62679769  0.78326178  0.69812361  1
  N  N64  1  0.78326178  0.69812361  0.62679769  1
  N  N65  1  0.69812361  0.62679769  0.78326178  1
  Cl  Cl66  1  0.00219140  0.64724461  0.36539503  1
  Cl  Cl67  1  0.64724461  0.36539503  0.00219140  1
  Cl  Cl68  1  0.36539503  0.00219140  0.64724461  1
  Cl  Cl69  1  0.50219140  0.86539503  0.14724461  1
  Cl  Cl70  1  0.86539503  0.14724461  0.50219140  1
  Cl  Cl71  1  0.14724461  0.50219140  0.86539503  1
  Cl  Cl72  1  0.17570002  0.51514332  0.53511171  1
  Cl  Cl73  1  0.51514332  0.53511171  0.17570002  1
  Cl  Cl74  1  0.53511171  0.17570002  0.51514332  1
  Cl  Cl75  1  0.67570002  0.03511171  0.01514332  1
  Cl  Cl76  1  0.03511171  0.01514332  0.67570002  1
  Cl  Cl77  1  0.01514332  0.67570002  0.03511171  1
