# generated using pymatgen
data_CeSiAs3
_symmetry_space_group_name_H-M   'P 1'
_cell_length_a   5.90847833
_cell_length_b   5.99083651
_cell_length_c   25.81413344
_cell_angle_alpha   90.00000000
_cell_angle_beta   90.00000000
_cell_angle_gamma   90.00000000
_symmetry_Int_Tables_number   1
_chemical_formula_structural   CeSiAs3
_chemical_formula_sum   'Ce8 Si8 As24'
_cell_volume   913.73585213
_cell_formula_units_Z   8
loop_
 _symmetry_equiv_pos_site_id
 _symmetry_equiv_pos_as_xyz
  1  'x, y, z'
loop_
 _atom_site_type_symbol
 _atom_site_label
 _atom_site_symmetry_multiplicity
 _atom_site_fract_x
 _atom_site_fract_y
 _atom_site_fract_z
 _atom_site_occupancy
  Ce  Ce0  1  0.75288542  0.51304386  0.41523602  1
  Ce  Ce1  1  0.25288542  0.48695614  0.58476398  1
  Ce  Ce2  1  0.25288542  0.98695614  0.91523602  1
  Ce  Ce3  1  0.75288542  0.01304386  0.08476398  1
  Ce  Ce4  1  0.25289906  0.01695953  0.41008588  1
  Ce  Ce5  1  0.75289906  0.98304047  0.58991412  1
  Ce  Ce6  1  0.75289906  0.48304047  0.91008588  1
  Ce  Ce7  1  0.25289906  0.51695953  0.08991412  1
  Si  Si8  1  0.33670020  0.44211930  0.29592692  1
  Si  Si9  1  0.83670020  0.55788070  0.70407308  1
  Si  Si10  1  0.83670020  0.05788070  0.79592692  1
  Si  Si11  1  0.33670020  0.94211930  0.20407308  1
  Si  Si12  1  0.83395573  0.11369009  0.29360750  1
  Si  Si13  1  0.33395573  0.88630991  0.70639250  1
  Si  Si14  1  0.33395573  0.38630991  0.79360750  1
  Si  Si15  1  0.83395573  0.61369009  0.20639250  1
  As  As16  1  0.74894723  0.01062383  0.37964584  1
  As  As17  1  0.24894723  0.98937617  0.62035416  1
  As  As18  1  0.24894723  0.48937617  0.87964584  1
  As  As19  1  0.74894723  0.51062383  0.12035416  1
  As  As20  1  0.24859759  0.52517738  0.38283819  1
  As  As21  1  0.74859759  0.47482262  0.61716181  1
  As  As22  1  0.74859759  0.97482262  0.88283819  1
  As  As23  1  0.24859759  0.02517738  0.11716181  1
  As  As24  1  0.49947741  0.77257530  0.49944876  1
  As  As25  1  0.99947741  0.22742470  0.50055124  1
  As  As26  1  0.99947741  0.72742470  0.99944876  1
  As  As27  1  0.49947741  0.27257530  0.00055124  1
  As  As28  1  0.51542442  0.22905388  0.50050247  1
  As  As29  1  0.01542442  0.77094612  0.49949753  1
  As  As30  1  0.01542442  0.27094612  0.00050247  1
  As  As31  1  0.51542442  0.72905388  0.99949753  1
  As  As32  1  0.23468858  0.06305672  0.28918622  1
  As  As33  1  0.73468858  0.93694328  0.71081378  1
  As  As34  1  0.73468858  0.43694328  0.78918622  1
  As  As35  1  0.23468858  0.56305672  0.21081378  1
  As  As36  1  0.73642436  0.49551725  0.29254034  1
  As  As37  1  0.23642436  0.50448275  0.70745966  1
  As  As38  1  0.23642436  0.00448275  0.79254034  1
  As  As39  1  0.73642436  0.99551725  0.20745966  1
