# generated using pymatgen
data_Nd2Ge6Pd
_symmetry_space_group_name_H-M   'P 1'
_cell_length_a   4.12345529
_cell_length_b   4.18611328
_cell_length_c   11.39693697
_cell_angle_alpha   90.00000000
_cell_angle_beta   100.42229783
_cell_angle_gamma   90.00000000
_symmetry_Int_Tables_number   1
_chemical_formula_structural   Nd2Ge6Pd
_chemical_formula_sum   'Nd2 Ge6 Pd1'
_cell_volume   193.47964508
_cell_formula_units_Z   1
loop_
 _symmetry_equiv_pos_site_id
 _symmetry_equiv_pos_as_xyz
  1  'x, y, z'
loop_
 _atom_site_type_symbol
 _atom_site_label
 _atom_site_symmetry_multiplicity
 _atom_site_fract_x
 _atom_site_fract_y
 _atom_site_fract_z
 _atom_site_occupancy
  Nd  Nd0  1  0.77875086  0.50000000  0.55750173  1
  Nd  Nd1  1  0.11590792  0.50000000  0.23181585  1
  Ge  Ge2  1  0.49492445  0.50000000  0.98984890  1
  Ge  Ge3  1  0.38324390  0.50000000  0.76648779  1
  Ge  Ge4  1  0.99349381  0.00000000  0.98698762  1
  Ge  Ge5  1  0.88160005  -0.00000000  0.76320010  1
  Ge  Ge6  1  0.66683911  -0.00000000  0.33367822  1
  Ge  Ge7  1  0.23538156  -0.00000000  0.47076311  1
  Pd  Pd8  1  0.55685834  0.00000000  0.11371669  1
