# generated using pymatgen
data_Yb3(CuSi)4
_symmetry_space_group_name_H-M   'P 1'
_cell_length_a   4.16466439
_cell_length_b   6.57400719
_cell_length_c   7.81477959
_cell_angle_alpha   114.87334088
_cell_angle_beta   105.45377406
_cell_angle_gamma   90.00000000
_symmetry_Int_Tables_number   1
_chemical_formula_structural   Yb3(CuSi)4
_chemical_formula_sum   'Yb3 Cu4 Si4'
_cell_volume   185.54947104
_cell_formula_units_Z   1
loop_
 _symmetry_equiv_pos_site_id
 _symmetry_equiv_pos_as_xyz
  1  'x, y, z'
loop_
 _atom_site_type_symbol
 _atom_site_label
 _atom_site_symmetry_multiplicity
 _atom_site_fract_x
 _atom_site_fract_y
 _atom_site_fract_z
 _atom_site_occupancy
  Yb  Yb0  1  0.86781324  0.36781324  0.73562648  1
  Yb  Yb1  1  0.13218676  0.63218676  0.26437352  1
  Yb  Yb2  1  0.00000000  0.00000000  0.00000000  1
  Cu  Cu3  1  0.33050434  0.63883367  0.66100869  1
  Cu  Cu4  1  0.66949566  0.36116633  0.33899131  1
  Cu  Cu5  1  0.33050434  0.02217502  0.66100869  1
  Cu  Cu6  1  0.66949566  0.97782498  0.33899131  1
  Si  Si7  1  0.21815620  0.21815620  0.43631240  1
  Si  Si8  1  0.78184380  0.78184380  0.56368760  1
  Si  Si9  1  0.50000000  0.67804915  0.00000000  1
  Si  Si10  1  0.50000000  0.32195085  0.00000000  1
