# generated using pymatgen
data_Lu2CoGe6
_symmetry_space_group_name_H-M   'P 1'
_cell_length_a   4.02958585
_cell_length_b   3.95568649
_cell_length_c   10.82234422
_cell_angle_alpha   100.53030293
_cell_angle_beta   90.00000000
_cell_angle_gamma   90.00000000
_symmetry_Int_Tables_number   1
_chemical_formula_structural   Lu2CoGe6
_chemical_formula_sum   'Lu2 Co1 Ge6'
_cell_volume   169.60049246
_cell_formula_units_Z   1
loop_
 _symmetry_equiv_pos_site_id
 _symmetry_equiv_pos_as_xyz
  1  'x, y, z'
loop_
 _atom_site_type_symbol
 _atom_site_label
 _atom_site_symmetry_multiplicity
 _atom_site_fract_x
 _atom_site_fract_y
 _atom_site_fract_z
 _atom_site_occupancy
  Lu  Lu0  1  0.50000000  0.22279677  0.44559353  1
  Lu  Lu1  1  0.50000000  0.88637651  0.77275302  1
  Co  Co2  1  -0.00000000  0.44431438  0.88862876  1
  Ge  Ge3  1  0.50000000  0.50023431  0.00046862  1
  Ge  Ge4  1  0.50000000  0.61817772  0.23635543  1
  Ge  Ge5  1  -0.00000000  0.00140313  0.00280626  1
  Ge  Ge6  1  0.00000000  0.12039620  0.24079241  1
  Ge  Ge7  1  0.00000000  0.33775520  0.67551039  1
  Ge  Ge8  1  0.00000000  0.76154580  0.52309159  1
