# generated using pymatgen
data_NaCdF3
_symmetry_space_group_name_H-M   'P 1'
_cell_length_a   17.11958478
_cell_length_b   5.83121332
_cell_length_c   9.07666476
_cell_angle_alpha   131.51608704
_cell_angle_beta   160.57106846
_cell_angle_gamma   45.34352902
_symmetry_Int_Tables_number   1
_chemical_formula_structural   NaCdF3
_chemical_formula_sum   'Na2 Cd2 F6'
_cell_volume   214.39904542
_cell_formula_units_Z   2
loop_
 _symmetry_equiv_pos_site_id
 _symmetry_equiv_pos_as_xyz
  1  'x, y, z'
loop_
 _atom_site_type_symbol
 _atom_site_label
 _atom_site_symmetry_multiplicity
 _atom_site_fract_x
 _atom_site_fract_y
 _atom_site_fract_z
 _atom_site_occupancy
  Na  Na0  1  0.37778246  0.71647766  0.49371625  1
  Na  Na1  1  0.88406620  0.21647766  0.50628375  1
  Cd  Cd2  1  0.22556296  0.54344297  0.50937036  1
  Cd  Cd3  1  0.71619260  0.04344297  0.49062964  1
  F  F4  1  0.03400025  0.65027813  0.98934069  1
  F  F5  1  0.04465956  0.15027813  0.01065931  1
  F  F6  1  0.53282543  0.44706640  0.46140533  1
  F  F7  1  0.54588519  0.63873484  0.99427994  1
  F  F8  1  0.55160524  0.13873484  0.00572005  1
  F  F9  1  0.07142010  0.94706640  0.53859467  1
