# generated using pymatgen
data_Na6HfHS5O21
_symmetry_space_group_name_H-M   'P 1'
_cell_length_a   8.64172273
_cell_length_b   10.76513176
_cell_length_c   11.08121773
_cell_angle_alpha   90.00000000
_cell_angle_beta   90.00000000
_cell_angle_gamma   98.64435736
_symmetry_Int_Tables_number   1
_chemical_formula_structural   Na6HfHS5O21
_chemical_formula_sum   'Na12 Hf2 H2 S10 O42'
_cell_volume   1019.16730515
_cell_formula_units_Z   2
loop_
 _symmetry_equiv_pos_site_id
 _symmetry_equiv_pos_as_xyz
  1  'x, y, z'
loop_
 _atom_site_type_symbol
 _atom_site_label
 _atom_site_symmetry_multiplicity
 _atom_site_fract_x
 _atom_site_fract_y
 _atom_site_fract_z
 _atom_site_occupancy
  Na  Na0  1  0.06140727  0.49703815  0.17493486  1
  Na  Na1  1  0.93859273  0.50296185  0.67493486  1
  Na  Na2  1  0.51520311  0.97070723  0.81096746  1
  Na  Na3  1  0.48479689  0.02929277  0.31096746  1
  Na  Na4  1  0.58813667  0.53064653  0.51038240  1
  Na  Na5  1  0.41186333  0.46935347  0.01038240  1
  Na  Na6  1  0.14936050  0.93826221  0.03599306  1
  Na  Na7  1  0.85063950  0.06173779  0.53599306  1
  Na  Na8  1  0.68218530  0.27493635  0.16833782  1
  Na  Na9  1  0.31781470  0.72506365  0.66833782  1
  Na  Na10  1  0.96534159  0.76181581  0.44093253  1
  Na  Na11  1  0.03465841  0.23818419  0.94093253  1
  Hf  Hf12  1  0.22823070  0.27211591  0.48879781  1
  Hf  Hf13  1  0.77176930  0.72788409  0.98879781  1
  H  H14  1  0.52325788  0.29498442  0.40609186  1
  H  H15  1  0.47674212  0.70501558  0.90609186  1
  S  S16  1  0.29886961  0.38010650  0.72701582  1
  S  S17  1  0.70113039  0.61989350  0.22701582  1
  S  S18  1  0.25117355  0.21890901  0.18624196  1
  S  S19  1  0.74882645  0.78109099  0.68624196  1
  S  S20  1  0.21904170  0.59558934  0.43472255  1
  S  S21  1  0.78095830  0.40441066  0.93472255  1
  S  S22  1  0.84037217  0.31300444  0.42031989  1
  S  S23  1  0.15962783  0.68699556  0.92031989  1
  S  S24  1  0.25614397  0.01059800  0.55162169  1
  S  S25  1  0.74385603  0.98940200  0.05162169  1
  O  O26  1  0.39017086  0.29743295  0.65123019  1
  O  O27  1  0.60982914  0.70256705  0.15123019  1
  O  O28  1  0.14675156  0.36628442  0.65549443  1
  O  O29  1  0.85324844  0.63371558  0.15549443  1
  O  O30  1  0.38087044  0.50911734  0.72697262  1
  O  O31  1  0.61912956  0.49088266  0.22697262  1
  O  O32  1  0.27051746  0.32806245  0.84877613  1
  O  O33  1  0.72948254  0.67193755  0.34877613  1
  O  O34  1  0.17961555  0.19965170  0.31209169  1
  O  O35  1  0.82038445  0.80034830  0.81209169  1
  O  O36  1  0.25077732  0.35007423  0.14885148  1
  O  O37  1  0.74922268  0.64992577  0.64885148  1
  O  O38  1  0.15168234  0.13271396  0.10303547  1
  O  O39  1  0.84831766  0.86728604  0.60303547  1
  O  O40  1  0.41107420  0.18457895  0.19080647  1
  O  O41  1  0.58892580  0.81542105  0.69080647  1
  O  O42  1  0.19891334  0.45375284  0.42145544  1
  O  O43  1  0.80108666  0.54624716  0.92145544  1
  O  O44  1  0.11039440  0.62479287  0.53192530  1
  O  O45  1  0.88960560  0.37520713  0.03192530  1
  O  O46  1  0.38152354  0.64369855  0.47052735  1
  O  O47  1  0.61847646  0.35630145  0.97052735  1
  O  O48  1  0.17462293  0.64884166  0.31953507  1
  O  O49  1  0.82537707  0.35115834  0.81953507  1
  O  O50  1  0.96905201  0.25267439  0.47956613  1
  O  O51  1  0.03094799  0.74732561  0.97956613  1
  O  O52  1  0.79950654  0.41163166  0.50146101  1
  O  O53  1  0.20049346  0.58836834  0.00146101  1
  O  O54  1  0.70430226  0.20883441  0.40662436  1
  O  O55  1  0.29569774  0.79116559  0.90662436  1
  O  O56  1  0.89115649  0.36242521  0.30088574  1
  O  O57  1  0.10884351  0.63757479  0.80088574  1
  O  O58  1  0.12907283  0.09248046  0.57723954  1
  O  O59  1  0.87092717  0.90751954  0.07723954  1
  O  O60  1  0.37584168  0.10519431  0.48688156  1
  O  O61  1  0.62415832  0.89480569  0.98688156  1
  O  O62  1  0.19757464  0.90719612  0.46968868  1
  O  O63  1  0.80242536  0.09280388  0.96968868  1
  O  O64  1  0.31863436  0.96618547  0.66396148  1
  O  O65  1  0.68136564  0.03381453  0.16396148  1
  O  O66  1  0.44536384  0.34915443  0.42723017  1
  O  O67  1  0.55463616  0.65084557  0.92723017  1
