# generated using pymatgen
data_Zr9Mo4S
_symmetry_space_group_name_H-M   'P 1'
_cell_length_a   8.65443899
_cell_length_b   8.76323197
_cell_length_c   8.76323197
_cell_angle_alpha   120.00000202
_cell_angle_beta   90.00000000
_cell_angle_gamma   90.00000000
_symmetry_Int_Tables_number   1
_chemical_formula_structural   Zr9Mo4S
_chemical_formula_sum   'Zr18 Mo8 S2'
_cell_volume   575.57001297
_cell_formula_units_Z   2
loop_
 _symmetry_equiv_pos_site_id
 _symmetry_equiv_pos_as_xyz
  1  'x, y, z'
loop_
 _atom_site_type_symbol
 _atom_site_label
 _atom_site_symmetry_multiplicity
 _atom_site_fract_x
 _atom_site_fract_y
 _atom_site_fract_z
 _atom_site_occupancy
  Zr  Zr0  1  0.75000000  0.46169159  0.53830841  1
  Zr  Zr1  1  0.25000000  0.53830841  0.46169159  1
  Zr  Zr2  1  0.75000000  0.07661681  0.53830841  1
  Zr  Zr3  1  0.25000000  0.92338319  0.46169159  1
  Zr  Zr4  1  0.75000000  0.46169159  0.92338319  1
  Zr  Zr5  1  0.25000000  0.53830841  0.07661681  1
  Zr  Zr6  1  0.95201386  0.80170240  0.19829760  1
  Zr  Zr7  1  0.04798614  0.19829760  0.80170240  1
  Zr  Zr8  1  0.95201386  0.39659519  0.19829760  1
  Zr  Zr9  1  0.45201386  0.19829760  0.80170240  1
  Zr  Zr10  1  0.04798614  0.60340481  0.80170240  1
  Zr  Zr11  1  0.54798614  0.80170240  0.19829760  1
  Zr  Zr12  1  0.95201386  0.80170240  0.60340481  1
  Zr  Zr13  1  0.45201386  0.60340481  0.80170240  1
  Zr  Zr14  1  0.04798614  0.19829760  0.39659519  1
  Zr  Zr15  1  0.54798614  0.39659519  0.19829760  1
  Zr  Zr16  1  0.45201386  0.19829760  0.39659519  1
  Zr  Zr17  1  0.54798614  0.80170240  0.60340481  1
  Mo  Mo18  1  0.00000000  0.00000000  -0.00000000  1
  Mo  Mo19  1  0.50000000  0.00000000  -0.00000000  1
  Mo  Mo20  1  0.75000000  0.10861867  0.89138133  1
  Mo  Mo21  1  0.25000000  0.89138133  0.10861867  1
  Mo  Mo22  1  0.75000000  0.78276267  0.89138133  1
  Mo  Mo23  1  0.25000000  0.21723733  0.10861867  1
  Mo  Mo24  1  0.75000000  0.10861867  0.21723733  1
  Mo  Mo25  1  0.25000000  0.89138133  0.78276267  1
  S  S26  1  0.75000000  0.66666700  0.33333300  1
  S  S27  1  0.25000000  0.33333300  0.66666700  1
