# generated using pymatgen
data_Y2Cr2Fe15
_symmetry_space_group_name_H-M   'P 1'
_cell_length_a   8.29837964
_cell_length_b   8.38586257
_cell_length_c   8.38586257
_cell_angle_alpha   120.00000338
_cell_angle_beta   90.00000000
_cell_angle_gamma   90.00000000
_symmetry_Int_Tables_number   1
_chemical_formula_structural   Y2Cr2Fe15
_chemical_formula_sum   'Y4 Cr4 Fe30'
_cell_volume   505.38156695
_cell_formula_units_Z   2
loop_
 _symmetry_equiv_pos_site_id
 _symmetry_equiv_pos_as_xyz
  1  'x, y, z'
loop_
 _atom_site_type_symbol
 _atom_site_label
 _atom_site_symmetry_multiplicity
 _atom_site_fract_x
 _atom_site_fract_y
 _atom_site_fract_z
 _atom_site_occupancy
  Y  Y0  1  0.75000000  0.66666700  0.33333300  1
  Y  Y1  1  0.25000000  0.33333300  0.66666700  1
  Y  Y2  1  0.75000000  0.00000000  -0.00000000  1
  Y  Y3  1  0.25000000  0.00000000  -0.00000000  1
  Cr  Cr4  1  0.38123448  0.66666700  0.33333300  1
  Cr  Cr5  1  0.61876552  0.33333300  0.66666700  1
  Cr  Cr6  1  0.88123448  0.33333300  0.66666700  1
  Cr  Cr7  1  0.11876552  0.66666700  0.33333300  1
  Fe  Fe8  1  0.98787702  0.83348000  0.16652000  1
  Fe  Fe9  1  0.01212298  0.16652000  0.83348000  1
  Fe  Fe10  1  0.98787702  0.33303999  0.16652000  1
  Fe  Fe11  1  0.48787702  0.16652000  0.83348000  1
  Fe  Fe12  1  0.01212298  0.66696001  0.83348000  1
  Fe  Fe13  1  0.51212298  0.83348000  0.16652000  1
  Fe  Fe14  1  0.98787702  0.83348000  0.66696001  1
  Fe  Fe15  1  0.48787702  0.66696001  0.83348000  1
  Fe  Fe16  1  0.01212298  0.16652000  0.33303999  1
  Fe  Fe17  1  0.51212298  0.33303999  0.16652000  1
  Fe  Fe18  1  0.48787702  0.16652000  0.33303999  1
  Fe  Fe19  1  0.51212298  0.83348000  0.66696001  1
  Fe  Fe20  1  0.75000000  0.03973545  0.36974384  1
  Fe  Fe21  1  0.25000000  0.96026455  0.63025616  1
  Fe  Fe22  1  0.75000000  0.33000839  0.96026455  1
  Fe  Fe23  1  0.25000000  0.66999161  0.63025616  1
  Fe  Fe24  1  0.25000000  0.66999161  0.03973545  1
  Fe  Fe25  1  0.75000000  0.33000839  0.36974384  1
  Fe  Fe26  1  0.75000000  0.63025616  0.66999161  1
  Fe  Fe27  1  0.25000000  0.36974384  0.03973545  1
  Fe  Fe28  1  0.25000000  0.36974384  0.33000839  1
  Fe  Fe29  1  0.75000000  0.63025616  0.96026455  1
  Fe  Fe30  1  0.25000000  0.96026455  0.33000839  1
  Fe  Fe31  1  0.75000000  0.03973545  0.66999161  1
  Fe  Fe32  1  0.00000000  0.50000000  0.50000000  1
  Fe  Fe33  1  -0.00000000  0.00000000  0.50000000  1
  Fe  Fe34  1  0.50000000  0.50000000  0.50000000  1
  Fe  Fe35  1  0.00000000  0.50000000  -0.00000000  1
  Fe  Fe36  1  0.50000000  0.00000000  0.50000000  1
  Fe  Fe37  1  0.50000000  0.50000000  -0.00000000  1
