# generated using pymatgen
data_YSi2Ag3O7
_symmetry_space_group_name_H-M   'P 1'
_cell_length_a   9.57036941
_cell_length_b   9.57036941
_cell_length_c   14.11141199
_cell_angle_alpha   90.00000000
_cell_angle_beta   90.00000000
_cell_angle_gamma   120.00000645
_symmetry_Int_Tables_number   1
_chemical_formula_structural   YSi2Ag3O7
_chemical_formula_sum   'Y6 Si12 Ag18 O42'
_cell_volume   1119.33086254
_cell_formula_units_Z   6
loop_
 _symmetry_equiv_pos_site_id
 _symmetry_equiv_pos_as_xyz
  1  'x, y, z'
loop_
 _atom_site_type_symbol
 _atom_site_label
 _atom_site_symmetry_multiplicity
 _atom_site_fract_x
 _atom_site_fract_y
 _atom_site_fract_z
 _atom_site_occupancy
  Y  Y0  1  0.66666700  0.33333300  0.98186730  1
  Y  Y1  1  0.33333300  0.66666700  0.01813270  1
  Y  Y2  1  0.33333300  0.66666700  0.48186730  1
  Y  Y3  1  0.66666700  0.33333300  0.51813270  1
  Y  Y4  1  0.00000000  0.00000000  0.75000000  1
  Y  Y5  1  0.00000000  0.00000000  0.25000000  1
  Si  Si6  1  0.65231749  0.67128569  0.85875443  1
  Si  Si7  1  0.34768251  0.32871431  0.14124557  1
  Si  Si8  1  0.01896820  0.34768251  0.85875443  1
  Si  Si9  1  0.34768251  0.32871431  0.35875443  1
  Si  Si10  1  0.98103180  0.65231749  0.14124557  1
  Si  Si11  1  0.65231749  0.67128569  0.64124557  1
  Si  Si12  1  0.32871431  0.98103180  0.85875443  1
  Si  Si13  1  0.98103180  0.65231749  0.35875443  1
  Si  Si14  1  0.67128569  0.01896820  0.14124557  1
  Si  Si15  1  0.01896820  0.34768251  0.64124557  1
  Si  Si16  1  0.67128569  0.01896820  0.35875443  1
  Si  Si17  1  0.32871431  0.98103180  0.64124557  1
  Ag  Ag18  1  0.68420397  0.00807195  0.90711779  1
  Ag  Ag19  1  0.31579603  0.99192805  0.09288221  1
  Ag  Ag20  1  0.32386798  0.31579603  0.90711779  1
  Ag  Ag21  1  0.31579603  0.99192805  0.40711779  1
  Ag  Ag22  1  0.67613202  0.68420397  0.09288221  1
  Ag  Ag23  1  0.68420397  0.00807195  0.59288221  1
  Ag  Ag24  1  0.99192805  0.67613202  0.90711779  1
  Ag  Ag25  1  0.67613202  0.68420397  0.40711779  1
  Ag  Ag26  1  0.00807195  0.32386798  0.09288221  1
  Ag  Ag27  1  0.32386798  0.31579603  0.59288221  1
  Ag  Ag28  1  0.00807195  0.32386798  0.40711779  1
  Ag  Ag29  1  0.99192805  0.67613202  0.59288221  1
  Ag  Ag30  1  0.33333300  0.66666700  0.75000000  1
  Ag  Ag31  1  0.66666700  0.33333300  0.25000000  1
  Ag  Ag32  1  0.66666700  0.33333300  0.75000000  1
  Ag  Ag33  1  0.33333300  0.66666700  0.25000000  1
  Ag  Ag34  1  0.00000000  0.00000000  -0.00000000  1
  Ag  Ag35  1  0.00000000  0.00000000  0.50000000  1
  O  O36  1  0.95049818  0.15194937  0.85620833  1
  O  O37  1  0.04950182  0.84805063  0.14379167  1
  O  O38  1  0.20145119  0.04950182  0.85620833  1
  O  O39  1  0.04950182  0.84805063  0.35620833  1
  O  O40  1  0.79854881  0.95049818  0.14379167  1
  O  O41  1  0.95049818  0.15194937  0.64379167  1
  O  O42  1  0.84805063  0.79854881  0.85620833  1
  O  O43  1  0.79854881  0.95049818  0.35620833  1
  O  O44  1  0.15194937  0.20145119  0.14379167  1
  O  O45  1  0.20145119  0.04950182  0.64379167  1
  O  O46  1  0.15194937  0.20145119  0.35620833  1
  O  O47  1  0.84805063  0.79854881  0.64379167  1
  O  O48  1  0.87715111  0.39078549  0.88232772  1
  O  O49  1  0.12284889  0.60921451  0.11767228  1
  O  O50  1  0.51363438  0.12284889  0.88232772  1
  O  O51  1  0.12284889  0.60921451  0.38232772  1
  O  O52  1  0.48636562  0.87715111  0.11767228  1
  O  O53  1  0.87715111  0.39078549  0.61767228  1
  O  O54  1  0.60921451  0.48636562  0.88232772  1
  O  O55  1  0.48636562  0.87715111  0.38232772  1
  O  O56  1  0.39078549  0.51363438  0.11767228  1
  O  O57  1  0.51363438  0.12284889  0.61767228  1
  O  O58  1  0.39078549  0.51363438  0.38232772  1
  O  O59  1  0.60921451  0.48636562  0.61767228  1
  O  O60  1  0.55741332  0.73115120  0.93050720  1
  O  O61  1  0.44258668  0.26884880  0.06949280  1
  O  O62  1  0.17373787  0.44258668  0.93050720  1
  O  O63  1  0.44258668  0.26884880  0.43050720  1
  O  O64  1  0.82626213  0.55741332  0.06949280  1
  O  O65  1  0.55741332  0.73115120  0.56949280  1
  O  O66  1  0.26884880  0.82626213  0.93050720  1
  O  O67  1  0.82626213  0.55741332  0.43050720  1
  O  O68  1  0.73115120  0.17373787  0.06949280  1
  O  O69  1  0.17373787  0.44258668  0.56949280  1
  O  O70  1  0.73115120  0.17373787  0.43050720  1
  O  O71  1  0.26884880  0.82626213  0.56949280  1
  O  O72  1  0.58284146  0.67634111  0.75000000  1
  O  O73  1  0.41715854  0.32365889  0.25000000  1
  O  O74  1  0.09349965  0.41715854  0.75000000  1
  O  O75  1  0.90650035  0.58284146  0.25000000  1
  O  O76  1  0.32365889  0.90650035  0.75000000  1
  O  O77  1  0.67634111  0.09349965  0.25000000  1
