# generated using pymatgen
data_Tb3Fe2Si3
_symmetry_space_group_name_H-M   'P 1'
_cell_length_a   4.08802404
_cell_length_b   5.69838446
_cell_length_c   13.66019297
_cell_angle_alpha   90.00000000
_cell_angle_beta   90.00000000
_cell_angle_gamma   111.02039632
_symmetry_Int_Tables_number   1
_chemical_formula_structural   Tb3Fe2Si3
_chemical_formula_sum   'Tb6 Fe4 Si6'
_cell_volume   297.03962147
_cell_formula_units_Z   2
loop_
 _symmetry_equiv_pos_site_id
 _symmetry_equiv_pos_as_xyz
  1  'x, y, z'
loop_
 _atom_site_type_symbol
 _atom_site_label
 _atom_site_symmetry_multiplicity
 _atom_site_fract_x
 _atom_site_fract_y
 _atom_site_fract_z
 _atom_site_occupancy
  Tb  Tb0  1  0.36317354  0.72634708  0.25000000  1
  Tb  Tb1  1  0.63682646  0.27365292  0.75000000  1
  Tb  Tb2  1  0.07879673  0.15759346  0.11280770  1
  Tb  Tb3  1  0.92120327  0.84240654  0.88719230  1
  Tb  Tb4  1  0.92120327  0.84240654  0.61280770  1
  Tb  Tb5  1  0.07879673  0.15759346  0.38719230  1
  Fe  Fe6  1  0.21528775  0.43057549  0.58008357  1
  Fe  Fe7  1  0.78471225  0.56942451  0.41991643  1
  Fe  Fe8  1  0.78471225  0.56942451  0.08008357  1
  Fe  Fe9  1  0.21528775  0.43057549  0.91991643  1
  Si  Si10  1  0.67430252  0.34860504  0.25000000  1
  Si  Si11  1  0.32569748  0.65139496  0.75000000  1
  Si  Si12  1  0.37380646  0.74761292  0.03939611  1
  Si  Si13  1  0.62619354  0.25238708  0.96060389  1
  Si  Si14  1  0.62619354  0.25238708  0.53939611  1
  Si  Si15  1  0.37380646  0.74761292  0.46060389  1
