# generated using pymatgen
data_Sm2CuGe6
_symmetry_space_group_name_H-M   'P 1'
_cell_length_a   4.10124190
_cell_length_b   4.14610441
_cell_length_c   11.06201371
_cell_angle_alpha   90.00000000
_cell_angle_beta   100.68299733
_cell_angle_gamma   90.00000000
_symmetry_Int_Tables_number   1
_chemical_formula_structural   Sm2CuGe6
_chemical_formula_sum   'Sm2 Cu1 Ge6'
_cell_volume   184.84025548
_cell_formula_units_Z   1
loop_
 _symmetry_equiv_pos_site_id
 _symmetry_equiv_pos_as_xyz
  1  'x, y, z'
loop_
 _atom_site_type_symbol
 _atom_site_label
 _atom_site_symmetry_multiplicity
 _atom_site_fract_x
 _atom_site_fract_y
 _atom_site_fract_z
 _atom_site_occupancy
  Sm  Sm0  1  0.77839360  0.50000000  0.55678719  1
  Sm  Sm1  1  0.11222564  0.50000000  0.22445128  1
  Cu  Cu2  1  0.55659027  -0.00000000  0.11318054  1
  Ge  Ge3  1  0.49757063  0.50000000  0.99514126  1
  Ge  Ge4  1  0.38306826  0.50000000  0.76613653  1
  Ge  Ge5  1  0.99738529  0.00000000  0.99477058  1
  Ge  Ge6  1  0.88204236  -0.00000000  0.76408473  1
  Ge  Ge7  1  0.66472911  0.00000000  0.32945821  1
  Ge  Ge8  1  0.23499484  -0.00000000  0.46998969  1
