# generated using pymatgen
data_Rb3ErF6
_symmetry_space_group_name_H-M   'P 1'
_cell_length_a   6.94467683
_cell_length_b   6.94467683
_cell_length_c   6.94467683
_cell_angle_alpha   93.12790363
_cell_angle_beta   118.21083704
_cell_angle_gamma   118.21083704
_symmetry_Int_Tables_number   1
_chemical_formula_structural   Rb3ErF6
_chemical_formula_sum   'Rb3 Er1 F6'
_cell_volume   242.84565309
_cell_formula_units_Z   1
loop_
 _symmetry_equiv_pos_site_id
 _symmetry_equiv_pos_as_xyz
  1  'x, y, z'
loop_
 _atom_site_type_symbol
 _atom_site_label
 _atom_site_symmetry_multiplicity
 _atom_site_fract_x
 _atom_site_fract_y
 _atom_site_fract_z
 _atom_site_occupancy
  Rb  Rb0  1  0.50000000  0.75000000  0.25000000  1
  Rb  Rb1  1  0.50000000  0.25000000  0.75000000  1
  Rb  Rb2  1  0.00000000  0.50000000  0.50000000  1
  Er  Er3  1  0.00000000  0.00000000  0.00000000  1
  F  F4  1  0.69888618  0.00000000  0.69888618  1
  F  F5  1  0.30111382  0.00000000  0.30111382  1
  F  F6  1  0.69888618  0.69888618  0.00000000  1
  F  F7  1  0.30111382  0.30111382  0.00000000  1
  F  F8  1  0.00000000  0.22842840  0.22842840  1
  F  F9  1  0.00000000  0.77157160  0.77157160  1
