# generated using pymatgen
data_Y3CuSnSe7
_symmetry_space_group_name_H-M   'P 1'
_cell_length_a   6.53608022
_cell_length_b   10.25667444
_cell_length_c   10.25667445
_cell_angle_alpha   120.00000126
_cell_angle_beta   90.00000000
_cell_angle_gamma   90.00000000
_symmetry_Int_Tables_number   1
_chemical_formula_structural   Y3CuSnSe7
_chemical_formula_sum   'Y6 Cu2 Sn2 Se14'
_cell_volume   595.47172129
_cell_formula_units_Z   2
loop_
 _symmetry_equiv_pos_site_id
 _symmetry_equiv_pos_as_xyz
  1  'x, y, z'
loop_
 _atom_site_type_symbol
 _atom_site_label
 _atom_site_symmetry_multiplicity
 _atom_site_fract_x
 _atom_site_fract_y
 _atom_site_fract_z
 _atom_site_occupancy
  Y  Y0  1  0.89447869  0.84558135  0.20298002  1
  Y  Y1  1  0.89447869  0.35739867  0.15441865  1
  Y  Y2  1  0.39447869  0.15441865  0.79701998  1
  Y  Y3  1  0.89447869  0.79701998  0.64260133  1
  Y  Y4  1  0.39447869  0.64260133  0.84558135  1
  Y  Y5  1  0.39447869  0.20298002  0.35739867  1
  Cu  Cu6  1  0.99805839  0.00000000  0.00000000  1
  Cu  Cu7  1  0.49805839  0.00000000  0.00000000  1
  Sn  Sn8  1  0.32511533  0.66666700  0.33333300  1
  Sn  Sn9  1  0.82511533  0.33333300  0.66666700  1
  Se  Se10  1  0.96919433  0.73539119  0.88193380  1
  Se  Se11  1  0.96919433  0.14654261  0.26460881  1
  Se  Se12  1  0.46919433  0.26460881  0.11806620  1
  Se  Se13  1  0.96919433  0.11806620  0.85345739  1
  Se  Se14  1  0.46919433  0.85345739  0.73539119  1
  Se  Se15  1  0.46919433  0.88193380  0.14654261  1
  Se  Se16  1  0.64250911  0.47812269  0.55620092  1
  Se  Se17  1  0.64250911  0.07807823  0.52187731  1
  Se  Se18  1  0.14250911  0.52187731  0.44379908  1
  Se  Se19  1  0.64250911  0.44379908  0.92192177  1
  Se  Se20  1  0.14250911  0.92192177  0.47812269  1
  Se  Se21  1  0.14250911  0.55620092  0.07807823  1
  Se  Se22  1  0.71727988  0.66666700  0.33333300  1
  Se  Se23  1  0.21727988  0.33333300  0.66666700  1
