# generated using pymatgen
data_RbP4(WO4)8
_symmetry_space_group_name_H-M   'P 1'
_cell_length_a   7.73001884
_cell_length_b   9.58046331
_cell_length_c   10.45242446
_cell_angle_alpha   111.18955839
_cell_angle_beta   90.00000000
_cell_angle_gamma   113.79253908
_symmetry_Int_Tables_number   1
_chemical_formula_structural   RbP4(WO4)8
_chemical_formula_sum   'Rb1 P4 W8 O32'
_cell_volume   650.68420556
_cell_formula_units_Z   1
loop_
 _symmetry_equiv_pos_site_id
 _symmetry_equiv_pos_as_xyz
  1  'x, y, z'
loop_
 _atom_site_type_symbol
 _atom_site_label
 _atom_site_symmetry_multiplicity
 _atom_site_fract_x
 _atom_site_fract_y
 _atom_site_fract_z
 _atom_site_occupancy
  Rb  Rb0  1  0.50000000  -0.00000000  0.00000000  1
  P  P1  1  0.62142511  0.64484460  0.88365904  1
  P  P2  1  0.37857489  0.35515540  0.11634096  1
  P  P3  1  0.97658052  0.35515540  0.11634096  1
  P  P4  1  0.02341948  0.64484460  0.88365904  1
  W  W5  1  0.61818202  0.73778550  0.58894570  1
  W  W6  1  0.38181798  0.26221450  0.41105430  1
  W  W7  1  0.88039652  0.26221450  0.41105430  1
  W  W8  1  0.11960348  0.73778550  0.58894570  1
  W  W9  1  0.35760922  0.21697731  0.75953301  1
  W  W10  1  0.64239078  0.78302269  0.24046699  1
  W  W11  1  0.14063191  0.78302269  0.24046699  1
  W  W12  1  0.85936809  0.21697731  0.75953301  1
  O  O13  1  0.60962753  0.72969705  0.78747976  1
  O  O14  1  0.39037247  0.27030295  0.21252024  1
  O  O15  1  0.87993049  0.27030295  0.21252024  1
  O  O16  1  0.12006951  0.72969705  0.78747976  1
  O  O17  1  0.80425109  0.60850219  0.86568391  1
  O  O18  1  0.19574891  0.39149781  0.13431609  1
  O  O19  1  0.45616346  0.47443930  0.84768205  1
  O  O20  1  0.54383654  0.52556070  0.15231795  1
  O  O21  1  0.98172416  0.52556070  0.15231795  1
  O  O22  1  0.01827584  0.47443930  0.84768205  1
  O  O23  1  0.62248881  0.24497762  0.78085888  1
  O  O24  1  0.37751119  0.75502238  0.21914112  1
  O  O25  1  0.63025413  0.26050825  0.39996192  1
  O  O26  1  0.36974587  0.73949175  0.60003808  1
  O  O27  1  0.89145032  0.78290065  0.23978222  1
  O  O28  1  0.10854968  0.21709935  0.76021778  1
  O  O29  1  0.36975990  0.23087341  0.58200450  1
  O  O30  1  0.63024010  0.76912659  0.41799550  1
  O  O31  1  0.13888649  0.76912659  0.41799550  1
  O  O32  1  0.86111351  0.23087341  0.58200450  1
  O  O33  1  0.35794423  0.23506123  0.96663554  1
  O  O34  1  0.64205577  0.76493877  0.03336446  1
  O  O35  1  0.12288300  0.76493877  0.03336446  1
  O  O36  1  0.87711700  0.23506123  0.96663554  1
  O  O37  1  0.73373638  0.98870361  0.69586040  1
  O  O38  1  0.26626362  0.01129639  0.30413960  1
  O  O39  1  0.74503276  0.01129639  0.30413960  1
  O  O40  1  0.25496724  0.98870361  0.69586040  1
  O  O41  1  0.50000000  0.50000000  0.50000000  1
  O  O42  1  -0.00000000  0.50000000  0.50000000  1
  O  O43  1  0.87316835  0.74633670  0.60104945  1
  O  O44  1  0.12683165  0.25366330  0.39895055  1
