# generated using pymatgen
data_VPbF5
_symmetry_space_group_name_H-M   'P 1'
_cell_length_a   7.60264491
_cell_length_b   11.27013827
_cell_length_c   11.27013827
_cell_angle_alpha   83.46757002
_cell_angle_beta   70.28805567
_cell_angle_gamma   70.28805567
_symmetry_Int_Tables_number   1
_chemical_formula_structural   VPbF5
_chemical_formula_sum   'V8 Pb8 F40'
_cell_volume   855.79907942
_cell_formula_units_Z   8
loop_
 _symmetry_equiv_pos_site_id
 _symmetry_equiv_pos_as_xyz
  1  'x, y, z'
loop_
 _atom_site_type_symbol
 _atom_site_label
 _atom_site_symmetry_multiplicity
 _atom_site_fract_x
 _atom_site_fract_y
 _atom_site_fract_z
 _atom_site_occupancy
  V  V0  1  0.28775698  0.00000000  0.00000000  1
  V  V1  1  0.35745680  0.84707587  0.48078775  1
  V  V2  1  0.68532042  0.15292413  0.51921225  1
  V  V3  1  0.83824455  0.51921225  0.84707587  1
  V  V4  1  0.20453267  0.48078775  0.15292413  1
  V  V5  1  0.77864765  1.00000000  1.00000000  1
  V  V6  1  0.02613729  0.50000000  0.50000000  1
  V  V7  1  0.52613729  0.50000000  0.50000000  1
  Pb  Pb8  1  0.06279610  0.17332503  0.71832047  1
  Pb  Pb9  1  0.95444160  0.82667497  0.28167953  1
  Pb  Pb10  1  0.78111657  0.28167953  0.17332503  1
  Pb  Pb11  1  0.23612113  0.71832047  0.82667497  1
  Pb  Pb12  1  0.27167970  0.16260837  0.31765327  1
  Pb  Pb13  1  0.75194133  0.83739163  0.68234673  1
  Pb  Pb14  1  0.58933296  0.68234673  0.16260837  1
  Pb  Pb15  1  0.43428807  0.31765327  0.83739163  1
  F  F16  1  0.49787377  0.81052904  0.60607008  1
  F  F17  1  0.91447290  0.18947096  0.39392992  1
  F  F18  1  0.10394386  0.39392992  0.81052904  1
  F  F19  1  0.30840282  0.60607008  0.18947096  1
  F  F20  1  0.27622096  0.50000000  0.50000000  1
  F  F21  1  0.77622096  0.50000000  0.50000000  1
  F  F22  1  0.53364533  1.00000000  1.00000000  1
  F  F23  1  0.58883919  0.86988611  0.34749076  1
  F  F24  1  0.80621607  0.13011389  0.65250924  1
  F  F25  1  0.93632996  0.65250924  0.86988611  1
  F  F26  1  0.45872530  0.34749076  0.13011389  1
  F  F27  1  0.24162818  0.03689485  0.51165425  1
  F  F28  1  0.79017729  0.96310515  0.48834575  1
  F  F29  1  0.75328244  0.48834575  0.03689485  1
  F  F30  1  0.27852303  0.51165425  0.96310515  1
  F  F31  1  0.44914508  0.13644985  0.64645785  1
  F  F32  1  0.23205278  0.86355015  0.35354215  1
  F  F33  1  0.09560293  0.35354215  0.13644985  1
  F  F34  1  0.58559493  0.64645785  0.86355015  1
  F  F35  1  0.03190070  1.00000000  1.00000000  1
  F  F36  1  0.08988516  0.31645434  0.55185818  1
  F  F37  1  0.95819767  0.68354566  0.44814182  1
  F  F38  1  0.64174334  0.44814182  0.31645434  1
  F  F39  1  0.40633950  0.55185818  0.68354566  1
  F  F40  1  0.66242369  0.07767499  0.16766632  1
  F  F41  1  0.90776499  0.92232501  0.83233368  1
  F  F42  1  0.83009001  0.83233368  0.07767499  1
  F  F43  1  0.74009868  0.16766632  0.92232501  1
  F  F44  1  0.48397443  0.66521413  0.42214165  1
  F  F45  1  0.57133021  0.33478587  0.57785835  1
  F  F46  1  0.90611608  0.57785835  0.66521413  1
  F  F47  1  0.14918856  0.42214165  0.33478587  1
  F  F48  1  0.40944496  0.91781941  0.83098446  1
  F  F49  1  0.15824884  0.08218059  0.16901554  1
  F  F50  1  0.24042942  0.16901554  0.91781941  1
  F  F51  1  0.32726437  0.83098446  0.08218059  1
  F  F52  1  0.56497439  0.19727190  0.38453457  1
  F  F53  1  0.14678087  0.80272810  0.61546543  1
  F  F54  1  0.94950897  0.61546543  0.19727190  1
  F  F55  1  0.76224630  0.38453457  0.80272810  1
