# generated using pymatgen
data_In9Pb4Se17
_symmetry_space_group_name_H-M   'P 1'
_cell_length_a   4.11914975
_cell_length_b   16.08897692
_cell_length_c   24.09950614
_cell_angle_alpha   90.00000000
_cell_angle_beta   90.00000000
_cell_angle_gamma   90.00000000
_symmetry_Int_Tables_number   1
_chemical_formula_structural   In9Pb4Se17
_chemical_formula_sum   'In18 Pb8 Se34'
_cell_volume   1597.14428718
_cell_formula_units_Z   2
loop_
 _symmetry_equiv_pos_site_id
 _symmetry_equiv_pos_as_xyz
  1  'x, y, z'
loop_
 _atom_site_type_symbol
 _atom_site_label
 _atom_site_symmetry_multiplicity
 _atom_site_fract_x
 _atom_site_fract_y
 _atom_site_fract_z
 _atom_site_occupancy
  In  In0  1  0.50000000  0.26959108  0.38585369  1
  In  In1  1  0.50000000  0.73040892  0.61414631  1
  In  In2  1  0.50000000  0.23040892  0.88585369  1
  In  In3  1  0.50000000  0.76959108  0.11414631  1
  In  In4  1  0.00000000  0.17680756  0.25329442  1
  In  In5  1  0.00000000  0.82319244  0.74670558  1
  In  In6  1  0.00000000  0.32319244  0.75329442  1
  In  In7  1  -0.00000000  0.67680756  0.24670558  1
  In  In8  1  0.00000000  0.05510909  0.41736415  1
  In  In9  1  -0.00000000  0.94489091  0.58263585  1
  In  In10  1  -0.00000000  0.44489091  0.91736415  1
  In  In11  1  0.00000000  0.55510909  0.08263585  1
  In  In12  1  0.50000000  0.07232586  0.13228713  1
  In  In13  1  0.50000000  0.92767414  0.86771287  1
  In  In14  1  0.50000000  0.42767414  0.63228713  1
  In  In15  1  0.50000000  0.57232586  0.36771287  1
  In  In16  1  -0.00000000  0.00000000  -0.00000000  1
  In  In17  1  -0.00000000  0.50000000  0.50000000  1
  Pb  Pb18  1  0.50000000  0.42284143  0.21779676  1
  Pb  Pb19  1  0.50000000  0.57715857  0.78220324  1
  Pb  Pb20  1  0.50000000  0.07715857  0.71779676  1
  Pb  Pb21  1  0.50000000  0.92284143  0.28220324  1
  Pb  Pb22  1  0.50000000  0.30946652  0.05828370  1
  Pb  Pb23  1  0.50000000  0.69053348  0.94171630  1
  Pb  Pb24  1  0.50000000  0.19053348  0.55828370  1
  Pb  Pb25  1  0.50000000  0.80946652  0.44171630  1
  Se  Se26  1  0.50000000  0.22684048  0.18761699  1
  Se  Se27  1  0.50000000  0.77315952  0.81238301  1
  Se  Se28  1  0.50000000  0.27315952  0.68761699  1
  Se  Se29  1  0.50000000  0.72684048  0.31238301  1
  Se  Se30  1  0.00000000  0.02432503  0.20922755  1
  Se  Se31  1  0.00000000  0.97567497  0.79077245  1
  Se  Se32  1  0.00000000  0.47567497  0.70922755  1
  Se  Se33  1  0.00000000  0.52432503  0.29077245  1
  Se  Se34  1  0.00000000  0.20986400  0.45861076  1
  Se  Se35  1  0.00000000  0.79013600  0.54138924  1
  Se  Se36  1  -0.00000000  0.29013600  0.95861076  1
  Se  Se37  1  0.00000000  0.70986400  0.04138924  1
  Se  Se38  1  0.00000000  0.31399171  0.31526101  1
  Se  Se39  1  0.00000000  0.68600829  0.68473899  1
  Se  Se40  1  0.00000000  0.18600829  0.81526101  1
  Se  Se41  1  0.00000000  0.81399171  0.18473899  1
  Se  Se42  1  -0.00000000  0.13603585  0.06766197  1
  Se  Se43  1  -0.00000000  0.86396415  0.93233803  1
  Se  Se44  1  -0.00000000  0.36396415  0.56766197  1
  Se  Se45  1  -0.00000000  0.63603585  0.43233803  1
  Se  Se46  1  0.50000000  0.10342527  0.34020932  1
  Se  Se47  1  0.50000000  0.89657473  0.65979068  1
  Se  Se48  1  0.50000000  0.39657473  0.84020932  1
  Se  Se49  1  0.50000000  0.60342527  0.15979068  1
  Se  Se50  1  0.50000000  0.43201361  0.43252286  1
  Se  Se51  1  0.50000000  0.56798639  0.56747714  1
  Se  Se52  1  0.50000000  0.06798639  0.93252286  1
  Se  Se53  1  0.50000000  0.93201361  0.06747714  1
  Se  Se54  1  0.50000000  0.00000000  0.50000000  1
  Se  Se55  1  0.50000000  0.50000000  -0.00000000  1
  Se  Se56  1  0.00000000  0.40175451  0.12618029  1
  Se  Se57  1  0.00000000  0.59824549  0.87381971  1
  Se  Se58  1  0.00000000  0.09824549  0.62618029  1
  Se  Se59  1  0.00000000  0.90175451  0.37381971  1
