# generated using pymatgen
data_H7C2SBrN4
_symmetry_space_group_name_H-M   'P 1'
_cell_length_a   5.49984641
_cell_length_b   7.47200783
_cell_length_c   10.53042744
_cell_angle_alpha   93.86129174
_cell_angle_beta   82.79518410
_cell_angle_gamma   101.18095450
_symmetry_Int_Tables_number   1
_chemical_formula_structural   H7C2SBrN4
_chemical_formula_sum   'H14 C4 S2 Br2 N8'
_cell_volume   420.76940954
_cell_formula_units_Z   2
loop_
 _symmetry_equiv_pos_site_id
 _symmetry_equiv_pos_as_xyz
  1  'x, y, z'
loop_
 _atom_site_type_symbol
 _atom_site_label
 _atom_site_symmetry_multiplicity
 _atom_site_fract_x
 _atom_site_fract_y
 _atom_site_fract_z
 _atom_site_occupancy
  H  H0  1  0.94678390  0.08033235  0.31129625  1
  H  H1  1  0.05321610  0.91966765  0.68870375  1
  H  H2  1  0.28729589  0.52031829  0.61071689  1
  H  H3  1  0.71270411  0.47968171  0.38928311  1
  H  H4  1  0.24834044  0.93476039  0.27692411  1
  H  H5  1  0.75165956  0.06523961  0.72307589  1
  H  H6  1  0.14898529  0.46635129  0.11917864  1
  H  H7  1  0.85101471  0.53364871  0.88082136  1
  H  H8  1  0.56487254  0.05581749  0.87164465  1
  H  H9  1  0.43512746  0.94418251  0.12835535  1
  H  H10  1  0.70125295  0.25452126  0.43245982  1
  H  H11  1  0.29874705  0.74547874  0.56754018  1
  H  H12  1  0.03923796  0.39484985  0.77897720  1
  H  H13  1  0.96076204  0.60515015  0.22102280  1
  C  C14  1  0.22307406  0.14199542  0.16148673  1
  C  C15  1  0.77692594  0.85800458  0.83851327  1
  C  C16  1  0.05777640  0.65545759  0.72801294  1
  C  C17  1  0.94222360  0.34454241  0.27198706  1
  S  S18  1  0.33253835  0.25145047  0.02560908  1
  S  S19  1  0.66746165  0.74854953  0.97439092  1
  Br  Br20  1  0.25590822  0.19771230  0.62247638  1
  Br  Br21  1  0.74409178  0.80228770  0.37752362  1
  N  N22  1  0.02674318  0.48612663  0.19897846  1
  N  N23  1  0.97325682  0.51387337  0.80102154  1
  N  N24  1  0.23634688  0.64542089  0.63105666  1
  N  N25  1  0.76365312  0.35457911  0.36894334  1
  N  N26  1  0.03385739  0.18642964  0.25192061  1
  N  N27  1  0.96614261  0.81357036  0.74807939  1
  N  N28  1  0.68986375  0.00243234  0.80743782  1
  N  N29  1  0.31013625  0.99756766  0.19256218  1
