# generated using pymatgen
data_CsW3I3Cl4
_symmetry_space_group_name_H-M   'P 1'
_cell_length_a   10.74222843
_cell_length_b   10.74222843
_cell_length_c   16.07970093
_cell_angle_alpha   90.00000000
_cell_angle_beta   90.00000000
_cell_angle_gamma   120.00000275
_symmetry_Int_Tables_number   1
_chemical_formula_structural   CsW3I3Cl4
_chemical_formula_sum   'Cs4 W12 I12 Cl16'
_cell_volume   1606.93145841
_cell_formula_units_Z   4
loop_
 _symmetry_equiv_pos_site_id
 _symmetry_equiv_pos_as_xyz
  1  'x, y, z'
loop_
 _atom_site_type_symbol
 _atom_site_label
 _atom_site_symmetry_multiplicity
 _atom_site_fract_x
 _atom_site_fract_y
 _atom_site_fract_z
 _atom_site_occupancy
  Cs  Cs0  1  -0.00000000  0.00000000  0.99826380  1
  Cs  Cs1  1  -0.00000000  0.00000000  0.49826380  1
  Cs  Cs2  1  0.66666700  0.33333300  0.71277250  1
  Cs  Cs3  1  0.33333300  0.66666700  0.21277250  1
  W  W4  1  0.47963707  0.67518413  0.77927960  1
  W  W5  1  0.19554706  0.52036293  0.77927960  1
  W  W6  1  0.80445294  0.32481587  0.27927960  1
  W  W7  1  0.32481587  0.80445294  0.77927960  1
  W  W8  1  0.67518413  0.47963707  0.27927960  1
  W  W9  1  0.52036293  0.19554706  0.27927960  1
  W  W10  1  0.46962309  0.81337284  0.64536003  1
  W  W11  1  0.34374974  0.53037691  0.64536003  1
  W  W12  1  0.65625026  0.18662716  0.14536003  1
  W  W13  1  0.18662716  0.65625026  0.64536003  1
  W  W14  1  0.81337284  0.46962309  0.14536003  1
  W  W15  1  0.53037691  0.34374974  0.14536003  1
  I  I16  1  0.97316313  0.29918925  0.87356871  1
  I  I17  1  0.32602612  0.02683687  0.87356871  1
  I  I18  1  0.67397388  0.70081075  0.37356871  1
  I  I19  1  0.70081075  0.67397388  0.87356871  1
  I  I20  1  0.29918925  0.97316313  0.37356871  1
  I  I21  1  0.02683687  0.32602612  0.37356871  1
  I  I22  1  0.67637632  0.04627749  0.55003494  1
  I  I23  1  0.36990117  0.32362368  0.55003494  1
  I  I24  1  0.63009883  0.95372251  0.05003494  1
  I  I25  1  0.95372251  0.63009883  0.55003494  1
  I  I26  1  0.04627749  0.67637632  0.05003494  1
  I  I27  1  0.32362368  0.36990117  0.05003494  1
  Cl  Cl28  1  0.61326059  0.68830531  0.64693691  1
  Cl  Cl29  1  0.07504472  0.38673941  0.64693691  1
  Cl  Cl30  1  0.92495528  0.31169469  0.14693691  1
  Cl  Cl31  1  0.31169469  0.92495528  0.64693691  1
  Cl  Cl32  1  0.68830531  0.61326059  0.14693691  1
  Cl  Cl33  1  0.38673941  0.07504472  0.14693691  1
  Cl  Cl34  1  0.66666700  0.33333300  0.02142910  1
  Cl  Cl35  1  0.33333300  0.66666700  0.52142910  1
  Cl  Cl36  1  0.66666700  0.33333300  0.40248536  1
  Cl  Cl37  1  0.33333300  0.66666700  0.90248536  1
  Cl  Cl38  1  0.59504026  0.94310778  0.77756955  1
  Cl  Cl39  1  0.34806752  0.40495974  0.77756955  1
  Cl  Cl40  1  0.65193248  0.05689222  0.27756955  1
  Cl  Cl41  1  0.05689222  0.65193248  0.77756955  1
  Cl  Cl42  1  0.94310778  0.59504026  0.27756955  1
  Cl  Cl43  1  0.40495974  0.34806752  0.27756955  1
