# generated using pymatgen
data_Mo6SI9
_symmetry_space_group_name_H-M   'P 1'
_cell_length_a   12.32997334
_cell_length_b   17.41867842
_cell_length_c   17.41867842
_cell_angle_alpha   120.00000129
_cell_angle_beta   90.00000000
_cell_angle_gamma   90.00000000
_symmetry_Int_Tables_number   1
_chemical_formula_structural   Mo6SI9
_chemical_formula_sum   'Mo36 S6 I54'
_cell_volume   3239.83704077
_cell_formula_units_Z   6
loop_
 _symmetry_equiv_pos_site_id
 _symmetry_equiv_pos_as_xyz
  1  'x, y, z'
loop_
 _atom_site_type_symbol
 _atom_site_label
 _atom_site_symmetry_multiplicity
 _atom_site_fract_x
 _atom_site_fract_y
 _atom_site_fract_z
 _atom_site_occupancy
  Mo  Mo0  1  0.63611171  0.76135139  0.34857848  1
  Mo  Mo1  1  0.63611171  0.58722708  0.23864861  1
  Mo  Mo2  1  0.13611171  0.23864861  0.65142152  1
  Mo  Mo3  1  0.63611171  0.65142152  0.41277292  1
  Mo  Mo4  1  0.13611171  0.41277292  0.76135139  1
  Mo  Mo5  1  0.13611171  0.34857848  0.58722708  1
  Mo  Mo6  1  0.95299711  0.76233472  0.35045600  1
  Mo  Mo7  1  0.95299711  0.58812128  0.23766528  1
  Mo  Mo8  1  0.45299711  0.23766528  0.64954400  1
  Mo  Mo9  1  0.95299711  0.64954400  0.41187872  1
  Mo  Mo10  1  0.45299711  0.41187872  0.76233472  1
  Mo  Mo11  1  0.45299711  0.35045600  0.58812128  1
  Mo  Mo12  1  0.66860952  0.90519439  0.98523797  1
  Mo  Mo13  1  0.66860952  0.08004358  0.09480561  1
  Mo  Mo14  1  0.16860952  0.09480561  0.01476203  1
  Mo  Mo15  1  0.66860952  0.01476203  0.91995642  1
  Mo  Mo16  1  0.16860952  0.91995642  0.90519439  1
  Mo  Mo17  1  0.16860952  0.98523797  0.08004358  1
  Mo  Mo18  1  0.95330250  0.42840553  0.68254722  1
  Mo  Mo19  1  0.95330250  0.25414169  0.57159447  1
  Mo  Mo20  1  0.45330250  0.57159447  0.31745278  1
  Mo  Mo21  1  0.95330250  0.31745278  0.74585831  1
  Mo  Mo22  1  0.45330250  0.74585831  0.42840553  1
  Mo  Mo23  1  0.45330250  0.68254722  0.25414169  1
  Mo  Mo24  1  0.63529192  0.42918803  0.68451215  1
  Mo  Mo25  1  0.63529192  0.25532412  0.57081197  1
  Mo  Mo26  1  0.13529192  0.57081197  0.31548785  1
  Mo  Mo27  1  0.63529192  0.31548785  0.74467588  1
  Mo  Mo28  1  0.13529192  0.74467588  0.42918803  1
  Mo  Mo29  1  0.13529192  0.68451215  0.25532412  1
  Mo  Mo30  1  0.85149825  0.98523102  0.08004548  1
  Mo  Mo31  1  0.85149825  0.09481446  0.01476898  1
  Mo  Mo32  1  0.35149825  0.01476898  0.91995452  1
  Mo  Mo33  1  0.85149825  0.91995452  0.90518554  1
  Mo  Mo34  1  0.35149825  0.90518554  0.98523102  1
  Mo  Mo35  1  0.35149825  0.08004548  0.09481446  1
  S  S36  1  0.79517084  0.66666700  0.33333300  1
  S  S37  1  0.29517084  0.33333300  0.66666700  1
  S  S38  1  0.29398643  0.66666700  0.33333300  1
  S  S39  1  0.79398643  0.33333300  0.66666700  1
  S  S40  1  0.01015246  0.00000000  -0.00000000  1
  S  S41  1  0.51015246  0.00000000  -0.00000000  1
  I  I42  1  0.95786088  0.50195425  0.86878060  1
  I  I43  1  0.95786088  0.36682636  0.49804575  1
  I  I44  1  0.45786088  0.49804575  0.13121940  1
  I  I45  1  0.95786088  0.13121940  0.63317364  1
  I  I46  1  0.45786088  0.63317364  0.50195425  1
  I  I47  1  0.45786088  0.86878060  0.36682636  1
  I  I48  1  0.95724758  0.70272899  0.16670095  1
  I  I49  1  0.95724758  0.46397197  0.29727101  1
  I  I50  1  0.45724758  0.29727101  0.83329905  1
  I  I51  1  0.95724758  0.83329905  0.53602803  1
  I  I52  1  0.45724758  0.53602803  0.70272899  1
  I  I53  1  0.45724758  0.16670095  0.46397197  1
  I  I54  1  0.79469536  0.56430223  0.71196386  1
  I  I55  1  0.79469536  0.14766163  0.43569777  1
  I  I56  1  0.29469536  0.43569777  0.28803614  1
  I  I57  1  0.79469536  0.28803614  0.85233837  1
  I  I58  1  0.29469536  0.85233837  0.56430223  1
  I  I59  1  0.29469536  0.71196386  0.14766163  1
  I  I60  1  0.01032816  0.96494078  0.19325899  1
  I  I61  1  0.01032816  0.22831822  0.03505922  1
  I  I62  1  0.51032816  0.03505922  0.80674101  1
  I  I63  1  0.01032816  0.80674101  0.77168178  1
  I  I64  1  0.51032816  0.77168178  0.96494078  1
  I  I65  1  0.51032816  0.19325899  0.22831822  1
  I  I66  1  0.84782779  0.79924657  0.96886598  1
  I  I67  1  0.84782779  0.16961941  0.20075343  1
  I  I68  1  0.34782779  0.20075343  0.03113402  1
  I  I69  1  0.84782779  0.03113402  0.83038059  1
  I  I70  1  0.34782779  0.83038059  0.79924657  1
  I  I71  1  0.34782779  0.96886598  0.16961941  1
  I  I72  1  0.63116125  0.69835416  0.16393464  1
  I  I73  1  0.63116125  0.46558048  0.30164584  1
  I  I74  1  0.13116125  0.30164584  0.83606536  1
  I  I75  1  0.63116125  0.83606536  0.53441952  1
  I  I76  1  0.13116125  0.53441952  0.69835416  1
  I  I77  1  0.13116125  0.16393464  0.46558048  1
  I  I78  1  0.67243508  0.96907529  0.16937726  1
  I  I79  1  0.67243508  0.20030196  0.03092471  1
  I  I80  1  0.17243508  0.03092471  0.83062274  1
  I  I81  1  0.67243508  0.83062274  0.79969804  1
  I  I82  1  0.17243508  0.79969804  0.96907529  1
  I  I83  1  0.17243508  0.16937726  0.20030196  1
  I  I84  1  0.79361695  0.89385343  0.37080633  1
  I  I85  1  0.79361695  0.47695291  0.10614657  1
  I  I86  1  0.29361695  0.10614657  0.62919367  1
  I  I87  1  0.79361695  0.62919367  0.52304709  1
  I  I88  1  0.29361695  0.52304709  0.89385343  1
  I  I89  1  0.29361695  0.37080633  0.47695291  1
  I  I90  1  0.63254604  0.49789842  0.86953536  1
  I  I91  1  0.63254604  0.37163694  0.50210158  1
  I  I92  1  0.13254604  0.50210158  0.13046464  1
  I  I93  1  0.63254604  0.13046464  0.62836306  1
  I  I94  1  0.13254604  0.62836306  0.49789842  1
  I  I95  1  0.13254604  0.86953536  0.37163694  1
