# generated using pymatgen
data_SrBrCl
_symmetry_space_group_name_H-M   'P 1'
_cell_length_a   4.83463759
_cell_length_b   7.73222825
_cell_length_c   10.07319473
_cell_angle_alpha   90.00000000
_cell_angle_beta   90.00000000
_cell_angle_gamma   90.00000000
_symmetry_Int_Tables_number   1
_chemical_formula_structural   SrBrCl
_chemical_formula_sum   'Sr4 Br4 Cl4'
_cell_volume   376.56141708
_cell_formula_units_Z   4
loop_
 _symmetry_equiv_pos_site_id
 _symmetry_equiv_pos_as_xyz
  1  'x, y, z'
loop_
 _atom_site_type_symbol
 _atom_site_label
 _atom_site_symmetry_multiplicity
 _atom_site_fract_x
 _atom_site_fract_y
 _atom_site_fract_z
 _atom_site_occupancy
  Sr  Sr0  1  0.75000000  0.77334011  0.58181093  1
  Sr  Sr1  1  0.25000000  0.22665989  0.41818907  1
  Sr  Sr2  1  0.25000000  0.72665989  0.08181093  1
  Sr  Sr3  1  0.75000000  0.27334011  0.91818907  1
  Br  Br4  1  0.75000000  0.86373663  0.89618587  1
  Br  Br5  1  0.25000000  0.13626337  0.10381413  1
  Br  Br6  1  0.25000000  0.63626337  0.39618587  1
  Br  Br7  1  0.75000000  0.36373663  0.60381413  1
  Cl  Cl8  1  0.75000000  0.01550354  0.35865612  1
  Cl  Cl9  1  0.25000000  0.98449646  0.64134388  1
  Cl  Cl10  1  0.25000000  0.48449646  0.85865612  1
  Cl  Cl11  1  0.75000000  0.51550354  0.14134388  1
