# generated using pymatgen
data_CsNa3P4(HO2)8
_symmetry_space_group_name_H-M   'P 1'
_cell_length_a   7.17145511
_cell_length_b   7.87219194
_cell_length_c   9.02618564
_cell_angle_alpha   115.85373212
_cell_angle_beta   113.40689583
_cell_angle_gamma   90.00000000
_symmetry_Int_Tables_number   1
_chemical_formula_structural   CsNa3P4(HO2)8
_chemical_formula_sum   'Cs1 Na3 P4 H8 O16'
_cell_volume   411.47085449
_cell_formula_units_Z   1
loop_
 _symmetry_equiv_pos_site_id
 _symmetry_equiv_pos_as_xyz
  1  'x, y, z'
loop_
 _atom_site_type_symbol
 _atom_site_label
 _atom_site_symmetry_multiplicity
 _atom_site_fract_x
 _atom_site_fract_y
 _atom_site_fract_z
 _atom_site_occupancy
  Cs  Cs0  1  0.81775264  0.50000000  -0.00000000  1
  Na  Na1  1  0.26655229  0.22209363  0.44418727  1
  Na  Na2  1  0.82236502  0.77790637  0.55581273  1
  Na  Na3  1  0.00818240  0.00000000  -0.00000000  1
  P  P4  1  0.40969226  0.40753688  0.20332865  1
  P  P5  1  0.20636361  0.59246312  0.79667135  1
  P  P6  1  0.20636361  0.20420822  0.79667135  1
  P  P7  1  0.40969226  0.79579178  0.20332865  1
  H  H8  1  0.52674110  0.75978463  0.71658658  1
  H  H9  1  0.81015452  0.24021537  0.28341342  1
  H  H10  1  0.81015452  0.04319806  0.28341342  1
  H  H11  1  0.52674110  0.95680194  0.71658658  1
  H  H12  1  0.66841555  0.36019947  0.52215537  1
  H  H13  1  0.14626017  0.63980053  0.47784463  1
  H  H14  1  0.14626017  0.83804409  0.47784463  1
  H  H15  1  0.66841555  0.16195591  0.52215537  1
  O  O16  1  0.63820712  0.28995272  0.57990545  1
  O  O17  1  0.05830168  0.71004728  0.42009455  1
  O  O18  1  0.88393060  0.13292180  0.26584361  1
  O  O19  1  0.61808699  0.86707820  0.73415639  1
  O  O20  1  0.63417524  0.44703775  0.33579542  1
  O  O21  1  0.29837981  0.55296225  0.66420458  1
  O  O22  1  0.29837981  0.11124232  0.66420458  1
  O  O23  1  0.63417524  0.88875768  0.33579542  1
  O  O24  1  0.24227913  0.30338865  0.21039560  1
  O  O25  1  0.03188353  0.69661135  0.78960440  1
  O  O26  1  0.03188353  0.09299305  0.78960440  1
  O  O27  1  0.24227913  0.90700695  0.21039560  1
  O  O28  1  0.12564073  0.39369755  0.78739511  1
  O  O29  1  0.33824563  0.60630245  0.21260489  1
  O  O30  1  0.40462254  0.29985001  -0.00000000  1
  O  O31  1  0.40462254  0.70014999  -0.00000000  1
