# generated using pymatgen
data_Ca2YBeO5
_symmetry_space_group_name_H-M   'P 1'
_cell_length_a   6.37807175
_cell_length_b   7.11365442
_cell_length_c   9.21988355
_cell_angle_alpha   90.00000000
_cell_angle_beta   90.00000000
_cell_angle_gamma   90.00000000
_symmetry_Int_Tables_number   1
_chemical_formula_structural   Ca2YBeO5
_chemical_formula_sum   'Ca8 Y4 Be4 O20'
_cell_volume   418.31900878
_cell_formula_units_Z   4
loop_
 _symmetry_equiv_pos_site_id
 _symmetry_equiv_pos_as_xyz
  1  'x, y, z'
loop_
 _atom_site_type_symbol
 _atom_site_label
 _atom_site_symmetry_multiplicity
 _atom_site_fract_x
 _atom_site_fract_y
 _atom_site_fract_z
 _atom_site_occupancy
  Ca  Ca0  1  0.91197772  0.97613694  0.67374286  1
  Ca  Ca1  1  0.08802228  0.02386306  0.32625714  1
  Ca  Ca2  1  0.41197772  0.02386306  0.82625714  1
  Ca  Ca3  1  0.08802228  0.47613694  0.32625714  1
  Ca  Ca4  1  0.58802228  0.97613694  0.17374286  1
  Ca  Ca5  1  0.91197772  0.52386306  0.67374286  1
  Ca  Ca6  1  0.58802228  0.52386306  0.17374286  1
  Ca  Ca7  1  0.41197772  0.47613694  0.82625714  1
  Y  Y8  1  0.40402916  0.75000000  0.52833014  1
  Y  Y9  1  0.59597084  0.25000000  0.47166986  1
  Y  Y10  1  0.90402916  0.25000000  0.97166986  1
  Y  Y11  1  0.09597084  0.75000000  0.02833014  1
  Be  Be12  1  0.68976797  0.75000000  0.89637558  1
  Be  Be13  1  0.31023203  0.25000000  0.10362442  1
  Be  Be14  1  0.18976797  0.25000000  0.60362442  1
  Be  Be15  1  0.81023203  0.75000000  0.39637558  1
  O  O16  1  0.63054503  0.75000000  0.72305789  1
  O  O17  1  0.36945497  0.25000000  0.27694211  1
  O  O18  1  0.13054503  0.25000000  0.77694211  1
  O  O19  1  0.86945497  0.75000000  0.22305789  1
  O  O20  1  0.17428478  0.75000000  0.77745256  1
  O  O21  1  0.82571522  0.25000000  0.22254744  1
  O  O22  1  0.67428478  0.25000000  0.72254744  1
  O  O23  1  0.32571522  0.75000000  0.27745256  1
  O  O24  1  0.81385436  0.94200829  0.93328561  1
  O  O25  1  0.18614564  0.05799171  0.06671439  1
  O  O26  1  0.31385436  0.05799171  0.56671439  1
  O  O27  1  0.18614564  0.44200829  0.06671439  1
  O  O28  1  0.68614564  0.94200829  0.43328561  1
  O  O29  1  0.81385436  0.55799171  0.93328561  1
  O  O30  1  0.68614564  0.55799171  0.43328561  1
  O  O31  1  0.31385436  0.44200829  0.56671439  1
  O  O32  1  0.46839105  0.75000000  0.98982598  1
  O  O33  1  0.53160895  0.25000000  0.01017402  1
  O  O34  1  0.96839105  0.25000000  0.51017402  1
  O  O35  1  0.03160895  0.75000000  0.48982598  1
