# generated using pymatgen
data_ZrTaCo4
_symmetry_space_group_name_H-M   'P 1'
_cell_length_a   4.83010142
_cell_length_b   4.83010142
_cell_length_c   4.83010142
_cell_angle_alpha   90.00000000
_cell_angle_beta   60.00000000
_cell_angle_gamma   120.00000000
_symmetry_Int_Tables_number   1
_chemical_formula_structural   ZrTaCo4
_chemical_formula_sum   'Zr1 Ta1 Co4'
_cell_volume   79.68081229
_cell_formula_units_Z   1
loop_
 _symmetry_equiv_pos_site_id
 _symmetry_equiv_pos_as_xyz
  1  'x, y, z'
loop_
 _atom_site_type_symbol
 _atom_site_label
 _atom_site_symmetry_multiplicity
 _atom_site_fract_x
 _atom_site_fract_y
 _atom_site_fract_z
 _atom_site_occupancy
  Zr  Zr0  1  0.00000000  0.00000000  -0.00000000  1
  Ta  Ta1  1  0.50000000  0.75000000  0.75000000  1
  Co  Co2  1  0.75020171  0.37510085  0.87469744  1
  Co  Co3  1  0.24979829  0.37510085  0.37510085  1
  Co  Co4  1  0.24979829  0.87469744  0.37510085  1
  Co  Co5  1  0.75020171  0.37510085  0.37510085  1
