# generated using pymatgen
data_Ba3LiIn11
_symmetry_space_group_name_H-M   'P 1'
_cell_length_a   9.61598781
_cell_length_b   10.52478499
_cell_length_c   10.52478499
_cell_angle_alpha   119.99999502
_cell_angle_beta   90.00000000
_cell_angle_gamma   90.00000000
_symmetry_Int_Tables_number   1
_chemical_formula_structural   Ba3LiIn11
_chemical_formula_sum   'Ba6 Li2 In22'
_cell_volume   922.46738968
_cell_formula_units_Z   2
loop_
 _symmetry_equiv_pos_site_id
 _symmetry_equiv_pos_as_xyz
  1  'x, y, z'
loop_
 _atom_site_type_symbol
 _atom_site_label
 _atom_site_symmetry_multiplicity
 _atom_site_fract_x
 _atom_site_fract_y
 _atom_site_fract_z
 _atom_site_occupancy
  Ba  Ba0  1  0.75000000  0.48309159  0.51690841  1
  Ba  Ba1  1  0.25000000  0.51690841  0.48309159  1
  Ba  Ba2  1  0.75000000  0.03381682  0.51690841  1
  Ba  Ba3  1  0.25000000  0.96618318  0.48309159  1
  Ba  Ba4  1  0.75000000  0.48309159  0.96618318  1
  Ba  Ba5  1  0.25000000  0.51690841  0.03381682  1
  Li  Li6  1  -0.00000000  0.00000000  0.00000000  1
  Li  Li7  1  0.50000000  0.00000000  0.00000000  1
  In  In8  1  0.95272122  0.83062603  0.16937397  1
  In  In9  1  0.04727878  0.16937397  0.83062603  1
  In  In10  1  0.95272122  0.33874794  0.16937397  1
  In  In11  1  0.45272122  0.16937397  0.83062603  1
  In  In12  1  0.04727878  0.66125206  0.83062603  1
  In  In13  1  0.54727878  0.83062603  0.16937397  1
  In  In14  1  0.95272122  0.83062603  0.66125206  1
  In  In15  1  0.45272122  0.66125206  0.83062603  1
  In  In16  1  0.04727878  0.16937397  0.33874794  1
  In  In17  1  0.54727878  0.33874794  0.16937397  1
  In  In18  1  0.45272122  0.16937397  0.33874794  1
  In  In19  1  0.54727878  0.83062603  0.66125206  1
  In  In20  1  0.75000000  0.10264707  0.89735293  1
  In  In21  1  0.25000000  0.89735293  0.10264707  1
  In  In22  1  0.75000000  0.79470585  0.89735293  1
  In  In23  1  0.25000000  0.20529415  0.10264707  1
  In  In24  1  0.75000000  0.10264707  0.20529415  1
  In  In25  1  0.25000000  0.89735293  0.79470585  1
  In  In26  1  0.95438214  0.66666700  0.33333300  1
  In  In27  1  0.04561786  0.33333300  0.66666700  1
  In  In28  1  0.45438214  0.33333300  0.66666700  1
  In  In29  1  0.54561786  0.66666700  0.33333300  1
