# generated using pymatgen
data_Ca5Ni9P7
_symmetry_space_group_name_H-M   'P 1'
_cell_length_a   3.84311023
_cell_length_b   9.62451473
_cell_length_c   9.62451474
_cell_angle_alpha   120.00000064
_cell_angle_beta   90.00000000
_cell_angle_gamma   90.00000000
_symmetry_Int_Tables_number   1
_chemical_formula_structural   Ca5Ni9P7
_chemical_formula_sum   'Ca5 Ni9 P7'
_cell_volume   308.29831671
_cell_formula_units_Z   1
loop_
 _symmetry_equiv_pos_site_id
 _symmetry_equiv_pos_as_xyz
  1  'x, y, z'
loop_
 _atom_site_type_symbol
 _atom_site_label
 _atom_site_symmetry_multiplicity
 _atom_site_fract_x
 _atom_site_fract_y
 _atom_site_fract_z
 _atom_site_occupancy
  Ca  Ca0  1  0.00000000  0.66666700  0.33333300  1
  Ca  Ca1  1  0.50000000  0.33333300  0.66666700  1
  Ca  Ca2  1  0.50000000  0.76866606  0.88949693  1
  Ca  Ca3  1  0.50000000  0.12083087  0.23133394  1
  Ca  Ca4  1  0.50000000  0.11050307  0.87916913  1
  Ni  Ni5  1  0.50000000  0.94198440  0.39530578  1
  Ni  Ni6  1  0.50000000  0.45332138  0.05801560  1
  Ni  Ni7  1  0.50000000  0.60469422  0.54667862  1
  Ni  Ni8  1  0.00000000  0.57306774  0.95075814  1
  Ni  Ni9  1  -0.00000000  0.37769040  0.42693226  1
  Ni  Ni10  1  -0.00000000  0.04924186  0.62230960  1
  Ni  Ni11  1  0.00000000  0.86604922  0.17034575  1
  Ni  Ni12  1  -0.00000000  0.30429653  0.13395078  1
  Ni  Ni13  1  -0.00000000  0.82965425  0.69570347  1
  P  P14  1  0.50000000  0.71527291  0.14027256  1
  P  P15  1  0.50000000  0.42499966  0.28472709  1
  P  P16  1  0.50000000  0.85972744  0.57500034  1
  P  P17  1  -0.00000000  0.57760903  0.67153603  1
  P  P18  1  0.00000000  0.09392700  0.42239097  1
  P  P19  1  0.00000000  0.32846397  0.90607300  1
  P  P20  1  -0.00000000  0.00000000  0.00000000  1
