# generated using pymatgen
data_CsMnCu3Se4
_symmetry_space_group_name_H-M   'P 1'
_cell_length_a   6.25034781
_cell_length_b   6.25363033
_cell_length_c   6.25763623
_cell_angle_alpha   89.99981764
_cell_angle_beta   90.00019441
_cell_angle_gamma   89.99993924
_symmetry_Int_Tables_number   1
_chemical_formula_structural   CsMnCu3Se4
_chemical_formula_sum   'Cs1 Mn1 Cu3 Se4'
_cell_volume   244.59450909
_cell_formula_units_Z   1
loop_
 _symmetry_equiv_pos_site_id
 _symmetry_equiv_pos_as_xyz
  1  'x, y, z'
loop_
 _atom_site_type_symbol
 _atom_site_label
 _atom_site_symmetry_multiplicity
 _atom_site_fract_x
 _atom_site_fract_y
 _atom_site_fract_z
 _atom_site_occupancy
  Cs  Cs0  1  0.49999777  0.50000224  0.50000084  1
  Mn  Mn1  1  0.00000054  0.99999873  0.00000046  1
  Cu  Cu2  1  0.00000039  0.50000053  0.99999985  1
  Cu  Cu3  1  0.99999968  0.99999997  0.49999802  1
  Cu  Cu4  1  0.50000049  0.99999987  0.99999991  1
  Se  Se5  1  0.21251178  0.21258707  0.21265459  1
  Se  Se6  1  0.78748872  0.78741179  0.21265488  1
  Se  Se7  1  0.21251169  0.78741226  0.78734591  1
  Se  Se8  1  0.78748895  0.21258756  0.78734554  1
