# generated using pymatgen
data_Ce4CdIr
_symmetry_space_group_name_H-M   'P 1'
_cell_length_a   9.75597026
_cell_length_b   9.75597026
_cell_length_c   9.75597026
_cell_angle_alpha   60.00000000
_cell_angle_beta   60.00000000
_cell_angle_gamma   60.00000000
_symmetry_Int_Tables_number   1
_chemical_formula_structural   Ce4CdIr
_chemical_formula_sum   'Ce16 Cd4 Ir4'
_cell_volume   656.59323802
_cell_formula_units_Z   4
loop_
 _symmetry_equiv_pos_site_id
 _symmetry_equiv_pos_as_xyz
  1  'x, y, z'
loop_
 _atom_site_type_symbol
 _atom_site_label
 _atom_site_symmetry_multiplicity
 _atom_site_fract_x
 _atom_site_fract_y
 _atom_site_fract_z
 _atom_site_occupancy
  Ce  Ce0  1  0.65070379  0.65070379  0.65070379  1
  Ce  Ce1  1  0.04788863  0.65070379  0.65070379  1
  Ce  Ce2  1  0.65070379  0.04788863  0.65070379  1
  Ce  Ce3  1  0.65070379  0.65070379  0.04788863  1
  Ce  Ce4  1  0.80572814  0.80572814  0.19427186  1
  Ce  Ce5  1  0.19427186  0.19427186  0.80572814  1
  Ce  Ce6  1  0.80572814  0.19427186  0.80572814  1
  Ce  Ce7  1  0.19427186  0.80572814  0.19427186  1
  Ce  Ce8  1  0.19427186  0.80572814  0.80572814  1
  Ce  Ce9  1  0.80572814  0.19427186  0.19427186  1
  Ce  Ce10  1  0.43799222  0.43799222  0.06200778  1
  Ce  Ce11  1  0.06200778  0.06200778  0.43799222  1
  Ce  Ce12  1  0.43799222  0.06200778  0.43799222  1
  Ce  Ce13  1  0.06200778  0.43799222  0.06200778  1
  Ce  Ce14  1  0.06200778  0.43799222  0.43799222  1
  Ce  Ce15  1  0.43799222  0.06200778  0.06200778  1
  Cd  Cd16  1  0.42082248  0.42082248  0.42082248  1
  Cd  Cd17  1  0.73753257  0.42082248  0.42082248  1
  Cd  Cd18  1  0.42082248  0.73753257  0.42082248  1
  Cd  Cd19  1  0.42082248  0.42082248  0.73753257  1
  Ir  Ir20  1  0.85948945  0.85948945  0.85948945  1
  Ir  Ir21  1  0.42153164  0.85948945  0.85948945  1
  Ir  Ir22  1  0.85948945  0.42153164  0.85948945  1
  Ir  Ir23  1  0.85948945  0.85948945  0.42153164  1
