# generated using pymatgen
data_Ca4Be2Al2Si9O28
_symmetry_space_group_name_H-M   'P 1'
_cell_length_a   5.08814229
_cell_length_b   12.02490168
_cell_length_c   19.69313571
_cell_angle_alpha   90.00000000
_cell_angle_beta   90.00000000
_cell_angle_gamma   102.21419230
_symmetry_Int_Tables_number   1
_chemical_formula_structural   Ca4Be2Al2Si9O28
_chemical_formula_sum   'Ca8 Be4 Al4 Si18 O56'
_cell_volume   1177.63791642
_cell_formula_units_Z   2
loop_
 _symmetry_equiv_pos_site_id
 _symmetry_equiv_pos_as_xyz
  1  'x, y, z'
loop_
 _atom_site_type_symbol
 _atom_site_label
 _atom_site_symmetry_multiplicity
 _atom_site_fract_x
 _atom_site_fract_y
 _atom_site_fract_z
 _atom_site_occupancy
  Ca  Ca0  1  0.32362836  0.17043198  0.84845516  1
  Ca  Ca1  1  0.67637164  0.82956802  0.15154484  1
  Ca  Ca2  1  0.67637164  0.82956802  0.34845516  1
  Ca  Ca3  1  0.15319638  0.82956802  0.65154484  1
  Ca  Ca4  1  0.32362836  0.17043198  0.65154484  1
  Ca  Ca5  1  0.84680362  0.17043198  0.34845516  1
  Ca  Ca6  1  0.84680362  0.17043198  0.15154484  1
  Ca  Ca7  1  0.15319638  0.82956802  0.84845516  1
  Be  Be8  1  0.69172058  0.74700287  0.75000000  1
  Be  Be9  1  0.30827942  0.25299713  0.25000000  1
  Be  Be10  1  0.94471771  0.25299713  0.75000000  1
  Be  Be11  1  0.05528229  0.74700287  0.25000000  1
  Al  Al12  1  0.59524950  0.19049899  0.00000000  1
  Al  Al13  1  0.40475050  0.80950101  0.00000000  1
  Al  Al14  1  0.40475050  0.80950101  0.50000000  1
  Al  Al15  1  0.59524950  0.19049899  0.50000000  1
  Si  Si16  1  0.77691433  -0.00000000  0.75000000  1
  Si  Si17  1  0.22308567  0.00000000  0.25000000  1
  Si  Si18  1  0.64558102  0.57107218  0.85696492  1
  Si  Si19  1  0.35441898  0.42892782  0.14303508  1
  Si  Si20  1  0.35441898  0.42892782  0.35696492  1
  Si  Si21  1  0.07450884  0.42892782  0.64303508  1
  Si  Si22  1  0.64558102  0.57107218  0.64303508  1
  Si  Si23  1  0.92549116  0.57107218  0.35696492  1
  Si  Si24  1  0.92549116  0.57107218  0.14303508  1
  Si  Si25  1  0.07450884  0.42892782  0.85696492  1
  Si  Si26  1  0.83033065  0.66066130  0.00000000  1
  Si  Si27  1  0.16966935  0.33933870  0.00000000  1
  Si  Si28  1  0.16966935  0.33933870  0.50000000  1
  Si  Si29  1  0.83033065  0.66066130  0.50000000  1
  Si  Si30  1  0.72115858  0.00000000  0.89488662  1
  Si  Si31  1  0.27884142  -0.00000000  0.10511338  1
  Si  Si32  1  0.27884142  -0.00000000  0.39488662  1
  Si  Si33  1  0.72115858  0.00000000  0.60511338  1
  O  O34  1  0.57417118  -0.00000000  0.81676573  1
  O  O35  1  0.42582882  -0.00000000  0.18323427  1
  O  O36  1  0.42582882  -0.00000000  0.31676573  1
  O  O37  1  0.57417118  -0.00000000  0.68323427  1
  O  O38  1  0.61546561  0.22341771  0.75000000  1
  O  O39  1  0.38453439  0.77658229  0.25000000  1
  O  O40  1  0.39204790  0.77658229  0.75000000  1
  O  O41  1  0.60795210  0.22341771  0.25000000  1
  O  O42  1  0.88983451  0.88190400  0.75000000  1
  O  O43  1  0.11016549  0.11809600  0.25000000  1
  O  O44  1  0.00793051  0.11809600  0.75000000  1
  O  O45  1  0.99206949  0.88190400  0.25000000  1
  O  O46  1  0.66018831  0.58462055  0.93994426  1
  O  O47  1  0.33981169  0.41537945  0.06005574  1
  O  O48  1  0.33981169  0.41537945  0.43994426  1
  O  O49  1  0.07556777  0.41537945  0.56005574  1
  O  O50  1  0.66018831  0.58462055  0.56005574  1
  O  O51  1  0.92443223  0.58462055  0.43994426  1
  O  O52  1  0.92443223  0.58462055  0.06005574  1
  O  O53  1  0.07556777  0.41537945  0.93994426  1
  O  O54  1  0.96583036  0.00000000  0.38511368  1
  O  O55  1  0.03416964  0.00000000  0.61488632  1
  O  O56  1  0.03416964  -0.00000000  0.88511368  1
  O  O57  1  0.96583036  -0.00000000  0.11488632  1
  O  O58  1  0.77457168  0.69041915  0.81954587  1
  O  O59  1  0.22542832  0.30958085  0.18045413  1
  O  O60  1  0.22542832  0.30958085  0.31954587  1
  O  O61  1  0.08415253  0.30958085  0.68045413  1
  O  O62  1  0.77457168  0.69041915  0.68045413  1
  O  O63  1  0.91584747  0.69041915  0.31954587  1
  O  O64  1  0.91584747  0.69041915  0.18045413  1
  O  O65  1  0.08415253  0.30958085  0.81954587  1
  O  O66  1  0.36097330  0.26191490  0.96378191  1
  O  O67  1  0.63902670  0.73808510  0.03621809  1
  O  O68  1  0.63902670  0.73808510  0.46378191  1
  O  O69  1  0.09905841  0.73808510  0.53621809  1
  O  O70  1  0.36097330  0.26191490  0.53621809  1
  O  O71  1  0.90094159  0.26191490  0.46378191  1
  O  O72  1  0.90094159  0.26191490  0.03621809  1
  O  O73  1  0.09905841  0.73808510  0.96378191  1
  O  O74  1  0.32875872  0.53148928  0.83581020  1
  O  O75  1  0.67124128  0.46851072  0.16418980  1
  O  O76  1  0.67124128  0.46851072  0.33581020  1
  O  O77  1  0.79726944  0.46851072  0.66418980  1
  O  O78  1  0.32875872  0.53148928  0.66418980  1
  O  O79  1  0.20273056  0.53148928  0.33581020  1
  O  O80  1  0.20273056  0.53148928  0.16418980  1
  O  O81  1  0.79726944  0.46851072  0.83581020  1
  O  O82  1  0.53980295  0.88503083  0.92772649  1
  O  O83  1  0.46019705  0.11496917  0.07227351  1
  O  O84  1  0.46019705  0.11496917  0.42772649  1
  O  O85  1  0.65477212  0.11496917  0.57227351  1
  O  O86  1  0.53980295  0.88503083  0.57227351  1
  O  O87  1  0.34522788  0.88503083  0.42772649  1
  O  O88  1  0.34522788  0.88503083  0.07227351  1
  O  O89  1  0.65477212  0.11496917  0.92772649  1
