# generated using pymatgen
data_YbAlCu4
_symmetry_space_group_name_H-M   'P 1'
_cell_length_a   4.03203932
_cell_length_b   5.14522929
_cell_length_c   5.14498716
_cell_angle_alpha   119.98893265
_cell_angle_beta   90.00000000
_cell_angle_gamma   90.00000000
_symmetry_Int_Tables_number   1
_chemical_formula_structural   YbAlCu4
_chemical_formula_sum   'Yb1 Al1 Cu4'
_cell_volume   92.44700397
_cell_formula_units_Z   1
loop_
 _symmetry_equiv_pos_site_id
 _symmetry_equiv_pos_as_xyz
  1  'x, y, z'
loop_
 _atom_site_type_symbol
 _atom_site_label
 _atom_site_symmetry_multiplicity
 _atom_site_fract_x
 _atom_site_fract_y
 _atom_site_fract_z
 _atom_site_occupancy
  Yb  Yb0  1  0.00000000  0.99997942  0.99997009  1
  Al  Al1  1  0.00000000  0.33335670  0.66661656  1
  Cu  Cu2  1  0.00000000  0.66663058  0.33339080  1
  Cu  Cu3  1  0.50000000  0.50081665  0.00169673  1
  Cu  Cu4  1  0.50000000  0.50083313  0.49915437  1
  Cu  Cu5  1  0.50000000  0.99828352  0.49917145  1
