# generated using pymatgen
data_Y3VCo8
_symmetry_space_group_name_H-M   'P 1'
_cell_length_a   5.04930112
_cell_length_b   5.04930112
_cell_length_c   8.39838250
_cell_angle_alpha   72.50566365
_cell_angle_beta   72.50566365
_cell_angle_gamma   60.00000001
_symmetry_Int_Tables_number   1
_chemical_formula_structural   Y3VCo8
_chemical_formula_sum   'Y3 V1 Co8'
_cell_volume   173.90388513
_cell_formula_units_Z   1
loop_
 _symmetry_equiv_pos_site_id
 _symmetry_equiv_pos_as_xyz
  1  'x, y, z'
loop_
 _atom_site_type_symbol
 _atom_site_label
 _atom_site_symmetry_multiplicity
 _atom_site_fract_x
 _atom_site_fract_y
 _atom_site_fract_z
 _atom_site_occupancy
  Y  Y0  1  0.99982492  0.99982492  0.00052524  1
  Y  Y1  1  0.14000421  0.14000421  0.57998738  1
  Y  Y2  1  0.85980127  0.85980127  0.42059618  1
  V  V3  1  0.66812090  0.66812090  0.99563731  1
  Co  Co4  1  0.91895744  0.41909107  0.24286043  1
  Co  Co5  1  0.41909107  0.41909107  0.24286043  1
  Co  Co6  1  0.41909107  0.91895744  0.24286043  1
  Co  Co7  1  0.08620686  0.57777121  0.75825073  1
  Co  Co8  1  0.57777121  0.57777121  0.75825073  1
  Co  Co9  1  0.57777121  0.08620686  0.75825073  1
  Co  Co10  1  0.50074689  0.50074689  0.49775934  1
  Co  Co11  1  0.33261297  0.33261297  0.00216109  1
