# generated using pymatgen
data_Zn3CdO4
_symmetry_space_group_name_H-M   'P 1'
_cell_length_a   3.36430682
_cell_length_b   3.36437724
_cell_length_c   11.02406679
_cell_angle_alpha   90.00000000
_cell_angle_beta   90.00098392
_cell_angle_gamma   59.99929835
_symmetry_Int_Tables_number   1
_chemical_formula_structural   Zn3CdO4
_chemical_formula_sum   'Zn3 Cd1 O4'
_cell_volume   108.06117350
_cell_formula_units_Z   1
loop_
 _symmetry_equiv_pos_site_id
 _symmetry_equiv_pos_as_xyz
  1  'x, y, z'
loop_
 _atom_site_type_symbol
 _atom_site_label
 _atom_site_symmetry_multiplicity
 _atom_site_fract_x
 _atom_site_fract_y
 _atom_site_fract_z
 _atom_site_occupancy
  Zn  Zn0  1  0.66665533  0.66667234  0.74946204  1
  Zn  Zn1  1  0.33334403  0.33332798  0.98617365  1
  Zn  Zn2  1  0.33334664  0.33332668  0.51294153  1
  Cd  Cd3  1  0.66665439  0.66667281  0.24468032  1
  O  O4  1  0.66666563  0.66666719  0.04108899  1
  O  O5  1  0.66666518  0.66666741  0.56810525  1
  O  O6  1  0.33333375  0.33333312  0.33318037  1
  O  O7  1  0.33333504  0.33333248  0.80436786  1
