# generated using pymatgen
data_Zr3Ti2(PbO3)5
_symmetry_space_group_name_H-M   'P 1'
_cell_length_a   5.83759637
_cell_length_b   5.83759653
_cell_length_c   12.60306093
_cell_angle_alpha   76.60904142
_cell_angle_beta   89.99999819
_cell_angle_gamma   59.99999915
_symmetry_Int_Tables_number   1
_chemical_formula_structural   Zr3Ti2(PbO3)5
_chemical_formula_sum   'Zr3 Ti2 Pb5 O15'
_cell_volume   358.39532779
_cell_formula_units_Z   1
loop_
 _symmetry_equiv_pos_site_id
 _symmetry_equiv_pos_as_xyz
  1  'x, y, z'
loop_
 _atom_site_type_symbol
 _atom_site_label
 _atom_site_symmetry_multiplicity
 _atom_site_fract_x
 _atom_site_fract_y
 _atom_site_fract_z
 _atom_site_occupancy
  Zr  Zr0  1  0.60333023  0.79333954  0.80999068  1
  Zr  Zr1  1  0.00536448  0.98927105  0.01609343  1
  Zr  Zr2  1  0.40799960  0.18400080  0.22399880  1
  Ti  Ti3  1  0.80819879  0.38360241  0.42459638  1
  Ti  Ti4  1  0.20557397  0.58885205  0.61672192  1
  Pb  Pb5  1  0.71819268  0.56361463  0.15457805  1
  Pb  Pb6  1  0.11633247  0.76733505  0.34899742  1
  Pb  Pb7  1  0.51008910  0.97982180  0.53026730  1
  Pb  Pb8  1  0.91162051  0.17675897  0.73486154  1
  Pb  Pb9  1  0.31531357  0.36937287  0.94594070  1
  O  O10  1  0.08119984  0.30603870  0.30672277  1
  O  O11  1  0.49589344  0.50358850  0.49692956  1
  O  O12  1  0.89853285  0.70699751  0.68747213  1
  O  O13  1  0.28217444  0.91291763  0.89199030  1
  O  O14  1  0.68292513  0.10881252  0.09944983  1
  O  O15  1  0.61276147  0.30603870  0.30672277  1
  O  O16  1  0.00051806  0.50358850  0.49692956  1
  O  O17  1  0.39446964  0.70699751  0.68747213  1
  O  O18  1  0.80490793  0.91291763  0.89199030  1
  O  O19  1  0.20826235  0.10881252  0.09944983  1
  O  O20  1  0.61276147  0.77447707  0.30672277  1
  O  O21  1  0.00051806  0.99896388  0.49692956  1
  O  O22  1  0.39446964  0.21106072  0.68747213  1
  O  O23  1  0.80490793  0.39018414  0.89199030  1
  O  O24  1  0.20826235  0.58347530  0.09944983  1
