# generated using pymatgen
data_Y4MnS7
_symmetry_space_group_name_H-M   'P 1'
_cell_length_a   3.81784619
_cell_length_b   6.56851069
_cell_length_c   11.48399182
_cell_angle_alpha   104.36730959
_cell_angle_beta   90.00000000
_cell_angle_gamma   73.10508550
_symmetry_Int_Tables_number   1
_chemical_formula_structural   Y4MnS7
_chemical_formula_sum   'Y4 Mn1 S7'
_cell_volume   266.13341090
_cell_formula_units_Z   1
loop_
 _symmetry_equiv_pos_site_id
 _symmetry_equiv_pos_as_xyz
  1  'x, y, z'
loop_
 _atom_site_type_symbol
 _atom_site_label
 _atom_site_symmetry_multiplicity
 _atom_site_fract_x
 _atom_site_fract_y
 _atom_site_fract_z
 _atom_site_occupancy
  Y  Y0  1  0.69261749  0.61476502  0.20504606  1
  Y  Y1  1  0.30687841  0.38624317  0.80111427  1
  Y  Y2  1  0.99931325  0.00137351  0.00640302  1
  Y  Y3  1  0.11379540  0.77240920  0.56630166  1
  Mn  Mn4  1  0.88495325  0.23009350  0.42153498  1
  S  S5  1  0.74437289  0.51125421  0.63906094  1
  S  S6  1  0.26938733  0.46122534  0.35263372  1
  S  S7  1  0.33822432  0.32355136  0.05141090  1
  S  S8  1  0.65983447  0.68033105  0.94880574  1
  S  S9  1  0.03424224  0.93151552  0.22643354  1
  S  S10  1  0.96299103  0.07401794  0.78483088  1
  S  S11  1  0.49338991  0.01322019  0.49642428  1
