# generated using pymatgen
data_Zr3(MnNi2)2
_symmetry_space_group_name_H-M   'P 1'
_cell_length_a   4.98737129
_cell_length_b   4.94885094
_cell_length_c   12.26135381
_cell_angle_alpha   90.18976247
_cell_angle_beta   90.00196267
_cell_angle_gamma   119.49536263
_symmetry_Int_Tables_number   1
_chemical_formula_structural   Zr3(MnNi2)2
_chemical_formula_sum   'Zr6 Mn4 Ni8'
_cell_volume   263.40740716
_cell_formula_units_Z   2
loop_
 _symmetry_equiv_pos_site_id
 _symmetry_equiv_pos_as_xyz
  1  'x, y, z'
loop_
 _atom_site_type_symbol
 _atom_site_label
 _atom_site_symmetry_multiplicity
 _atom_site_fract_x
 _atom_site_fract_y
 _atom_site_fract_z
 _atom_site_occupancy
  Zr  Zr0  1  0.33619981  0.66400192  0.91605779  1
  Zr  Zr1  1  0.00412331  0.00240440  0.24924808  1
  Zr  Zr2  1  0.66976334  0.33078038  0.58217634  1
  Zr  Zr3  1  0.33023666  0.66921962  0.66782366  1
  Zr  Zr4  1  0.99587669  0.99759560  0.00075192  1
  Zr  Zr5  1  0.66380019  0.33599808  0.33394221  1
  Mn  Mn6  1  0.50000000  0.50000000  0.12500000  1
  Mn  Mn7  1  0.16687109  0.83236838  0.45899482  1
  Mn  Mn8  1  0.83312891  0.16763162  0.79100518  1
  Mn  Mn9  1  0.50000000  0.00000000  0.12500000  1
  Ni  Ni10  1  0.16657909  0.33221749  0.45875414  1
  Ni  Ni11  1  0.83342091  0.66778251  0.79124586  1
  Ni  Ni12  1  0.33287635  0.66719474  0.29123701  1
  Ni  Ni13  1  -0.00000000  0.00000000  0.62500000  1
  Ni  Ni14  1  0.66712365  0.33280526  0.95876299  1
  Ni  Ni15  1  -0.00000000  0.50000000  0.12500000  1
  Ni  Ni16  1  0.66558128  0.83216937  0.45850862  1
  Ni  Ni17  1  0.33441872  0.16783063  0.79149138  1
