# generated using pymatgen
data_YVFe11H
_symmetry_space_group_name_H-M   'P 1'
_cell_length_a   4.71660887
_cell_length_b   6.42964287
_cell_length_c   6.42964287
_cell_angle_alpha   97.82190153
_cell_angle_beta   111.51755138
_cell_angle_gamma   68.48244862
_symmetry_Int_Tables_number   1
_chemical_formula_structural   YVFe11H
_chemical_formula_sum   'Y1 V1 Fe11 H1'
_cell_volume   168.75389519
_cell_formula_units_Z   1
loop_
 _symmetry_equiv_pos_site_id
 _symmetry_equiv_pos_as_xyz
  1  'x, y, z'
loop_
 _atom_site_type_symbol
 _atom_site_label
 _atom_site_symmetry_multiplicity
 _atom_site_fract_x
 _atom_site_fract_y
 _atom_site_fract_z
 _atom_site_occupancy
  Y  Y0  1  0.00534191  0.99465809  0.00534191  1
  V  V1  1  0.63081366  0.36918634  0.63081366  1
  Fe  Fe2  1  0.72755229  0.77244771  0.22755229  1
  Fe  Fe3  1  0.27185234  0.22814766  0.77185234  1
  Fe  Fe4  1  0.49917224  0.77583672  0.77418120  1
  Fe  Fe5  1  0.49917224  0.22581880  0.22416328  1
  Fe  Fe6  1  0.50090792  0.99943346  0.50112699  1
  Fe  Fe7  1  0.00078561  0.99943346  0.50112699  1
  Fe  Fe8  1  0.50090792  0.49887301  0.00056654  1
  Fe  Fe9  1  0.00078561  0.49887301  0.00056654  1
  Fe  Fe10  1  0.36383133  0.63616867  0.36383133  1
  Fe  Fe11  1  0.99910025  0.36006751  0.35826802  1
  Fe  Fe12  1  0.99910025  0.64173198  0.63993249  1
  H  H13  1  0.50067642  0.99932358  0.00067642  1
