# generated using pymatgen
data_HgPb2Br3O2
_symmetry_space_group_name_H-M   'P 1'
_cell_length_a   7.85475119
_cell_length_b   8.34704374
_cell_length_c   14.85016784
_cell_angle_alpha   90.00000000
_cell_angle_beta   90.00000000
_cell_angle_gamma   118.06746939
_symmetry_Int_Tables_number   1
_chemical_formula_structural   HgPb2Br3O2
_chemical_formula_sum   'Hg4 Pb8 Br12 O8'
_cell_volume   859.13043323
_cell_formula_units_Z   4
loop_
 _symmetry_equiv_pos_site_id
 _symmetry_equiv_pos_as_xyz
  1  'x, y, z'
loop_
 _atom_site_type_symbol
 _atom_site_label
 _atom_site_symmetry_multiplicity
 _atom_site_fract_x
 _atom_site_fract_y
 _atom_site_fract_z
 _atom_site_occupancy
  Hg  Hg0  1  0.42556513  0.33017066  0.14366920  1
  Hg  Hg1  1  0.09539447  0.66982934  0.85633080  1
  Hg  Hg2  1  0.92556513  0.33017066  0.35633080  1
  Hg  Hg3  1  0.59539447  0.66982934  0.64366920  1
  Pb  Pb4  1  0.30613588  0.82527154  0.09979878  1
  Pb  Pb5  1  0.48086435  0.17472846  0.90020122  1
  Pb  Pb6  1  0.80613588  0.82527154  0.40020122  1
  Pb  Pb7  1  0.98086435  0.17472846  0.59979878  1
  Pb  Pb8  1  0.79487489  0.17513550  0.07638391  1
  Pb  Pb9  1  0.61973940  0.82486450  0.92361609  1
  Pb  Pb10  1  0.29487489  0.17513550  0.42361609  1
  Pb  Pb11  1  0.11973940  0.82486450  0.57638391  1
  Br  Br12  1  0.40883642  0.54517130  0.25540195  1
  Br  Br13  1  0.86366512  0.45482870  0.74459805  1
  Br  Br14  1  0.90883642  0.54517130  0.24459805  1
  Br  Br15  1  0.36366512  0.45482870  0.75540195  1
  Br  Br16  1  0.20742976  0.41346713  0.99911896  1
  Br  Br17  1  0.79396263  0.58653287  0.00088104  1
  Br  Br18  1  0.70742976  0.41346713  0.50088104  1
  Br  Br19  1  0.29396263  0.58653287  0.49911896  1
  Br  Br20  1  0.01752447  0.04139448  0.20660145  1
  Br  Br21  1  0.97612999  0.95860552  0.79339855  1
  Br  Br22  1  0.51752447  0.04139448  0.29339855  1
  Br  Br23  1  0.47612999  0.95860552  0.70660145  1
  O  O24  1  0.48044578  0.14922492  0.06548966  1
  O  O25  1  0.33122086  0.85077508  0.93451034  1
  O  O26  1  0.98044578  0.14922492  0.43451034  1
  O  O27  1  0.83122086  0.85077508  0.56548966  1
  O  O28  1  0.61463955  0.87470827  0.07075144  1
  O  O29  1  0.73993128  0.12529173  0.92924856  1
  O  O30  1  0.11463955  0.87470827  0.42924856  1
  O  O31  1  0.23993128  0.12529173  0.57075144  1
