# generated using pymatgen
data_TiSnO4
_symmetry_space_group_name_H-M   'P 1'
_cell_length_a   3.10212825
_cell_length_b   4.74686194
_cell_length_c   4.74686194
_cell_angle_alpha   89.80406243
_cell_angle_beta   90.00000000
_cell_angle_gamma   90.00000000
_symmetry_Int_Tables_number   1
_chemical_formula_structural   TiSnO4
_chemical_formula_sum   'Ti1 Sn1 O4'
_cell_volume   69.89891112
_cell_formula_units_Z   1
loop_
 _symmetry_equiv_pos_site_id
 _symmetry_equiv_pos_as_xyz
  1  'x, y, z'
loop_
 _atom_site_type_symbol
 _atom_site_label
 _atom_site_symmetry_multiplicity
 _atom_site_fract_x
 _atom_site_fract_y
 _atom_site_fract_z
 _atom_site_occupancy
  Ti  Ti0  1  0.50000000  0.50000000  0.50000000  1
  Sn  Sn1  1  -0.00000000  -0.00000000  0.00000000  1
  O  O2  1  0.50000000  0.20336751  0.79663249  1
  O  O3  1  0.50000000  0.79663249  0.20336751  1
  O  O4  1  -0.00000000  0.31403212  0.31403212  1
  O  O5  1  0.00000000  0.68596788  0.68596788  1
