# generated using pymatgen
data_YLuTh2(BRh)16
_symmetry_space_group_name_H-M   'P 1'
_cell_length_a   5.35784820
_cell_length_b   5.35954949
_cell_length_c   15.04919578
_cell_angle_alpha   90.00000000
_cell_angle_beta   90.00000000
_cell_angle_gamma   90.00000000
_symmetry_Int_Tables_number   1
_chemical_formula_structural   YLuTh2(BRh)16
_chemical_formula_sum   'Y1 Lu1 Th2 B16 Rh16'
_cell_volume   432.14747774
_cell_formula_units_Z   1
loop_
 _symmetry_equiv_pos_site_id
 _symmetry_equiv_pos_as_xyz
  1  'x, y, z'
loop_
 _atom_site_type_symbol
 _atom_site_label
 _atom_site_symmetry_multiplicity
 _atom_site_fract_x
 _atom_site_fract_y
 _atom_site_fract_z
 _atom_site_occupancy
  Y  Y0  1  0.25000000  0.75000000  0.87515633  1
  Lu  Lu1  1  0.75000000  0.25000000  0.12488201  1
  Th  Th2  1  0.75000000  0.25000000  0.62500102  1
  Th  Th3  1  0.25000000  0.75000000  0.37496039  1
  B  B4  1  0.58125260  0.75000000  0.19822652  1
  B  B5  1  0.58323767  0.75000000  0.70210580  1
  B  B6  1  0.91874740  0.75000000  0.19822652  1
  B  B7  1  0.91676233  0.75000000  0.70210580  1
  B  B8  1  0.75000000  0.58450361  0.45004327  1
  B  B9  1  0.75000000  0.58124697  0.95137475  1
  B  B10  1  0.75000000  0.91549639  0.45004327  1
  B  B11  1  0.75000000  0.91875303  0.95137475  1
  B  B12  1  0.41661902  0.25000000  0.29785146  1
  B  B13  1  0.41860228  0.25000000  0.80147306  1
  B  B14  1  0.08338098  0.25000000  0.29785146  1
  B  B15  1  0.08139772  0.25000000  0.80147306  1
  B  B16  1  0.25000000  0.41916256  0.04932200  1
  B  B17  1  0.25000000  0.41552485  0.54963124  1
  B  B18  1  0.25000000  0.08083744  0.04932200  1
  B  B19  1  0.25000000  0.08447515  0.54963124  1
  Rh  Rh20  1  0.00142386  0.75000000  0.05288351  1
  Rh  Rh21  1  0.00061894  0.75000000  0.55341397  1
  Rh  Rh22  1  0.49857614  0.75000000  0.05288351  1
  Rh  Rh23  1  0.49938106  0.75000000  0.55341397  1
  Rh  Rh24  1  0.75000000  0.00191027  0.29942743  1
  Rh  Rh25  1  0.75000000  0.00076090  0.80448554  1
  Rh  Rh26  1  0.75000000  0.49808973  0.29942743  1
  Rh  Rh27  1  0.75000000  0.49923910  0.80448554  1
  Rh  Rh28  1  -0.00050666  0.25000000  0.44629093  1
  Rh  Rh29  1  0.99744228  0.25000000  0.94892803  1
  Rh  Rh30  1  0.50050666  0.25000000  0.44629093  1
  Rh  Rh31  1  0.50255772  0.25000000  0.94892803  1
  Rh  Rh32  1  0.25000000  -0.00028412  0.19529603  1
  Rh  Rh33  1  0.25000000  0.99868322  0.69924658  1
  Rh  Rh34  1  0.25000000  0.50028412  0.19529603  1
  Rh  Rh35  1  0.25000000  0.50131678  0.69924658  1
