# generated using pymatgen
data_V2PH8(NO4)2
_symmetry_space_group_name_H-M   'P 1'
_cell_length_a   5.75596018
_cell_length_b   8.73116994
_cell_length_c   8.72064684
_cell_angle_alpha   89.99582097
_cell_angle_beta   90.39959770
_cell_angle_gamma   89.70300536
_symmetry_Int_Tables_number   1
_chemical_formula_structural   V2PH8(NO4)2
_chemical_formula_sum   'V4 P2 H16 N4 O16'
_cell_volume   438.25060236
_cell_formula_units_Z   2
loop_
 _symmetry_equiv_pos_site_id
 _symmetry_equiv_pos_as_xyz
  1  'x, y, z'
loop_
 _atom_site_type_symbol
 _atom_site_label
 _atom_site_symmetry_multiplicity
 _atom_site_fract_x
 _atom_site_fract_y
 _atom_site_fract_z
 _atom_site_occupancy
  V  V0  1  0.00478094  0.00848894  0.99586843  1
  V  V1  1  0.00845440  0.49062010  0.49542067  1
  V  V2  1  0.00949632  0.87114338  0.37152263  1
  V  V3  1  0.00950874  0.62820774  0.87076140  1
  P  P4  1  0.01672120  0.13519760  0.63587584  1
  P  P5  1  0.01666634  0.36336018  0.13456055  1
  H  H6  1  0.56704317  0.56683871  0.21691818  1
  H  H7  1  0.55859640  0.42836497  0.78188054  1
  H  H8  1  0.56215343  0.78487696  0.56890331  1
  H  H9  1  0.56321113  0.21956525  0.43055749  1
  H  H10  1  0.43732261  0.73996123  0.24587803  1
  H  H11  1  0.42767691  0.25562488  0.75493045  1
  H  H12  1  0.43766079  0.75726271  0.74192663  1
  H  H13  1  0.42708692  0.24794825  0.25730562  1
  H  H14  1  0.43253787  0.65387458  0.06794920  1
  H  H15  1  0.42884926  0.34267256  0.93276316  1
  H  H16  1  0.42758145  0.93525725  0.65527022  1
  H  H17  1  0.43346040  0.07049293  0.34391127  1
  H  H18  1  0.67963548  0.72769797  0.14086204  1
  H  H19  1  0.67671530  0.26937637  0.85773359  1
  H  H20  1  0.67896149  0.86280999  0.72833597  1
  H  H21  1  0.67711288  0.14577636  0.26956874  1
  N  N22  1  0.52873728  0.67097291  0.16783653  1
  N  N23  1  0.52244102  0.32491025  0.83224339  1
  N  N24  1  0.52604313  0.83548671  0.67244365  1
  N  N25  1  0.52494828  0.17093981  0.32621958  1
  O  O26  1  0.30028443  0.86788938  0.36347923  1
  O  O27  1  0.28024311  0.12763469  0.63704676  1
  O  O28  1  0.30036455  0.63581632  0.86876200  1
  O  O29  1  0.28016093  0.36291301  0.12936873  1
  O  O30  1  0.29207235  0.49600115  0.49857133  1
  O  O31  1  0.91753522  0.00934070  0.51874272  1
  O  O32  1  0.91763610  0.48916286  0.01658258  1
  O  O33  1  0.89747193  0.69357725  0.41750300  1
  O  O34  1  0.91052459  0.28821150  0.58036604  1
  O  O35  1  0.89631268  0.57046673  0.69649301  1
  O  O36  1  0.91105726  0.40797549  0.29082888  1
  O  O37  1  0.28774094  0.00293213  0.99873726  1
  O  O38  1  0.89203213  0.92642842  0.19596799  1
  O  O39  1  0.90462567  0.09574969  0.79238208  1
  O  O40  1  0.89350245  0.80754481  0.91404624  1
  O  O41  1  0.90343253  0.21062728  0.08367503  1
