# generated using pymatgen
data_Zn7Cu8(MoO4)12
_symmetry_space_group_name_H-M   'P 1'
_cell_length_a   5.18846358
_cell_length_b   10.70676958
_cell_length_c   17.98980148
_cell_angle_alpha   90.17927461
_cell_angle_beta   89.98972237
_cell_angle_gamma   89.85578704
_symmetry_Int_Tables_number   1
_chemical_formula_structural   Zn7Cu8(MoO4)12
_chemical_formula_sum   'Zn7 Cu8 Mo12 O48'
_cell_volume   999.35569341
_cell_formula_units_Z   1
loop_
 _symmetry_equiv_pos_site_id
 _symmetry_equiv_pos_as_xyz
  1  'x, y, z'
loop_
 _atom_site_type_symbol
 _atom_site_label
 _atom_site_symmetry_multiplicity
 _atom_site_fract_x
 _atom_site_fract_y
 _atom_site_fract_z
 _atom_site_occupancy
  Zn  Zn0  1  0.60296479  0.24914866  0.00069838  1
  Zn  Zn1  1  0.39540016  0.74846527  0.49873211  1
  Zn  Zn2  1  0.89557019  0.75172951  0.50136844  1
  Zn  Zn3  1  0.76060095  0.59389363  0.21425264  1
  Zn  Zn4  1  0.23697590  0.10102911  0.28133398  1
  Zn  Zn5  1  0.74038760  0.39784991  0.71872353  1
  Zn  Zn6  1  0.25787068  0.90664996  0.78563291  1
  Cu  Cu7  1  0.74483232  0.94123812  0.22657581  1
  Cu  Cu8  1  0.25357192  0.43787235  0.27027353  1
  Cu  Cu9  1  0.75481126  0.06197746  0.72989931  1
  Cu  Cu10  1  0.24212112  0.55904337  0.77316496  1
  Cu  Cu11  1  0.72690346  0.23639194  0.56476691  1
  Cu  Cu12  1  0.27371505  0.73614685  0.93311611  1
  Cu  Cu13  1  0.78193154  0.76476297  0.06797003  1
  Cu  Cu14  1  0.22700234  0.26331179  0.43525273  1
  Mo  Mo15  1  0.73070443  0.48430574  0.39711392  1
  Mo  Mo16  1  0.27281464  0.98346796  0.10133701  1
  Mo  Mo17  1  0.76596447  0.51843271  0.89738012  1
  Mo  Mo18  1  0.23096728  0.01583833  0.60282141  1
  Mo  Mo19  1  0.71251679  0.03824324  0.41225662  1
  Mo  Mo20  1  0.28657384  0.53955391  0.08698695  1
  Mo  Mo21  1  0.77972586  0.95866291  0.91281503  1
  Mo  Mo22  1  0.21238851  0.46164913  0.58768222  1
  Mo  Mo23  1  0.76886791  0.26551611  0.19390937  1
  Mo  Mo24  1  0.22707974  0.76443348  0.30771703  1
  Mo  Mo25  1  0.72706172  0.73584003  0.69213378  1
  Mo  Mo26  1  0.27531766  0.23442644  0.80755059  1
  O  O27  1  0.92414205  0.53014190  0.31734505  1
  O  O28  1  0.07833141  0.02839074  0.18310629  1
  O  O29  1  0.57478819  0.47549429  0.81488979  1
  O  O30  1  0.42360338  0.96960840  0.68261166  1
  O  O31  1  0.91467629  0.00906837  0.33192831  1
  O  O32  1  0.08952318  0.50744277  0.16937939  1
  O  O33  1  0.58866698  0.98858014  0.82930265  1
  O  O34  1  0.41439923  0.49057871  0.66785287  1
  O  O35  1  0.56297147  0.13681841  0.22030217  1
  O  O36  1  0.43747725  0.63793383  0.28259333  1
  O  O37  1  0.93740599  0.86187174  0.71736973  1
  O  O38  1  0.06320595  0.36338374  0.78311641  1
  O  O39  1  0.92517577  0.37177749  0.61582812  1
  O  O40  1  0.07638740  0.87106350  0.88417111  1
  O  O41  1  0.57319399  0.63184005  0.11655235  1
  O  O42  1  0.42461411  0.12800929  0.38431867  1
  O  O43  1  0.94072736  0.38531116  0.44909613  1
  O  O44  1  0.05651619  0.88846173  0.04704681  1
  O  O45  1  0.55417352  0.61577862  0.95090616  1
  O  O46  1  0.43977187  0.11514775  0.55096222  1
  O  O47  1  0.83643512  0.25253370  0.09818136  1
  O  O48  1  0.14729092  0.75344929  0.40671181  1
  O  O49  1  0.64672990  0.74680389  0.59316854  1
  O  O50  1  0.37909061  0.24561340  0.90031261  1
  O  O51  1  0.64981666  0.62319727  0.45336493  1
  O  O52  1  0.37293359  0.11566076  0.05044902  1
  O  O53  1  0.83158869  0.38269343  0.95003146  1
  O  O54  1  0.14980785  0.87688367  0.54667439  1
  O  O55  1  0.41668323  0.90340070  0.29368836  1
  O  O56  1  0.58534638  0.40847335  0.20851921  1
  O  O57  1  0.08853342  0.09230234  0.79414768  1
  O  O58  1  0.91787392  0.59651339  0.70645542  1
  O  O59  1  0.64798308  0.88816993  0.45702491  1
  O  O60  1  0.37357185  0.39634603  0.04541129  1
  O  O61  1  0.83100337  0.10540313  0.95504709  1
  O  O62  1  0.14753857  0.61191688  0.54285792  1
  O  O63  1  0.91221756  0.13131216  0.47103658  1
  O  O64  1  0.07442471  0.63180529  0.02980244  1
  O  O65  1  0.57153692  0.86466275  0.96919904  1
  O  O66  1  0.41284126  0.36826103  0.52898385  1
  O  O67  1  0.44827062  0.39985089  0.36752239  1
  O  O68  1  0.55549447  0.89354027  0.13135732  1
  O  O69  1  0.05939682  0.60334864  0.86988671  1
  O  O70  1  0.94806097  0.10042168  0.63281066  1
  O  O71  1  0.95328361  0.76502247  0.24437178  1
  O  O72  1  0.04857544  0.26631347  0.25771283  1
  O  O73  1  0.54479850  0.23342096  0.74037657  1
  O  O74  1  0.45352828  0.73541574  0.75529918  1
