# generated using pymatgen
data_TmCuGe
_symmetry_space_group_name_H-M   'P 1'
_cell_length_a   3.61210603
_cell_length_b   4.20622697
_cell_length_c   4.20596181
_cell_angle_alpha   119.99753804
_cell_angle_beta   90.00000000
_cell_angle_gamma   90.00000000
_symmetry_Int_Tables_number   1
_chemical_formula_structural   TmCuGe
_chemical_formula_sum   'Tm1 Cu1 Ge1'
_cell_volume   55.34264655
_cell_formula_units_Z   1
loop_
 _symmetry_equiv_pos_site_id
 _symmetry_equiv_pos_as_xyz
  1  'x, y, z'
loop_
 _atom_site_type_symbol
 _atom_site_label
 _atom_site_symmetry_multiplicity
 _atom_site_fract_x
 _atom_site_fract_y
 _atom_site_fract_z
 _atom_site_occupancy
  Tm  Tm0  1  -0.00000000  0.00007204  0.00002015  1
  Cu  Cu1  1  0.50000000  0.33326756  0.66666485  1
  Ge  Ge2  1  0.50000000  0.66656039  0.33331500  1
