# generated using pymatgen
data_TmAgS2
_symmetry_space_group_name_H-M   'P 1'
_cell_length_a   3.97631431
_cell_length_b   3.97631430
_cell_length_c   6.59794385
_cell_angle_alpha   72.46250097
_cell_angle_beta   90.00000000
_cell_angle_gamma   119.99999994
_symmetry_Int_Tables_number   1
_chemical_formula_structural   TmAgS2
_chemical_formula_sum   'Tm1 Ag1 S2'
_cell_volume   84.69908457
_cell_formula_units_Z   1
loop_
 _symmetry_equiv_pos_site_id
 _symmetry_equiv_pos_as_xyz
  1  'x, y, z'
loop_
 _atom_site_type_symbol
 _atom_site_label
 _atom_site_symmetry_multiplicity
 _atom_site_fract_x
 _atom_site_fract_y
 _atom_site_fract_z
 _atom_site_occupancy
  Tm  Tm0  1  0.50000000  0.00000000  0.50000000  1
  Ag  Ag1  1  -0.00000000  0.00000000  -0.00000000  1
  S  S2  1  0.24544080  0.49088160  0.26367761  1
  S  S3  1  0.75455920  0.50911840  0.73632239  1
