# generated using pymatgen
data_TiBe4Nb
_symmetry_space_group_name_H-M   'P 1'
_cell_length_a   4.57583172
_cell_length_b   4.57583172
_cell_length_c   4.57583172
_cell_angle_alpha   90.00000000
_cell_angle_beta   60.00000000
_cell_angle_gamma   120.00000000
_symmetry_Int_Tables_number   1
_chemical_formula_structural   TiBe4Nb
_chemical_formula_sum   'Ti1 Be4 Nb1'
_cell_volume   67.74779056
_cell_formula_units_Z   1
loop_
 _symmetry_equiv_pos_site_id
 _symmetry_equiv_pos_as_xyz
  1  'x, y, z'
loop_
 _atom_site_type_symbol
 _atom_site_label
 _atom_site_symmetry_multiplicity
 _atom_site_fract_x
 _atom_site_fract_y
 _atom_site_fract_z
 _atom_site_occupancy
  Ti  Ti0  1  0.00000000  -0.00000000  -0.00000000  1
  Be  Be1  1  0.75017316  0.37508658  0.87474026  1
  Be  Be2  1  0.24982684  0.37508658  0.37508658  1
  Be  Be3  1  0.24982684  0.87474026  0.37508658  1
  Be  Be4  1  0.75017316  0.37508658  0.37508658  1
  Nb  Nb5  1  0.50000000  0.75000000  0.75000000  1
