# generated using pymatgen
data_ThMn2Co3
_symmetry_space_group_name_H-M   'P 1'
_cell_length_a   3.90410853
_cell_length_b   5.10881783
_cell_length_c   5.11296545
_cell_angle_alpha   119.97316155
_cell_angle_beta   90.00000000
_cell_angle_gamma   90.00000000
_symmetry_Int_Tables_number   1
_chemical_formula_structural   ThMn2Co3
_chemical_formula_sum   'Th1 Mn2 Co3'
_cell_volume   88.34117607
_cell_formula_units_Z   1
loop_
 _symmetry_equiv_pos_site_id
 _symmetry_equiv_pos_as_xyz
  1  'x, y, z'
loop_
 _atom_site_type_symbol
 _atom_site_label
 _atom_site_symmetry_multiplicity
 _atom_site_fract_x
 _atom_site_fract_y
 _atom_site_fract_z
 _atom_site_occupancy
  Th  Th0  1  -0.00000000  0.99997729  0.00000000  1
  Mn  Mn1  1  0.00000000  0.33335225  0.66675057  1
  Mn  Mn2  1  0.00000000  0.66660168  0.33324943  1
  Co  Co3  1  0.50000000  0.49999312  -0.00000000  1
  Co  Co4  1  0.50000000  0.49998948  0.50000329  1
  Co  Co5  1  0.50000000  0.99998619  0.49999671  1
