# generated using pymatgen
data_SrPrGaCuO5
_symmetry_space_group_name_H-M   'P 1'
_cell_length_a   5.35781278
_cell_length_b   5.60455118
_cell_length_c   9.13226462
_cell_angle_alpha   72.15968836
_cell_angle_beta   72.97233138
_cell_angle_gamma   90.09556579
_symmetry_Int_Tables_number   1
_chemical_formula_structural   SrPrGaCuO5
_chemical_formula_sum   'Sr2 Pr2 Ga2 Cu2 O10'
_cell_volume   248.33435270
_cell_formula_units_Z   2
loop_
 _symmetry_equiv_pos_site_id
 _symmetry_equiv_pos_as_xyz
  1  'x, y, z'
loop_
 _atom_site_type_symbol
 _atom_site_label
 _atom_site_symmetry_multiplicity
 _atom_site_fract_x
 _atom_site_fract_y
 _atom_site_fract_z
 _atom_site_occupancy
  Sr  Sr0  1  0.10598073  0.59692580  0.77858803  1
  Sr  Sr1  1  0.38456876  0.87551383  0.22141197  1
  Pr  Pr2  1  0.88964864  0.42560936  0.20367393  1
  Pr  Pr3  1  0.59332257  0.12928329  0.79632607  1
  Ga  Ga4  1  0.70870601  0.81441510  0.50000000  1
  Ga  Ga5  1  0.21749509  0.18081585  0.50000000  1
  Cu  Cu6  1  0.49539780  0.50440791  0.00018207  1
  Cu  Cu7  1  0.99557988  0.00458998  0.99981793  1
  O  O8  1  0.68164387  0.57789268  0.69594363  1
  O  O9  1  0.39419817  0.39948880  0.29865102  1
  O  O10  1  0.87758750  0.77383631  0.30405637  1
  O  O11  1  0.19284919  0.19813982  0.70134898  1
  O  O12  1  0.85466026  0.13212076  0.50000000  1
  O  O13  1  0.35800722  0.87036332  0.50000000  1
  O  O14  1  0.73917510  0.24667465  0.00853192  1
  O  O15  1  0.74990222  0.76352412  0.98766773  1
  O  O16  1  0.24770702  0.75520657  0.99146808  1
  O  O17  1  0.23756996  0.25119185  0.01233227  1
