# generated using pymatgen
data_Ti2CrSi6
_symmetry_space_group_name_H-M   'P 1'
_cell_length_a   4.62568149
_cell_length_b   4.66678936
_cell_length_c   6.44267303
_cell_angle_alpha   90.00000000
_cell_angle_beta   90.00000000
_cell_angle_gamma   60.29096657
_symmetry_Int_Tables_number   1
_chemical_formula_structural   Ti2CrSi6
_chemical_formula_sum   'Ti2 Cr1 Si6'
_cell_volume   120.79710715
_cell_formula_units_Z   1
loop_
 _symmetry_equiv_pos_site_id
 _symmetry_equiv_pos_as_xyz
  1  'x, y, z'
loop_
 _atom_site_type_symbol
 _atom_site_label
 _atom_site_symmetry_multiplicity
 _atom_site_fract_x
 _atom_site_fract_y
 _atom_site_fract_z
 _atom_site_occupancy
  Ti  Ti0  1  0.00000000  0.50000000  0.50135576  1
  Ti  Ti1  1  0.50000000  0.50000000  0.83197724  1
  Cr  Cr2  1  0.50000000  0.00000000  0.16666700  1
  Si  Si3  1  0.16511533  0.66976933  0.16666700  1
  Si  Si4  1  0.68007087  0.15731217  0.49362647  1
  Si  Si5  1  0.16261696  0.15731217  0.83970653  1
  Si  Si6  1  0.83488467  0.33023067  0.16666700  1
  Si  Si7  1  0.31992913  0.84268783  0.49362647  1
  Si  Si8  1  0.83738304  0.84268783  0.83970653  1
