# generated using pymatgen
data_TbGa2Co3
_symmetry_space_group_name_H-M   'P 1'
_cell_length_a   4.03611431
_cell_length_b   8.78967867
_cell_length_c   8.79352035
_cell_angle_alpha   120.11554913
_cell_angle_beta   90.00000000
_cell_angle_gamma   90.00000000
_symmetry_Int_Tables_number   1
_chemical_formula_structural   TbGa2Co3
_chemical_formula_sum   'Tb3 Ga6 Co9'
_cell_volume   269.85036629
_cell_formula_units_Z   3
loop_
 _symmetry_equiv_pos_site_id
 _symmetry_equiv_pos_as_xyz
  1  'x, y, z'
loop_
 _atom_site_type_symbol
 _atom_site_label
 _atom_site_symmetry_multiplicity
 _atom_site_fract_x
 _atom_site_fract_y
 _atom_site_fract_z
 _atom_site_occupancy
  Tb  Tb0  1  -0.00000000  0.33334853  0.66671450  1
  Tb  Tb1  1  -0.00000000  0.66691874  0.33351572  1
  Tb  Tb2  1  -0.00000000  0.99976972  0.99977440  1
  Ga  Ga3  1  0.50000000  0.49211012  0.98450789  1
  Ga  Ga4  1  0.50000000  0.49230327  0.50769075  1
  Ga  Ga5  1  0.50000000  0.01542908  0.50782338  1
  Ga  Ga6  1  0.50000000  0.84126051  0.68221809  1
  Ga  Ga7  1  0.50000000  0.31792122  0.15890021  1
  Ga  Ga8  1  0.50000000  0.84118126  0.15909473  1
  Co  Co9  1  -0.00000000  0.32261087  0.98943285  1
  Co  Co10  1  -0.00000000  0.66656284  0.67642148  1
  Co  Co11  1  -0.00000000  0.01000903  0.33336681  1
  Co  Co12  1  -0.00000000  0.66673168  0.98999869  1
  Co  Co13  1  -0.00000000  0.32296788  0.33331541  1
  Co  Co14  1  0.00000000  0.01044762  0.67705252  1
  Co  Co15  1  0.50000000  0.16674774  0.33339857  1
  Co  Co16  1  0.50000000  0.16675981  0.83332397  1
  Co  Co17  1  0.50000000  0.66682009  0.83345004  1
