# generated using pymatgen
data_Fe8H10O17
_symmetry_space_group_name_H-M   'P 1'
_cell_length_a   10.72355866
_cell_length_b   6.16051805
_cell_length_c   10.55606651
_cell_angle_alpha   89.70934906
_cell_angle_beta   89.33010206
_cell_angle_gamma   90.78172397
_symmetry_Int_Tables_number   1
_chemical_formula_structural   Fe8H10O17
_chemical_formula_sum   'Fe16 H20 O34'
_cell_volume   697.23989595
_cell_formula_units_Z   2
loop_
 _symmetry_equiv_pos_site_id
 _symmetry_equiv_pos_as_xyz
  1  'x, y, z'
loop_
 _atom_site_type_symbol
 _atom_site_label
 _atom_site_symmetry_multiplicity
 _atom_site_fract_x
 _atom_site_fract_y
 _atom_site_fract_z
 _atom_site_occupancy
  Fe  Fe0  1  0.31338412  0.01701403  0.08947161  1
  Fe  Fe1  1  0.14551529  -0.00078443  0.60293467  1
  Fe  Fe2  1  0.84403479  0.24744157  0.58443349  1
  Fe  Fe3  1  0.69941623  0.24408864  0.07676038  1
  Fe  Fe4  1  0.67222741  0.99388595  0.78838532  1
  Fe  Fe5  1  0.89040450  0.99398248  0.28786984  1
  Fe  Fe6  1  0.16780870  0.25753481  0.30969689  1
  Fe  Fe7  1  0.34239333  0.25065931  0.79898664  1
  Fe  Fe8  1  0.31993850  0.49676814  0.09017277  1
  Fe  Fe9  1  0.14363279  0.50285545  0.60517359  1
  Fe  Fe10  1  0.85604838  0.74893101  0.58861823  1
  Fe  Fe11  1  0.82420240  0.75611699  0.98067273  1
  Fe  Fe12  1  0.67206408  0.50666616  0.79000351  1
  Fe  Fe13  1  0.87487151  0.49997766  0.28314921  1
  Fe  Fe14  1  0.17146309  0.74854922  0.30712463  1
  Fe  Fe15  1  0.36438067  0.75172301  0.79465674  1
  H  H16  1  0.37193039  0.99617774  0.36406509  1
  H  H17  1  0.40181812  0.01210896  0.58960830  1
  H  H18  1  0.54377384  0.25482972  0.67347201  1
  H  H19  1  0.65351348  0.95219629  0.51879965  1
  H  H20  1  0.69118778  0.09516553  0.32672289  1
  H  H21  1  0.69356709  0.88002433  0.24170670  1
  H  H22  1  0.46456266  0.23959113  0.20254792  1
  H  H23  1  0.09598415  0.19605177  0.81702440  1
  H  H24  1  0.34965308  0.48956056  0.38359694  1
  H  H25  1  0.40127433  0.50826471  0.59266004  1
  H  H26  1  0.65819853  0.55925225  0.51822398  1
  H  H27  1  0.51470468  0.86117266  0.17813074  1
  H  H28  1  0.55079740  0.81598693  0.03710026  1
  H  H29  1  0.10242461  0.73040195  0.81460716  1
  H  H30  1  0.95280480  0.45047896  0.86599840  1
  H  H31  1  0.02457598  0.47102832  0.99693275  1
  H  H32  1  0.05178734  0.94470851  0.01339507  1
  H  H33  1  0.94652723  0.11609050  0.03581804  1
  H  H34  1  0.59165400  0.57089640  0.17500085  1
  H  H35  1  0.60296267  0.44241699  0.30626928  1
  O  O36  1  0.31419777  0.00910850  0.29446480  1
  O  O37  1  0.06371736  -0.00010795  0.29491368  1
  O  O38  1  0.34290992  0.00347277  0.65967518  1
  O  O39  1  0.34029852  0.00033135  0.91051740  1
  O  O40  1  0.78594424  0.25225335  0.76673638  1
  O  O41  1  0.53620993  0.24984648  0.76579513  1
  O  O42  1  0.86201817  0.23977815  0.14891980  1
  O  O43  1  0.81743075  0.23906840  0.39184956  1
  O  O44  1  0.70512597  0.98851388  0.59100349  1
  O  O45  1  0.96350530  0.00452535  0.59910828  1
  O  O46  1  0.64043982  0.00725291  0.26323715  1
  O  O47  1  0.68648972  0.98250644  0.97935325  1
  O  O48  1  0.20205900  0.25878446  0.11423185  1
  O  O49  1  0.45980166  0.25126779  0.11064850  1
  O  O50  1  0.15554459  0.23955208  0.75037650  1
  O  O51  1  0.18478533  0.25542149  0.49542421  1
  O  O52  1  0.31391575  0.50447788  0.30000953  1
  O  O53  1  0.05382000  0.50120953  0.29561349  1
  O  O54  1  0.34098183  0.50020015  0.66155207  1
  O  O55  1  0.34244235  0.50073515  0.91105663  1
  O  O56  1  0.80022371  0.75383027  0.78750138  1
  O  O57  1  0.54583452  0.74885979  0.77972417  1
  O  O58  1  0.85048370  0.75467033  0.16046004  1
  O  O59  1  0.83456566  0.74580807  0.40122798  1
  O  O60  1  0.70312000  0.50227448  0.59022242  1
  O  O61  1  0.96218339  0.49570434  0.60558107  1
  O  O62  1  0.70085943  0.50210169  0.97611732  1
  O  O63  1  0.21816088  0.75148820  0.11692351  1
  O  O64  1  0.49344130  0.76340054  0.10754630  1
  O  O65  1  0.16201720  0.74827638  0.74426179  1
  O  O66  1  0.18417189  0.75072392  0.49318844  1
  O  O67  1  0.98432103  0.55388597  0.92939906  1
  O  O68  1  0.98030925  0.01015037  0.97072065  1
  O  O69  1  0.64746614  0.47995628  0.22832623  1
