# generated using pymatgen
data_TaNbMo
_symmetry_space_group_name_H-M   'P 1'
_cell_length_a   2.85763285
_cell_length_b   2.85763285
_cell_length_c   7.02610687
_cell_angle_alpha   97.56685704
_cell_angle_beta   97.56685704
_cell_angle_gamma   110.63772462
_symmetry_Int_Tables_number   1
_chemical_formula_structural   TaNbMo
_chemical_formula_sum   'Ta1 Nb1 Mo1'
_cell_volume   52.23608035
_cell_formula_units_Z   1
loop_
 _symmetry_equiv_pos_site_id
 _symmetry_equiv_pos_as_xyz
  1  'x, y, z'
loop_
 _atom_site_type_symbol
 _atom_site_label
 _atom_site_symmetry_multiplicity
 _atom_site_fract_x
 _atom_site_fract_y
 _atom_site_fract_z
 _atom_site_occupancy
  Ta  Ta0  1  0.33816866  0.33816866  0.67633832  1
  Nb  Nb1  1  0.66245144  0.66245144  0.32490188  1
  Mo  Mo2  1  0.99937990  0.99937990  0.99875980  1
