# generated using pymatgen
data_V3P4H8N2O17
_symmetry_space_group_name_H-M   'P 1'
_cell_length_a   7.40024970
_cell_length_b   11.69895318
_cell_length_c   17.73991930
_cell_angle_alpha   90.00000000
_cell_angle_beta   90.00000000
_cell_angle_gamma   90.00000000
_symmetry_Int_Tables_number   1
_chemical_formula_structural   V3P4H8N2O17
_chemical_formula_sum   'V12 P16 H32 N8 O68'
_cell_volume   1535.83661364
_cell_formula_units_Z   4
loop_
 _symmetry_equiv_pos_site_id
 _symmetry_equiv_pos_as_xyz
  1  'x, y, z'
loop_
 _atom_site_type_symbol
 _atom_site_label
 _atom_site_symmetry_multiplicity
 _atom_site_fract_x
 _atom_site_fract_y
 _atom_site_fract_z
 _atom_site_occupancy
  V  V0  1  0.74993394  0.16180145  0.10099651  1
  V  V1  1  0.74993394  0.33819855  0.60099651  1
  V  V2  1  0.24993394  0.83819855  0.89900349  1
  V  V3  1  0.24993394  0.66180145  0.39900349  1
  V  V4  1  0.74991797  0.83918941  0.19016719  1
  V  V5  1  0.74991797  0.66081059  0.69016719  1
  V  V6  1  0.24991797  0.16081059  0.80983281  1
  V  V7  1  0.24991797  0.33918941  0.30983281  1
  V  V8  1  0.97504669  0.50106345  0.00110166  1
  V  V9  1  0.47504669  0.49893655  0.99889834  1
  V  V10  1  0.47504669  0.00106345  0.49889834  1
  V  V11  1  0.97504669  0.99893655  0.50110166  1
  P  P12  1  0.45130321  0.88861738  0.32833797  1
  P  P13  1  0.04804027  0.61149383  0.82850736  1
  P  P14  1  0.95130321  0.11138262  0.67166203  1
  P  P15  1  0.54804027  0.38850617  0.17149264  1
  P  P16  1  0.54804027  0.11149383  0.67149264  1
  P  P17  1  0.95130321  0.38861738  0.17166203  1
  P  P18  1  0.04804027  0.88850617  0.32850736  1
  P  P19  1  0.45130321  0.61138262  0.82833797  1
  P  P20  1  0.95102220  0.78977346  0.02843606  1
  P  P21  1  0.54790224  0.71066495  0.52846119  1
  P  P22  1  0.45102220  0.21022654  0.97156394  1
  P  P23  1  0.04790224  0.28933505  0.47153881  1
  P  P24  1  0.04790224  0.21066495  0.97153881  1
  P  P25  1  0.45102220  0.28977346  0.47156394  1
  P  P26  1  0.54790224  0.78933505  0.02846119  1
  P  P27  1  0.95102220  0.71022654  0.52843606  1
  H  H28  1  0.13728010  0.64771609  0.13873391  1
  H  H29  1  0.36289649  0.85211068  0.63881783  1
  H  H30  1  0.63728010  0.35228391  0.86126609  1
  H  H31  1  0.86289649  0.14788932  0.36118217  1
  H  H32  1  0.86289649  0.35211068  0.86118217  1
  H  H33  1  0.63728010  0.14771609  0.36126609  1
  H  H34  1  0.36289649  0.64788932  0.13881783  1
  H  H35  1  0.13728010  0.85228391  0.63873391  1
  H  H36  1  0.24992950  0.00177419  0.19634444  1
  H  H37  1  0.24992950  0.49822581  0.69634444  1
  H  H38  1  0.74992950  0.99822581  0.80365556  1
  H  H39  1  0.74992950  0.50177419  0.30365556  1
  H  H40  1  0.25005944  0.56558245  0.20054041  1
  H  H41  1  0.25005944  0.93441755  0.70054041  1
  H  H42  1  0.75005944  0.43441755  0.79945959  1
  H  H43  1  0.75005944  0.06558245  0.29945959  1
  H  H44  1  0.25000744  0.11753304  0.14090851  1
  H  H45  1  0.25000744  0.38246696  0.64090851  1
  H  H46  1  0.75000744  0.88246696  0.85909149  1
  H  H47  1  0.75000744  0.61753304  0.35909149  1
  H  H48  1  0.13589380  0.99934101  0.11405690  1
  H  H49  1  0.36407084  0.50070086  0.61407226  1
  H  H50  1  0.63589380  0.00065899  0.88594310  1
  H  H51  1  0.86407084  0.49929914  0.38592774  1
  H  H52  1  0.86407084  0.00070086  0.88592774  1
  H  H53  1  0.63589380  0.49934101  0.38594310  1
  H  H54  1  0.36407084  0.99929914  0.11407226  1
  H  H55  1  0.13589380  0.50065899  0.61405690  1
  H  H56  1  0.24992885  0.70744008  0.21249723  1
  H  H57  1  0.24992885  0.79255992  0.71249723  1
  H  H58  1  0.74992885  0.29255992  0.78750277  1
  H  H59  1  0.74992885  0.20744008  0.28750277  1
  N  N60  1  0.25001724  0.64339034  0.17323610  1
  N  N61  1  0.25001724  0.85660966  0.67323610  1
  N  N62  1  0.75001724  0.35660966  0.82676390  1
  N  N63  1  0.75001724  0.14339034  0.32676390  1
  N  N64  1  0.24998551  0.02959369  0.14104113  1
  N  N65  1  0.24998551  0.47040631  0.64104113  1
  N  N66  1  0.74998551  0.97040631  0.85895887  1
  N  N67  1  0.74998551  0.52959369  0.35895887  1
  O  O68  1  0.55786533  0.83818955  0.10858936  1
  O  O69  1  0.94190031  0.66151112  0.60860236  1
  O  O70  1  0.05786533  0.16181045  0.89141064  1
  O  O71  1  0.44190031  0.33848888  0.39139764  1
  O  O72  1  0.44190031  0.16151112  0.89139764  1
  O  O73  1  0.05786533  0.33818955  0.39141064  1
  O  O74  1  0.94190031  0.83848888  0.10860236  1
  O  O75  1  0.55786533  0.66181045  0.60858936  1
  O  O76  1  0.56539884  0.26248799  0.14845940  1
  O  O77  1  0.93436986  0.23738113  0.64854216  1
  O  O78  1  0.06539884  0.73751201  0.85154060  1
  O  O79  1  0.43436986  0.76261887  0.35145784  1
  O  O80  1  0.43436986  0.73738113  0.85145784  1
  O  O81  1  0.06539884  0.76248799  0.35154060  1
  O  O82  1  0.93436986  0.26261887  0.14854216  1
  O  O83  1  0.56539884  0.23751201  0.64845940  1
  O  O84  1  0.02463567  0.46557048  0.10984735  1
  O  O85  1  0.47500472  0.03458524  0.60987653  1
  O  O86  1  0.52463567  0.53442952  0.89015265  1
  O  O87  1  0.97500472  0.96541476  0.39012347  1
  O  O88  1  0.97500472  0.53458524  0.89012347  1
  O  O89  1  0.52463567  0.96557048  0.39015265  1
  O  O90  1  0.47500472  0.46541476  0.10987653  1
  O  O91  1  0.02463567  0.03442952  0.60984735  1
  O  O92  1  0.74999356  0.70775166  0.22110620  1
  O  O93  1  0.74999356  0.79224834  0.72110620  1
  O  O94  1  0.24999356  0.29224834  0.77889380  1
  O  O95  1  0.24999356  0.20775166  0.27889380  1
  O  O96  1  0.74957499  0.79272114  0.99156206  1
  O  O97  1  0.74957499  0.70727886  0.49156206  1
  O  O98  1  0.24957499  0.20727886  0.00843794  1
  O  O99  1  0.24957499  0.29272114  0.50843794  1
  O  O100  1  0.74782937  0.50722902  0.01038097  1
  O  O101  1  0.74782937  0.99277098  0.51038097  1
  O  O102  1  0.24782937  0.49277098  0.98961903  1
  O  O103  1  0.24782937  0.00722902  0.48961903  1
  O  O104  1  0.02099538  0.66714816  0.02863817  1
  O  O105  1  0.47779641  0.83289127  0.52898157  1
  O  O106  1  0.52099538  0.33285184  0.97136183  1
  O  O107  1  0.97779641  0.16710873  0.47101843  1
  O  O108  1  0.97779641  0.33289127  0.97101843  1
  O  O109  1  0.52099538  0.16714816  0.47136183  1
  O  O110  1  0.47779641  0.66710873  0.02898157  1
  O  O111  1  0.02099538  0.83285184  0.52863817  1
  O  O112  1  0.55492452  0.90712893  0.25548936  1
  O  O113  1  0.94502742  0.59306747  0.75544607  1
  O  O114  1  0.05492452  0.09287107  0.74451064  1
  O  O115  1  0.44502742  0.40693253  0.24455393  1
  O  O116  1  0.44502742  0.09306747  0.74455393  1
  O  O117  1  0.05492452  0.40712893  0.24451064  1
  O  O118  1  0.94502742  0.90693253  0.25544607  1
  O  O119  1  0.55492452  0.59287107  0.75548936  1
  O  O120  1  0.56461819  0.13133055  0.02158234  1
  O  O121  1  0.93520619  0.36863131  0.52171841  1
  O  O122  1  0.06461819  0.86866945  0.97841766  1
  O  O123  1  0.43520619  0.63136869  0.47828159  1
  O  O124  1  0.43520619  0.86863131  0.97828159  1
  O  O125  1  0.06461819  0.63133055  0.47841766  1
  O  O126  1  0.93520619  0.13136869  0.02171841  1
  O  O127  1  0.56461819  0.36866945  0.52158234  1
  O  O128  1  0.74996753  0.04732815  0.15459063  1
  O  O129  1  0.74996753  0.45267185  0.65459063  1
  O  O130  1  0.24996753  0.95267185  0.84540937  1
  O  O131  1  0.24996753  0.54732815  0.34540937  1
  O  O132  1  0.24965599  0.93366624  0.30593235  1
  O  O133  1  0.24965599  0.56633376  0.80593235  1
  O  O134  1  0.74965599  0.06633376  0.69406765  1
  O  O135  1  0.74965599  0.43366624  0.19406765  1
