# generated using pymatgen
data_Ta4Fe5Te12
_symmetry_space_group_name_H-M   'P 1'
_cell_length_a   3.65426648
_cell_length_b   7.59691992
_cell_length_c   19.09177253
_cell_angle_alpha   88.20148009
_cell_angle_beta   90.00000000
_cell_angle_gamma   90.00000000
_symmetry_Int_Tables_number   1
_chemical_formula_structural   Ta4Fe5Te12
_chemical_formula_sum   'Ta4 Fe5 Te12'
_cell_volume   529.74884096
_cell_formula_units_Z   1
loop_
 _symmetry_equiv_pos_site_id
 _symmetry_equiv_pos_as_xyz
  1  'x, y, z'
loop_
 _atom_site_type_symbol
 _atom_site_label
 _atom_site_symmetry_multiplicity
 _atom_site_fract_x
 _atom_site_fract_y
 _atom_site_fract_z
 _atom_site_occupancy
  Ta  Ta0  1  0.75000000  0.81972572  0.35266379  1
  Ta  Ta1  1  0.75000000  0.31958237  0.85215603  1
  Ta  Ta2  1  0.25000000  0.68392807  0.14796206  1
  Ta  Ta3  1  0.25000000  0.18125884  0.64795470  1
  Fe  Fe4  1  0.25000000  0.93203221  0.45591626  1
  Fe  Fe5  1  0.25000000  0.43125081  0.95816277  1
  Fe  Fe6  1  0.75000000  0.56864633  0.04136776  1
  Fe  Fe7  1  0.75000000  0.06806446  0.54425275  1
  Fe  Fe8  1  0.75000000  0.24397075  0.99975208  1
  Te  Te9  1  0.25000000  0.60372328  0.42179797  1
  Te  Te10  1  0.25000000  0.08301768  0.91609048  1
  Te  Te11  1  0.75000000  0.89816168  0.07750669  1
  Te  Te12  1  0.75000000  0.39595657  0.57836491  1
  Te  Te13  1  0.75000000  0.15122946  0.41092279  1
  Te  Te14  1  0.75000000  0.65314745  0.90791712  1
  Te  Te15  1  0.25000000  0.34444006  0.09933582  1
  Te  Te16  1  0.25000000  0.84951096  0.58934087  1
  Te  Te17  1  0.75000000  0.53928236  0.25143951  1
  Te  Te18  1  0.75000000  0.03625122  0.75045915  1
  Te  Te19  1  0.25000000  0.96200257  0.24953008  1
  Te  Te20  1  0.25000000  0.46386715  0.74945640  1
