# generated using pymatgen
data_Sr3Ta4TiO15
_symmetry_space_group_name_H-M   'P 1'
_cell_length_a   3.97096654
_cell_length_b   12.58211505
_cell_length_c   12.54873572
_cell_angle_alpha   90.00000000
_cell_angle_beta   89.99465332
_cell_angle_gamma   90.00000000
_symmetry_Int_Tables_number   1
_chemical_formula_structural   Sr3Ta4TiO15
_chemical_formula_sum   'Sr6 Ta8 Ti2 O30'
_cell_volume   626.97446151
_cell_formula_units_Z   2
loop_
 _symmetry_equiv_pos_site_id
 _symmetry_equiv_pos_as_xyz
  1  'x, y, z'
loop_
 _atom_site_type_symbol
 _atom_site_label
 _atom_site_symmetry_multiplicity
 _atom_site_fract_x
 _atom_site_fract_y
 _atom_site_fract_z
 _atom_site_occupancy
  Sr  Sr0  1  0.37173647  0.50347368  0.49426344  1
  Sr  Sr1  1  0.37173647  0.99652632  0.99426344  1
  Sr  Sr2  1  0.37030911  0.65147606  0.80698930  1
  Sr  Sr3  1  0.36930898  0.38037233  0.21017168  1
  Sr  Sr4  1  0.37030911  0.84852394  0.30698930  1
  Sr  Sr5  1  0.36930898  0.11962767  0.71017168  1
  Ta  Ta6  1  0.87446750  0.41956642  0.70938571  1
  Ta  Ta7  1  0.87446750  0.08043358  0.20938571  1
  Ta  Ta8  1  0.86575469  0.49819113  0.00301289  1
  Ta  Ta9  1  0.86575469  0.00180887  0.50301289  1
  Ta  Ta10  1  0.87796836  0.28925882  0.42253248  1
  Ta  Ta11  1  0.88053437  0.71329128  0.57499610  1
  Ta  Ta12  1  0.87796836  0.21074118  0.92253248  1
  Ta  Ta13  1  0.88053437  0.78670872  0.07499610  1
  Ti  Ti14  1  0.84353973  0.58738132  0.29039984  1
  Ti  Ti15  1  0.84353973  0.91261868  0.79039984  1
  O  O16  1  0.88491982  0.50257762  0.15784580  1
  O  O17  1  0.88858857  0.50340244  0.84219073  1
  O  O18  1  0.88491982  0.99742238  0.65784580  1
  O  O19  1  0.88858857  0.99659756  0.34219073  1
  O  O20  1  0.38381605  0.29693748  0.41233288  1
  O  O21  1  0.38305993  0.70306698  0.58566309  1
  O  O22  1  0.38381605  0.20306252  0.91233288  1
  O  O23  1  0.38305993  0.79693302  0.08566309  1
  O  O24  1  0.87907296  0.77224406  0.72784318  1
  O  O25  1  0.88258590  0.22311300  0.27344746  1
  O  O26  1  0.87907296  0.72775594  0.22784318  1
  O  O27  1  0.88258590  0.27688700  0.77344746  1
  O  O28  1  0.88797367  0.43073667  0.35113250  1
  O  O29  1  0.88739159  0.56820081  0.64482262  1
  O  O30  1  0.88797367  0.06926333  0.85113250  1
  O  O31  1  0.88739159  0.93179919  0.14482262  1
  O  O32  1  0.38199311  0.50026801  0.00144971  1
  O  O33  1  0.38199311  0.99973199  0.50144971  1
  O  O34  1  0.88277735  0.63036044  0.44084390  1
  O  O35  1  0.88347674  0.37155628  0.55736144  1
  O  O36  1  0.88277735  0.86963956  0.94084390  1
  O  O37  1  0.88347674  0.12844372  0.05736144  1
  O  O38  1  0.39088459  0.57552693  0.29708038  1
  O  O39  1  0.38336720  0.42496067  0.70065356  1
  O  O40  1  0.39088459  0.92447307  0.79708038  1
  O  O41  1  0.38336720  0.07503933  0.20065356  1
  O  O42  1  0.88737687  0.84120040  0.48852230  1
  O  O43  1  0.88909646  0.15815474  0.50705902  1
  O  O44  1  0.88737687  0.65879960  0.98852230  1
  O  O45  1  0.88909646  0.34184526  0.00705902  1
