# generated using pymatgen
data_Sr4CePr3Nb2(CuO5)4
_symmetry_space_group_name_H-M   'P 1'
_cell_length_a   5.61679756
_cell_length_b   5.61733582
_cell_length_c   14.90110947
_cell_angle_alpha   90.00000000
_cell_angle_beta   79.13654059
_cell_angle_gamma   90.00000000
_symmetry_Int_Tables_number   1
_chemical_formula_structural   Sr4CePr3Nb2(CuO5)4
_chemical_formula_sum   'Sr4 Ce1 Pr3 Nb2 Cu4 O20'
_cell_volume   461.72590056
_cell_formula_units_Z   1
loop_
 _symmetry_equiv_pos_site_id
 _symmetry_equiv_pos_as_xyz
  1  'x, y, z'
loop_
 _atom_site_type_symbol
 _atom_site_label
 _atom_site_symmetry_multiplicity
 _atom_site_fract_x
 _atom_site_fract_y
 _atom_site_fract_z
 _atom_site_occupancy
  Sr  Sr0  1  0.08060260  0.50000000  0.83879480  1
  Sr  Sr1  1  0.58216612  -0.00000000  0.83566777  1
  Sr  Sr2  1  0.41832915  0.00000000  0.16334170  1
  Sr  Sr3  1  0.91835638  0.50000000  0.16328724  1
  Ce  Ce4  1  0.70802568  -0.00000000  0.58394865  1
  Pr  Pr5  1  0.20459544  0.50000000  0.59080912  1
  Pr  Pr6  1  0.79434070  0.50000000  0.41131859  1
  Pr  Pr7  1  0.29434384  -0.00000000  0.41131232  1
  Nb  Nb8  1  0.50013063  0.50000000  -0.00026125  1
  Nb  Nb9  1  0.00015044  -0.00000000  -0.00030089  1
  Cu  Cu10  1  0.14264951  0.00000000  0.71470098  1
  Cu  Cu11  1  0.64260376  0.50000000  0.71479248  1
  Cu  Cu12  1  0.35801783  0.50000000  0.28396434  1
  Cu  Cu13  1  0.85806563  -0.00000000  0.28386875  1
  O  O14  1  0.50530532  0.24281086  0.50385140  1
  O  O15  1  0.99084328  0.75718914  0.50385140  1
  O  O16  1  0.99084328  0.24281086  0.50385140  1
  O  O17  1  0.50530532  0.75718914  0.50385140  1
  O  O18  1  0.40161792  0.24599031  0.70449827  1
  O  O19  1  0.89388381  0.75400969  0.70449827  1
  O  O20  1  0.89388381  0.24599031  0.70449827  1
  O  O21  1  0.40161792  0.75400969  0.70449827  1
  O  O22  1  0.10339958  0.25014801  0.29356003  1
  O  O23  1  0.60304039  0.74985199  0.29356003  1
  O  O24  1  0.60304039  0.25014801  0.29356003  1
  O  O25  1  0.10339958  0.74985199  0.29356003  1
  O  O26  1  0.06849905  -0.00000000  0.86300190  1
  O  O27  1  0.56848614  0.50000000  0.86302772  1
  O  O28  1  0.43194569  0.50000000  0.13610863  1
  O  O29  1  0.93177792  0.00000000  0.13644416  1
  O  O30  1  0.25002406  0.25046552  0.99963355  1
  O  O31  1  0.75034238  0.74953448  0.99963355  1
  O  O32  1  0.25002406  0.74953448  0.99963355  1
  O  O33  1  0.75034238  0.25046552  0.99963355  1
