# generated using pymatgen
data_Sr4CeNd3Nb2(CuO5)4
_symmetry_space_group_name_H-M   'P 1'
_cell_length_a   5.58974778
_cell_length_b   5.59015844
_cell_length_c   14.79924340
_cell_angle_alpha   90.00000000
_cell_angle_beta   79.11417590
_cell_angle_gamma   90.00000000
_symmetry_Int_Tables_number   1
_chemical_formula_structural   Sr4CeNd3Nb2(CuO5)4
_chemical_formula_sum   'Sr4 Ce1 Nd3 Nb2 Cu4 O20'
_cell_volume   454.11907872
_cell_formula_units_Z   1
loop_
 _symmetry_equiv_pos_site_id
 _symmetry_equiv_pos_as_xyz
  1  'x, y, z'
loop_
 _atom_site_type_symbol
 _atom_site_label
 _atom_site_symmetry_multiplicity
 _atom_site_fract_x
 _atom_site_fract_y
 _atom_site_fract_z
 _atom_site_occupancy
  Sr  Sr0  1  0.08107397  0.50000000  0.83785207  1
  Sr  Sr1  1  0.58189476  0.00000000  0.83621047  1
  Sr  Sr2  1  0.41830952  0.00000000  0.16338097  1
  Sr  Sr3  1  0.91830815  0.50000000  0.16338370  1
  Ce  Ce4  1  0.70809053  0.00000000  0.58381895  1
  Nd  Nd5  1  0.20503451  0.50000000  0.58993098  1
  Nd  Nd6  1  0.79422410  0.50000000  0.41155180  1
  Nd  Nd7  1  0.29421864  0.00000000  0.41156271  1
  Nb  Nb8  1  0.49995354  0.50000000  0.00009292  1
  Nb  Nb9  1  0.99995432  0.00000000  0.00009137  1
  Cu  Cu10  1  0.14279079  0.00000000  0.71441842  1
  Cu  Cu11  1  0.64269160  0.50000000  0.71461680  1
  Cu  Cu12  1  0.35755857  0.50000000  0.28488287  1
  Cu  Cu13  1  0.85764669  0.00000000  0.28470663  1
  O  O14  1  0.06836790  -0.00000000  0.86326419  1
  O  O15  1  0.56844381  0.50000000  0.86311237  1
  O  O16  1  0.43187121  0.50000000  0.13625759  1
  O  O17  1  0.93178487  0.00000000  0.13643026  1
  O  O18  1  0.40021513  0.24695169  0.70426671  1
  O  O19  1  0.89551816  0.75304831  0.70426671  1
  O  O20  1  0.89551816  0.24695169  0.70426671  1
  O  O21  1  0.40021513  0.75304831  0.70426671  1
  O  O22  1  0.10315205  0.25036346  0.29409623  1
  O  O23  1  0.60275172  0.74963654  0.29409623  1
  O  O24  1  0.60275172  0.25036346  0.29409623  1
  O  O25  1  0.10315205  0.74963654  0.29409623  1
  O  O26  1  0.50463426  0.24389564  0.50299957  1
  O  O27  1  0.99236617  0.75610436  0.50299957  1
  O  O28  1  0.99236617  0.24389564  0.50299957  1
  O  O29  1  0.50463426  0.75610436  0.50299957  1
  O  O30  1  0.24994120  0.25011880  0.99974622  1
  O  O31  1  0.75031258  0.74988120  0.99974622  1
  O  O32  1  0.75031258  0.25011880  0.99974622  1
  O  O33  1  0.24994120  0.74988120  0.99974622  1
