# generated using pymatgen
data_Ba2Ho2Co4O11
_symmetry_space_group_name_H-M   'P 1'
_cell_length_a   7.63265159
_cell_length_b   7.84478261
_cell_length_c   7.84448578
_cell_angle_alpha   90.00000000
_cell_angle_beta   90.00000000
_cell_angle_gamma   90.00000000
_symmetry_Int_Tables_number   1
_chemical_formula_structural   Ba2Ho2Co4O11
_chemical_formula_sum   'Ba4 Ho4 Co8 O22'
_cell_volume   469.70029367
_cell_formula_units_Z   2
loop_
 _symmetry_equiv_pos_site_id
 _symmetry_equiv_pos_as_xyz
  1  'x, y, z'
loop_
 _atom_site_type_symbol
 _atom_site_label
 _atom_site_symmetry_multiplicity
 _atom_site_fract_x
 _atom_site_fract_y
 _atom_site_fract_z
 _atom_site_occupancy
  Ba  Ba0  1  -0.00000000  0.00000000  0.23875375  1
  Ba  Ba1  1  -0.00000000  -0.00000000  0.76124625  1
  Ba  Ba2  1  -0.00000000  0.50000000  0.76124625  1
  Ba  Ba3  1  -0.00000000  0.50000000  0.23875375  1
  Ho  Ho4  1  0.50000100  0.50000000  0.26854210  1
  Ho  Ho5  1  0.50000100  0.00000000  0.73145890  1
  Ho  Ho6  1  0.50000100  0.50000000  0.73145890  1
  Ho  Ho7  1  0.50000100  0.00000000  0.26854210  1
  Co  Co8  1  0.25300284  0.75000000  0.50000000  1
  Co  Co9  1  0.74699816  0.25000000  0.50000000  1
  Co  Co10  1  0.74614810  0.75000000  0.50000000  1
  Co  Co11  1  0.25385390  0.25000000  0.50000000  1
  Co  Co12  1  0.29030004  0.75000000  -0.00000000  1
  Co  Co13  1  0.27034186  0.25000000  -0.00000000  1
  Co  Co14  1  0.72965814  0.75000000  -0.00000000  1
  Co  Co15  1  0.70969996  0.25000000  -0.00000000  1
  O  O16  1  0.29819558  0.75000000  0.23254730  1
  O  O17  1  0.29819558  0.75000000  0.76745270  1
  O  O18  1  0.70180442  0.25000000  0.76745270  1
  O  O19  1  0.70180442  0.25000000  0.23254730  1
  O  O20  1  0.68998817  0.75000000  0.23237853  1
  O  O21  1  0.68998817  0.75000000  0.76762147  1
  O  O22  1  0.31001183  0.25000000  0.76762147  1
  O  O23  1  0.31001183  0.25000000  0.23237853  1
  O  O24  1  0.71927041  0.99867620  0.50000000  1
  O  O25  1  0.71927041  0.50132380  0.50000000  1
  O  O26  1  0.28072859  0.49867720  0.50000000  1
  O  O27  1  0.28072859  0.00132380  0.50000000  1
  O  O28  1  0.68043190  0.00501332  -0.00000000  1
  O  O29  1  0.68043190  0.49498668  -0.00000000  1
  O  O30  1  0.31956710  0.50501332  -0.00000000  1
  O  O31  1  0.31956710  0.99498668  -0.00000000  1
  O  O32  1  0.01912767  0.25000000  -0.00000000  1
  O  O33  1  0.98087233  0.75000000  -0.00000000  1
  O  O34  1  0.98803550  0.25000000  0.50000000  1
  O  O35  1  0.49283194  0.75000000  0.50000000  1
  O  O36  1  0.50716806  0.25000000  0.50000000  1
  O  O37  1  0.01196450  0.75000000  0.50000000  1
