# generated using pymatgen
data_Ta3AlFe8
_symmetry_space_group_name_H-M   'P 1'
_cell_length_a   4.72988826
_cell_length_b   4.72988826
_cell_length_c   7.83652107
_cell_angle_alpha   89.99877638
_cell_angle_beta   90.00122362
_cell_angle_gamma   119.96743431
_symmetry_Int_Tables_number   1
_chemical_formula_structural   Ta3AlFe8
_chemical_formula_sum   'Ta3 Al1 Fe8'
_cell_volume   151.87913686
_cell_formula_units_Z   1
loop_
 _symmetry_equiv_pos_site_id
 _symmetry_equiv_pos_as_xyz
  1  'x, y, z'
loop_
 _atom_site_type_symbol
 _atom_site_label
 _atom_site_symmetry_multiplicity
 _atom_site_fract_x
 _atom_site_fract_y
 _atom_site_fract_z
 _atom_site_occupancy
  Ta  Ta0  1  0.33342943  0.66657057  0.43866697  1
  Ta  Ta1  1  0.33329952  0.66670048  0.06736968  1
  Ta  Ta2  1  0.66672150  0.33327850  0.92615274  1
  Al  Al3  1  0.66672735  0.33327265  0.56151960  1
  Fe  Fe4  1  0.99989050  0.00010950  0.50235787  1
  Fe  Fe5  1  -0.00000814  0.00000814  0.00531507  1
  Fe  Fe6  1  0.17013818  0.34017225  0.74865220  1
  Fe  Fe7  1  0.17002241  0.82997759  0.74861043  1
  Fe  Fe8  1  0.65982775  0.82986182  0.74865220  1
  Fe  Fe9  1  0.82954433  0.65916536  0.25090513  1
  Fe  Fe10  1  0.82957253  0.17042747  0.25089296  1
  Fe  Fe11  1  0.34083464  0.17045567  0.25090513  1
