# generated using pymatgen
data_Sr4TlCu2BiO10
_symmetry_space_group_name_H-M   'P 1'
_cell_length_a   5.28875260
_cell_length_b   5.28875260
_cell_length_c   9.86869808
_cell_angle_alpha   74.45733031
_cell_angle_beta   74.45733031
_cell_angle_gamma   90.00000000
_symmetry_Int_Tables_number   1
_chemical_formula_structural   Sr4TlCu2BiO10
_chemical_formula_sum   'Sr4 Tl1 Cu2 Bi1 O10'
_cell_volume   255.44917214
_cell_formula_units_Z   1
loop_
 _symmetry_equiv_pos_site_id
 _symmetry_equiv_pos_as_xyz
  1  'x, y, z'
loop_
 _atom_site_type_symbol
 _atom_site_label
 _atom_site_symmetry_multiplicity
 _atom_site_fract_x
 _atom_site_fract_y
 _atom_site_fract_z
 _atom_site_occupancy
  Sr  Sr0  1  0.14797321  0.64797321  0.70405358  1
  Sr  Sr1  1  0.64797321  0.14797321  0.70405358  1
  Sr  Sr2  1  0.35202679  0.85202679  0.29594642  1
  Sr  Sr3  1  0.85202679  0.35202679  0.29594642  1
  Tl  Tl4  1  0.50000000  0.50000000  0.00000000  1
  Cu  Cu5  1  0.24714478  0.24714478  0.50571045  1
  Cu  Cu6  1  0.75285522  0.75285522  0.49428955  1
  Bi  Bi7  1  -0.00000000  -0.00000000  0.00000000  1
  O  O8  1  -0.00000000  -0.00000000  0.50000000  1
  O  O9  1  0.50000000  0.50000000  0.50000000  1
  O  O10  1  0.50000000  -0.00000000  0.50000000  1
  O  O11  1  -0.00000000  0.50000000  0.50000000  1
  O  O12  1  0.12040705  0.12040705  0.75918589  1
  O  O13  1  0.61405196  0.61405196  0.77189607  1
  O  O14  1  0.38594804  0.38594804  0.22810393  1
  O  O15  1  0.87959295  0.87959295  0.24081411  1
  O  O16  1  0.50000000  -0.00000000  -0.00000000  1
  O  O17  1  -0.00000000  0.50000000  -0.00000000  1
