# generated using pymatgen
data_Sr2U2O7
_symmetry_space_group_name_H-M   'P 1'
_cell_length_a   4.06372244
_cell_length_b   6.94041951
_cell_length_c   6.71427142
_cell_angle_alpha   110.00570384
_cell_angle_beta   90.00000910
_cell_angle_gamma   90.00000023
_symmetry_Int_Tables_number   1
_chemical_formula_structural   Sr2U2O7
_chemical_formula_sum   'Sr2 U2 O7'
_cell_volume   177.94210765
_cell_formula_units_Z   1
loop_
 _symmetry_equiv_pos_site_id
 _symmetry_equiv_pos_as_xyz
  1  'x, y, z'
loop_
 _atom_site_type_symbol
 _atom_site_label
 _atom_site_symmetry_multiplicity
 _atom_site_fract_x
 _atom_site_fract_y
 _atom_site_fract_z
 _atom_site_occupancy
  Sr  Sr0  1  0.00000000  0.50240288  0.51206402  1
  Sr  Sr1  1  0.50000000  0.00495912  0.50465076  1
  U  U2  1  1.00000000  0.98867281  0.00384553  1
  U  U3  1  0.50000000  0.51521762  0.99503140  1
  O  O4  1  0.50000000  0.60773036  0.31853860  1
  O  O5  1  0.00000000  0.11067224  0.32169498  1
  O  O6  1  0.50000000  0.40176737  0.66963614  1
  O  O7  1  0.00000000  0.88934640  0.68517758  1
  O  O8  1  0.50000000  0.85037667  0.04633157  1
  O  O9  1  1.00000000  0.59536570  0.95389075  1
  O  O10  1  0.50000000  0.19348881  0.96913867  1
