# generated using pymatgen
data_Sr3LaCuRuO8
_symmetry_space_group_name_H-M   'P 1'
_cell_length_a   5.59336228
_cell_length_b   5.60575941
_cell_length_c   6.86768839
_cell_angle_alpha   90.00000000
_cell_angle_beta   65.96949545
_cell_angle_gamma   90.00000000
_symmetry_Int_Tables_number   1
_chemical_formula_structural   Sr3LaCuRuO8
_chemical_formula_sum   'Sr3 La1 Cu1 Ru1 O8'
_cell_volume   196.67317483
_cell_formula_units_Z   1
loop_
 _symmetry_equiv_pos_site_id
 _symmetry_equiv_pos_as_xyz
  1  'x, y, z'
loop_
 _atom_site_type_symbol
 _atom_site_label
 _atom_site_symmetry_multiplicity
 _atom_site_fract_x
 _atom_site_fract_y
 _atom_site_fract_z
 _atom_site_occupancy
  Sr  Sr0  1  0.85877484  0.50000000  0.28245032  1
  Sr  Sr1  1  0.35706019  0.00000000  0.28587962  1
  Sr  Sr2  1  0.14157927  0.50000000  0.71684145  1
  La  La3  1  0.64251348  0.00000000  0.71497303  1
  Cu  Cu4  1  0.99793109  0.00000000  0.00413782  1
  Ru  Ru5  1  0.49584468  0.50000000  0.00831064  1
  O  O6  1  0.26070536  0.74902451  0.99307151  1
  O  O7  1  0.74622314  0.25097549  0.99307151  1
  O  O8  1  0.26070536  0.25097549  0.99307151  1
  O  O9  1  0.74622314  0.74902451  0.99307151  1
  O  O10  1  0.16626445  0.00000000  0.66747110  1
  O  O11  1  0.66284069  0.50000000  0.67431861  1
  O  O12  1  0.33812306  0.50000000  0.32375387  1
  O  O13  1  0.82521125  0.00000000  0.34957750  1
