# generated using pymatgen
data_Sm4Cu5P7
_symmetry_space_group_name_H-M   'P 1'
_cell_length_a   5.35688458
_cell_length_b   5.35688458
_cell_length_c   10.55156655
_cell_angle_alpha   75.29495621
_cell_angle_beta   75.29495621
_cell_angle_gamma   90.00000000
_symmetry_Int_Tables_number   1
_chemical_formula_structural   Sm4Cu5P7
_chemical_formula_sum   'Sm4 Cu5 P7'
_cell_volume   282.60663205
_cell_formula_units_Z   1
loop_
 _symmetry_equiv_pos_site_id
 _symmetry_equiv_pos_as_xyz
  1  'x, y, z'
loop_
 _atom_site_type_symbol
 _atom_site_label
 _atom_site_symmetry_multiplicity
 _atom_site_fract_x
 _atom_site_fract_y
 _atom_site_fract_z
 _atom_site_occupancy
  Sm  Sm0  1  0.10739728  0.35739728  0.76720035  1
  Sm  Sm1  1  0.62540236  0.87540236  0.76720035  1
  Sm  Sm2  1  0.39260272  0.12459764  0.23279965  1
  Sm  Sm3  1  0.87459764  0.64260272  0.23279965  1
  Cu  Cu4  1  0.50045914  0.75045914  0.49908171  1
  Cu  Cu5  1  0.99954086  0.24954086  0.50091829  1
  Cu  Cu6  1  -0.00000000  0.75000000  0.50000000  1
  Cu  Cu7  1  0.50000000  0.25000000  0.50000000  1
  Cu  Cu8  1  0.25000000  0.50000000  0.00000000  1
  P  P9  1  0.32110685  0.57110685  0.35041507  1
  P  P10  1  0.82847808  0.07847808  0.35041507  1
  P  P11  1  0.17889315  0.92152192  0.64958493  1
  P  P12  1  0.67152192  0.42889315  0.64958493  1
  P  P13  1  0.75000000  -0.00000000  0.00000000  1
  P  P14  1  0.75000000  0.50000000  0.00000000  1
  P  P15  1  0.25000000  -0.00000000  0.00000000  1
