# generated using pymatgen
data_Sm6Ta2Ti4O21
_symmetry_space_group_name_H-M   'P 1'
_cell_length_a   7.36724827
_cell_length_b   7.36724827
_cell_length_c   16.45989375
_cell_angle_alpha   77.57020769
_cell_angle_beta   76.57938228
_cell_angle_gamma   90.03158750
_symmetry_Int_Tables_number   1
_chemical_formula_structural   Sm6Ta2Ti4O21
_chemical_formula_sum   'Sm12 Ta4 Ti8 O42'
_cell_volume   847.41762457
_cell_formula_units_Z   2
loop_
 _symmetry_equiv_pos_site_id
 _symmetry_equiv_pos_as_xyz
  1  'x, y, z'
loop_
 _atom_site_type_symbol
 _atom_site_label
 _atom_site_symmetry_multiplicity
 _atom_site_fract_x
 _atom_site_fract_y
 _atom_site_fract_z
 _atom_site_occupancy
  Sm  Sm0  1  0.99253773  0.00074334  0.50452374  1
  Sm  Sm1  1  0.34079527  0.33258966  0.82880926  1
  Sm  Sm2  1  0.66666700  0.66666700  0.16666700  1
  Sm  Sm3  1  0.50346106  0.99869403  0.50364137  1
  Sm  Sm4  1  0.82987194  0.33463897  0.82969163  1
  Sm  Sm5  1  0.16666700  0.66666700  0.16666700  1
  Sm  Sm6  1  0.83860009  0.33039447  0.32880926  1
  Sm  Sm7  1  0.16666700  0.66666700  0.66666700  1
  Sm  Sm8  1  0.49473291  0.00293853  0.00452374  1
  Sm  Sm9  1  0.83566840  0.84043544  0.32969163  1
  Sm  Sm10  1  0.16666700  0.16666700  0.66666700  1
  Sm  Sm11  1  0.49766460  0.49289756  0.00364137  1
  Ta  Ta12  1  0.50077241  0.49344230  0.50038895  1
  Ta  Ta13  1  0.83256059  0.83989070  0.83294405  1
  Ta  Ta14  1  0.32716426  0.83449437  0.33294405  1
  Ta  Ta15  1  0.00616874  0.49883863  0.00038895  1
  Ti  Ti16  1  0.16666700  0.16666700  0.16666700  1
  Ti  Ti17  1  0.66666700  0.16666700  0.16666700  1
  Ti  Ti18  1  0.99118371  0.48996999  0.50463132  1
  Ti  Ti19  1  0.34214929  0.84336301  0.82870168  1
  Ti  Ti20  1  0.66666700  0.16666700  0.66666700  1
  Ti  Ti21  1  0.00539868  0.00418497  0.00463132  1
  Ti  Ti22  1  0.32793432  0.32914803  0.32870168  1
  Ti  Ti23  1  0.66666700  0.66666700  0.66666700  1
  O  O24  1  0.69196079  0.94630528  0.61066322  1
  O  O25  1  0.02290502  0.27681150  0.94802557  1
  O  O26  1  0.35932910  0.61087307  0.28064885  1
  O  O27  1  0.89030250  0.13595801  0.22266978  1
  O  O28  1  0.22485492  0.47331095  0.55268415  1
  O  O29  1  0.55817007  0.80426359  0.88530843  1
  O  O30  1  0.09051415  0.34051415  0.41666700  1
  O  O31  1  0.41533823  0.66605080  0.74974997  1
  O  O32  1  0.74913377  0.99842120  0.08358303  1
  O  O33  1  0.48994084  0.73994084  0.41666700  1
  O  O34  1  0.83177132  0.08022427  0.75012198  1
  O  O35  1  0.16367925  0.41522630  0.08321102  1
  O  O36  1  0.49231784  0.34000627  0.41722705  1
  O  O37  1  0.83046610  0.66771830  0.75148910  1
  O  O38  1  0.16749909  0.99551544  0.08423484  1
  O  O39  1  0.09056632  0.74287789  0.41610695  1
  O  O40  1  0.41308429  0.08506793  0.74909816  1
  O  O41  1  0.75254040  0.41528820  0.08184390  1
  O  O42  1  0.97400390  0.72245993  0.05268415  1
  O  O43  1  0.31042898  0.05652250  0.38530843  1
  O  O44  1  0.64137221  0.38702772  0.72266978  1
  O  O45  1  0.77516393  0.52907041  0.44802557  1
  O  O46  1  0.10847808  0.86002205  0.78064885  1
  O  O47  1  0.44303050  0.19737499  0.11066322  1
  O  O48  1  0.58419923  0.33491180  0.24974997  1
  O  O49  1  0.91799477  0.66728220  0.58358303  1
  O  O50  1  0.24281985  0.99281985  0.91666700  1
  O  O51  1  0.16965375  0.91810670  0.25012198  1
  O  O52  1  0.50156168  0.25310873  0.58321102  1
  O  O53  1  0.84339316  0.59339316  0.91666700  1
  O  O54  1  0.16583391  0.33781756  0.24909816  1
  O  O55  1  0.50286690  0.66561470  0.58184390  1
  O  O56  1  0.84101616  0.99332773  0.91610695  1
  O  O57  1  0.58079260  0.91804480  0.25148910  1
  O  O58  1  0.92024871  0.24826507  0.58423484  1
  O  O59  1  0.24276768  0.59045611  0.91722705  1
  O  O60  1  0.87443937  0.62593565  0.24983787  1
  O  O61  1  0.20910651  0.95761024  0.58349513  1
  O  O62  1  0.54131438  0.29131438  0.91666700  1
  O  O63  1  0.79201962  0.04201962  0.41666700  1
  O  O64  1  0.12422649  0.37572276  0.74983787  1
  O  O65  1  0.45889363  0.70739735  0.08349513  1
