# generated using pymatgen
data_Sr2CaCu2(BiO4)2
_symmetry_space_group_name_H-M   'P 1'
_cell_length_a   5.47289790
_cell_length_b   5.41711457
_cell_length_c   16.11398872
_cell_angle_alpha   90.00000000
_cell_angle_beta   80.22275101
_cell_angle_gamma   90.00000000
_symmetry_Int_Tables_number   1
_chemical_formula_structural   Sr2CaCu2(BiO4)2
_chemical_formula_sum   'Sr4 Ca2 Cu4 Bi4 O16'
_cell_volume   470.79757092
_cell_formula_units_Z   2
loop_
 _symmetry_equiv_pos_site_id
 _symmetry_equiv_pos_as_xyz
  1  'x, y, z'
loop_
 _atom_site_type_symbol
 _atom_site_label
 _atom_site_symmetry_multiplicity
 _atom_site_fract_x
 _atom_site_fract_y
 _atom_site_fract_z
 _atom_site_occupancy
  Sr  Sr0  1  0.39300974  0.50566844  0.71153748  1
  Sr  Sr1  1  0.60699026  0.50566844  0.28846252  1
  Sr  Sr2  1  0.10454722  0.00566844  0.28846252  1
  Sr  Sr3  1  0.89545278  0.00566844  0.71153748  1
  Ca  Ca4  1  -0.00000000  0.00125526  0.50000000  1
  Ca  Ca5  1  0.50000000  0.50125526  0.50000000  1
  Cu  Cu6  1  0.45127477  0.00244809  0.59761885  1
  Cu  Cu7  1  0.54872523  0.00244809  0.40238115  1
  Cu  Cu8  1  0.04889362  0.50244809  0.40238115  1
  Cu  Cu9  1  0.95110638  0.50244809  0.59761885  1
  Bi  Bi10  1  0.22521297  0.55890899  0.10298496  1
  Bi  Bi11  1  0.77478703  0.55890899  0.89701504  1
  Bi  Bi12  1  0.67180207  0.05890899  0.10298496  1
  Bi  Bi13  1  0.32819793  0.05890899  0.89701504  1
  O  O14  1  0.87464484  0.51605323  0.76889574  1
  O  O15  1  0.12535516  0.51605323  0.23110426  1
  O  O16  1  0.64354058  0.01605323  0.23110426  1
  O  O17  1  0.35645942  0.01605323  0.76889574  1
  O  O18  1  0.80093461  0.25263666  0.39808406  1
  O  O19  1  0.19906539  0.25263666  0.60191594  1
  O  O20  1  0.19901867  0.75263666  0.60191594  1
  O  O21  1  0.80098133  0.75263666  0.39808406  1
  O  O22  1  0.28156111  0.96329831  0.10682734  1
  O  O23  1  0.71843889  0.96329831  0.89317266  1
  O  O24  1  0.38838845  0.46329831  0.89317266  1
  O  O25  1  0.61161155  0.46329831  0.10682734  1
  O  O26  1  0.30133047  0.75235865  0.39772075  1
  O  O27  1  0.69866953  0.75235865  0.60227925  1
  O  O28  1  0.69905123  0.25235865  0.60227925  1
  O  O29  1  0.30094877  0.25235865  0.39772075  1
