# generated using pymatgen
data_Fe2PH2CO7
_symmetry_space_group_name_H-M   'P 1'
_cell_length_a   5.75750925
_cell_length_b   7.81217669
_cell_length_c   15.35970235
_cell_angle_alpha   89.71410882
_cell_angle_beta   90.00000000
_cell_angle_gamma   90.00000000
_symmetry_Int_Tables_number   1
_chemical_formula_structural   Fe2PH2CO7
_chemical_formula_sum   'Fe8 P4 H8 C4 O28'
_cell_volume   690.85052985
_cell_formula_units_Z   4
loop_
 _symmetry_equiv_pos_site_id
 _symmetry_equiv_pos_as_xyz
  1  'x, y, z'
loop_
 _atom_site_type_symbol
 _atom_site_label
 _atom_site_symmetry_multiplicity
 _atom_site_fract_x
 _atom_site_fract_y
 _atom_site_fract_z
 _atom_site_occupancy
  Fe  Fe0  1  0.96066584  0.87523390  0.33951402  1
  Fe  Fe1  1  0.46066584  0.62476610  0.16048598  1
  Fe  Fe2  1  0.03933416  0.12476610  0.66048598  1
  Fe  Fe3  1  0.53933416  0.37523390  0.83951402  1
  Fe  Fe4  1  0.48466403  0.31579336  0.32221302  1
  Fe  Fe5  1  -0.01533597  0.18420664  0.17778698  1
  Fe  Fe6  1  0.51533597  0.68420664  0.67778698  1
  Fe  Fe7  1  0.01533597  0.81579336  0.82221302  1
  P  P8  1  0.50158997  0.07327729  0.14464336  1
  P  P9  1  0.00158997  0.42672271  0.35535664  1
  P  P10  1  0.49840903  0.92672271  0.85535664  1
  P  P11  1  0.99841003  0.57327729  0.64464336  1
  H  H12  1  0.34157842  0.39354890  0.69558139  1
  H  H13  1  0.84157842  0.10645110  0.80441861  1
  H  H14  1  0.65842158  0.60645110  0.30441861  1
  H  H15  1  0.15842158  0.89354890  0.19558139  1
  H  H16  1  0.74258543  0.48502138  0.54630938  1
  H  H17  1  0.24258543  0.01497862  0.95369062  1
  H  H18  1  0.25741457  0.51497862  0.45369062  1
  H  H19  1  0.75741457  0.98502138  0.04630938  1
  C  C20  1  0.87245042  0.97010937  0.50952160  1
  C  C21  1  0.37245042  0.52989063  0.99047840  1
  C  C22  1  0.12754958  0.02989063  0.49047840  1
  C  C23  1  0.62754958  0.47010937  0.00952160  1
  O  O24  1  0.27448438  0.90915264  0.92188207  1
  O  O25  1  0.77448438  0.59084736  0.57811793  1
  O  O26  1  0.72551562  0.09084736  0.07811793  1
  O  O27  1  0.22551562  0.40915264  0.42188207  1
  O  O28  1  0.98882882  0.06156625  0.78141013  1
  O  O29  1  0.48882882  0.43843375  0.71858987  1
  O  O30  1  0.01117118  0.93843375  0.21858987  1
  O  O31  1  0.51117118  0.56156625  0.28141013  1
  O  O32  1  0.70177741  0.82738758  0.89421778  1
  O  O33  1  0.20177741  0.67261242  0.60578222  1
  O  O34  1  0.29822259  0.17261242  0.10578222  1
  O  O35  1  0.79822259  0.32738758  0.39421778  1
  O  O36  1  0.89182405  0.66059778  0.72622933  1
  O  O37  1  0.39182405  0.83940222  0.77377067  1
  O  O38  1  0.10817595  0.33940222  0.27377067  1
  O  O39  1  0.60817595  0.16059778  0.22622933  1
  O  O40  1  0.29782537  0.51120682  0.91327041  1
  O  O41  1  0.79782537  0.98879318  0.58672959  1
  O  O42  1  0.70217463  0.48879318  0.08672959  1
  O  O43  1  0.20217463  0.01120682  0.41327041  1
  O  O44  1  0.04654141  0.38337117  0.65709178  1
  O  O45  1  0.54654141  0.11662883  0.84290822  1
  O  O46  1  0.95345859  0.61662883  0.34290822  1
  O  O47  1  0.45345859  0.88337117  0.15709178  1
  O  O48  1  0.74094025  0.40677425  0.94700360  1
  O  O49  1  0.24094025  0.09322575  0.55299640  1
  O  O50  1  0.25905975  0.59322575  0.05299640  1
  O  O51  1  0.75905975  0.90677425  0.44700360  1
