# generated using pymatgen
data_Sr(RhO2)4
_symmetry_space_group_name_H-M   'P 1'
_cell_length_a   3.17140157
_cell_length_b   6.77614840
_cell_length_c   7.50389188
_cell_angle_alpha   86.65513428
_cell_angle_beta   77.80045023
_cell_angle_gamma   103.53339725
_symmetry_Int_Tables_number   1
_chemical_formula_structural   Sr(RhO2)4
_chemical_formula_sum   'Sr1 Rh4 O8'
_cell_volume   152.25064677
_cell_formula_units_Z   1
loop_
 _symmetry_equiv_pos_site_id
 _symmetry_equiv_pos_as_xyz
  1  'x, y, z'
loop_
 _atom_site_type_symbol
 _atom_site_label
 _atom_site_symmetry_multiplicity
 _atom_site_fract_x
 _atom_site_fract_y
 _atom_site_fract_z
 _atom_site_occupancy
  Sr  Sr0  1  0.82920764  0.00000000  0.00000000  1
  Rh  Rh1  1  0.67173236  0.80921242  0.46395013  1
  Rh  Rh2  1  0.32647008  0.19078758  0.53604987  1
  Rh  Rh3  1  0.83909730  0.50714822  0.82112379  1
  Rh  Rh4  1  0.15307287  0.49285178  0.17887621  1
  O  O5  1  0.71800085  0.67388576  0.23349696  1
  O  O6  1  0.27761205  0.32611424  0.76650304  1
  O  O7  1  0.95822258  0.34032335  0.42187404  1
  O  O8  1  0.03977327  0.65967665  0.57812596  1
  O  O9  1  0.62164370  0.33364740  0.07437274  1
  O  O10  1  0.36236904  0.66635260  0.92562726  1
  O  O11  1  0.67951835  0.01891480  0.65767637  1
  O  O12  1  0.31827993  0.98108520  0.34232363  1
