# generated using pymatgen
data_SmGePd
_symmetry_space_group_name_H-M   'P 1'
_cell_length_a   3.62746330
_cell_length_b   4.48233101
_cell_length_c   4.48260491
_cell_angle_alpha   120.02234914
_cell_angle_beta   90.00000000
_cell_angle_gamma   90.00000000
_symmetry_Int_Tables_number   1
_chemical_formula_structural   SmGePd
_chemical_formula_sum   'Sm1 Ge1 Pd1'
_cell_volume   63.10593380
_cell_formula_units_Z   1
loop_
 _symmetry_equiv_pos_site_id
 _symmetry_equiv_pos_as_xyz
  1  'x, y, z'
loop_
 _atom_site_type_symbol
 _atom_site_label
 _atom_site_symmetry_multiplicity
 _atom_site_fract_x
 _atom_site_fract_y
 _atom_site_fract_z
 _atom_site_occupancy
  Sm  Sm0  1  0.00000000  0.00005995  0.99954207  1
  Ge  Ge1  1  0.50000000  0.66655711  0.33344988  1
  Pd  Pd2  1  0.50000000  0.33328294  0.66700805  1
