# generated using pymatgen
data_Sr2Cu2RuPb2ClO8
_symmetry_space_group_name_H-M   'P 1'
_cell_length_a   3.92729011
_cell_length_b   3.92729011
_cell_length_c   15.34237372
_cell_angle_alpha   90.07584967
_cell_angle_beta   89.92415033
_cell_angle_gamma   90.19654011
_symmetry_Int_Tables_number   1
_chemical_formula_structural   Sr2Cu2RuPb2ClO8
_chemical_formula_sum   'Sr2 Cu2 Ru1 Pb2 Cl1 O8'
_cell_volume   236.63294658
_cell_formula_units_Z   1
loop_
 _symmetry_equiv_pos_site_id
 _symmetry_equiv_pos_as_xyz
  1  'x, y, z'
loop_
 _atom_site_type_symbol
 _atom_site_label
 _atom_site_symmetry_multiplicity
 _atom_site_fract_x
 _atom_site_fract_y
 _atom_site_fract_z
 _atom_site_occupancy
  Sr  Sr0  1  0.49550422  0.49600808  0.64236952  1
  Sr  Sr1  1  0.49600808  0.49550422  0.35763048  1
  Cu  Cu2  1  0.99841901  -0.00062560  0.76773587  1
  Cu  Cu3  1  -0.00062560  0.99841901  0.23226413  1
  Ru  Ru4  1  0.97621394  0.97621394  0.50000000  1
  Pb  Pb5  1  0.49908086  0.50053728  0.87741724  1
  Pb  Pb6  1  0.50053728  0.49908086  0.12258276  1
  Cl  Cl7  1  0.99957416  0.99957416  -0.00000000  1
  O  O8  1  0.49891177  0.99940053  0.78016716  1
  O  O9  1  0.99883496  0.50029519  0.78031956  1
  O  O10  1  0.50029519  0.99883496  0.21968044  1
  O  O11  1  0.99940053  0.49891177  0.21983284  1
  O  O12  1  0.00817532  0.01278400  0.62683729  1
  O  O13  1  0.01278400  0.00817532  0.37316271  1
  O  O14  1  0.48043663  0.95044965  0.50075639  1
  O  O15  1  0.95044965  0.48043663  0.49924361  1
