# generated using pymatgen
data_Sr3V5S11
_symmetry_space_group_name_H-M   'P 1'
_cell_length_a   8.62683769
_cell_length_b   8.65566906
_cell_length_c   23.50860687
_cell_angle_alpha   94.21490979
_cell_angle_beta   81.51868707
_cell_angle_gamma   119.88987023
_symmetry_Int_Tables_number   1
_chemical_formula_structural   Sr3V5S11
_chemical_formula_sum   'Sr12 V20 S44'
_cell_volume   1505.27234955
_cell_formula_units_Z   4
loop_
 _symmetry_equiv_pos_site_id
 _symmetry_equiv_pos_as_xyz
  1  'x, y, z'
loop_
 _atom_site_type_symbol
 _atom_site_label
 _atom_site_symmetry_multiplicity
 _atom_site_fract_x
 _atom_site_fract_y
 _atom_site_fract_z
 _atom_site_occupancy
  Sr  Sr0  1  0.14384876  0.95104690  0.82056620  1
  Sr  Sr1  1  0.80822764  0.95090410  0.67762996  1
  Sr  Sr2  1  0.85732354  0.04909590  0.17762996  1
  Sr  Sr3  1  0.19280186  0.04895310  0.32056620  1
  Sr  Sr4  1  0.74202462  0.35357892  0.82308342  1
  Sr  Sr5  1  0.61273133  0.35381651  0.67507443  1
  Sr  Sr6  1  0.25891482  0.64618349  0.17507443  1
  Sr  Sr7  1  0.38844570  0.64642108  0.32308342  1
  Sr  Sr8  1  0.54795273  0.75018258  0.82026668  1
  Sr  Sr9  1  0.20372295  0.75000582  0.67784833  1
  Sr  Sr10  1  0.45371713  0.24999418  0.17784833  1
  Sr  Sr11  1  0.79777014  0.24981742  0.32026668  1
  V  V12  1  0.12086744  0.35665382  0.87480217  1
  V  V13  1  0.23614304  0.35661906  0.62479149  1
  V  V14  1  0.87952397  0.64338094  0.12479149  1
  V  V15  1  0.76421362  0.64334618  0.37480217  1
  V  V16  1  0.17666360  0.35280748  0.74978296  1
  V  V17  1  0.82385613  0.64719252  0.24978296  1
  V  V18  1  0.24062121  0.08780136  0.00148935  1
  V  V19  1  0.84654636  0.08746384  0.49783961  1
  V  V20  1  0.75908252  0.91253616  0.99783961  1
  V  V21  1  0.15281986  0.91219864  0.50148935  1
  V  V22  1  0.49826573  0.49841416  0.99970989  1
  V  V23  1  0.99985157  0.50158584  0.49970989  1
  V  V24  1  0.62989809  0.17719100  0.99929245  1
  V  V25  1  0.54782387  0.17777375  0.50007151  1
  V  V26  1  0.37005012  0.82222625  0.00007151  1
  V  V27  1  0.45270709  0.82280900  0.49929245  1
  V  V28  1  0.06549609  0.32525849  0.00253586  1
  V  V29  1  0.26133419  0.32412412  0.49667673  1
  V  V30  1  0.93721008  0.67587588  0.99667673  1
  V  V31  1  0.74023760  0.67474151  0.50253586  1
  S  S32  1  0.79878123  0.15511140  0.06397328  1
  S  S33  1  0.35648580  0.15412808  0.43499673  1
  S  S34  1  0.20235772  0.84587192  0.93499673  1
  S  S35  1  0.64366983  0.84488860  0.56397328  1
  S  S36  1  0.05124533  0.10953820  0.93905339  1
  S  S37  1  0.05859217  0.10928752  0.56042113  1
  S  S38  1  0.94930465  0.89071248  0.06042113  1
  S  S39  1  0.94170714  0.89046180  0.43905339  1
  S  S40  1  0.36903778  0.35005705  0.81463830  1
  S  S41  1  0.98205359  0.35061462  0.68492157  1
  S  S42  1  0.63143898  0.64938538  0.18492157  1
  S  S43  1  0.01898074  0.64994295  0.31463830  1
  S  S44  1  0.92599432  0.13367479  0.81273194  1
  S  S45  1  0.20756709  0.13355766  0.68686617  1
  S  S46  1  0.07400943  0.86644234  0.18686617  1
  S  S47  1  0.79231954  0.86632521  0.31273194  1
  S  S48  1  0.48371474  0.26420538  0.93743698  1
  S  S49  1  0.78104935  0.26394643  0.56192299  1
  S  S50  1  0.51710291  0.73605357  0.06192299  1
  S  S51  1  0.21950936  0.73579462  0.43743698  1
  S  S52  1  0.90250879  0.40048414  0.94332832  1
  S  S53  1  0.49861913  0.40053236  0.55616301  1
  S  S54  1  0.09808677  0.59946764  0.05616301  1
  S  S55  1  0.50202465  0.59951586  0.44332832  1
  S  S56  1  0.24107403  0.31077535  0.06731732  1
  S  S57  1  0.06992795  0.31086829  0.43231565  1
  S  S58  1  0.75905966  0.68913171  0.93231565  1
  S  S59  1  0.93029867  0.68922465  0.56731732  1
  S  S60  1  0.84276612  0.68445883  0.74949722  1
  S  S61  1  0.15830729  0.31554117  0.24949722  1
  S  S62  1  0.62043377  0.97195255  0.93055155  1
  S  S63  1  0.35183810  0.97238769  0.56864991  1
  S  S64  1  0.37945041  0.02761231  0.06864991  1
  S  S65  1  0.64848122  0.02804745  0.43055155  1
  S  S66  1  0.67549037  0.45105050  0.05625935  1
  S  S67  1  0.77610330  0.45118685  0.44292889  1
  S  S68  1  0.32491645  0.54881315  0.94292889  1
  S  S69  1  0.22443987  0.54894950  0.55625935  1
  S  S70  1  0.15119049  0.57777818  0.81291369  1
  S  S71  1  0.42748670  0.57727647  0.68655030  1
  S  S72  1  0.85021023  0.42272353  0.18655030  1
  S  S73  1  0.57341231  0.42222182  0.31291369  1
  S  S74  1  0.51159036  0.02052211  0.74820127  1
  S  S75  1  0.49106825  0.97947789  0.24820127  1
