# generated using pymatgen
data_Sc2FeB2Ru4Rh
_symmetry_space_group_name_H-M   'P 1'
_cell_length_a   3.02948826
_cell_length_b   9.33195255
_cell_length_c   9.33195255
_cell_angle_alpha   90.00000000
_cell_angle_beta   90.00000000
_cell_angle_gamma   90.00000000
_symmetry_Int_Tables_number   1
_chemical_formula_structural   Sc2FeB2Ru4Rh
_chemical_formula_sum   'Sc4 Fe2 B4 Ru8 Rh2'
_cell_volume   263.82401029
_cell_formula_units_Z   2
loop_
 _symmetry_equiv_pos_site_id
 _symmetry_equiv_pos_as_xyz
  1  'x, y, z'
loop_
 _atom_site_type_symbol
 _atom_site_label
 _atom_site_symmetry_multiplicity
 _atom_site_fract_x
 _atom_site_fract_y
 _atom_site_fract_z
 _atom_site_occupancy
  Sc  Sc0  1  -0.00000000  0.17608381  0.67608381  1
  Sc  Sc1  1  0.00000000  0.82391619  0.32391619  1
  Sc  Sc2  1  0.00000000  0.32391619  0.17608381  1
  Sc  Sc3  1  -0.00000000  0.67608381  0.82391619  1
  Fe  Fe4  1  -0.00000000  0.50000000  0.50000000  1
  Fe  Fe5  1  0.00000000  0.00000000  0.00000000  1
  B  B6  1  0.00000000  0.62705619  0.12705619  1
  B  B7  1  -0.00000000  0.37294381  0.87294381  1
  B  B8  1  -0.00000000  0.87294381  0.62705619  1
  B  B9  1  0.00000000  0.12705619  0.37294381  1
  Ru  Ru10  1  0.50000000  0.71374382  0.57051320  1
  Ru  Ru11  1  0.50000000  0.28625618  0.42948680  1
  Ru  Ru12  1  0.50000000  0.78625618  0.07051320  1
  Ru  Ru13  1  0.50000000  0.21374382  0.92948680  1
  Ru  Ru14  1  0.50000000  0.57051320  0.28625618  1
  Ru  Ru15  1  0.50000000  0.42948680  0.71374382  1
  Ru  Ru16  1  0.50000000  0.07051320  0.21374382  1
  Ru  Ru17  1  0.50000000  0.92948680  0.78625618  1
  Rh  Rh18  1  0.50000000  0.00000000  0.50000000  1
  Rh  Rh19  1  0.50000000  0.50000000  0.00000000  1
