# generated using pymatgen
data_Sc2AlCo3
_symmetry_space_group_name_H-M   'P 1'
_cell_length_a   5.09743455
_cell_length_b   5.09743455
_cell_length_c   4.80680102
_cell_angle_alpha   90.00000000
_cell_angle_beta   57.97890286
_cell_angle_gamma   120.00000000
_symmetry_Int_Tables_number   1
_chemical_formula_structural   Sc2AlCo3
_chemical_formula_sum   'Sc2 Al1 Co3'
_cell_volume   85.52213545
_cell_formula_units_Z   1
loop_
 _symmetry_equiv_pos_site_id
 _symmetry_equiv_pos_as_xyz
  1  'x, y, z'
loop_
 _atom_site_type_symbol
 _atom_site_label
 _atom_site_symmetry_multiplicity
 _atom_site_fract_x
 _atom_site_fract_y
 _atom_site_fract_z
 _atom_site_occupancy
  Sc  Sc0  1  0.49586072  0.74793036  0.75620892  1
  Sc  Sc1  1  0.00413928  0.00206964  0.99379108  1
  Al  Al2  1  0.75000000  0.37500000  0.87500000  1
  Co  Co3  1  0.25000000  0.37500000  0.37500000  1
  Co  Co4  1  0.25000000  0.87500000  0.37500000  1
  Co  Co5  1  0.75000000  0.37500000  0.37500000  1
