# generated using pymatgen
data_PuMnAl
_symmetry_space_group_name_H-M   'P 1'
_cell_length_a   5.37459627
_cell_length_b   5.37472528
_cell_length_c   8.57142402
_cell_angle_alpha   90.00000000
_cell_angle_beta   90.00000000
_cell_angle_gamma   61.26656478
_symmetry_Int_Tables_number   1
_chemical_formula_structural   PuMnAl
_chemical_formula_sum   'Pu4 Mn4 Al4'
_cell_volume   217.11419444
_cell_formula_units_Z   4
loop_
 _symmetry_equiv_pos_site_id
 _symmetry_equiv_pos_as_xyz
  1  'x, y, z'
loop_
 _atom_site_type_symbol
 _atom_site_label
 _atom_site_symmetry_multiplicity
 _atom_site_fract_x
 _atom_site_fract_y
 _atom_site_fract_z
 _atom_site_occupancy
  Pu  Pu0  1  0.33410305  0.33408078  0.54953923  1
  Pu  Pu1  1  0.66753131  0.66790050  0.41856435  1
  Pu  Pu2  1  0.66753131  0.66790050  0.08143565  1
  Pu  Pu3  1  0.33410305  0.33408078  0.95046077  1
  Mn  Mn4  1  0.83657879  0.83702774  0.75000000  1
  Mn  Mn5  1  0.16700198  0.66109244  0.25000000  1
  Mn  Mn6  1  0.66168774  0.16691320  0.25000000  1
  Mn  Mn7  1  0.16548434  0.16405046  0.25000000  1
  Al  Al8  1  0.99623292  0.99631666  0.49367989  1
  Al  Al9  1  0.99623292  0.99631666  0.00632011  1
  Al  Al10  1  0.83049001  0.34346390  0.75000000  1
  Al  Al11  1  0.34302258  0.83085639  0.75000000  1
