# generated using pymatgen
data_PrTiFe11
_symmetry_space_group_name_H-M   'P 1'
_cell_length_a   4.69022508
_cell_length_b   6.51907275
_cell_length_c   6.51907275
_cell_angle_alpha   97.02574595
_cell_angle_beta   111.08367222
_cell_angle_gamma   68.91632778
_symmetry_Int_Tables_number   1
_chemical_formula_structural   PrTiFe11
_chemical_formula_sum   'Pr1 Ti1 Fe11'
_cell_volume   173.52675025
_cell_formula_units_Z   1
loop_
 _symmetry_equiv_pos_site_id
 _symmetry_equiv_pos_as_xyz
  1  'x, y, z'
loop_
 _atom_site_type_symbol
 _atom_site_label
 _atom_site_symmetry_multiplicity
 _atom_site_fract_x
 _atom_site_fract_y
 _atom_site_fract_z
 _atom_site_occupancy
  Pr  Pr0  1  0.00573071  0.99426929  0.00573071  1
  Ti  Ti1  1  0.63229470  0.36770530  0.63229470  1
  Fe  Fe2  1  0.50033727  0.99774758  0.49948389  1
  Fe  Fe3  1  0.00139904  0.99774758  0.49948389  1
  Fe  Fe4  1  0.50033727  0.50051611  0.00225242  1
  Fe  Fe5  1  0.00139904  0.50051611  0.00225242  1
  Fe  Fe6  1  0.73414816  0.76585184  0.23414816  1
  Fe  Fe7  1  0.27014355  0.22985645  0.77014355  1
  Fe  Fe8  1  0.49887938  0.77255236  0.77031112  1
  Fe  Fe9  1  0.49887938  0.22968888  0.22744764  1
  Fe  Fe10  1  0.35691521  0.64308479  0.35691521  1
  Fe  Fe11  1  0.99976814  0.35872381  0.35826009  1
  Fe  Fe12  1  0.99976814  0.64173991  0.64127619  1
