# generated using pymatgen
data_Sc7Cr5Ge9
_symmetry_space_group_name_H-M   'P 1'
_cell_length_a   9.96614678
_cell_length_b   9.96614678
_cell_length_c   9.95373677
_cell_angle_alpha   60.23481438
_cell_angle_beta   60.23481438
_cell_angle_gamma   90.47803926
_symmetry_Int_Tables_number   1
_chemical_formula_structural   Sc7Cr5Ge9
_chemical_formula_sum   'Sc14 Cr10 Ge18'
_cell_volume   701.10210301
_cell_formula_units_Z   2
loop_
 _symmetry_equiv_pos_site_id
 _symmetry_equiv_pos_as_xyz
  1  'x, y, z'
loop_
 _atom_site_type_symbol
 _atom_site_label
 _atom_site_symmetry_multiplicity
 _atom_site_fract_x
 _atom_site_fract_y
 _atom_site_fract_z
 _atom_site_occupancy
  Sc  Sc0  1  0.83745433  0.83745433  0.32509133  1
  Sc  Sc1  1  0.16254567  0.16254567  0.67490867  1
  Sc  Sc2  1  0.43490686  0.68668992  0.62303435  1
  Sc  Sc3  1  0.94205879  0.69027573  0.62303435  1
  Sc  Sc4  1  0.69027573  0.94205879  0.62303435  1
  Sc  Sc5  1  0.68668992  0.43490686  0.62303435  1
  Sc  Sc6  1  0.56509314  0.31331008  0.37696565  1
  Sc  Sc7  1  0.05794121  0.30972427  0.37696565  1
  Sc  Sc8  1  0.30972427  0.05794121  0.37696565  1
  Sc  Sc9  1  0.31331008  0.56509314  0.37696565  1
  Sc  Sc10  1  0.67823346  0.32176654  0.00000000  1
  Sc  Sc11  1  0.32176654  0.67823346  0.00000000  1
  Sc  Sc12  1  0.32016235  0.32016235  0.00000000  1
  Sc  Sc13  1  0.67983765  0.67983765  1.00000000  1
  Cr  Cr14  1  0.58326605  0.90379110  0.19372139  1
  Cr  Cr15  1  0.22301256  0.90248751  0.19372139  1
  Cr  Cr16  1  0.90248751  0.22301256  0.19372139  1
  Cr  Cr17  1  0.90379110  0.58326605  0.19372139  1
  Cr  Cr18  1  0.41673395  0.09620890  0.80627861  1
  Cr  Cr19  1  0.77698744  0.09751249  0.80627861  1
  Cr  Cr20  1  0.09751249  0.77698744  0.80627861  1
  Cr  Cr21  1  0.09620890  0.41673395  0.80627861  1
  Cr  Cr22  1  0.12311170  0.12311170  1.00000000  1
  Cr  Cr23  1  0.87688830  0.87688830  0.00000000  1
  Ge  Ge24  1  0.50069114  0.87406488  0.00000000  1
  Ge  Ge25  1  0.49930886  0.12593512  1.00000000  1
  Ge  Ge26  1  0.87406488  0.50069114  0.00000000  1
  Ge  Ge27  1  0.12593512  0.49930886  1.00000000  1
  Ge  Ge28  1  0.61110934  0.61110934  0.77778132  1
  Ge  Ge29  1  0.38889066  0.38889066  0.22221868  1
  Ge  Ge30  1  0.25000000  0.75000000  0.50000000  1
  Ge  Ge31  1  0.75000000  0.25000000  0.50000000  1
  Ge  Ge32  1  0.62296703  0.03849616  0.33853681  1
  Ge  Ge33  1  0.03849616  0.62296703  0.33853681  1
  Ge  Ge34  1  0.03880230  0.03880230  0.32786727  1
  Ge  Ge35  1  0.63333043  0.63333043  0.32786727  1
  Ge  Ge36  1  0.37703297  0.96150384  0.66146319  1
  Ge  Ge37  1  0.96150384  0.37703297  0.66146319  1
  Ge  Ge38  1  0.96119770  0.96119770  0.67213273  1
  Ge  Ge39  1  0.36666957  0.36666957  0.67213273  1
  Ge  Ge40  1  0.87447497  0.12552503  0.00000000  1
  Ge  Ge41  1  0.12552503  0.87447497  0.00000000  1
