# generated using pymatgen
data_CeCu4Sn
_symmetry_space_group_name_H-M   'P 1'
_cell_length_a   5.13132200
_cell_length_b   7.30336671
_cell_length_c   11.05565603
_cell_angle_alpha   90.00000000
_cell_angle_beta   90.00000000
_cell_angle_gamma   90.00000000
_symmetry_Int_Tables_number   1
_chemical_formula_structural   CeCu4Sn
_chemical_formula_sum   'Ce4 Cu16 Sn4'
_cell_volume   414.32095028
_cell_formula_units_Z   4
loop_
 _symmetry_equiv_pos_site_id
 _symmetry_equiv_pos_as_xyz
  1  'x, y, z'
loop_
 _atom_site_type_symbol
 _atom_site_label
 _atom_site_symmetry_multiplicity
 _atom_site_fract_x
 _atom_site_fract_y
 _atom_site_fract_z
 _atom_site_occupancy
  Ce  Ce0  1  0.16190492  0.67830580  0.99329873  1
  Ce  Ce1  1  0.66190492  0.32169420  0.50670127  1
  Ce  Ce2  1  0.33809508  0.17830580  0.00670127  1
  Ce  Ce3  1  0.83809508  0.82169420  0.49329873  1
  Cu  Cu4  1  0.06840253  0.95810039  0.80384463  1
  Cu  Cu5  1  0.93159747  0.54189961  0.30384463  1
  Cu  Cu6  1  0.56840253  0.04189961  0.69615537  1
  Cu  Cu7  1  0.85373833  0.63880527  0.74819047  1
  Cu  Cu8  1  0.61184511  0.85906859  0.88457222  1
  Cu  Cu9  1  0.85803450  0.02716007  0.04010211  1
  Cu  Cu10  1  0.35373833  0.36119473  0.75180953  1
  Cu  Cu11  1  0.14196550  0.47283993  0.54010211  1
  Cu  Cu12  1  0.38815489  0.64093141  0.38457222  1
  Cu  Cu13  1  0.64196550  0.52716007  0.95989789  1
  Cu  Cu14  1  0.64626167  0.13880527  0.25180953  1
  Cu  Cu15  1  0.14626167  0.86119473  0.24819047  1
  Cu  Cu16  1  0.35803450  0.97283993  0.45989789  1
  Cu  Cu17  1  0.43159747  0.45810039  0.19615537  1
  Cu  Cu18  1  0.88815489  0.35906859  0.11542778  1
  Cu  Cu19  1  0.11184511  0.14093141  0.61542778  1
  Sn  Sn20  1  0.63661110  0.78984716  0.18239541  1
  Sn  Sn21  1  0.36338890  0.71015284  0.68239541  1
  Sn  Sn22  1  0.13661110  0.21015284  0.31760459  1
  Sn  Sn23  1  0.86338890  0.28984716  0.81760459  1
