# generated using pymatgen
data_PrFe11Mo
_symmetry_space_group_name_H-M   'P 1'
_cell_length_a   4.70420737
_cell_length_b   6.51146436
_cell_length_c   6.51146436
_cell_angle_alpha   97.74086500
_cell_angle_beta   111.17544632
_cell_angle_gamma   68.82455368
_symmetry_Int_Tables_number   1
_chemical_formula_structural   PrFe11Mo
_chemical_formula_sum   'Pr1 Fe11 Mo1'
_cell_volume   173.42692869
_cell_formula_units_Z   1
loop_
 _symmetry_equiv_pos_site_id
 _symmetry_equiv_pos_as_xyz
  1  'x, y, z'
loop_
 _atom_site_type_symbol
 _atom_site_label
 _atom_site_symmetry_multiplicity
 _atom_site_fract_x
 _atom_site_fract_y
 _atom_site_fract_z
 _atom_site_occupancy
  Pr  Pr0  1  0.00619833  0.99380167  0.00619833  1
  Fe  Fe1  1  0.73576335  0.76423665  0.23576335  1
  Fe  Fe2  1  0.26725675  0.23274325  0.76725675  1
  Fe  Fe3  1  0.49777725  0.77478304  0.77033755  1
  Fe  Fe4  1  0.49777725  0.22966245  0.22521696  1
  Fe  Fe5  1  0.49988349  0.99889335  0.50070536  1
  Fe  Fe6  1  0.00192852  0.99889335  0.50070536  1
  Fe  Fe7  1  0.49988349  0.49929464  0.00110665  1
  Fe  Fe8  1  0.00192852  0.49929464  0.00110665  1
  Fe  Fe9  1  0.36047246  0.63952754  0.36047246  1
  Fe  Fe10  1  0.99935539  0.36030319  0.35901398  1
  Fe  Fe11  1  0.99935539  0.64098602  0.63969681  1
  Mo  Mo12  1  0.63241979  0.36758021  0.63241979  1
