# generated using pymatgen
data_NaTbIrO4
_symmetry_space_group_name_H-M   'P 1'
_cell_length_a   3.26066129
_cell_length_b   9.64715830
_cell_length_c   9.40280284
_cell_angle_alpha   120.86344881
_cell_angle_beta   90.00000000
_cell_angle_gamma   90.00000000
_symmetry_Int_Tables_number   1
_chemical_formula_structural   NaTbIrO4
_chemical_formula_sum   'Na3 Tb3 Ir3 O12'
_cell_volume   253.89155484
_cell_formula_units_Z   3
loop_
 _symmetry_equiv_pos_site_id
 _symmetry_equiv_pos_as_xyz
  1  'x, y, z'
loop_
 _atom_site_type_symbol
 _atom_site_label
 _atom_site_symmetry_multiplicity
 _atom_site_fract_x
 _atom_site_fract_y
 _atom_site_fract_z
 _atom_site_occupancy
  Na  Na0  1  0.00000000  0.02093303  1.00000000  1
  Na  Na1  1  0.50000000  0.30117924  0.30104692  1
  Na  Na2  1  0.50000000  0.00013232  0.69895308  1
  Tb  Tb3  1  0.50000000  0.31472080  0.65699352  1
  Tb  Tb4  1  0.50000000  0.65772728  0.34300648  1
  Tb  Tb5  1  0.50000000  0.70303897  0.00000000  1
  Ir  Ir6  1  0.00000000  0.33236491  0.00000000  1
  Ir  Ir7  1  0.00000000  0.67343211  0.67637493  1
  Ir  Ir8  1  0.00000000  0.99705718  0.32362507  1
  O  O9  1  0.50000000  0.46189356  1.00000000  1
  O  O10  1  0.50000000  0.54621247  0.54617146  1
  O  O11  1  0.50000000  0.00004102  0.45382854  1
  O  O12  1  0.50000000  0.20220342  1.00000000  1
  O  O13  1  0.50000000  0.80715223  0.81986224  1
  O  O14  1  0.50000000  0.98728999  0.18013776  1
  O  O15  1  0.00000000  0.46359443  0.24984578  1
  O  O16  1  0.00000000  0.78419777  0.54373958  1
  O  O17  1  0.00000000  0.74377163  0.19502084  1
  O  O18  1  0.00000000  0.21374865  0.75015422  1
  O  O19  1  0.00000000  0.24045820  0.45626042  1
  O  O20  1  -0.00000000  0.54875079  0.80497916  1
