# generated using pymatgen
data_Na3Mo15Se19
_symmetry_space_group_name_H-M   'P 1'
_cell_length_a   9.92306940
_cell_length_b   9.85890051
_cell_length_c   19.82190827
_cell_angle_alpha   90.00000000
_cell_angle_beta   90.00000000
_cell_angle_gamma   59.48534192
_symmetry_Int_Tables_number   1
_chemical_formula_structural   Na3Mo15Se19
_chemical_formula_sum   'Na6 Mo30 Se38'
_cell_volume   1670.60930914
_cell_formula_units_Z   2
loop_
 _symmetry_equiv_pos_site_id
 _symmetry_equiv_pos_as_xyz
  1  'x, y, z'
loop_
 _atom_site_type_symbol
 _atom_site_label
 _atom_site_symmetry_multiplicity
 _atom_site_fract_x
 _atom_site_fract_y
 _atom_site_fract_z
 _atom_site_occupancy
  Na  Na0  1  0.33559079  0.33001480  0.62077140  1
  Na  Na1  1  0.66440921  0.66998520  0.12077140  1
  Na  Na2  1  0.66440921  0.66998520  0.37922860  1
  Na  Na3  1  0.33559079  0.33001480  0.87922860  1
  Na  Na4  1  0.04482341  0.78268057  0.75000000  1
  Na  Na5  1  0.95517659  0.21731943  0.25000000  1
  Mo  Mo6  1  0.51271736  0.83091393  0.75000000  1
  Mo  Mo7  1  0.65712110  0.51152585  0.75000000  1
  Mo  Mo8  1  0.82762690  0.65188992  0.75000000  1
  Mo  Mo9  1  0.48728264  0.16908607  0.25000000  1
  Mo  Mo10  1  0.34287890  0.48847415  0.25000000  1
  Mo  Mo11  1  0.17237310  0.34811008  0.25000000  1
  Mo  Mo12  1  0.50344243  0.68587178  0.63439619  1
  Mo  Mo13  1  0.81080577  0.50081448  0.63424433  1
  Mo  Mo14  1  0.68249277  0.81107677  0.63516139  1
  Mo  Mo15  1  0.49655757  0.31412822  0.13439619  1
  Mo  Mo16  1  0.18919423  0.49918552  0.13424433  1
  Mo  Mo17  1  0.31750723  0.18892323  0.13516139  1
  Mo  Mo18  1  0.49655757  0.31412822  0.36560381  1
  Mo  Mo19  1  0.18919423  0.49918552  0.36575567  1
  Mo  Mo20  1  0.31750723  0.18892323  0.36483861  1
  Mo  Mo21  1  0.50344243  0.68587178  0.86560381  1
  Mo  Mo22  1  0.81080577  0.50081448  0.86575567  1
  Mo  Mo23  1  0.68249277  0.81107677  0.86483861  1
  Mo  Mo24  1  0.16787710  0.98421935  0.55709154  1
  Mo  Mo25  1  0.84845877  0.16896262  0.55640383  1
  Mo  Mo26  1  0.98655727  0.85430725  0.55729642  1
  Mo  Mo27  1  0.83212290  0.01578065  0.05709154  1
  Mo  Mo28  1  0.15154123  0.83103738  0.05640383  1
  Mo  Mo29  1  0.01344273  0.14569275  0.05729642  1
  Mo  Mo30  1  0.83212290  0.01578065  0.44290846  1
  Mo  Mo31  1  0.15154123  0.83103738  0.44359617  1
  Mo  Mo32  1  0.01344273  0.14569275  0.44270358  1
  Mo  Mo33  1  0.16787710  0.98421935  0.94290846  1
  Mo  Mo34  1  0.84845877  0.16896262  0.94359617  1
  Mo  Mo35  1  0.98655727  0.85430725  0.94270358  1
  Se  Se36  1  0.35755549  0.68597933  0.75000000  1
  Se  Se37  1  0.95960046  0.34823453  0.75000000  1
  Se  Se38  1  0.68501041  0.95947092  0.75000000  1
  Se  Se39  1  0.64244451  0.31402067  0.25000000  1
  Se  Se40  1  0.04039954  0.65176547  0.25000000  1
  Se  Se41  1  0.31498959  0.04052908  0.25000000  1
  Se  Se42  1  0.29072750  0.67895478  0.55187424  1
  Se  Se43  1  0.03183340  0.28732270  0.54929806  1
  Se  Se44  1  0.68015025  0.03368156  0.55106493  1
  Se  Se45  1  0.70927250  0.32104522  0.05187424  1
  Se  Se46  1  0.96816660  0.71267730  0.04929806  1
  Se  Se47  1  0.31984975  0.96631844  0.05106493  1
  Se  Se48  1  0.70927250  0.32104522  0.44812576  1
  Se  Se49  1  0.96816660  0.71267730  0.45070194  1
  Se  Se50  1  0.31984975  0.96631844  0.44893507  1
  Se  Se51  1  0.29072750  0.67895478  0.94812576  1
  Se  Se52  1  0.03183340  0.28732270  0.95070194  1
  Se  Se53  1  0.68015025  0.03368156  0.94893507  1
  Se  Se54  1  0.99922865  0.01598134  0.65837599  1
  Se  Se55  1  0.00077135  0.98401866  0.15837599  1
  Se  Se56  1  0.00077135  0.98401866  0.34162401  1
  Se  Se57  1  0.99922865  0.01598134  0.84162401  1
  Se  Se58  1  0.37478487  0.99428286  0.64334332  1
  Se  Se59  1  0.63009472  0.37723283  0.64255525  1
  Se  Se60  1  0.99307177  0.62310901  0.64055271  1
  Se  Se61  1  0.62521513  0.00571714  0.14334332  1
  Se  Se62  1  0.36990528  0.62276717  0.14255525  1
  Se  Se63  1  0.00692823  0.37689099  0.14055271  1
  Se  Se64  1  0.62521513  0.00571714  0.35665668  1
  Se  Se65  1  0.36990528  0.62276717  0.35744475  1
  Se  Se66  1  0.00692823  0.37689099  0.35944729  1
  Se  Se67  1  0.37478487  0.99428286  0.85665668  1
  Se  Se68  1  0.63009472  0.37723283  0.85744475  1
  Se  Se69  1  0.99307177  0.62310901  0.85944729  1
  Se  Se70  1  0.33263447  0.33378800  0.03181811  1
  Se  Se71  1  0.66736553  0.66621200  0.53181811  1
  Se  Se72  1  0.66736553  0.66621200  0.96818189  1
  Se  Se73  1  0.33263447  0.33378800  0.46818189  1
