# generated using pymatgen
data_MnFeB
_symmetry_space_group_name_H-M   'P 1'
_cell_length_a   4.14955887
_cell_length_b   4.16836799
_cell_length_c   4.16836799
_cell_angle_alpha   60.60509550
_cell_angle_beta   75.18251123
_cell_angle_gamma   104.81748877
_symmetry_Int_Tables_number   1
_chemical_formula_structural   MnFeB
_chemical_formula_sum   'Mn2 Fe2 B2'
_cell_volume   54.15070997
_cell_formula_units_Z   2
loop_
 _symmetry_equiv_pos_site_id
 _symmetry_equiv_pos_as_xyz
  1  'x, y, z'
loop_
 _atom_site_type_symbol
 _atom_site_label
 _atom_site_symmetry_multiplicity
 _atom_site_fract_x
 _atom_site_fract_y
 _atom_site_fract_z
 _atom_site_occupancy
  Mn  Mn0  1  0.17424342  0.83712171  0.66287829  1
  Mn  Mn1  1  0.82575658  0.16287829  0.33712171  1
  Fe  Fe2  1  0.50000000  0.33328147  0.83328147  1
  Fe  Fe3  1  0.50000000  0.66671853  0.16671853  1
  B  B4  1  -0.00000000  0.25000000  0.75000000  1
  B  B5  1  -0.00000000  0.75000000  0.25000000  1
