# generated using pymatgen
data_Na2Sr(SiO3)2
_symmetry_space_group_name_H-M   'P 1'
_cell_length_a   7.75985334
_cell_length_b   7.75985334
_cell_length_c   7.75691742
_cell_angle_alpha   88.41841881
_cell_angle_beta   88.41841881
_cell_angle_gamma   89.36573009
_symmetry_Int_Tables_number   1
_chemical_formula_structural   Na2Sr(SiO3)2
_chemical_formula_sum   'Na6 Sr3 Si6 O18'
_cell_volume   466.70464558
_cell_formula_units_Z   3
loop_
 _symmetry_equiv_pos_site_id
 _symmetry_equiv_pos_as_xyz
  1  'x, y, z'
loop_
 _atom_site_type_symbol
 _atom_site_label
 _atom_site_symmetry_multiplicity
 _atom_site_fract_x
 _atom_site_fract_y
 _atom_site_fract_z
 _atom_site_occupancy
  Na  Na0  1  0.50000000  0.50000000  -0.00000000  1
  Na  Na1  1  0.50000000  -0.00000000  0.50000000  1
  Na  Na2  1  -0.00000000  0.50000000  0.50000000  1
  Na  Na3  1  -0.00000000  -0.00000000  0.50000000  1
  Na  Na4  1  0.74746461  0.74746461  0.73241158  1
  Na  Na5  1  0.25253539  0.25253539  0.26758842  1
  Sr  Sr6  1  -0.00000000  -0.00000000  -0.00000000  1
  Sr  Sr7  1  -0.00000000  0.50000000  -0.00000000  1
  Sr  Sr8  1  0.50000000  -0.00000000  -0.00000000  1
  Si  Si9  1  0.73996176  0.28796637  0.28839407  1
  Si  Si10  1  0.28641192  0.28641192  0.73636614  1
  Si  Si11  1  0.28796637  0.73996176  0.28839407  1
  Si  Si12  1  0.26003824  0.71203363  0.71160593  1
  Si  Si13  1  0.71358808  0.71358808  0.26363386  1
  Si  Si14  1  0.71203363  0.26003824  0.71160593  1
  O  O15  1  0.92359553  0.22600992  0.20724946  1
  O  O16  1  0.21757442  0.21757442  0.92514447  1
  O  O17  1  0.22600992  0.92359553  0.20724946  1
  O  O18  1  0.07640447  0.77399008  0.79275054  1
  O  O19  1  0.78242558  0.78242558  0.07485553  1
  O  O20  1  0.77399008  0.07640447  0.79275054  1
  O  O21  1  0.74670408  0.25329592  0.50000000  1
  O  O22  1  0.25358445  0.49884018  0.74726845  1
  O  O23  1  0.50115982  0.74641555  0.25273155  1
  O  O24  1  0.74641555  0.50115982  0.25273155  1
  O  O25  1  0.49884018  0.25358445  0.74726845  1
  O  O26  1  0.25329592  0.74670408  0.50000000  1
  O  O27  1  0.56253043  0.21361005  0.21650623  1
  O  O28  1  0.21161722  0.21161722  0.56319150  1
  O  O29  1  0.21361005  0.56253043  0.21650623  1
  O  O30  1  0.43746957  0.78638995  0.78349377  1
  O  O31  1  0.78838278  0.78838278  0.43680850  1
  O  O32  1  0.78638995  0.43746957  0.78349377  1
