# generated using pymatgen
data_NaDyIrO4
_symmetry_space_group_name_H-M   'P 1'
_cell_length_a   3.25155733
_cell_length_b   9.38213040
_cell_length_c   9.38212965
_cell_angle_alpha   61.76176298
_cell_angle_beta   90.00000000
_cell_angle_gamma   90.00000000
_symmetry_Int_Tables_number   1
_chemical_formula_structural   NaDyIrO4
_chemical_formula_sum   'Na3 Dy3 Ir3 O12'
_cell_volume   252.15306451
_cell_formula_units_Z   3
loop_
 _symmetry_equiv_pos_site_id
 _symmetry_equiv_pos_as_xyz
  1  'x, y, z'
loop_
 _atom_site_type_symbol
 _atom_site_label
 _atom_site_symmetry_multiplicity
 _atom_site_fract_x
 _atom_site_fract_y
 _atom_site_fract_z
 _atom_site_occupancy
  Na  Na0  1  0.00000000  0.02062086  0.97937914  1
  Na  Na1  1  0.50000000  0.30092344  0.00021827  1
  Na  Na2  1  0.50000000  0.99978173  0.69907656  1
  Dy  Dy3  1  0.50000000  0.31460975  0.34249597  1
  Dy  Dy4  1  0.50000000  0.65750403  0.68539025  1
  Dy  Dy5  1  0.50000000  0.70226546  0.29773454  1
  Ir  Ir6  1  0.00000000  0.33266080  0.66733920  1
  Ir  Ir7  1  -0.00000000  0.67340591  0.00308946  1
  Ir  Ir8  1  0.00000000  0.99691054  0.32659409  1
  O  O9  1  0.50000000  0.46248584  0.53751416  1
  O  O10  1  0.50000000  0.54620545  0.99965781  1
  O  O11  1  0.50000000  0.00034219  0.45379455  1
  O  O12  1  0.00000000  0.46487785  0.78543760  1
  O  O13  1  -0.00000000  0.78360718  0.75898129  1
  O  O14  1  0.00000000  0.74336597  0.45058301  1
  O  O15  1  0.00000000  0.21456240  0.53512215  1
  O  O16  1  -0.00000000  0.24101871  0.21639282  1
  O  O17  1  0.00000000  0.54941699  0.25663403  1
  O  O18  1  0.50000000  0.20240461  0.79759539  1
  O  O19  1  0.50000000  0.80673855  0.01380825  1
  O  O20  1  0.50000000  0.98619175  0.19326145  1
