# generated using pymatgen
data_NaAl3Si3O11
_symmetry_space_group_name_H-M   'P 1'
_cell_length_a   5.23150561
_cell_length_b   5.32751498
_cell_length_c   20.44339431
_cell_angle_alpha   90.30482573
_cell_angle_beta   89.37916030
_cell_angle_gamma   119.40563091
_symmetry_Int_Tables_number   1
_chemical_formula_structural   NaAl3Si3O11
_chemical_formula_sum   'Na2 Al6 Si6 O22'
_cell_volume   496.34035096
_cell_formula_units_Z   2
loop_
 _symmetry_equiv_pos_site_id
 _symmetry_equiv_pos_as_xyz
  1  'x, y, z'
loop_
 _atom_site_type_symbol
 _atom_site_label
 _atom_site_symmetry_multiplicity
 _atom_site_fract_x
 _atom_site_fract_y
 _atom_site_fract_z
 _atom_site_occupancy
  Na  Na0  1  0.01585598  0.99886773  0.26266229  1
  Na  Na1  1  0.01698825  0.00113227  0.76266229  1
  Al  Al2  1  0.36231521  0.17680738  0.49715278  1
  Al  Al3  1  0.82586406  0.20135737  0.99665935  1
  Al  Al4  1  0.62450670  0.79864263  0.49665935  1
  Al  Al5  1  0.18550782  0.82319262  0.99715278  1
  Al  Al6  1  0.66110044  0.49873701  0.36318434  1
  Al  Al7  1  0.16236343  0.50126299  0.86318434  1
  Si  Si8  1  0.84189825  0.50486410  0.13413148  1
  Si  Si9  1  0.33703416  0.49513590  0.63413148  1
  Si  Si10  1  0.36457342  0.85508617  0.36129439  1
  Si  Si11  1  0.49634832  0.85850714  0.13383051  1
  Si  Si12  1  0.63784118  0.14149286  0.63383051  1
  Si  Si13  1  0.50948725  0.14491383  0.86129439  1
  O  O14  1  0.59412107  0.76407906  0.32858559  1
  O  O15  1  0.16608568  0.70591607  0.16845878  1
  O  O16  1  0.46016961  0.29408393  0.66845878  1
  O  O17  1  0.83004201  0.23592094  0.82858559  1
  O  O18  1  0.56478378  0.48425405  0.44623238  1
  O  O19  1  0.88899899  0.48388767  0.05691265  1
  O  O20  1  0.40511132  0.51611233  0.55691265  1
  O  O21  1  0.08052973  0.51574595  0.94623238  1
  O  O22  1  0.43254769  0.91893309  0.44154312  1
  O  O23  1  0.47698011  0.90598407  0.05642835  1
  O  O24  1  0.57099604  0.09401593  0.55642835  1
  O  O25  1  0.51361460  0.08106691  0.94154312  1
  O  O26  1  0.02931289  0.61022227  0.34569900  1
  O  O27  1  0.64943426  0.66352777  0.15393279  1
  O  O28  1  0.98590649  0.33647223  0.65393279  1
  O  O29  1  0.41909063  0.38977773  0.84569900  1
  O  O30  1  0.99334936  0.98566166  0.50658103  1
  O  O31  1  0.00768770  0.01433834  0.00658103  1
  O  O32  1  0.42205905  0.15949263  0.32896233  1
  O  O33  1  0.69271434  0.18050057  0.16774885  1
  O  O34  1  0.51221377  0.81949943  0.66774885  1
  O  O35  1  0.26256642  0.84050737  0.82896233  1
