# generated using pymatgen
data_Mn5Al2V
_symmetry_space_group_name_H-M   'P 1'
_cell_length_a   4.09123217
_cell_length_b   4.09123217
_cell_length_c   7.07426799
_cell_angle_alpha   73.43197044
_cell_angle_beta   106.56802956
_cell_angle_gamma   119.86284432
_symmetry_Int_Tables_number   1
_chemical_formula_structural   Mn5Al2V
_chemical_formula_sum   'Mn5 Al2 V1'
_cell_volume   96.95346515
_cell_formula_units_Z   1
loop_
 _symmetry_equiv_pos_site_id
 _symmetry_equiv_pos_as_xyz
  1  'x, y, z'
loop_
 _atom_site_type_symbol
 _atom_site_label
 _atom_site_symmetry_multiplicity
 _atom_site_fract_x
 _atom_site_fract_y
 _atom_site_fract_z
 _atom_site_occupancy
  Mn  Mn0  1  0.74961093  0.25038907  0.24842809  1
  Mn  Mn1  1  0.25039522  0.74960478  0.75175542  1
  Mn  Mn2  1  0.00038907  0.99961093  0.00157191  1
  Mn  Mn3  1  0.49960478  0.50039522  0.49824458  1
  Mn  Mn4  1  0.37500000  0.62500000  0.12500000  1
  Al  Al5  1  0.12445008  0.87554992  0.37266834  1
  Al  Al6  1  0.62554992  0.37445008  0.87733166  1
  V  V7  1  0.87500000  0.12500000  0.62500000  1
