# generated using pymatgen
data_LaNd3(GaO3)4
_symmetry_space_group_name_H-M   'P 1'
_cell_length_a   5.48592477
_cell_length_b   5.59864150
_cell_length_c   7.82340963
_cell_angle_alpha   90.00000000
_cell_angle_beta   90.00000000
_cell_angle_gamma   90.06647403
_symmetry_Int_Tables_number   1
_chemical_formula_structural   LaNd3(GaO3)4
_chemical_formula_sum   'La1 Nd3 Ga4 O12'
_cell_volume   240.28589847
_cell_formula_units_Z   1
loop_
 _symmetry_equiv_pos_site_id
 _symmetry_equiv_pos_as_xyz
  1  'x, y, z'
loop_
 _atom_site_type_symbol
 _atom_site_label
 _atom_site_symmetry_multiplicity
 _atom_site_fract_x
 _atom_site_fract_y
 _atom_site_fract_z
 _atom_site_occupancy
  La  La0  1  0.50847078  0.53928620  0.25000000  1
  Nd  Nd1  1  0.98904190  0.04710465  0.25000000  1
  Nd  Nd2  1  0.48883404  0.45017220  0.75000000  1
  Nd  Nd3  1  0.01014671  0.95292498  0.75000000  1
  Ga  Ga4  1  0.99951092  0.50084857  0.99849801  1
  Ga  Ga5  1  0.50042279  0.99779733  0.50100809  1
  Ga  Ga6  1  0.99951092  0.50084857  0.50150199  1
  Ga  Ga7  1  0.50042279  0.99779733  0.99899191  1
  O  O8  1  0.41625944  0.98354867  0.25000000  1
  O  O9  1  0.07531221  0.47828548  0.25000000  1
  O  O10  1  0.58348088  0.02148635  0.75000000  1
  O  O11  1  0.91516037  0.52289299  0.75000000  1
  O  O12  1  0.79541336  0.79607102  0.04235635  1
  O  O13  1  0.71006753  0.29090362  0.45902489  1
  O  O14  1  0.20948071  0.20870609  0.54466371  1
  O  O15  1  0.29175154  0.70782261  0.95386127  1
  O  O16  1  0.20948071  0.20870609  0.95533629  1
  O  O17  1  0.29175154  0.70782261  0.54613873  1
  O  O18  1  0.79541336  0.79607102  0.45764365  1
  O  O19  1  0.71006753  0.29090362  0.04097511  1
