# generated using pymatgen
data_Na15Y2C9SClO30F
_symmetry_space_group_name_H-M   'P 1'
_cell_length_a   8.90184075
_cell_length_b   8.90184694
_cell_length_c   10.82982658
_cell_angle_alpha   89.99981829
_cell_angle_beta   89.99977392
_cell_angle_gamma   59.99953727
_symmetry_Int_Tables_number   1
_chemical_formula_structural   Na15Y2C9SClO30F
_chemical_formula_sum   'Na15 Y2 C9 S1 Cl1 O30 F1'
_cell_volume   743.20744595
_cell_formula_units_Z   1
loop_
 _symmetry_equiv_pos_site_id
 _symmetry_equiv_pos_as_xyz
  1  'x, y, z'
loop_
 _atom_site_type_symbol
 _atom_site_label
 _atom_site_symmetry_multiplicity
 _atom_site_fract_x
 _atom_site_fract_y
 _atom_site_fract_z
 _atom_site_occupancy
  Na  Na0  1  0.66666429  0.66666976  0.19911621  1
  Na  Na1  1  0.66666736  0.66666498  0.79958163  1
  Na  Na2  1  0.00000189  0.99999823  0.50021424  1
  Na  Na3  1  0.34575858  0.09455474  0.26626863  1
  Na  Na4  1  0.55968196  0.34576147  0.26627821  1
  Na  Na5  1  0.09455762  0.55966815  0.26626045  1
  Na  Na6  1  0.34910844  0.08777799  0.74163146  1
  Na  Na7  1  0.56311441  0.34910716  0.74162981  1
  Na  Na8  1  0.08777587  0.56311490  0.74162840  1
  Na  Na9  1  0.44584466  0.87225198  0.49909773  1
  Na  Na10  1  0.68190269  0.44584060  0.49909894  1
  Na  Na11  1  0.87225152  0.68190639  0.49909362  1
  Na  Na12  1  0.61709973  0.02421036  0.00207241  1
  Na  Na13  1  0.35869437  0.61710009  0.00206795  1
  Na  Na14  1  0.02420553  0.35868902  0.00207033  1
  Y  Y15  1  -0.00000014  0.99999257  0.17779981  1
  Y  Y16  1  0.00001343  0.99999066  0.82312509  1
  C  C17  1  0.31603268  0.74959789  0.70085333  1
  C  C18  1  0.93437112  0.31603205  0.70085222  1
  C  C19  1  0.74959711  0.93437186  0.70085237  1
  C  C20  1  0.31600947  0.75405056  0.29869924  1
  C  C21  1  0.92993158  0.31601185  0.29870014  1
  C  C22  1  0.75405201  0.92993906  0.29869901  1
  C  C23  1  0.71519655  0.35648509  0.99992518  1
  C  C24  1  0.92831664  0.71519706  0.99992650  1
  C  C25  1  0.35648446  0.92831820  0.99992604  1
  S  S26  1  0.33332835  0.33333071  0.54440599  1
  Cl  Cl27  1  0.33332791  0.33333589  0.94921473  1
  O  O28  1  0.83882781  0.19007206  0.99873906  1
  O  O29  1  0.97110295  0.83882851  0.99874196  1
  O  O30  1  0.19006838  0.97110107  0.99874266  1
  O  O31  1  0.18757315  0.50957506  0.51504037  1
  O  O32  1  0.30284668  0.18757572  0.51504227  1
  O  O33  1  0.50957416  0.30284646  0.51504412  1
  O  O34  1  0.04783352  0.24631250  0.79035055  1
  O  O35  1  0.70585168  0.04783481  0.79035154  1
  O  O36  1  0.24631633  0.70584791  0.79035007  1
  O  O37  1  0.03794596  0.24700713  0.20611174  1
  O  O38  1  0.71504356  0.03795224  0.20611227  1
  O  O39  1  0.24700521  0.71504297  0.20611195  1
  O  O40  1  0.90099372  0.66056740  0.89721131  1
  O  O41  1  0.43844201  0.90099171  0.89721162  1
  O  O42  1  0.66056215  0.43844469  0.89721136  1
  O  O43  1  0.91227993  0.65413987  0.10342293  1
  O  O44  1  0.43357858  0.91228629  0.10342277  1
  O  O45  1  0.65413606  0.43358088  0.10342266  1
  O  O46  1  0.89131161  0.46526365  0.65495729  1
  O  O47  1  0.64342384  0.89131506  0.65495716  1
  O  O48  1  0.46526619  0.64342095  0.65495772  1
  O  O49  1  0.88803345  0.46503375  0.34426557  1
  O  O50  1  0.64692835  0.88804129  0.34426672  1
  O  O51  1  0.46503231  0.64692791  0.34426612  1
  O  O52  1  0.86369477  0.22574839  0.66141871  1
  O  O53  1  0.91055694  0.86369294  0.66141799  1
  O  O54  1  0.22575217  0.91055284  0.66141973  1
  O  O55  1  0.86232682  0.22439274  0.34197945  1
  O  O56  1  0.91327708  0.86233123  0.34197661  1
  O  O57  1  0.22438825  0.91327590  0.34197628  1
  F  F58  1  0.33333631  0.33332679  0.29370976  1
