# generated using pymatgen
data_Li2VPO4F
_symmetry_space_group_name_H-M   'P 1'
_cell_length_a   5.44841699
_cell_length_b   5.44841699
_cell_length_c   7.44672422
_cell_angle_alpha   107.69207298
_cell_angle_beta   107.69207298
_cell_angle_gamma   95.18492865
_symmetry_Int_Tables_number   1
_chemical_formula_structural   Li2VPO4F
_chemical_formula_sum   'Li4 V2 P2 O8 F2'
_cell_volume   196.53381771
_cell_formula_units_Z   2
loop_
 _symmetry_equiv_pos_site_id
 _symmetry_equiv_pos_as_xyz
  1  'x, y, z'
loop_
 _atom_site_type_symbol
 _atom_site_label
 _atom_site_symmetry_multiplicity
 _atom_site_fract_x
 _atom_site_fract_y
 _atom_site_fract_z
 _atom_site_occupancy
  Li  Li0  1  0.03478457  0.72006322  0.34242427  1
  Li  Li1  1  0.27993678  0.96521543  0.15757573  1
  Li  Li2  1  0.97527767  0.39663495  0.93348134  1
  Li  Li3  1  0.60336505  0.02472233  0.56651866  1
  V  V4  1  0.50075913  0.49961690  0.50144518  1
  V  V5  1  0.50038310  0.49924087  0.99855482  1
  P  P6  1  0.85515855  0.14484145  0.25000000  1
  P  P7  1  0.14369427  0.85630573  0.75000000  1
  O  O8  1  0.14790699  0.19838308  0.38644836  1
  O  O9  1  0.80161692  0.85209301  0.11355164  1
  O  O10  1  0.85817031  0.79203454  0.59731918  1
  O  O11  1  0.20796546  0.14182969  0.90268082  1
  O  O12  1  0.65292225  0.17287039  0.36113592  1
  O  O13  1  0.82712961  0.34707775  0.13886408  1
  O  O14  1  0.32650590  0.81878148  0.62287161  1
  O  O15  1  0.18121852  0.67349410  0.87712839  1
  F  F16  1  0.35875548  0.64124452  0.25000000  1
  F  F17  1  0.63164944  0.36835056  0.75000000  1
