# generated using pymatgen
data_Lu6Ga19Pd3
_symmetry_space_group_name_H-M   'P 1'
_cell_length_a   4.24328465
_cell_length_b   8.11245219
_cell_length_c   15.86676476
_cell_angle_alpha   76.36422939
_cell_angle_beta   90.00000004
_cell_angle_gamma   105.16080930
_symmetry_Int_Tables_number   1
_chemical_formula_structural   Lu6Ga19Pd3
_chemical_formula_sum   'Lu6 Ga19 Pd3'
_cell_volume   511.21190233
_cell_formula_units_Z   1
loop_
 _symmetry_equiv_pos_site_id
 _symmetry_equiv_pos_as_xyz
  1  'x, y, z'
loop_
 _atom_site_type_symbol
 _atom_site_label
 _atom_site_symmetry_multiplicity
 _atom_site_fract_x
 _atom_site_fract_y
 _atom_site_fract_z
 _atom_site_occupancy
  Lu  Lu0  1  0.90156845  0.80313690  0.40182277  1
  Lu  Lu1  1  0.39985675  0.79971349  0.90088891  1
  Lu  Lu2  1  0.60104626  0.20209253  0.09809134  1
  Lu  Lu3  1  0.09753487  0.19506973  0.59891639  1
  Lu  Lu4  1  0.74882798  0.49765597  0.25016717  1
  Lu  Lu5  1  0.25046798  0.50093596  0.74970360  1
  Ga  Ga6  1  0.96210795  0.92421590  0.17683467  1
  Ga  Ga7  1  0.45965866  0.91931732  0.67992926  1
  Ga  Ga8  1  0.53854173  0.07708345  0.31876423  1
  Ga  Ga9  1  0.03864732  0.07729463  0.82255105  1
  Ga  Ga10  1  0.68045290  0.36090580  0.46328413  1
  Ga  Ga11  1  0.17841012  0.35682024  0.96136924  1
  Ga  Ga12  1  0.82198393  0.64396787  0.03810060  1
  Ga  Ga13  1  0.32123030  0.64246061  0.53938581  1
  Ga  Ga14  1  0.11029134  0.22058267  0.23568517  1
  Ga  Ga15  1  0.60764195  0.21528390  0.73935856  1
  Ga  Ga16  1  0.39214841  0.78429682  0.25928510  1
  Ga  Ga17  1  0.89125222  0.78250445  0.76143122  1
  Ga  Ga18  1  0.24013038  0.48026075  0.10580509  1
  Ga  Ga19  1  0.73884310  0.47768621  0.61007215  1
  Ga  Ga20  1  0.26356544  0.52713089  0.39063565  1
  Ga  Ga21  1  0.76026962  0.52053925  0.89271708  1
  Ga  Ga22  1  0.00034140  0.00068280  0.99912130  1
  Ga  Ga23  1  0.49618867  0.99237734  0.50465585  1
  Ga  Ga24  1  0.09301274  0.18602548  0.40632572  1
  Pd  Pd25  1  0.59021084  0.18042168  0.90933198  1
  Pd  Pd26  1  0.40942316  0.81884633  0.09083339  1
  Pd  Pd27  1  0.90634551  0.81269102  0.59493260  1
