# generated using pymatgen
data_Li3Mn8O16
_symmetry_space_group_name_H-M   'P 1'
_cell_length_a   5.94702532
_cell_length_b   8.36063454
_cell_length_c   5.94702532
_cell_angle_alpha   90.00000000
_cell_angle_beta   90.00000000
_cell_angle_gamma   90.00000000
_symmetry_Int_Tables_number   1
_chemical_formula_structural   Li3Mn8O16
_chemical_formula_sum   'Li3 Mn8 O16'
_cell_volume   295.69148252
_cell_formula_units_Z   1
loop_
 _symmetry_equiv_pos_site_id
 _symmetry_equiv_pos_as_xyz
  1  'x, y, z'
loop_
 _atom_site_type_symbol
 _atom_site_label
 _atom_site_symmetry_multiplicity
 _atom_site_fract_x
 _atom_site_fract_y
 _atom_site_fract_z
 _atom_site_occupancy
  Li  Li0  1  -0.00000000  0.25000000  0.50000000  1
  Li  Li1  1  -0.00000000  0.99933488  0.00000000  1
  Li  Li2  1  0.50000000  0.50066512  0.50000000  1
  Mn  Mn3  1  0.24913652  0.37298882  -0.00000000  1
  Mn  Mn4  1  0.74902589  0.87845424  0.50000000  1
  Mn  Mn5  1  0.00000000  0.62154576  0.75097411  1
  Mn  Mn6  1  0.50000000  0.12701118  0.25086348  1
  Mn  Mn7  1  -0.00000000  0.62154576  0.24902589  1
  Mn  Mn8  1  0.50000000  0.12701118  0.74913652  1
  Mn  Mn9  1  0.75086348  0.37298882  -0.00000000  1
  Mn  Mn10  1  0.25097411  0.87845424  0.50000000  1
  O  O11  1  0.72714729  0.14130073  0.00000000  1
  O  O12  1  0.21814064  0.63643682  0.50000000  1
  O  O13  1  0.50000000  0.35869927  0.77285271  1
  O  O14  1  -0.00000000  0.86356318  0.28185936  1
  O  O15  1  0.50000000  0.35869927  0.22714729  1
  O  O16  1  0.00000000  0.86356318  0.71814064  1
  O  O17  1  0.27285271  0.14130073  0.00000000  1
  O  O18  1  0.78185936  0.63643682  0.50000000  1
  O  O19  1  0.78434318  0.60570519  0.00000000  1
  O  O20  1  0.27381219  0.11449553  0.50000000  1
  O  O21  1  -0.00000000  0.38550447  0.22618781  1
  O  O22  1  0.50000000  0.89429481  0.71565682  1
  O  O23  1  0.00000000  0.38550447  0.77381219  1
  O  O24  1  0.50000000  0.89429481  0.28434318  1
  O  O25  1  0.21565682  0.60570519  0.00000000  1
  O  O26  1  0.72618781  0.11449553  0.50000000  1
