# generated using pymatgen
data_Mn4Sb3As
_symmetry_space_group_name_H-M   'P 1'
_cell_length_a   3.98385756
_cell_length_b   3.98393119
_cell_length_c   11.24213640
_cell_angle_alpha   90.00000000
_cell_angle_beta   90.00000000
_cell_angle_gamma   59.99938851
_symmetry_Int_Tables_number   1
_chemical_formula_structural   Mn4Sb3As
_chemical_formula_sum   'Mn4 Sb3 As1'
_cell_volume   154.52275278
_cell_formula_units_Z   1
loop_
 _symmetry_equiv_pos_site_id
 _symmetry_equiv_pos_as_xyz
  1  'x, y, z'
loop_
 _atom_site_type_symbol
 _atom_site_label
 _atom_site_symmetry_multiplicity
 _atom_site_fract_x
 _atom_site_fract_y
 _atom_site_fract_z
 _atom_site_occupancy
  Mn  Mn0  1  -0.00001887  0.00000943  0.25904176  1
  Mn  Mn1  1  0.99997434  0.00001283  0.74931241  1
  Mn  Mn2  1  0.99997434  0.00001283  0.00068759  1
  Mn  Mn3  1  -0.00001887  0.00000943  0.49095824  1
  Sb  Sb4  1  0.33339843  0.33330078  0.87500000  1
  Sb  Sb5  1  0.66666868  0.66666566  0.12821065  1
  Sb  Sb6  1  0.66666868  0.66666566  0.62178935  1
  As  As7  1  0.33335328  0.33332336  0.37500000  1
