# generated using pymatgen
data_LuZn4FeO7
_symmetry_space_group_name_H-M   'P 1'
_cell_length_a   3.36166480
_cell_length_b   3.36166480
_cell_length_c   33.20366605
_cell_angle_alpha   90.00000000
_cell_angle_beta   90.00000000
_cell_angle_gamma   120.00054237
_symmetry_Int_Tables_number   1
_chemical_formula_structural   LuZn4FeO7
_chemical_formula_sum   'Lu2 Zn8 Fe2 O14'
_cell_volume   324.95491367
_cell_formula_units_Z   2
loop_
 _symmetry_equiv_pos_site_id
 _symmetry_equiv_pos_as_xyz
  1  'x, y, z'
loop_
 _atom_site_type_symbol
 _atom_site_label
 _atom_site_symmetry_multiplicity
 _atom_site_fract_x
 _atom_site_fract_y
 _atom_site_fract_z
 _atom_site_occupancy
  Lu  Lu0  1  -0.00000000  0.00000000  0.50000000  1
  Lu  Lu1  1  -0.00000000  0.00000000  0.00000000  1
  Zn  Zn2  1  0.66668587  0.33331413  0.59189604  1
  Zn  Zn3  1  0.33331413  0.66668587  0.40810396  1
  Zn  Zn4  1  0.33331413  0.66668587  0.09189604  1
  Zn  Zn5  1  0.66668587  0.33331413  0.90810396  1
  Zn  Zn6  1  0.00001545  0.99998455  0.67022380  1
  Zn  Zn7  1  0.99998455  0.00001545  0.32977620  1
  Zn  Zn8  1  0.99998455  0.00001545  0.17022380  1
  Zn  Zn9  1  0.00001545  0.99998455  0.82977620  1
  Fe  Fe10  1  0.66667921  0.33332079  0.75000000  1
  Fe  Fe11  1  0.33332079  0.66667921  0.25000000  1
  O  O12  1  0.00001420  0.99998580  0.60992082  1
  O  O13  1  0.99998580  0.00001420  0.39007918  1
  O  O14  1  0.99998580  0.00001420  0.10992082  1
  O  O15  1  0.00001420  0.99998580  0.89007918  1
  O  O16  1  0.66668435  0.33331565  0.68863207  1
  O  O17  1  0.33331565  0.66668435  0.31136793  1
  O  O18  1  0.33331565  0.66668435  0.18863207  1
  O  O19  1  0.66668435  0.33331565  0.81136793  1
  O  O20  1  0.66667184  0.33332816  0.53235420  1
  O  O21  1  0.33332816  0.66667184  0.46764580  1
  O  O22  1  0.33332816  0.66667184  0.03235420  1
  O  O23  1  0.66667184  0.33332816  0.96764580  1
  O  O24  1  0.00000243  0.99999757  0.75000000  1
  O  O25  1  0.99999757  0.00000243  0.25000000  1
