# generated using pymatgen
data_Li3Nb4CuO12
_symmetry_space_group_name_H-M   'P 1'
_cell_length_a   5.23015693
_cell_length_b   7.67872514
_cell_length_c   5.61847438
_cell_angle_alpha   84.34760787
_cell_angle_beta   89.95438211
_cell_angle_gamma   89.97481078
_symmetry_Int_Tables_number   1
_chemical_formula_structural   Li3Nb4CuO12
_chemical_formula_sum   'Li3 Nb4 Cu1 O12'
_cell_volume   224.54597931
_cell_formula_units_Z   1
loop_
 _symmetry_equiv_pos_site_id
 _symmetry_equiv_pos_as_xyz
  1  'x, y, z'
loop_
 _atom_site_type_symbol
 _atom_site_label
 _atom_site_symmetry_multiplicity
 _atom_site_fract_x
 _atom_site_fract_y
 _atom_site_fract_z
 _atom_site_occupancy
  Li  Li0  1  0.49904949  0.27967541  0.06133310  1
  Li  Li1  1  0.00117120  0.78135525  0.56032478  1
  Li  Li2  1  0.49852133  0.77911836  0.05735893  1
  Nb  Nb3  1  0.99937943  0.49680692  0.98719210  1
  Nb  Nb4  1  0.50174183  0.99094552  0.48851886  1
  Nb  Nb5  1  0.99771729  0.99480486  0.99142961  1
  Nb  Nb6  1  0.50312238  0.49675990  0.49119403  1
  Cu  Cu7  1  0.00013204  0.26849976  0.53946556  1
  O  O8  1  0.68102713  0.53502263  0.14085325  1
  O  O9  1  0.18031384  0.03105950  0.63725486  1
  O  O10  1  0.12401952  0.72989061  0.94520939  1
  O  O11  1  0.62251751  0.22835564  0.44107193  1
  O  O12  1  0.19615863  0.40992352  0.26131358  1
  O  O13  1  0.69509298  0.90987374  0.76370819  1
  O  O14  1  0.87121613  0.22942769  0.95085560  1
  O  O15  1  0.37299802  0.72803733  0.44255003  1
  O  O16  1  0.81963931  0.54207375  0.63981193  1
  O  O17  1  0.31879691  0.03348221  0.13679315  1
  O  O18  1  0.31282080  0.41165369  0.76779827  1
  O  O19  1  0.80456420  0.90723372  0.26396284  1
