# generated using pymatgen
data_LaCoNi4
_symmetry_space_group_name_H-M   'P 1'
_cell_length_a   3.97537606
_cell_length_b   4.96429549
_cell_length_c   4.96378181
_cell_angle_alpha   118.86427618
_cell_angle_beta   90.00000000
_cell_angle_gamma   90.00000000
_symmetry_Int_Tables_number   1
_chemical_formula_structural   LaCoNi4
_chemical_formula_sum   'La1 Co1 Ni4'
_cell_volume   85.78995667
_cell_formula_units_Z   1
loop_
 _symmetry_equiv_pos_site_id
 _symmetry_equiv_pos_as_xyz
  1  'x, y, z'
loop_
 _atom_site_type_symbol
 _atom_site_label
 _atom_site_symmetry_multiplicity
 _atom_site_fract_x
 _atom_site_fract_y
 _atom_site_fract_z
 _atom_site_occupancy
  La  La0  1  0.00000000  0.99998231  0.00000575  1
  Co  Co1  1  0.50000000  0.49998515  0.50000732  1
  Ni  Ni2  1  0.00000000  0.33699168  0.66301879  1
  Ni  Ni3  1  0.00000000  0.66298798  0.33697604  1
  Ni  Ni4  1  0.50000000  0.99997009  0.49999023  1
  Ni  Ni5  1  0.50000000  0.49998279  0.00000187  1
