# generated using pymatgen
data_LaMo12PbSe16
_symmetry_space_group_name_H-M   'P 1'
_cell_length_a   9.63143904
_cell_length_b   9.63143917
_cell_length_c   9.80043936
_cell_angle_alpha   89.99999782
_cell_angle_beta   60.56881134
_cell_angle_gamma   119.99999952
_symmetry_Int_Tables_number   1
_chemical_formula_structural   LaMo12PbSe16
_chemical_formula_sum   'La1 Mo12 Pb1 Se16'
_cell_volume   648.32649626
_cell_formula_units_Z   1
loop_
 _symmetry_equiv_pos_site_id
 _symmetry_equiv_pos_as_xyz
  1  'x, y, z'
loop_
 _atom_site_type_symbol
 _atom_site_label
 _atom_site_symmetry_multiplicity
 _atom_site_fract_x
 _atom_site_fract_y
 _atom_site_fract_z
 _atom_site_occupancy
  La  La0  1  0.00000000  0.50000000  0.50000000  1
  Mo  Mo1  1  0.42220980  0.55039987  0.88897614  1
  Mo  Mo2  1  0.42220454  0.04972097  0.38874266  1
  Mo  Mo3  1  0.23921393  0.68881406  0.88897614  1
  Mo  Mo4  1  0.23877377  0.18905280  0.38874266  1
  Mo  Mo5  1  0.56062399  0.87180993  0.88897614  1
  Mo  Mo6  1  0.56153637  0.37248357  0.38874266  1
  Mo  Mo7  1  0.57779546  0.95027903  0.61125734  1
  Mo  Mo8  1  0.57779020  0.44960013  0.11102386  1
  Mo  Mo9  1  0.76122623  0.81094720  0.61125734  1
  Mo  Mo10  1  0.76078607  0.31118594  0.11102386  1
  Mo  Mo11  1  0.43846363  0.62751643  0.61125734  1
  Mo  Mo12  1  0.43937601  0.12819007  0.11102386  1
  Pb  Pb13  1  0.00000000  0.00000000  -0.00000000  1
  Se  Se14  1  0.37992095  0.00272030  0.87641336  1
  Se  Se15  1  0.37985893  0.50420186  0.37458403  1
  Se  Se16  1  0.74638599  0.74366570  0.87641336  1
  Se  Se17  1  0.74975890  0.24555704  0.37458403  1
  Se  Se18  1  0.12086635  0.37720065  0.87641336  1
  Se  Se19  1  0.12121411  0.87565707  0.37458403  1
  Se  Se20  1  0.62014107  0.49579814  0.62541597  1
  Se  Se21  1  0.62007905  0.99727970  0.12358664  1
  Se  Se22  1  0.25024110  0.75444296  0.62541597  1
  Se  Se23  1  0.25361401  0.25633430  0.12358664  1
  Se  Se24  1  0.87878589  0.12434293  0.62541597  1
  Se  Se25  1  0.87913365  0.62279935  0.12358664  1
  Se  Se26  1  0.24192438  0.62096219  0.13711343  1
  Se  Se27  1  0.24340617  0.12170308  0.63489075  1
  Se  Se28  1  0.75659383  0.87829692  0.36510925  1
  Se  Se29  1  0.75807562  0.37903781  0.86288657  1
