# generated using pymatgen
data_La2Sn4Ru
_symmetry_space_group_name_H-M   'P 1'
_cell_length_a   4.69049474
_cell_length_b   4.75949704
_cell_length_c   8.89010891
_cell_angle_alpha   74.62010944
_cell_angle_beta   90.01423691
_cell_angle_gamma   89.99934534
_symmetry_Int_Tables_number   1
_chemical_formula_structural   La2Sn4Ru
_chemical_formula_sum   'La2 Sn4 Ru1'
_cell_volume   191.35893722
_cell_formula_units_Z   1
loop_
 _symmetry_equiv_pos_site_id
 _symmetry_equiv_pos_as_xyz
  1  'x, y, z'
loop_
 _atom_site_type_symbol
 _atom_site_label
 _atom_site_symmetry_multiplicity
 _atom_site_fract_x
 _atom_site_fract_y
 _atom_site_fract_z
 _atom_site_occupancy
  La  La0  1  0.24995929  0.89865371  0.20535956  1
  La  La1  1  0.75050633  0.10489884  0.79459532  1
  Sn  Sn2  1  0.25023454  0.54159074  0.91338020  1
  Sn  Sn3  1  0.75012454  0.42716702  0.14942909  1
  Sn  Sn4  1  0.25026736  0.25931234  0.47748785  1
  Sn  Sn5  1  0.74950190  0.76157732  0.47859231  1
  Ru  Ru6  1  0.24940604  0.69180004  0.61115567  1
