# generated using pymatgen
data_LaCeNiPt
_symmetry_space_group_name_H-M   'P 1'
_cell_length_a   3.82961221
_cell_length_b   4.40242322
_cell_length_c   5.90628585
_cell_angle_alpha   90.00000000
_cell_angle_beta   71.08300143
_cell_angle_gamma   90.00000000
_symmetry_Int_Tables_number   1
_chemical_formula_structural   LaCeNiPt
_chemical_formula_sum   'La1 Ce1 Ni1 Pt1'
_cell_volume   94.19920506
_cell_formula_units_Z   1
loop_
 _symmetry_equiv_pos_site_id
 _symmetry_equiv_pos_as_xyz
  1  'x, y, z'
loop_
 _atom_site_type_symbol
 _atom_site_label
 _atom_site_symmetry_multiplicity
 _atom_site_fract_x
 _atom_site_fract_y
 _atom_site_fract_z
 _atom_site_occupancy
  La  La0  1  0.86143312  0.25000000  0.27713376  1
  Ce  Ce1  1  0.12842775  0.75000000  0.74314450  1
  Ni  Ni2  1  0.42198059  0.75000000  0.15603882  1
  Pt  Pt3  1  0.58815854  0.25000000  0.82368292  1
