# generated using pymatgen
data_KFe2F6
_symmetry_space_group_name_H-M   'P 1'
_cell_length_a   4.01743120
_cell_length_b   12.82991380
_cell_length_c   12.82991380
_cell_angle_alpha   90.00000000
_cell_angle_beta   90.00000000
_cell_angle_gamma   90.00000000
_symmetry_Int_Tables_number   1
_chemical_formula_structural   KFe2F6
_chemical_formula_sum   'K5 Fe10 F30'
_cell_volume   661.29604456
_cell_formula_units_Z   5
loop_
 _symmetry_equiv_pos_site_id
 _symmetry_equiv_pos_as_xyz
  1  'x, y, z'
loop_
 _atom_site_type_symbol
 _atom_site_label
 _atom_site_symmetry_multiplicity
 _atom_site_fract_x
 _atom_site_fract_y
 _atom_site_fract_z
 _atom_site_occupancy
  K  K0  1  0.00000000  0.16231384  0.68477303  1
  K  K1  1  -0.00000000  0.83768616  0.31522697  1
  K  K2  1  -0.00000000  0.31522697  0.16231384  1
  K  K3  1  0.00000000  0.68477303  0.83768616  1
  K  K4  1  0.00000000  0.50000000  0.50000000  1
  Fe  Fe5  1  0.50000000  0.00000000  0.50000000  1
  Fe  Fe6  1  0.50000000  0.50000000  0.00000000  1
  Fe  Fe7  1  0.50000000  0.71288768  0.57824820  1
  Fe  Fe8  1  0.50000000  0.28711232  0.42175180  1
  Fe  Fe9  1  0.50000000  0.79397657  0.07652212  1
  Fe  Fe10  1  0.50000000  0.20602343  0.92347788  1
  Fe  Fe11  1  0.50000000  0.57824820  0.28711232  1
  Fe  Fe12  1  0.50000000  0.42175180  0.71288768  1
  Fe  Fe13  1  0.50000000  0.07652212  0.20602343  1
  Fe  Fe14  1  0.50000000  0.92347788  0.79397657  1
  F  F15  1  0.50000000  0.56401613  0.64272775  1
  F  F16  1  0.50000000  0.43598387  0.35727225  1
  F  F17  1  0.50000000  0.92660379  0.15381625  1
  F  F18  1  0.50000000  0.07339621  0.84618375  1
  F  F19  1  0.50000000  0.64272775  0.43598387  1
  F  F20  1  0.50000000  0.35727225  0.56401613  1
  F  F21  1  0.50000000  0.15381625  0.07339621  1
  F  F22  1  0.50000000  0.84618375  0.92660379  1
  F  F23  1  0.50000000  0.84950178  0.48974012  1
  F  F24  1  0.50000000  0.15049822  0.51025988  1
  F  F25  1  0.50000000  0.65099424  0.99999164  1
  F  F26  1  0.50000000  0.34900576  0.00000836  1
  F  F27  1  0.50000000  0.48974012  0.15049822  1
  F  F28  1  0.50000000  0.51025988  0.84950178  1
  F  F29  1  0.50000000  0.99999164  0.34900576  1
  F  F30  1  0.50000000  0.00000836  0.65099424  1
  F  F31  1  0.00000000  0.70983715  0.57829829  1
  F  F32  1  -0.00000000  0.29016285  0.42170171  1
  F  F33  1  0.00000000  0.78616479  0.07702819  1
  F  F34  1  -0.00000000  0.21383521  0.92297181  1
  F  F35  1  0.00000000  0.57829829  0.29016285  1
  F  F36  1  -0.00000000  0.42170171  0.70983715  1
  F  F37  1  -0.00000000  0.07702819  0.21383521  1
  F  F38  1  0.00000000  0.92297181  0.78616479  1
  F  F39  1  -0.00000000  0.00000000  0.50000000  1
  F  F40  1  0.00000000  0.50000000  0.00000000  1
  F  F41  1  0.50000000  0.72196056  0.22427956  1
  F  F42  1  0.50000000  0.27803944  0.77572044  1
  F  F43  1  0.50000000  0.22427956  0.27803944  1
  F  F44  1  0.50000000  0.77572044  0.72196056  1
