# generated using pymatgen
data_InGaSb2
_symmetry_space_group_name_H-M   'P 1'
_cell_length_a   4.56022063
_cell_length_b   4.56022063
_cell_length_c   7.87769951
_cell_angle_alpha   73.17565120
_cell_angle_beta   90.00000000
_cell_angle_gamma   120.00000000
_symmetry_Int_Tables_number   1
_chemical_formula_structural   InGaSb2
_chemical_formula_sum   'In1 Ga1 Sb2'
_cell_volume   133.71547760
_cell_formula_units_Z   1
loop_
 _symmetry_equiv_pos_site_id
 _symmetry_equiv_pos_as_xyz
  1  'x, y, z'
loop_
 _atom_site_type_symbol
 _atom_site_label
 _atom_site_symmetry_multiplicity
 _atom_site_fract_x
 _atom_site_fract_y
 _atom_site_fract_z
 _atom_site_occupancy
  In  In0  1  0.49980888  0.99961777  0.50057335  1
  Ga  Ga1  1  0.00006120  0.00012239  -0.00018359  1
  Sb  Sb2  1  0.87937597  0.75875194  0.36187209  1
  Sb  Sb3  1  0.37075395  0.74150790  0.88773815  1
