# generated using pymatgen
data_Fe4Co(BiO3)5
_symmetry_space_group_name_H-M   'P 1'
_cell_length_a   3.79493165
_cell_length_b   14.72056141
_cell_length_c   6.34211486
_cell_angle_alpha   87.93125015
_cell_angle_beta   91.81487264
_cell_angle_gamma   91.17045435
_symmetry_Int_Tables_number   1
_chemical_formula_structural   Fe4Co(BiO3)5
_chemical_formula_sum   'Fe4 Co1 Bi5 O15'
_cell_volume   353.81840920
_cell_formula_units_Z   1
loop_
 _symmetry_equiv_pos_site_id
 _symmetry_equiv_pos_as_xyz
  1  'x, y, z'
loop_
 _atom_site_type_symbol
 _atom_site_label
 _atom_site_symmetry_multiplicity
 _atom_site_fract_x
 _atom_site_fract_y
 _atom_site_fract_z
 _atom_site_occupancy
  Fe  Fe0  1  0.48777952  0.41056362  0.75236380  1
  Fe  Fe1  1  0.48553820  0.61015014  0.34876117  1
  Fe  Fe2  1  0.48614788  0.81048204  0.94422795  1
  Fe  Fe3  1  0.48609340  0.01245696  0.54564126  1
  Co  Co4  1  0.48453345  0.20937178  0.13845255  1
  Bi  Bi5  1  0.02460760  0.00397077  0.98117124  1
  Bi  Bi6  1  0.02753387  0.20964554  0.56795242  1
  Bi  Bi7  1  0.03536523  0.40441195  0.18149882  1
  Bi  Bi8  1  0.03191854  0.60513082  0.78169526  1
  Bi  Bi9  1  0.03579402  0.80574996  0.37771212  1
  O  O10  1  0.98998003  0.24096959  0.22826018  1
  O  O11  1  0.99174075  0.43892309  0.83456426  1
  O  O12  1  0.98949017  0.63960882  0.43518048  1
  O  O13  1  0.99054265  0.84069690  0.02912730  1
  O  O14  1  0.99085608  0.03901578  0.63657296  1
  O  O15  1  0.48928164  0.33972105  0.03413926  1
  O  O16  1  0.48624945  0.53966941  0.63270130  1
  O  O17  1  0.48346722  0.73968891  0.22537503  1
  O  O18  1  0.48901191  0.94138325  0.83255583  1
  O  O19  1  0.48383041  0.14052861  0.42574317  1
  O  O20  1  0.46215711  0.12928470  0.93882216  1
  O  O21  1  0.45858786  0.32835972  0.53428559  1
  O  O22  1  0.45671885  0.52832950  0.13500215  1
  O  O23  1  0.45965152  0.72829737  0.73164160  1
  O  O24  1  0.45862265  0.92798972  0.33425212  1
