# generated using pymatgen
data_HgPb2
_symmetry_space_group_name_H-M   'P 1'
_cell_length_a   3.50876857
_cell_length_b   3.50876857
_cell_length_c   8.56737973
_cell_angle_alpha   96.14305302
_cell_angle_beta   83.85694698
_cell_angle_gamma   118.00581477
_symmetry_Int_Tables_number   1
_chemical_formula_structural   HgPb2
_chemical_formula_sum   'Hg1 Pb2'
_cell_volume   92.39705130
_cell_formula_units_Z   1
loop_
 _symmetry_equiv_pos_site_id
 _symmetry_equiv_pos_as_xyz
  1  'x, y, z'
loop_
 _atom_site_type_symbol
 _atom_site_label
 _atom_site_symmetry_multiplicity
 _atom_site_fract_x
 _atom_site_fract_y
 _atom_site_fract_z
 _atom_site_occupancy
  Hg  Hg0  1  0.00000000  -0.00000000  0.00000000  1
  Pb  Pb1  1  0.33534304  0.66465696  0.33200205  1
  Pb  Pb2  1  0.66465696  0.33534304  0.66799795  1
