# generated using pymatgen
data_Hg15(As2Cl3)4
_symmetry_space_group_name_H-M   'P 1'
_cell_length_a   12.54666305
_cell_length_b   12.54770051
_cell_length_c   12.54582698
_cell_angle_alpha   89.98395825
_cell_angle_beta   89.99976635
_cell_angle_gamma   89.99977194
_symmetry_Int_Tables_number   1
_chemical_formula_structural   Hg15(As2Cl3)4
_chemical_formula_sum   'Hg30 As16 Cl24'
_cell_volume   1975.11167548
_cell_formula_units_Z   2
loop_
 _symmetry_equiv_pos_site_id
 _symmetry_equiv_pos_as_xyz
  1  'x, y, z'
loop_
 _atom_site_type_symbol
 _atom_site_label
 _atom_site_symmetry_multiplicity
 _atom_site_fract_x
 _atom_site_fract_y
 _atom_site_fract_z
 _atom_site_occupancy
  Hg  Hg0  1  0.50000000  -0.00000000  0.50000000  1
  Hg  Hg1  1  0.00000000  0.50000000  0.50000000  1
  Hg  Hg2  1  0.50000000  0.50000000  -0.00000000  1
  Hg  Hg3  1  0.00000000  -0.00000000  -0.00000000  1
  Hg  Hg4  1  0.50000000  -0.00000000  -0.00000000  1
  Hg  Hg5  1  0.00000000  0.50000000  -0.00000000  1
  Hg  Hg6  1  0.21806639  0.02610282  0.28954897  1
  Hg  Hg7  1  0.71806660  0.47389696  0.71045134  1
  Hg  Hg8  1  0.78182069  0.52626045  0.21065686  1
  Hg  Hg9  1  0.28182228  0.97373878  0.78934370  1
  Hg  Hg10  1  0.28954380  0.21805684  0.02629427  1
  Hg  Hg11  1  0.71066045  0.71820049  0.47392303  1
  Hg  Hg12  1  0.21066045  0.78180045  0.52607630  1
  Hg  Hg13  1  0.78954400  0.28194427  0.97370538  1
  Hg  Hg14  1  0.02622650  0.28940281  0.21824270  1
  Hg  Hg15  1  0.47385091  0.71052083  0.71800800  1
  Hg  Hg16  1  0.52622709  0.21059772  0.78175651  1
  Hg  Hg17  1  0.97384991  0.78947814  0.28199220  1
  Hg  Hg18  1  0.78193361  0.97389718  0.71045103  1
  Hg  Hg19  1  0.28193340  0.52610304  0.28954866  1
  Hg  Hg20  1  0.21817931  0.47373955  0.78934314  1
  Hg  Hg21  1  0.71817772  0.02626122  0.21065630  1
  Hg  Hg22  1  0.71045620  0.78194316  0.97370573  1
  Hg  Hg23  1  0.28933955  0.28179951  0.52607697  1
  Hg  Hg24  1  0.78933955  0.21819955  0.47392370  1
  Hg  Hg25  1  0.21045600  0.71805573  0.02629462  1
  Hg  Hg26  1  0.97377350  0.71059719  0.78175730  1
  Hg  Hg27  1  0.52614909  0.28947917  0.28199200  1
  Hg  Hg28  1  0.47377291  0.78940228  0.21824349  1
  Hg  Hg29  1  0.02615009  0.21052186  0.71800780  1
  As  As30  1  0.16679295  0.83318118  0.33321155  1
  As  As31  1  0.66679406  0.66682002  0.66678926  1
  As  As32  1  0.83322109  0.33326239  0.16678758  1
  As  As33  1  0.33322140  0.16673812  0.83321289  1
  As  As34  1  0.83320705  0.16681882  0.66678845  1
  As  As35  1  0.33320594  0.33317998  0.33321074  1
  As  As36  1  0.16677891  0.66673761  0.83321242  1
  As  As37  1  0.66677860  0.83326188  0.16678711  1
  As  As38  1  0.21778843  0.21776321  0.21785405  1
  As  As39  1  0.71778775  0.28223732  0.78214603  1
  As  As40  1  0.78242895  0.71757676  0.28248794  1
  As  As41  1  0.28242936  0.78242310  0.71751293  1
  As  As42  1  0.78221157  0.78223679  0.78214595  1
  As  As43  1  0.28221225  0.71776268  0.21785397  1
  As  As44  1  0.21757105  0.28242324  0.71751206  1
  As  As45  1  0.71757064  0.21757690  0.28248707  1
  Cl  Cl46  1  0.45787430  0.03521455  0.28755814  1
  Cl  Cl47  1  0.95787041  0.46477749  0.71245024  1
  Cl  Cl48  1  0.54205636  0.53525414  0.21338775  1
  Cl  Cl49  1  0.04205120  0.96474219  0.78660558  1
  Cl  Cl50  1  0.28731923  0.45788468  0.03533737  1
  Cl  Cl51  1  0.71314497  0.95792493  0.46484716  1
  Cl  Cl52  1  0.21315692  0.54207376  0.53515903  1
  Cl  Cl53  1  0.78731661  0.04211061  0.96466213  1
  Cl  Cl54  1  0.03514928  0.28685735  0.45788185  1
  Cl  Cl55  1  0.46466282  0.71268230  0.95792885  1
  Cl  Cl56  1  0.53515107  0.21314981  0.54212380  1
  Cl  Cl57  1  0.96466210  0.78731778  0.04207810  1
  Cl  Cl58  1  0.54212570  0.96478545  0.71244186  1
  Cl  Cl59  1  0.04212959  0.53522251  0.28754976  1
  Cl  Cl60  1  0.45794364  0.46474586  0.78661225  1
  Cl  Cl61  1  0.95794880  0.03525781  0.21339442  1
  Cl  Cl62  1  0.71268077  0.54211532  0.96466263  1
  Cl  Cl63  1  0.28685503  0.04207507  0.53515284  1
  Cl  Cl64  1  0.78684308  0.45792624  0.46484097  1
  Cl  Cl65  1  0.21268339  0.95788939  0.03533787  1
  Cl  Cl66  1  0.96485072  0.71314265  0.54211815  1
  Cl  Cl67  1  0.53533718  0.28731770  0.04207115  1
  Cl  Cl68  1  0.46484893  0.78685019  0.45787620  1
  Cl  Cl69  1  0.03533790  0.21268222  0.95792190  1
