# generated using pymatgen
data_HfU(NbC2)2
_symmetry_space_group_name_H-M   'P 1'
_cell_length_a   3.25323620
_cell_length_b   3.25323620
_cell_length_c   11.03010059
_cell_angle_alpha   90.00000000
_cell_angle_beta   81.51961415
_cell_angle_gamma   120.00000000
_symmetry_Int_Tables_number   1
_chemical_formula_structural   HfU(NbC2)2
_chemical_formula_sum   'Hf1 U1 Nb2 C4'
_cell_volume   99.62116471
_cell_formula_units_Z   1
loop_
 _symmetry_equiv_pos_site_id
 _symmetry_equiv_pos_as_xyz
  1  'x, y, z'
loop_
 _atom_site_type_symbol
 _atom_site_label
 _atom_site_symmetry_multiplicity
 _atom_site_fract_x
 _atom_site_fract_y
 _atom_site_fract_z
 _atom_site_occupancy
  Hf  Hf0  1  0.25884497  0.62942248  0.11173255  1
  U  U1  1  0.74771466  0.87385733  0.37842801  1
  Nb  Nb2  1  0.24098075  0.12049038  0.63852887  1
  Nb  Nb3  1  0.75278560  0.37639280  0.87082161  1
  C  C4  1  0.98747303  0.49373652  0.51879045  1
  C  C5  1  0.49701941  0.74850970  0.75447089  1
  C  C6  1  0.00716918  0.00358459  0.98924623  1
  C  C7  1  0.50801240  0.25400620  0.23798139  1
