# generated using pymatgen
data_Co3Os
_symmetry_space_group_name_H-M   'P 1'
_cell_length_a   4.37057023
_cell_length_b   4.37057023
_cell_length_c   4.37057023
_cell_angle_alpha   131.70458196
_cell_angle_beta   131.70458196
_cell_angle_gamma   70.69600965
_symmetry_Int_Tables_number   1
_chemical_formula_structural   Co3Os
_chemical_formula_sum   'Co3 Os1'
_cell_volume   45.58462986
_cell_formula_units_Z   1
loop_
 _symmetry_equiv_pos_site_id
 _symmetry_equiv_pos_as_xyz
  1  'x, y, z'
loop_
 _atom_site_type_symbol
 _atom_site_label
 _atom_site_symmetry_multiplicity
 _atom_site_fract_x
 _atom_site_fract_y
 _atom_site_fract_z
 _atom_site_occupancy
  Co  Co0  1  0.75000100  0.24999900  0.50000100  1
  Co  Co1  1  0.24999900  0.75000100  0.50000100  1
  Co  Co2  1  0.50000000  0.50000000  0.00000000  1
  Os  Os3  1  0.00000000  0.00000000  0.00000000  1
