# generated using pymatgen
data_EuAl2Ag3
_symmetry_space_group_name_H-M   'P 1'
_cell_length_a   4.38845827
_cell_length_b   5.77341723
_cell_length_c   5.77341733
_cell_angle_alpha   60.06511890
_cell_angle_beta   90.00000000
_cell_angle_gamma   90.00000000
_symmetry_Int_Tables_number   1
_chemical_formula_structural   EuAl2Ag3
_chemical_formula_sum   'Eu1 Al2 Ag3'
_cell_volume   126.76317329
_cell_formula_units_Z   1
loop_
 _symmetry_equiv_pos_site_id
 _symmetry_equiv_pos_as_xyz
  1  'x, y, z'
loop_
 _atom_site_type_symbol
 _atom_site_label
 _atom_site_symmetry_multiplicity
 _atom_site_fract_x
 _atom_site_fract_y
 _atom_site_fract_z
 _atom_site_occupancy
  Eu  Eu0  1  -0.00000000  0.99998022  0.00001978  1
  Al  Al1  1  0.00000000  0.33337359  0.33344361  1
  Al  Al2  1  0.00000000  0.66655639  0.66662641  1
  Ag  Ag3  1  0.50000000  0.50000282  0.49999718  1
  Ag  Ag4  1  0.50000000  0.49999653  0.00000954  1
  Ag  Ag5  1  0.50000000  0.99999046  0.50000347  1
