# generated using pymatgen
data_GdTa3O9
_symmetry_space_group_name_H-M   'P 1'
_cell_length_a   5.58708496
_cell_length_b   9.70640051
_cell_length_c   13.69731704
_cell_angle_alpha   89.62256065
_cell_angle_beta   90.00209087
_cell_angle_gamma   90.00761821
_symmetry_Int_Tables_number   1
_chemical_formula_structural   GdTa3O9
_chemical_formula_sum   'Gd4 Ta12 O36'
_cell_volume   742.79601254
_cell_formula_units_Z   4
loop_
 _symmetry_equiv_pos_site_id
 _symmetry_equiv_pos_as_xyz
  1  'x, y, z'
loop_
 _atom_site_type_symbol
 _atom_site_label
 _atom_site_symmetry_multiplicity
 _atom_site_fract_x
 _atom_site_fract_y
 _atom_site_fract_z
 _atom_site_occupancy
  Gd  Gd0  1  0.27498592  0.91644245  0.08179164  1
  Gd  Gd1  1  0.27651827  0.57438915  0.42620954  1
  Gd  Gd2  1  0.72348173  0.42561085  0.57379046  1
  Gd  Gd3  1  0.72501408  0.08355755  0.91820836  1
  Ta  Ta4  1  0.74742742  0.08449605  0.66683414  1
  Ta  Ta5  1  0.75434157  0.73899269  0.99857457  1
  Ta  Ta6  1  0.75360844  0.41517868  0.32559987  1
  Ta  Ta7  1  0.24526114  0.91588828  0.82783133  1
  Ta  Ta8  1  0.25217523  0.58317187  0.16611867  1
  Ta  Ta9  1  0.24642850  0.23657285  0.49908685  1
  Ta  Ta10  1  0.75357150  0.76342715  0.50091315  1
  Ta  Ta11  1  0.74782477  0.41682813  0.83388133  1
  Ta  Ta12  1  0.75473886  0.08411172  0.17216867  1
  Ta  Ta13  1  0.24639156  0.58482132  0.67440013  1
  Ta  Ta14  1  0.24565843  0.26100731  0.00142543  1
  Ta  Ta15  1  0.25257258  0.91550395  0.33316586  1
  O  O16  1  0.73044582  0.57527968  0.42495149  1
  O  O17  1  0.75510991  0.24898720  0.75101834  1
  O  O18  1  0.74486289  0.92602075  0.07371216  1
  O  O19  1  0.25513711  0.07397925  0.92628784  1
  O  O20  1  0.24489009  0.75101280  0.24898166  1
  O  O21  1  0.26955418  0.42472032  0.57504851  1
  O  O22  1  0.51262387  0.01268288  0.76423496  1
  O  O23  1  0.48808069  0.68934871  0.08681766  1
  O  O24  1  0.49983577  0.35202696  0.42599121  1
  O  O25  1  0.50016423  0.64797304  0.57400879  1
  O  O26  1  0.51191931  0.31065129  0.91318234  1
  O  O27  1  0.48737613  0.98731712  0.23576504  1
  O  O28  1  0.00030981  0.84793283  0.92440071  1
  O  O29  1  0.00764069  0.50799812  0.25804417  1
  O  O30  1  0.99259023  0.17943275  0.58506523  1
  O  O31  1  0.99235931  0.49200188  0.74195583  1
  O  O32  1  0.99969019  0.15206717  0.07559929  1
  O  O33  1  0.00740977  0.82056725  0.41493477  1
  O  O34  1  0.74266291  0.91611141  0.58719520  1
  O  O35  1  0.74349583  0.58010427  0.91689696  1
  O  O36  1  0.74500218  0.24755340  0.25226915  1
  O  O37  1  0.25499782  0.75244660  0.74773085  1
  O  O38  1  0.25650417  0.41989573  0.08310304  1
  O  O39  1  0.25733709  0.08388859  0.41280480  1
  O  O40  1  0.01048407  0.68322599  0.08555106  1
  O  O41  1  0.00032193  0.35663197  0.42832756  1
  O  O42  1  0.98957820  0.00853829  0.75986313  1
  O  O43  1  0.49973188  0.14843613  0.07380327  1
  O  O44  1  0.48706350  0.81497961  0.41521806  1
  O  O45  1  0.51307535  0.49110808  0.73850817  1
  O  O46  1  0.98951593  0.31677401  0.91444894  1
  O  O47  1  0.01042180  0.99146171  0.24013687  1
  O  O48  1  0.99967807  0.64336803  0.57167244  1
  O  O49  1  0.48692465  0.50889192  0.26149183  1
  O  O50  1  0.51293650  0.18502039  0.58478194  1
  O  O51  1  0.50026812  0.85156387  0.92619673  1
