# generated using pymatgen
data_La9Mn5S21
_symmetry_space_group_name_H-M   'P 1'
_cell_length_a   11.82494944
_cell_length_b   11.82481756
_cell_length_c   11.82454825
_cell_angle_alpha   97.82362228
_cell_angle_beta   82.18614559
_cell_angle_gamma   82.18402864
_symmetry_Int_Tables_number   1
_chemical_formula_structural   La9Mn5S21
_chemical_formula_sum   'La18 Mn10 S42'
_cell_volume   1602.57089946
_cell_formula_units_Z   2
loop_
 _symmetry_equiv_pos_site_id
 _symmetry_equiv_pos_as_xyz
  1  'x, y, z'
loop_
 _atom_site_type_symbol
 _atom_site_label
 _atom_site_symmetry_multiplicity
 _atom_site_fract_x
 _atom_site_fract_y
 _atom_site_fract_z
 _atom_site_occupancy
  La  La0  1  0.24919360  0.11951534  0.88587194  1
  La  La1  1  0.92025258  0.45567813  0.21880784  1
  La  La2  1  0.58666476  0.78171541  0.55012280  1
  La  La3  1  0.44990471  0.41331164  0.78169943  1
  La  La4  1  0.11410513  0.75087789  0.11956865  1
  La  La5  1  0.78119088  0.07975413  0.45566880  1
  La  La6  1  0.54435588  0.21888249  0.07977342  1
  La  La7  1  0.21827664  0.55010460  0.41332105  1
  La  La8  1  0.88048299  0.88584188  0.75077618  1
  La  La9  1  0.41286420  0.21799794  0.45117092  1
  La  La10  1  0.07628728  0.54749064  0.78398062  1
  La  La11  1  0.74965762  0.88208890  0.11406540  1
  La  La12  1  0.21602060  0.92364150  0.54747789  1
  La  La13  1  0.88587792  0.25045760  0.88214631  1
  La  La14  1  0.54880929  0.58711957  0.21795935  1
  La  La15  1  0.11790897  0.11407644  0.25036533  1
  La  La16  1  0.78204925  0.45120866  0.58714971  1
  La  La17  1  0.45251716  0.78400135  0.92365790  1
  Mn  Mn18  1  0.94671042  0.71934488  0.38789657  1
  Mn  Mn19  1  0.61210998  0.05330494  0.71928229  1
  Mn  Mn20  1  0.28077472  0.38773132  0.05314408  1
  Mn  Mn21  1  0.44675703  0.88670335  0.22065968  1
  Mn  Mn22  1  0.11333217  0.22070790  0.55329743  1
  Mn  Mn23  1  0.77930422  0.55342463  0.88668820  1
  Mn  Mn24  1  0.15342901  0.84646160  0.84634684  1
  Mn  Mn25  1  0.83354760  0.16636552  0.16651637  1
  Mn  Mn26  1  0.33367656  0.66618321  0.66656886  1
  Mn  Mn27  1  0.65352831  0.34625396  0.34636199  1
  S  S28  1  0.69001022  0.54460955  0.39396231  1
  S  S29  1  0.34588386  0.87930979  0.73632452  1
  S  S30  1  0.01081504  0.22194978  0.07585495  1
  S  S31  1  0.92419735  0.98914152  0.22194333  1
  S  S32  1  0.60602726  0.30999966  0.54470623  1
  S  S33  1  0.26368854  0.65414156  0.87922331  1
  S  S34  1  0.12071736  0.73632098  0.65412110  1
  S  S35  1  0.77805757  0.07585434  0.98922710  1
  S  S36  1  0.45534634  0.39397899  0.30998553  1
  S  S37  1  0.64111696  0.13387012  0.27713936  1
  S  S38  1  0.29763648  0.46908015  0.61519170  1
  S  S39  1  0.97769952  0.78783114  0.93858970  1
  S  S40  1  0.38479553  0.70232282  0.46918542  1
  S  S41  1  0.06143571  0.02227129  0.78784145  1
  S  S42  1  0.72285033  0.35887997  0.13380231  1
  S  S43  1  0.21217956  0.93857499  0.02227018  1
  S  S44  1  0.86615273  0.27711068  0.35881319  1
  S  S45  1  0.53090527  0.61521120  0.70235724  1
  S  S46  1  0.82060242  0.84472558  0.51558038  1
  S  S47  1  0.48449196  0.17929582  0.84463622  1
  S  S48  1  0.15553595  0.51549520  0.17914831  1
  S  S49  1  0.65458210  0.67891556  0.01588431  1
  S  S50  1  0.32118505  0.01575051  0.34528782  1
  S  S51  1  0.98417448  0.34534617  0.67891610  1
  S  S52  1  0.97174663  0.54677545  0.44973711  1
  S  S53  1  0.63443321  0.88125366  0.78153409  1
  S  S54  1  0.29907350  0.21309526  0.11287810  1
  S  S55  1  0.88710702  0.70094973  0.21322275  1
  S  S56  1  0.55021469  0.02832562  0.54683672  1
  S  S57  1  0.21847959  0.36552894  0.88112366  1
  S  S58  1  0.11882827  0.78143986  0.36554297  1
  S  S59  1  0.78686161  0.11286839  0.70093136  1
  S  S60  1  0.45306905  0.44982095  0.02835962  1
  S  S61  1  0.51625838  0.97125835  0.07141652  1
  S  S62  1  0.18026018  0.30402503  0.40192838  1
  S  S63  1  0.84451413  0.63802766  0.73514937  1
  S  S64  1  0.59801672  0.81982408  0.30408117  1
  S  S65  1  0.26482981  0.15546771  0.63797358  1
  S  S66  1  0.92855076  0.48379340  0.97123592  1
  S  S67  1  0.36200929  0.73520503  0.15546727  1
  S  S68  1  0.02881038  0.07142615  0.48375153  1
  S  S69  1  0.69592572  0.40201595  0.81982598  1
