# generated using pymatgen
data_La2In11Ni15
_symmetry_space_group_name_H-M   'P 1'
_cell_length_a   7.99764104
_cell_length_b   8.77376657
_cell_length_c   8.77376657
_cell_angle_alpha   89.27870128
_cell_angle_beta   117.34507386
_cell_angle_gamma   62.65492614
_symmetry_Int_Tables_number   1
_chemical_formula_structural   La2In11Ni15
_chemical_formula_sum   'La2 In11 Ni15'
_cell_volume   465.83493301
_cell_formula_units_Z   1
loop_
 _symmetry_equiv_pos_site_id
 _symmetry_equiv_pos_as_xyz
  1  'x, y, z'
loop_
 _atom_site_type_symbol
 _atom_site_label
 _atom_site_symmetry_multiplicity
 _atom_site_fract_x
 _atom_site_fract_y
 _atom_site_fract_z
 _atom_site_occupancy
  La  La0  1  -0.00026328  0.74885094  0.74305369  1
  La  La1  1  -0.00026328  0.25694631  0.25114906  1
  In  In2  1  0.87063919  0.93440546  0.33434638  1
  In  In3  1  0.13513754  0.33188770  0.94663938  1
  In  In4  1  0.50517683  0.18203794  0.55115733  1
  In  In5  1  0.47968264  0.55290481  0.16817044  1
  In  In6  1  0.13513754  0.05336062  0.66811230  1
  In  In7  1  0.87063919  0.66565362  0.06559454  1
  In  In8  1  0.47968264  0.83182956  0.44709519  1
  In  In9  1  0.50517683  0.44884267  0.81796206  1
  In  In10  1  0.87854606  0.46054882  0.53945118  1
  In  In11  1  0.78058450  0.04371104  0.95628896  1
  In  In12  1  0.22058058  0.95462838  0.04537162  1
  Ni  Ni13  1  0.71296401  0.58408188  0.76003755  1
  Ni  Ni14  1  0.28615317  0.75686108  0.58210785  1
  Ni  Ni15  1  0.46284614  0.73891300  0.91498772  1
  Ni  Ni16  1  0.54156029  0.91468347  0.74293646  1
  Ni  Ni17  1  0.28615317  0.41789215  0.24313892  1
  Ni  Ni18  1  0.71296401  0.23996245  0.41591812  1
  Ni  Ni19  1  0.54156029  0.25706354  0.08531653  1
  Ni  Ni20  1  0.46284614  0.08501228  0.26108700  1
  Ni  Ni21  1  0.31239038  0.26182541  0.73817459  1
  Ni  Ni22  1  0.68874740  0.73695214  0.26304786  1
  Ni  Ni23  1  0.16624273  0.75555854  0.24444146  1
  Ni  Ni24  1  0.83492330  0.24057773  0.75942227  1
  Ni  Ni25  1  0.50031001  0.99933886  0.00066114  1
  Ni  Ni26  1  0.49456295  0.49954927  0.50045073  1
  Ni  Ni27  1  0.13531904  0.54612033  0.45387967  1
