# generated using pymatgen
data_Fe46(BC3)3
_symmetry_space_group_name_H-M   'P 1'
_cell_length_a   7.43726560
_cell_length_b   7.42904208
_cell_length_c   12.86485672
_cell_angle_alpha   73.37199088
_cell_angle_beta   90.05475194
_cell_angle_gamma   119.98557426
_symmetry_Int_Tables_number   1
_chemical_formula_structural   Fe46(BC3)3
_chemical_formula_sum   'Fe46 B3 C9'
_cell_volume   581.21361608
_cell_formula_units_Z   1
loop_
 _symmetry_equiv_pos_site_id
 _symmetry_equiv_pos_as_xyz
  1  'x, y, z'
loop_
 _atom_site_type_symbol
 _atom_site_label
 _atom_site_symmetry_multiplicity
 _atom_site_fract_x
 _atom_site_fract_y
 _atom_site_fract_z
 _atom_site_occupancy
  Fe  Fe0  1  0.66051586  0.00019217  0.00015080  1
  Fe  Fe1  1  0.15584846  0.99689218  0.50204431  1
  Fe  Fe2  1  0.82542028  0.99692291  0.17036069  1
  Fe  Fe3  1  0.32443221  0.99581650  0.67171719  1
  Fe  Fe4  1  0.99820678  0.34288327  0.99773104  1
  Fe  Fe5  1  0.50012389  0.34624793  0.50008251  1
  Fe  Fe6  1  0.83060642  0.66139628  0.16926136  1
  Fe  Fe7  1  0.33076265  0.66158907  0.66955917  1
  Fe  Fe8  1  0.66241092  0.66254973  0.99979466  1
  Fe  Fe9  1  0.16171313  0.66179197  0.50053328  1
  Fe  Fe10  1  0.99963762  0.66205666  0.00016033  1
  Fe  Fe11  1  0.49984253  0.66361568  0.50022256  1
  Fe  Fe12  1  0.67531763  0.34321056  0.32907574  1
  Fe  Fe13  1  0.16964259  0.33959152  0.83065802  1
  Fe  Fe14  1  0.66935262  0.00073728  0.33060357  1
  Fe  Fe15  1  0.16899108  0.00023787  0.83156743  1
  Fe  Fe16  1  0.32918544  0.99593157  0.32950377  1
  Fe  Fe17  1  0.83121046  0.00046968  0.83130533  1
  Fe  Fe18  1  0.33969824  0.00044235  0.00027782  1
  Fe  Fe19  1  0.83832529  0.00063991  0.50006757  1
  Fe  Fe20  1  0.84432324  0.34300034  0.49823521  1
  Fe  Fe21  1  0.34438356  0.34287713  0.99764724  1
  Fe  Fe22  1  0.17083464  0.99635495  0.17077328  1
  Fe  Fe23  1  0.67092088  0.99582297  0.67084080  1
  Fe  Fe24  1  0.42927141  0.38506960  0.18968676  1
  Fe  Fe25  1  0.92752129  0.38406293  0.69250359  1
  Fe  Fe26  1  0.42439602  0.84833561  0.19133727  1
  Fe  Fe27  1  0.92310142  0.84718152  0.69306641  1
  Fe  Fe28  1  0.19093140  0.38503271  0.42493735  1
  Fe  Fe29  1  0.69235829  0.38493104  0.92346913  1
  Fe  Fe30  1  0.95769710  0.38476476  0.19121347  1
  Fe  Fe31  1  0.45681923  0.38450470  0.69289310  1
  Fe  Fe32  1  0.07756374  0.61593618  0.30729290  1
  Fe  Fe33  1  0.57658737  0.61611877  0.80833598  1
  Fe  Fe34  1  0.07030509  0.14509744  0.30937601  1
  Fe  Fe35  1  0.57402520  0.14810595  0.81037526  1
  Fe  Fe36  1  0.30968592  0.61959225  0.07413040  1
  Fe  Fe37  1  0.80911141  0.61871854  0.57567938  1
  Fe  Fe38  1  0.54236159  0.61986572  0.30747642  1
  Fe  Fe39  1  0.03905717  0.61573793  0.80842724  1
  Fe  Fe40  1  0.00245270  0.00476882  0.00266328  1
  Fe  Fe41  1  0.50010145  0.01002333  0.49988865  1
  Fe  Fe42  1  0.62527804  0.24852970  0.12445912  1
  Fe  Fe43  1  0.12433731  0.24811470  0.62546905  1
  Fe  Fe44  1  0.87493712  0.74790707  0.37489939  1
  Fe  Fe45  1  0.37453355  0.74959544  0.87419608  1
  B  B46  1  0.13691711  0.27361209  0.13623760  1
  B  B47  1  0.63700371  0.27271809  0.63781802  1
  B  B48  1  0.36260994  0.27313007  0.36246307  1
  C  C49  1  0.86016715  0.27732123  0.86054612  1
  C  C50  1  0.58240183  0.72092831  0.13833971  1
  C  C51  1  0.08136488  0.71933925  0.63959282  1
  C  C52  1  0.36113425  0.72077659  0.36152682  1
  C  C53  1  0.86134771  0.72252133  0.86154106  1
  C  C54  1  0.13856870  0.72120169  0.13821696  1
  C  C55  1  0.63875727  0.72063494  0.63875317  1
  C  C56  1  0.91862639  0.27748448  0.36043888  1
  C  C57  1  0.41696085  0.27706676  0.86057586  1
