# generated using pymatgen
data_Er9Ge4S21
_symmetry_space_group_name_H-M   'P 1'
_cell_length_a   11.35398748
_cell_length_b   11.35418313
_cell_length_c   11.35401597
_cell_angle_alpha   95.34338141
_cell_angle_beta   84.65660331
_cell_angle_gamma   84.65569100
_symmetry_Int_Tables_number   1
_chemical_formula_structural   Er9Ge4S21
_chemical_formula_sum   'Er18 Ge8 S42'
_cell_volume   1443.33938096
_cell_formula_units_Z   2
loop_
 _symmetry_equiv_pos_site_id
 _symmetry_equiv_pos_as_xyz
  1  'x, y, z'
loop_
 _atom_site_type_symbol
 _atom_site_label
 _atom_site_symmetry_multiplicity
 _atom_site_fract_x
 _atom_site_fract_y
 _atom_site_fract_z
 _atom_site_occupancy
  Er  Er0  1  0.92721142  0.29257263  0.43814485  1
  Er  Er1  1  0.58025308  0.62900048  0.76782373  1
  Er  Er2  1  0.25133801  0.96685066  0.11273256  1
  Er  Er3  1  0.23217368  0.41972829  0.62900891  1
  Er  Er4  1  0.88727802  0.74865530  0.96683910  1
  Er  Er5  1  0.56187103  0.07279483  0.29257673  1
  Er  Er6  1  0.03315070  0.11271556  0.74865270  1
  Er  Er7  1  0.70743114  0.43811625  0.07278637  1
  Er  Er8  1  0.37100429  0.76780882  0.41973354  1
  Er  Er9  1  0.70891341  0.08240496  0.94314734  1
  Er  Er10  1  0.36315925  0.41820197  0.27265474  1
  Er  Er11  1  0.03696910  0.74345331  0.59773615  1
  Er  Er12  1  0.40227668  0.96302770  0.74346239  1
  Er  Er13  1  0.05682780  0.29106220  0.08240442  1
  Er  Er14  1  0.72734274  0.63681102  0.41817623  1
  Er  Er15  1  0.58180614  0.27267591  0.63681062  1
  Er  Er16  1  0.25654154  0.59774912  0.96301645  1
  Er  Er17  1  0.91759798  0.94316254  0.29106975  1
  Ge  Ge18  1  0.70264903  0.96296743  0.62998418  1
  Ge  Ge19  1  0.37001211  0.29736594  0.96295589  1
  Ge  Ge20  1  0.03704136  0.62999477  0.29734776  1
  Ge  Ge21  1  0.53666563  0.79744079  0.12953688  1
  Ge  Ge22  1  0.20257106  0.12952231  0.46335875  1
  Ge  Ge23  1  0.87047011  0.46333949  0.79743829  1
  Ge  Ge24  1  0.16363686  0.83634685  0.83634356  1
  Ge  Ge25  1  0.66374936  0.33625356  0.33626624  1
  S  S26  1  0.53688474  0.71972538  0.56897825  1
  S  S27  1  0.20474257  0.04352841  0.89858988  1
  S  S28  1  0.86537644  0.38864114  0.23826839  1
  S  S29  1  0.76173965  0.13463401  0.38864306  1
  S  S30  1  0.43101863  0.46312013  0.71973326  1
  S  S31  1  0.10139853  0.79525892  0.04352838  1
  S  S32  1  0.95648056  0.89859307  0.79525444  1
  S  S33  1  0.61135079  0.23825487  0.13462719  1
  S  S34  1  0.28026511  0.56898541  0.46312395  1
  S  S35  1  0.79517144  0.94827086  0.09910519  1
  S  S36  1  0.47028343  0.28141620  0.42603739  1
  S  S37  1  0.12693397  0.61893652  0.76935485  1
  S  S38  1  0.57396307  0.52970518  0.28141473  1
  S  S39  1  0.23064565  0.87306185  0.61894454  1
  S  S40  1  0.90087783  0.20483274  0.94827768  1
  S  S41  1  0.38106955  0.76936142  0.87306608  1
  S  S42  1  0.05172722  0.09912721  0.20482227  1
  S  S43  1  0.71858739  0.42603280  0.52971378  1
  S  S44  1  0.82931901  0.84052492  0.50382604  1
  S  S45  1  0.49616951  0.17068700  0.84049852  1
  S  S46  1  0.15947069  0.50384375  0.17068144  1
  S  S47  1  0.65965494  0.67091212  0.00374763  1
  S  S48  1  0.32907534  0.00371250  0.34034794  1
  S  S49  1  0.99625996  0.34034653  0.67093948  1
  S  S50  1  0.35559074  0.73823068  0.17009083  1
  S  S51  1  0.02029501  0.07288660  0.50227923  1
  S  S52  1  0.68704649  0.40695555  0.83107551  1
  S  S53  1  0.49771522  0.97973227  0.07289574  1
  S  S54  1  0.16893156  0.31293520  0.40694427  1
  S  S55  1  0.82991014  0.64440787  0.73822706  1
  S  S56  1  0.59306208  0.83108796  0.31296202  1
  S  S57  1  0.26178205  0.17009921  0.64443507  1
  S  S58  1  0.92711261  0.50227151  0.97971185  1
  S  S59  1  0.10984804  0.79745633  0.36473519  1
  S  S60  1  0.77750616  0.12739047  0.70241820  1
  S  S61  1  0.44416321  0.46260063  0.03544495  1
  S  S62  1  0.96454858  0.55582780  0.46259446  1
  S  S63  1  0.63527377  0.89015472  0.79745945  1
  S  S64  1  0.29757709  0.22248823  0.12738508  1
  S  S65  1  0.87260923  0.70241995  0.22249670  1
  S  S66  1  0.53740586  0.03545069  0.55583066  1
  S  S67  1  0.20254864  0.36473468  0.89014725  1
