# generated using pymatgen
data_CsMnVF6
_symmetry_space_group_name_H-M   'P 1'
_cell_length_a   7.64093573
_cell_length_b   7.64527406
_cell_length_c   7.56365926
_cell_angle_alpha   90.00000000
_cell_angle_beta   60.33399119
_cell_angle_gamma   120.01878361
_symmetry_Int_Tables_number   1
_chemical_formula_structural   CsMnVF6
_chemical_formula_sum   'Cs2 Mn2 V2 F12'
_cell_volume   313.91243565
_cell_formula_units_Z   2
loop_
 _symmetry_equiv_pos_site_id
 _symmetry_equiv_pos_as_xyz
  1  'x, y, z'
loop_
 _atom_site_type_symbol
 _atom_site_label
 _atom_site_symmetry_multiplicity
 _atom_site_fract_x
 _atom_site_fract_y
 _atom_site_fract_z
 _atom_site_occupancy
  Cs  Cs0  1  0.75820148  0.37910074  0.37089926  1
  Cs  Cs1  1  0.24179852  0.62089926  0.62910074  1
  Mn  Mn2  1  0.50000000  0.50000000  -0.00000000  1
  Mn  Mn3  1  0.50000000  0.00000000  -0.00000000  1
  V  V4  1  0.00000000  0.00000000  0.50000000  1
  V  V5  1  0.00000000  0.00000000  -0.00000000  1
  F  F6  1  0.88382943  0.94191472  0.30808528  1
  F  F7  1  0.65412547  0.32706274  0.92293726  1
  F  F8  1  0.24136726  0.93523983  0.92553198  1
  F  F9  1  0.24136726  0.30612743  0.33310076  1
  F  F10  1  0.24136726  0.30612743  0.92553198  1
  F  F11  1  0.24136726  0.93523983  0.33310076  1
  F  F12  1  0.11617057  0.05808528  0.69191472  1
  F  F13  1  0.34587453  0.67293726  0.07706274  1
  F  F14  1  0.75863274  0.06476017  0.07446802  1
  F  F15  1  0.75863274  0.69387257  0.66689924  1
  F  F16  1  0.75863274  0.69387257  0.07446802  1
  F  F17  1  0.75863274  0.06476017  0.66689924  1
