# generated using pymatgen
data_CsBa2Ni2F9
_symmetry_space_group_name_H-M   'P 1'
_cell_length_a   5.93013464
_cell_length_b   5.93013473
_cell_length_c   7.97784078
_cell_angle_alpha   68.18179130
_cell_angle_beta   111.81820860
_cell_angle_gamma   120.00000054
_symmetry_Int_Tables_number   1
_chemical_formula_structural   CsBa2Ni2F9
_chemical_formula_sum   'Cs1 Ba2 Ni2 F9'
_cell_volume   219.45368831
_cell_formula_units_Z   1
loop_
 _symmetry_equiv_pos_site_id
 _symmetry_equiv_pos_as_xyz
  1  'x, y, z'
loop_
 _atom_site_type_symbol
 _atom_site_label
 _atom_site_symmetry_multiplicity
 _atom_site_fract_x
 _atom_site_fract_y
 _atom_site_fract_z
 _atom_site_occupancy
  Cs  Cs0  1  0.78714869  0.21285131  0.36144608  1
  Ba  Ba1  1  0.00143612  0.99856388  0.00430836  1
  Ba  Ba2  1  0.20593312  0.79406688  0.61779936  1
  Ni  Ni3  1  0.61266610  0.38733390  0.83799830  1
  Ni  Ni4  1  0.39138773  0.60861227  0.17416318  1
  F  F5  1  0.01001346  0.50858259  0.99284828  1
  F  F6  1  0.49141741  0.98998654  0.99284828  1
  F  F7  1  0.49141741  0.50858259  0.99284828  1
  F  F8  1  0.73310525  0.26689475  0.69958590  1
  F  F9  1  0.23337539  0.26689475  0.69958590  1
  F  F10  1  0.73310525  0.76662461  0.69958590  1
  F  F11  1  0.26645015  0.73354985  0.30899407  1
  F  F12  1  0.77609377  0.73354985  0.30899407  1
  F  F13  1  0.26645015  0.22390623  0.30899407  1
