# generated using pymatgen
data_CoNiAs2
_symmetry_space_group_name_H-M   'P 1'
_cell_length_a   3.61023827
_cell_length_b   3.61038703
_cell_length_c   5.00707181
_cell_angle_alpha   90.00000000
_cell_angle_beta   89.99644344
_cell_angle_gamma   59.99863688
_symmetry_Int_Tables_number   1
_chemical_formula_structural   CoNiAs2
_chemical_formula_sum   'Co1 Ni1 As2'
_cell_volume   56.51947403
_cell_formula_units_Z   1
loop_
 _symmetry_equiv_pos_site_id
 _symmetry_equiv_pos_as_xyz
  1  'x, y, z'
loop_
 _atom_site_type_symbol
 _atom_site_label
 _atom_site_symmetry_multiplicity
 _atom_site_fract_x
 _atom_site_fract_y
 _atom_site_fract_z
 _atom_site_occupancy
  Co  Co0  1  0.00000000  0.00000000  0.50000000  1
  Ni  Ni1  1  0.00000000  0.00000000  0.00000000  1
  As  As2  1  0.33332344  0.33333828  0.74025376  1
  As  As3  1  0.66667656  0.66666172  0.25974624  1
