# generated using pymatgen
data_Bi2IBr
_symmetry_space_group_name_H-M   'P 1'
_cell_length_a   4.36264787
_cell_length_b   7.97353455
_cell_length_c   31.13139998
_cell_angle_alpha   96.57405851
_cell_angle_beta   90.00000002
_cell_angle_gamma   74.12315180
_symmetry_Int_Tables_number   1
_chemical_formula_structural   Bi2IBr
_chemical_formula_sum   'Bi12 I6 Br6'
_cell_volume   1034.21168256
_cell_formula_units_Z   6
loop_
 _symmetry_equiv_pos_site_id
 _symmetry_equiv_pos_as_xyz
  1  'x, y, z'
loop_
 _atom_site_type_symbol
 _atom_site_label
 _atom_site_symmetry_multiplicity
 _atom_site_fract_x
 _atom_site_fract_y
 _atom_site_fract_z
 _atom_site_occupancy
  Bi  Bi0  1  0.35744972  0.28510056  0.33819929  1
  Bi  Bi1  1  0.64255028  0.71489944  0.66180071  1
  Bi  Bi2  1  0.34881803  0.30236395  0.23920966  1
  Bi  Bi3  1  0.65118197  0.69763605  0.76079034  1
  Bi  Bi4  1  0.68122955  0.63754090  0.99688147  1
  Bi  Bi5  1  0.31877045  0.36245910  0.00311853  1
  Bi  Bi6  1  0.01967825  0.96064351  0.42710865  1
  Bi  Bi7  1  0.98032175  0.03935649  0.57289135  1
  Bi  Bi8  1  0.99782190  0.00435620  0.32982850  1
  Bi  Bi9  1  0.00217810  0.99564380  0.67017150  1
  Bi  Bi10  1  0.61583482  0.76833036  0.09542987  1
  Bi  Bi11  1  0.38416518  0.23166964  0.90457013  1
  I  I12  1  0.24290434  0.51419132  0.12509073  1
  I  I13  1  0.75709566  0.48580868  0.87490927  1
  I  I14  1  0.70353041  0.59293919  0.25597577  1
  I  I15  1  0.29646959  0.40706081  0.74402423  1
  I  I16  1  0.98097497  0.03805007  0.07374634  1
  I  I17  1  0.01902503  0.96194993  0.92625366  1
  Br  Br18  1  0.64770145  0.70459710  0.40431236  1
  Br  Br19  1  0.35229855  0.29540290  0.59568764  1
  Br  Br20  1  0.97600701  0.04798598  0.21467352  1
  Br  Br21  1  0.02399299  0.95201402  0.78532648  1
  Br  Br22  1  0.39533617  0.20932766  0.45412670  1
  Br  Br23  1  0.60466383  0.79067234  0.54587330  1
