# generated using pymatgen
data_CeTh3Al2
_symmetry_space_group_name_H-M   'P 1'
_cell_length_a   6.15166373
_cell_length_b   6.13184520
_cell_length_c   6.13184520
_cell_angle_alpha   53.29523450
_cell_angle_beta   78.43344784
_cell_angle_gamma   101.56655216
_symmetry_Int_Tables_number   1
_chemical_formula_structural   CeTh3Al2
_chemical_formula_sum   'Ce1 Th3 Al2'
_cell_volume   165.87611500
_cell_formula_units_Z   1
loop_
 _symmetry_equiv_pos_site_id
 _symmetry_equiv_pos_as_xyz
  1  'x, y, z'
loop_
 _atom_site_type_symbol
 _atom_site_label
 _atom_site_symmetry_multiplicity
 _atom_site_fract_x
 _atom_site_fract_y
 _atom_site_fract_z
 _atom_site_occupancy
  Ce  Ce0  1  0.50000000  0.34418376  0.84418376  1
  Th  Th1  1  0.50000000  0.65361350  0.15361350  1
  Th  Th2  1  0.18812053  0.84402210  0.65590157  1
  Th  Th3  1  0.81187947  0.15590157  0.34402210  1
  Al  Al4  1  0.00000000  0.25113954  0.75113954  1
  Al  Al5  1  0.00000000  0.75113954  0.25113954  1
