# generated using pymatgen
data_Ce4Ga2S5O4
_symmetry_space_group_name_H-M   'P 1'
_cell_length_a   3.89321477
_cell_length_b   9.67314166
_cell_length_c   7.86217269
_cell_angle_alpha   101.52669315
_cell_angle_beta   89.79367192
_cell_angle_gamma   78.40468389
_symmetry_Int_Tables_number   1
_chemical_formula_structural   Ce4Ga2S5O4
_chemical_formula_sum   'Ce4 Ga2 S5 O4'
_cell_volume   283.89852679
_cell_formula_units_Z   1
loop_
 _symmetry_equiv_pos_site_id
 _symmetry_equiv_pos_as_xyz
  1  'x, y, z'
loop_
 _atom_site_type_symbol
 _atom_site_label
 _atom_site_symmetry_multiplicity
 _atom_site_fract_x
 _atom_site_fract_y
 _atom_site_fract_z
 _atom_site_occupancy
  Ce  Ce0  1  0.18933599  0.64413805  0.41546772  1
  Ce  Ce1  1  0.19168971  0.63325621  0.91961975  1
  Ce  Ce2  1  0.83193336  0.36075013  0.59315504  1
  Ce  Ce3  1  0.82764581  0.36204893  0.10615014  1
  Ga  Ga4  1  0.50745255  0.00023945  0.65347626  1
  Ga  Ga5  1  0.16790879  0.99982885  0.16195805  1
  S  S6  1  0.40043349  0.22490422  0.30743999  1
  S  S7  1  0.40220012  0.22059032  0.82775397  1
  S  S8  1  0.62108900  0.77897254  0.71727028  1
  S  S9  1  0.62455021  0.77675135  0.19002445  1
  S  S10  1  0.01386504  0.99745503  0.48795476  1
  O  O11  1  0.75605905  0.50733543  0.38490626  1
  O  O12  1  0.76247574  0.49443125  0.87927772  1
  O  O13  1  0.26059168  0.49956612  0.63088162  1
  O  O14  1  0.25876947  0.49973213  0.13266399  1
