# generated using pymatgen
data_Ca5BC4Cl3
_symmetry_space_group_name_H-M   'P 1'
_cell_length_a   3.87991090
_cell_length_b   7.28253006
_cell_length_c   18.75016049
_cell_angle_alpha   90.44141053
_cell_angle_beta   91.65725554
_cell_angle_gamma   74.55074486
_symmetry_Int_Tables_number   1
_chemical_formula_structural   Ca5BC4Cl3
_chemical_formula_sum   'Ca10 B2 C8 Cl6'
_cell_volume   510.43956885
_cell_formula_units_Z   2
loop_
 _symmetry_equiv_pos_site_id
 _symmetry_equiv_pos_as_xyz
  1  'x, y, z'
loop_
 _atom_site_type_symbol
 _atom_site_label
 _atom_site_symmetry_multiplicity
 _atom_site_fract_x
 _atom_site_fract_y
 _atom_site_fract_z
 _atom_site_occupancy
  Ca  Ca0  1  0.84415000  0.31170001  0.25000000  1
  Ca  Ca1  1  0.15585000  0.68829999  0.75000000  1
  Ca  Ca2  1  0.05148942  0.89248413  0.14106145  1
  Ca  Ca3  1  0.94851058  0.10751587  0.85893855  1
  Ca  Ca4  1  0.05602645  0.89248413  0.35893855  1
  Ca  Ca5  1  0.94397355  0.10751587  0.64106145  1
  Ca  Ca6  1  0.66018651  0.72615860  0.93670618  1
  Ca  Ca7  1  0.33981349  0.27384140  0.06329382  1
  Ca  Ca8  1  0.61365489  0.72615860  0.56329382  1
  Ca  Ca9  1  0.38634511  0.27384140  0.43670618  1
  B  B10  1  0.46549844  0.06900313  0.25000000  1
  B  B11  1  0.53450156  0.93099687  0.75000000  1
  C  C12  1  0.55050300  0.89977863  0.82651319  1
  C  C13  1  0.44949700  0.10022137  0.17348681  1
  C  C14  1  0.54971837  0.89977863  0.67348681  1
  C  C15  1  0.45028163  0.10022137  0.32651319  1
  C  C16  1  0.08782354  0.92241538  0.98712634  1
  C  C17  1  0.01023891  0.07758462  0.48712634  1
  C  C18  1  0.91217646  0.07758462  0.01287366  1
  C  C19  1  0.98976109  0.92241538  0.51287366  1
  Cl  Cl20  1  0.71445848  0.56842083  0.08504139  1
  Cl  Cl21  1  0.28554152  0.43157917  0.91495861  1
  Cl  Cl22  1  0.71712069  0.56842083  0.41495861  1
  Cl  Cl23  1  0.28287931  0.43157917  0.58504139  1
  Cl  Cl24  1  0.19328154  0.61343693  0.25000000  1
  Cl  Cl25  1  0.80671846  0.38656307  0.75000000  1
