# generated using pymatgen
data_Ce(PrS2)2
_symmetry_space_group_name_H-M   'P 1'
_cell_length_a   7.48548112
_cell_length_b   7.48548112
_cell_length_c   7.48548112
_cell_angle_alpha   70.51500677
_cell_angle_beta   70.55632105
_cell_angle_gamma   109.48499323
_symmetry_Int_Tables_number   1
_chemical_formula_structural   Ce(PrS2)2
_chemical_formula_sum   'Ce2 Pr4 S8'
_cell_volume   322.87706107
_cell_formula_units_Z   2
loop_
 _symmetry_equiv_pos_site_id
 _symmetry_equiv_pos_as_xyz
  1  'x, y, z'
loop_
 _atom_site_type_symbol
 _atom_site_label
 _atom_site_symmetry_multiplicity
 _atom_site_fract_x
 _atom_site_fract_y
 _atom_site_fract_z
 _atom_site_occupancy
  Ce  Ce0  1  0.37500000  0.25000000  0.37500000  1
  Ce  Ce1  1  0.12500000  0.75000000  0.12500000  1
  Pr  Pr2  1  0.87088630  0.62088630  0.75000000  1
  Pr  Pr3  1  0.62911370  0.87911370  0.25000000  1
  Pr  Pr4  1  0.75000000  0.12088630  0.62911370  1
  Pr  Pr5  1  0.25000000  0.37911370  0.87088630  1
  S  S6  1  0.85033290  0.35232334  0.15033226  1
  S  S7  1  0.49734440  0.14767666  0.00199045  1
  S  S8  1  0.64966710  0.49933485  0.49800955  1
  S  S9  1  0.00265560  0.00066515  0.34966774  1
  S  S10  1  0.49800955  0.64767666  0.00265560  1
  S  S11  1  0.34966774  0.85232334  0.64966710  1
  S  S12  1  0.15033226  0.50066515  0.49734440  1
  S  S13  1  0.00199045  0.99933485  0.85033290  1
