# generated using pymatgen
data_BaYZn3CoO7
_symmetry_space_group_name_H-M   'P 1'
_cell_length_a   6.42615497
_cell_length_b   6.42615497
_cell_length_c   10.37686926
_cell_angle_alpha   90.00000000
_cell_angle_beta   90.00000000
_cell_angle_gamma   119.99999335
_symmetry_Int_Tables_number   1
_chemical_formula_structural   BaYZn3CoO7
_chemical_formula_sum   'Ba2 Y2 Zn6 Co2 O14'
_cell_volume   371.10721297
_cell_formula_units_Z   2
loop_
 _symmetry_equiv_pos_site_id
 _symmetry_equiv_pos_as_xyz
  1  'x, y, z'
loop_
 _atom_site_type_symbol
 _atom_site_label
 _atom_site_symmetry_multiplicity
 _atom_site_fract_x
 _atom_site_fract_y
 _atom_site_fract_z
 _atom_site_occupancy
  Ba  Ba0  1  0.66666700  0.33333300  0.99413969  1
  Ba  Ba1  1  0.33333300  0.66666700  0.49413969  1
  Y  Y2  1  0.66666700  0.33333300  0.63258345  1
  Y  Y3  1  0.33333300  0.66666700  0.13258345  1
  Zn  Zn4  1  0.17021095  0.82978905  0.81625890  1
  Zn  Zn5  1  0.65957809  0.82978905  0.81625890  1
  Zn  Zn6  1  0.17021095  0.34042191  0.81625890  1
  Zn  Zn7  1  0.82978905  0.17021095  0.31625890  1
  Zn  Zn8  1  0.34042191  0.17021095  0.31625890  1
  Zn  Zn9  1  0.82978905  0.65957809  0.31625890  1
  Co  Co10  1  -0.00000000  -0.00000000  0.06665957  1
  Co  Co11  1  -0.00000000  -0.00000000  0.56665957  1
  O  O12  1  0.50438860  0.49561140  0.76160582  1
  O  O13  1  0.99122280  0.49561140  0.76160582  1
  O  O14  1  0.50438860  0.00877720  0.76160582  1
  O  O15  1  0.49561140  0.50438860  0.26160582  1
  O  O16  1  0.00877720  0.50438860  0.26160582  1
  O  O17  1  0.49561140  0.99122280  0.26160582  1
  O  O18  1  0.15995855  0.84004145  0.00999068  1
  O  O19  1  0.68008291  0.84004145  0.00999068  1
  O  O20  1  0.15995855  0.31991709  0.00999068  1
  O  O21  1  0.84004145  0.15995855  0.50999068  1
  O  O22  1  0.31991709  0.15995855  0.50999068  1
  O  O23  1  0.84004145  0.68008291  0.50999068  1
  O  O24  1  -0.00000000  -0.00000000  0.25205109  1
  O  O25  1  -0.00000000  -0.00000000  0.75205109  1
