# generated using pymatgen
data_CdGa4As4Se
_symmetry_space_group_name_H-M   'P 1'
_cell_length_a   4.11288778
_cell_length_b   4.11288778
_cell_length_c   17.14604259
_cell_angle_alpha   83.11153675
_cell_angle_beta   90.00000000
_cell_angle_gamma   120.00000000
_symmetry_Int_Tables_number   1
_chemical_formula_structural   CdGa4As4Se
_chemical_formula_sum   'Cd1 Ga4 As4 Se1'
_cell_volume   248.76137289
_cell_formula_units_Z   1
loop_
 _symmetry_equiv_pos_site_id
 _symmetry_equiv_pos_as_xyz
  1  'x, y, z'
loop_
 _atom_site_type_symbol
 _atom_site_label
 _atom_site_symmetry_multiplicity
 _atom_site_fract_x
 _atom_site_fract_y
 _atom_site_fract_z
 _atom_site_occupancy
  Cd  Cd0  1  0.99779230  0.99558461  0.00662309  1
  Ga  Ga1  1  0.59758468  0.19516936  0.20724595  1
  Ga  Ga2  1  0.19930638  0.39861277  0.40208085  1
  Ga  Ga3  1  0.80091603  0.60183207  0.59725190  1
  Ga  Ga4  1  0.40296990  0.80593980  0.79109030  1
  As  As5  1  0.94648683  0.89297367  0.16053950  1
  As  As6  1  0.54840899  0.09681799  0.35477302  1
  As  As7  1  0.15008499  0.30016998  0.54974503  1
  As  As8  1  0.75172618  0.50345235  0.74482147  1
  Se  Se9  1  0.35472370  0.70944740  0.93582890  1
