# generated using pymatgen
data_Ba5Co4PtClO13
_symmetry_space_group_name_H-M   'P 1'
_cell_length_a   5.81289192
_cell_length_b   5.81289192
_cell_length_c   25.29693818
_cell_angle_alpha   90.00000000
_cell_angle_beta   90.00000000
_cell_angle_gamma   120.09470928
_symmetry_Int_Tables_number   1
_chemical_formula_structural   Ba5Co4PtClO13
_chemical_formula_sum   'Ba10 Co8 Pt2 Cl2 O26'
_cell_volume   739.55048230
_cell_formula_units_Z   2
loop_
 _symmetry_equiv_pos_site_id
 _symmetry_equiv_pos_as_xyz
  1  'x, y, z'
loop_
 _atom_site_type_symbol
 _atom_site_label
 _atom_site_symmetry_multiplicity
 _atom_site_fract_x
 _atom_site_fract_y
 _atom_site_fract_z
 _atom_site_occupancy
  Ba  Ba0  1  0.66637525  0.33362475  0.87057571  1
  Ba  Ba1  1  0.33283224  0.66716776  0.13104459  1
  Ba  Ba2  1  0.33362475  0.66637525  0.37057571  1
  Ba  Ba3  1  0.66716776  0.33283224  0.63104459  1
  Ba  Ba4  1  0.00030679  0.99969321  0.75120257  1
  Ba  Ba5  1  0.99969321  0.00030679  0.25120257  1
  Ba  Ba6  1  0.66704250  0.33295750  0.45763670  1
  Ba  Ba7  1  0.33380875  0.66619125  0.53682360  1
  Ba  Ba8  1  0.33295750  0.66704250  0.95763670  1
  Ba  Ba9  1  0.66619125  0.33380875  0.03682360  1
  Co  Co10  1  0.66762743  0.33237257  0.32164438  1
  Co  Co11  1  0.33331896  0.66668104  0.67760769  1
  Co  Co12  1  0.33237257  0.66762743  0.82164438  1
  Co  Co13  1  0.66668104  0.33331896  0.17760769  1
  Co  Co14  1  0.00174976  0.99825024  0.89461936  1
  Co  Co15  1  0.99825024  0.00174976  0.39461936  1
  Co  Co16  1  0.00336443  0.99663557  0.49667725  1
  Co  Co17  1  0.99663557  0.00336443  0.99667725  1
  Pt  Pt18  1  0.99961072  0.00038928  0.10289572  1
  Pt  Pt19  1  0.00038928  0.99961072  0.60289572  1
  Cl  Cl20  1  0.66705837  0.33294163  0.75070472  1
  Cl  Cl21  1  0.33294163  0.66705837  0.25070472  1
  O  O22  1  0.67664913  0.83949279  0.85068160  1
  O  O23  1  0.16050721  0.32335087  0.85068160  1
  O  O24  1  0.16651131  0.83348869  0.84908487  1
  O  O25  1  0.31991768  0.16557745  0.15317737  1
  O  O26  1  0.83442255  0.68008232  0.15317737  1
  O  O27  1  0.84003838  0.15996162  0.15311347  1
  O  O28  1  0.32335087  0.16050721  0.35068160  1
  O  O29  1  0.83949279  0.67664913  0.35068160  1
  O  O30  1  0.83348869  0.16651131  0.34908487  1
  O  O31  1  0.68008232  0.83442255  0.65317737  1
  O  O32  1  0.16557745  0.31991768  0.65317737  1
  O  O33  1  0.15996162  0.84003838  0.65311347  1
  O  O34  1  0.30343239  0.15028053  0.94729621  1
  O  O35  1  0.84971947  0.69656761  0.94729621  1
  O  O36  1  0.84737186  0.15262814  0.95197548  1
  O  O37  1  0.69025664  0.84295115  0.05145918  1
  O  O38  1  0.15704885  0.30974336  0.05145918  1
  O  O39  1  0.14962019  0.85037981  0.04891590  1
  O  O40  1  0.69656761  0.84971947  0.44729621  1
  O  O41  1  0.15028053  0.30343239  0.44729621  1
  O  O42  1  0.15262814  0.84737186  0.45197548  1
  O  O43  1  0.30974336  0.15704885  0.55145918  1
  O  O44  1  0.84295115  0.69025664  0.55145918  1
  O  O45  1  0.85037981  0.14962019  0.54891590  1
  O  O46  1  0.66525456  0.33474544  0.25024927  1
  O  O47  1  0.33474544  0.66525456  0.75024927  1
