# generated using pymatgen
data_Bi10Te2Br4O17
_symmetry_space_group_name_H-M   'P 1'
_cell_length_a   5.60373603
_cell_length_b   5.60373603
_cell_length_c   19.37260617
_cell_angle_alpha   81.68705150
_cell_angle_beta   81.68705150
_cell_angle_gamma   90.01971525
_symmetry_Int_Tables_number   1
_chemical_formula_structural   Bi10Te2Br4O17
_chemical_formula_sum   'Bi10 Te2 Br4 O17'
_cell_volume   595.47931135
_cell_formula_units_Z   1
loop_
 _symmetry_equiv_pos_site_id
 _symmetry_equiv_pos_as_xyz
  1  'x, y, z'
loop_
 _atom_site_type_symbol
 _atom_site_label
 _atom_site_symmetry_multiplicity
 _atom_site_fract_x
 _atom_site_fract_y
 _atom_site_fract_z
 _atom_site_occupancy
  Bi  Bi0  1  0.24774141  0.24775578  0.50445700  1
  Bi  Bi1  1  0.74775578  0.74774141  0.50445700  1
  Bi  Bi2  1  0.43193402  0.93193402  0.13618328  1
  Bi  Bi3  1  0.93182806  0.43182806  0.13636541  1
  Bi  Bi4  1  0.31643076  0.81643076  0.36713272  1
  Bi  Bi5  1  0.81190340  0.31190340  0.37614087  1
  Bi  Bi6  1  0.50130114  0.50130360  0.99740405  1
  Bi  Bi7  1  0.00130360  0.00130114  0.99740405  1
  Bi  Bi8  1  0.06881398  0.56881398  0.86242666  1
  Bi  Bi9  1  0.56918549  0.06918549  0.86172563  1
  Te  Te10  1  0.17504621  0.67504621  0.64989265  1
  Te  Te11  1  0.68744649  0.18744649  0.62503628  1
  Br  Br12  1  0.36739014  0.36739016  0.26528283  1
  Br  Br13  1  0.86739016  0.86739014  0.26528283  1
  Br  Br14  1  0.11936002  0.11935692  0.76121804  1
  Br  Br15  1  0.61935692  0.61936002  0.76121804  1
  O  O16  1  0.70980097  0.70975801  0.08041991  1
  O  O17  1  0.20975801  0.20980097  0.08041991  1
  O  O18  1  0.52681520  0.54215727  0.43102508  1
  O  O19  1  0.04215727  0.02681520  0.43102508  1
  O  O20  1  0.42926583  0.92926583  0.60091264  1
  O  O21  1  0.96982450  0.46982450  0.60091055  1
  O  O22  1  0.52706098  0.02706098  0.43094480  1
  O  O23  1  0.04198805  0.54198805  0.43095291  1
  O  O24  1  0.28906288  0.78906288  0.92204649  1
  O  O25  1  0.78890825  0.28890825  0.92204751  1
  O  O26  1  0.70988794  0.20988794  0.08027345  1
  O  O27  1  0.20982604  0.70982604  0.08027403  1
  O  O28  1  0.42990784  0.46865358  0.60143215  1
  O  O29  1  0.96865358  0.92990784  0.60143215  1
  O  O30  1  0.73694632  0.23694632  0.52609418  1
  O  O31  1  0.78892313  0.78902565  0.92208091  1
  O  O32  1  0.28902565  0.28892313  0.92208091  1
