# generated using pymatgen
data_BaMn2Ru4O11
_symmetry_space_group_name_H-M   'P 1'
_cell_length_a   6.03100932
_cell_length_b   6.06593354
_cell_length_c   13.58711040
_cell_angle_alpha   90.05363126
_cell_angle_beta   89.96172536
_cell_angle_gamma   120.11553071
_symmetry_Int_Tables_number   1
_chemical_formula_structural   BaMn2Ru4O11
_chemical_formula_sum   'Ba2 Mn4 Ru8 O22'
_cell_volume   429.97025600
_cell_formula_units_Z   2
loop_
 _symmetry_equiv_pos_site_id
 _symmetry_equiv_pos_as_xyz
  1  'x, y, z'
loop_
 _atom_site_type_symbol
 _atom_site_label
 _atom_site_symmetry_multiplicity
 _atom_site_fract_x
 _atom_site_fract_y
 _atom_site_fract_z
 _atom_site_occupancy
  Ba  Ba0  1  0.66560492  0.33244167  0.75005364  1
  Ba  Ba1  1  0.33439508  0.66755833  0.24994636  1
  Mn  Mn2  1  0.66938686  0.33504410  0.25048370  1
  Mn  Mn3  1  0.33061314  0.66495590  0.74951630  1
  Mn  Mn4  1  0.50000000  0.00000000  0.50000000  1
  Mn  Mn5  1  0.50000000  0.50000000  0.00000000  1
  Ru  Ru6  1  0.50000000  0.50000000  0.50000000  1
  Ru  Ru7  1  -0.00000000  0.50000000  0.50000000  1
  Ru  Ru8  1  0.50000000  0.00000000  0.00000000  1
  Ru  Ru9  1  -0.00000000  0.50000000  0.00000000  1
  Ru  Ru10  1  0.00276289  0.00673673  0.64863612  1
  Ru  Ru11  1  0.99723711  0.99326327  0.35136388  1
  Ru  Ru12  1  0.99740185  0.00414323  0.14851762  1
  Ru  Ru13  1  0.00259815  0.99585677  0.85148238  1
  O  O14  1  0.14490938  0.28646148  0.75255548  1
  O  O15  1  0.14554710  0.85853038  0.74751806  1
  O  O16  1  0.71134724  0.85594977  0.74988181  1
  O  O17  1  0.85509062  0.71353852  0.24744452  1
  O  O18  1  0.85445290  0.14146962  0.25248194  1
  O  O19  1  0.28865276  0.14405023  0.25011819  1
  O  O20  1  0.67546421  0.32448065  0.08558480  1
  O  O21  1  0.32453579  0.67551935  0.91441520  1
  O  O22  1  0.32417769  0.64779443  0.58598558  1
  O  O23  1  0.67582231  0.35220557  0.41401442  1
  O  O24  1  0.83291939  0.66641518  0.57869349  1
  O  O25  1  0.83665515  0.17832525  0.58041432  1
  O  O26  1  0.34102530  0.17895067  0.57994878  1
  O  O27  1  0.16708061  0.33358482  0.42130651  1
  O  O28  1  0.16334485  0.82167475  0.41958568  1
  O  O29  1  0.65897470  0.82104933  0.42005122  1
  O  O30  1  0.16211690  0.34133382  0.08046780  1
  O  O31  1  0.16691647  0.83317654  0.07852933  1
  O  O32  1  0.65908356  0.83847605  0.08014477  1
  O  O33  1  0.83788310  0.65866618  0.91953220  1
  O  O34  1  0.83308353  0.16682346  0.92147067  1
  O  O35  1  0.34091644  0.16152395  0.91985523  1
