# generated using pymatgen
data_BaMgV2CuO8
_symmetry_space_group_name_H-M   'P 1'
_cell_length_a   8.40926850
_cell_length_b   9.92259286
_cell_length_c   9.92259286
_cell_angle_alpha   99.78742738
_cell_angle_beta   115.07115710
_cell_angle_gamma   64.92884290
_symmetry_Int_Tables_number   1
_chemical_formula_structural   BaMgV2CuO8
_chemical_formula_sum   'Ba4 Mg4 V8 Cu4 O32'
_cell_volume   679.24528960
_cell_formula_units_Z   4
loop_
 _symmetry_equiv_pos_site_id
 _symmetry_equiv_pos_as_xyz
  1  'x, y, z'
loop_
 _atom_site_type_symbol
 _atom_site_label
 _atom_site_symmetry_multiplicity
 _atom_site_fract_x
 _atom_site_fract_y
 _atom_site_fract_z
 _atom_site_occupancy
  Ba  Ba0  1  0.50190869  0.99885282  0.00086530  1
  Ba  Ba1  1  0.00190869  0.99913470  0.00114718  1
  Ba  Ba2  1  0.25010380  0.49885282  0.50086530  1
  Ba  Ba3  1  0.75010380  0.49913470  0.50114718  1
  Mg  Mg4  1  0.08196534  0.00187098  0.66236489  1
  Mg  Mg5  1  0.58196534  0.33763511  0.99812902  1
  Mg  Mg6  1  0.32852857  0.50187098  0.16236489  1
  Mg  Mg7  1  0.82852857  0.83763511  0.49812902  1
  V  V8  1  0.20523932  0.66976068  0.83023932  1
  V  V9  1  0.70523932  0.16976068  0.33023932  1
  V  V10  1  0.04620209  0.32879791  0.17120209  1
  V  V11  1  0.54620209  0.82879791  0.67120209  1
  V  V12  1  0.12799583  0.82955765  0.33133963  1
  V  V13  1  0.12378614  0.32955765  0.83133963  1
  V  V14  1  0.62378614  0.16866037  0.67044235  1
  V  V15  1  0.62799583  0.66866037  0.17044235  1
  Cu  Cu16  1  0.41617745  0.99935554  0.33308878  1
  Cu  Cu17  1  0.91617745  0.66691122  0.00064446  1
  Cu  Cu18  1  0.66755580  0.49935554  0.83308878  1
  Cu  Cu19  1  0.16755580  0.16691122  0.50064446  1
  O  O20  1  0.14413889  0.66323606  0.98038256  1
  O  O21  1  0.64413889  0.01961744  0.33676394  1
  O  O22  1  0.92300761  0.16323606  0.48038256  1
  O  O23  1  0.42300761  0.51961744  0.83676394  1
  O  O24  1  0.83470422  0.33458134  0.01928788  1
  O  O25  1  0.33470422  0.98071212  0.66541866  1
  O  O26  1  0.60000232  0.83458134  0.51928788  1
  O  O27  1  0.10000232  0.48071212  0.16541866  1
  O  O28  1  0.19342223  0.97912758  0.33337795  1
  O  O29  1  0.33002579  0.33801865  0.98153811  1
  O  O30  1  0.91082814  0.47912758  0.83337795  1
  O  O31  1  0.06349367  0.83801865  0.48153811  1
  O  O32  1  0.83002579  0.01846189  0.66198135  1
  O  O33  1  0.69342223  0.66662205  0.02087242  1
  O  O34  1  0.56349367  0.51846189  0.16198135  1
  O  O35  1  0.41082814  0.16662205  0.52087242  1
  O  O36  1  0.21861161  0.83917097  0.83485867  1
  O  O37  1  0.71861161  0.16514133  0.16082903  1
  O  O38  1  0.52707609  0.33917097  0.33485867  1
  O  O39  1  0.02707609  0.66514133  0.66082903  1
  O  O40  1  0.22665069  0.15878761  0.16414929  1
  O  O41  1  0.72665069  0.83585071  0.84121239  1
  O  O42  1  0.52871100  0.65878761  0.66414929  1
  O  O43  1  0.02871100  0.33585071  0.34121239  1
  O  O44  1  0.93987951  0.83964662  0.16292400  1
  O  O45  1  0.11682629  0.15823868  0.83482600  1
  O  O46  1  0.13339787  0.33964662  0.66292400  1
  O  O47  1  0.30976104  0.65823868  0.33482600  1
  O  O48  1  0.61682629  0.16517400  0.84176132  1
  O  O49  1  0.43987951  0.83707600  0.16035338  1
  O  O50  1  0.80976104  0.66517400  0.34176132  1
  O  O51  1  0.63339787  0.33707600  0.66035338  1
