# generated using pymatgen
data_Ca3Nb4(O6F)2
_symmetry_space_group_name_H-M   'P 1'
_cell_length_a   7.53861352
_cell_length_b   7.43925322
_cell_length_c   7.53861352
_cell_angle_alpha   90.00000000
_cell_angle_beta   60.00000000
_cell_angle_gamma   120.44281250
_symmetry_Int_Tables_number   1
_chemical_formula_structural   Ca3Nb4(O6F)2
_chemical_formula_sum   'Ca3 Nb4 O12 F2'
_cell_volume   296.93258697
_cell_formula_units_Z   1
loop_
 _symmetry_equiv_pos_site_id
 _symmetry_equiv_pos_as_xyz
  1  'x, y, z'
loop_
 _atom_site_type_symbol
 _atom_site_label
 _atom_site_symmetry_multiplicity
 _atom_site_fract_x
 _atom_site_fract_y
 _atom_site_fract_z
 _atom_site_occupancy
  Ca  Ca0  1  0.50000000  0.50000000  0.50000000  1
  Ca  Ca1  1  -0.00000000  0.50000000  0.00000000  1
  Ca  Ca2  1  -0.00000000  0.50000000  0.50000000  1
  Nb  Nb3  1  0.50000000  0.50000000  0.00000000  1
  Nb  Nb4  1  0.50000000  -0.00000000  0.00000000  1
  Nb  Nb5  1  -0.00000000  -0.00000000  0.50000000  1
  Nb  Nb6  1  -0.00000000  -0.00000000  0.00000000  1
  O  O7  1  0.87016487  0.92611558  0.31491757  1
  O  O8  1  0.64339327  0.32444988  0.92830337  1
  O  O9  1  0.24103314  0.92611558  0.94404929  1
  O  O10  1  0.25275325  0.32444988  0.31894339  1
  O  O11  1  0.25275325  0.32444988  0.92830337  1
  O  O12  1  0.24103314  0.92611558  0.31491757  1
  O  O13  1  0.12983513  0.07388442  0.68508243  1
  O  O14  1  0.35660673  0.67555012  0.07169663  1
  O  O15  1  0.75896686  0.07388442  0.05595071  1
  O  O16  1  0.74724675  0.67555012  0.68105661  1
  O  O17  1  0.74724675  0.67555012  0.07169663  1
  O  O18  1  0.75896686  0.07388442  0.68508243  1
  F  F19  1  0.78145866  0.42218798  0.35927067  1
  F  F20  1  0.21854134  0.57781202  0.64072933  1
