# generated using pymatgen
data_AlSiCN
_symmetry_space_group_name_H-M   'P 1'
_cell_length_a   3.10951704
_cell_length_b   3.10956416
_cell_length_c   5.05580354
_cell_angle_alpha   90.00000000
_cell_angle_beta   89.99986790
_cell_angle_gamma   59.99950871
_symmetry_Int_Tables_number   1
_chemical_formula_structural   AlSiCN
_chemical_formula_sum   'Al1 Si1 C1 N1'
_cell_volume   42.33612784
_cell_formula_units_Z   1
loop_
 _symmetry_equiv_pos_site_id
 _symmetry_equiv_pos_as_xyz
  1  'x, y, z'
loop_
 _atom_site_type_symbol
 _atom_site_label
 _atom_site_symmetry_multiplicity
 _atom_site_fract_x
 _atom_site_fract_y
 _atom_site_fract_z
 _atom_site_occupancy
  Al  Al0  1  0.66666465  0.66666768  0.50716059  1
  Si  Si1  1  0.33333467  0.33333267  0.99730995  1
  C  C2  1  0.66665861  0.66667070  0.10860503  1
  N  N3  1  0.33334208  0.33332896  0.63692444  1
