# generated using pymatgen
data_Co3Ru
_symmetry_space_group_name_H-M   'P 1'
_cell_length_a   5.11051736
_cell_length_b   5.11070665
_cell_length_c   4.07789579
_cell_angle_alpha   90.00000000
_cell_angle_beta   90.00000000
_cell_angle_gamma   120.00181408
_symmetry_Int_Tables_number   1
_chemical_formula_structural   Co3Ru
_chemical_formula_sum   'Co6 Ru2'
_cell_volume   92.23688716
_cell_formula_units_Z   2
loop_
 _symmetry_equiv_pos_site_id
 _symmetry_equiv_pos_as_xyz
  1  'x, y, z'
loop_
 _atom_site_type_symbol
 _atom_site_label
 _atom_site_symmetry_multiplicity
 _atom_site_fract_x
 _atom_site_fract_y
 _atom_site_fract_z
 _atom_site_occupancy
  Co  Co0  1  0.16352950  0.32704841  0.25000000  1
  Co  Co1  1  0.67297528  0.83646777  0.25000000  1
  Co  Co2  1  0.16350564  0.83646583  0.25000000  1
  Co  Co3  1  0.83642014  0.67284465  0.75000000  1
  Co  Co4  1  0.32715517  0.16357873  0.75000000  1
  Co  Co5  1  0.83641918  0.16357621  0.75000000  1
  Ru  Ru6  1  0.33333430  0.66669207  0.75000000  1
  Ru  Ru7  1  0.66666279  0.33332631  0.25000000  1
