# generated using pymatgen
data_Ca4Be4P4O17F3
_symmetry_space_group_name_H-M   'P 1'
_cell_length_a   4.83851631
_cell_length_b   7.76273975
_cell_length_c   9.80658716
_cell_angle_alpha   89.94722215
_cell_angle_beta   90.67874025
_cell_angle_gamma   90.02198833
_symmetry_Int_Tables_number   1
_chemical_formula_structural   Ca4Be4P4O17F3
_chemical_formula_sum   'Ca4 Be4 P4 O17 F3'
_cell_volume   368.31078853
_cell_formula_units_Z   1
loop_
 _symmetry_equiv_pos_site_id
 _symmetry_equiv_pos_as_xyz
  1  'x, y, z'
loop_
 _atom_site_type_symbol
 _atom_site_label
 _atom_site_symmetry_multiplicity
 _atom_site_fract_x
 _atom_site_fract_y
 _atom_site_fract_z
 _atom_site_occupancy
  Ca  Ca0  1  0.00293716  0.61265914  0.16854674  1
  Ca  Ca1  1  0.99799641  0.11513124  0.32952418  1
  Ca  Ca2  1  0.99602054  0.38869055  0.83101094  1
  Ca  Ca3  1  0.00509809  0.88887402  0.66963887  1
  Be  Be4  1  0.45736432  0.91448655  0.16068867  1
  Be  Be5  1  0.54095710  0.41347697  0.33833881  1
  Be  Be6  1  0.54121466  0.08601740  0.83867746  1
  Be  Be7  1  0.45923394  0.58583850  0.66149498  1
  P  P8  1  0.52842973  0.76904450  0.41745098  1
  P  P9  1  0.47135630  0.27024820  0.08139145  1
  P  P10  1  0.47255359  0.22982769  0.58196443  1
  P  P11  1  0.52627211  0.72971626  0.91812067  1
  O  O12  1  0.32604816  0.84507468  0.30687610  1
  O  O13  1  0.67423674  0.34509838  0.19273160  1
  O  O14  1  0.67575658  0.15454416  0.69296732  1
  O  O15  1  0.32435060  0.65510763  0.80620309  1
  O  O16  1  0.66161668  0.60568957  0.35402737  1
  O  O17  1  0.33396169  0.10781629  0.14519858  1
  O  O18  1  0.33906251  0.39275574  0.64694231  1
  O  O19  1  0.66184577  0.89308043  0.85416798  1
  O  O20  1  0.75714732  0.89651995  0.45748850  1
  O  O21  1  0.24574761  0.39785177  0.03914194  1
  O  O22  1  0.24556065  0.10251863  0.54077634  1
  O  O23  1  0.75324730  0.60257434  0.95913144  1
  O  O24  1  0.34783785  0.78277328  0.04199144  1
  O  O25  1  0.64754519  0.28219728  0.45655065  1
  O  O26  1  0.64831945  0.21711798  0.95679850  1
  O  O27  1  0.35396177  0.71875443  0.54352743  1
  O  O28  1  0.78858271  0.90469372  0.18173421  1
  F  F29  1  0.21532206  0.40922901  0.32715659  1
  F  F30  1  0.21529049  0.09098301  0.82703025  1
  F  F31  1  0.78512491  0.59160869  0.67271018  1
