# generated using pymatgen
data_Ca4Al6SO16
_symmetry_space_group_name_H-M   'P 1'
_cell_length_a   8.15168000
_cell_length_b   8.15168000
_cell_length_c   8.15168000
_cell_angle_alpha   70.52877937
_cell_angle_beta   70.52877937
_cell_angle_gamma   109.47122063
_symmetry_Int_Tables_number   1
_chemical_formula_structural   Ca4Al6SO16
_chemical_formula_sum   'Ca4 Al6 S1 O16'
_cell_volume   416.98408248
_cell_formula_units_Z   1
loop_
 _symmetry_equiv_pos_site_id
 _symmetry_equiv_pos_as_xyz
  1  'x, y, z'
loop_
 _atom_site_type_symbol
 _atom_site_label
 _atom_site_symmetry_multiplicity
 _atom_site_fract_x
 _atom_site_fract_y
 _atom_site_fract_z
 _atom_site_occupancy
  Ca  Ca0  1  0.46788995  0.46788995  0.53211005  1
  Ca  Ca1  1  0.53211005  -0.00000000  -0.00000000  1
  Ca  Ca2  1  0.00000000  0.53211005  0.00000000  1
  Ca  Ca3  1  0.00000000  0.00000000  0.46788995  1
  Al  Al4  1  0.25000000  0.75000000  0.50000000  1
  Al  Al5  1  0.75000000  0.50000000  0.75000000  1
  Al  Al6  1  0.50000000  0.25000000  0.25000000  1
  Al  Al7  1  0.25000000  0.50000000  0.25000000  1
  Al  Al8  1  0.75000000  0.25000000  0.50000000  1
  Al  Al9  1  0.50000000  0.75000000  0.75000000  1
  S  S10  1  -0.00000000  -0.00000000  0.00000000  1
  O  O11  1  0.68972689  0.38737404  0.61262596  1
  O  O12  1  0.38737404  0.38737404  0.31027311  1
  O  O13  1  0.38737404  0.68972689  0.61262596  1
  O  O14  1  0.31027311  0.69764714  0.30235286  1
  O  O15  1  0.61262596  0.30235286  0.00000000  1
  O  O16  1  0.61262596  0.00000000  0.69764714  1
  O  O17  1  -0.00000000  0.61262596  0.69764714  1
  O  O18  1  0.30235286  0.61262596  -0.00000000  1
  O  O19  1  0.69764714  0.31027311  0.30235286  1
  O  O20  1  -0.00000000  0.30235286  0.38737404  1
  O  O21  1  0.69764714  0.69764714  0.68972689  1
  O  O22  1  0.30235286  0.00000000  0.38737404  1
  O  O23  1  0.18305581  0.18305581  0.81694419  1
  O  O24  1  0.81694419  0.00000000  0.00000000  1
  O  O25  1  -0.00000000  0.81694419  -0.00000000  1
  O  O26  1  -0.00000000  0.00000000  0.18305581  1
