# generated using pymatgen
data_BaSrLa4Be2O10
_symmetry_space_group_name_H-M   'P 1'
_cell_length_a   6.78466779
_cell_length_b   7.44166316
_cell_length_c   9.87494044
_cell_angle_alpha   90.00000000
_cell_angle_beta   89.40776538
_cell_angle_gamma   90.00000000
_symmetry_Int_Tables_number   1
_chemical_formula_structural   BaSrLa4Be2O10
_chemical_formula_sum   'Ba2 Sr2 La8 Be4 O20'
_cell_volume   498.55133014
_cell_formula_units_Z   2
loop_
 _symmetry_equiv_pos_site_id
 _symmetry_equiv_pos_as_xyz
  1  'x, y, z'
loop_
 _atom_site_type_symbol
 _atom_site_label
 _atom_site_symmetry_multiplicity
 _atom_site_fract_x
 _atom_site_fract_y
 _atom_site_fract_z
 _atom_site_occupancy
  Ba  Ba0  1  0.58248303  0.97920296  0.67633881  1
  Ba  Ba1  1  0.41751697  0.47920296  0.32366119  1
  Sr  Sr2  1  0.08264284  0.48261006  0.82485964  1
  Sr  Sr3  1  0.91735716  0.98261006  0.17514036  1
  La  La4  1  0.09101229  0.74727936  0.52309042  1
  La  La5  1  0.40555508  0.74510869  0.02110407  1
  La  La6  1  0.90898771  0.24727936  0.47690958  1
  La  La7  1  0.59444492  0.24510869  0.97889593  1
  La  La8  1  0.93123131  0.53364699  0.16937868  1
  La  La9  1  0.06876869  0.03364699  0.83062132  1
  La  La10  1  0.42726102  0.02264772  0.32426972  1
  La  La11  1  0.57273898  0.52264772  0.67573028  1
  Be  Be12  1  0.69631016  0.75225382  0.39809897  1
  Be  Be13  1  0.81133535  0.74695214  0.90263958  1
  Be  Be14  1  0.30368984  0.25225382  0.60190103  1
  Be  Be15  1  0.18866465  0.24695214  0.09736042  1
  O  O16  1  0.15817269  0.75416405  0.27645833  1
  O  O17  1  0.34060965  0.73081181  0.78349244  1
  O  O18  1  0.84182731  0.25416405  0.72354167  1
  O  O19  1  0.65939035  0.23081181  0.21650756  1
  O  O20  1  0.64080639  0.75943506  0.22902686  1
  O  O21  1  0.87470832  0.74458164  0.73368091  1
  O  O22  1  0.35919361  0.25943506  0.77097314  1
  O  O23  1  0.12529168  0.24458164  0.26631909  1
  O  O24  1  0.31209077  0.06035278  0.06472729  1
  O  O25  1  0.19015987  0.44007025  0.56725580  1
  O  O26  1  0.68790923  0.56035278  0.93527271  1
  O  O27  1  0.80984013  0.94007025  0.43274420  1
  O  O28  1  0.70142853  0.93805021  0.93704904  1
  O  O29  1  0.81691275  0.56316519  0.42823890  1
  O  O30  1  0.29857147  0.43805021  0.06295096  1
  O  O31  1  0.18308725  0.06316519  0.57176110  1
  O  O32  1  0.01678840  0.74711130  0.99217083  1
  O  O33  1  0.48382476  0.75255596  0.48584467  1
  O  O34  1  0.98321160  0.24711130  0.00782917  1
  O  O35  1  0.51617524  0.25255596  0.51415533  1
