# generated using pymatgen
data_Ba2PrGaS5
_symmetry_space_group_name_H-M   'P 1'
_cell_length_a   8.24296294
_cell_length_b   8.24296294
_cell_length_c   8.94962041
_cell_angle_alpha   63.22406323
_cell_angle_beta   63.22406323
_cell_angle_gamma   91.24643825
_symmetry_Int_Tables_number   1
_chemical_formula_structural   Ba2PrGaS5
_chemical_formula_sum   'Ba4 Pr2 Ga2 S10'
_cell_volume   465.02042935
_cell_formula_units_Z   2
loop_
 _symmetry_equiv_pos_site_id
 _symmetry_equiv_pos_as_xyz
  1  'x, y, z'
loop_
 _atom_site_type_symbol
 _atom_site_label
 _atom_site_symmetry_multiplicity
 _atom_site_fract_x
 _atom_site_fract_y
 _atom_site_fract_z
 _atom_site_occupancy
  Ba  Ba0  1  0.25000000  0.25000000  0.50000000  1
  Ba  Ba1  1  0.75000000  0.75000000  0.50000000  1
  Ba  Ba2  1  0.84147688  0.65852312  0.00000000  1
  Ba  Ba3  1  0.15852312  0.34147688  0.00000000  1
  Pr  Pr4  1  0.66644971  0.16644971  1.00000000  1
  Pr  Pr5  1  0.33355029  0.83355029  0.00000000  1
  Ga  Ga6  1  0.75222940  0.25222940  0.49554120  1
  Ga  Ga7  1  0.24777060  0.74777060  0.50445880  1
  S  S8  1  0.50000000  0.50000000  0.00000000  1
  S  S9  1  -0.00000000  -0.00000000  0.00000000  1
  S  S10  1  0.22159636  0.00069462  0.27770902  1
  S  S11  1  0.50069462  0.72159636  0.27770902  1
  S  S12  1  0.01073698  0.51073698  0.29254963  1
  S  S13  1  0.69671339  0.19671339  0.29254963  1
  S  S14  1  0.77840364  -0.00069462  0.72229098  1
  S  S15  1  0.49930538  0.27840364  0.72229098  1
  S  S16  1  0.98926302  0.48926302  0.70745037  1
  S  S17  1  0.30328661  0.80328661  0.70745037  1
