# generated using pymatgen
data_Ba10Gd2Y3(Cu3O7)5
_symmetry_space_group_name_H-M   'P 1'
_cell_length_a   5.51555920
_cell_length_b   14.02090547
_cell_length_c   11.73656982
_cell_angle_alpha   90.00000000
_cell_angle_beta   90.00000000
_cell_angle_gamma   100.35759356
_symmetry_Int_Tables_number   1
_chemical_formula_structural   Ba10Gd2Y3(Cu3O7)5
_chemical_formula_sum   'Ba10 Gd2 Y3 Cu15 O35'
_cell_volume   892.83579338
_cell_formula_units_Z   1
loop_
 _symmetry_equiv_pos_site_id
 _symmetry_equiv_pos_as_xyz
  1  'x, y, z'
loop_
 _atom_site_type_symbol
 _atom_site_label
 _atom_site_symmetry_multiplicity
 _atom_site_fract_x
 _atom_site_fract_y
 _atom_site_fract_z
 _atom_site_occupancy
  Ba  Ba0  1  0.89998546  0.79998339  0.18123331  1
  Ba  Ba1  1  0.70000000  0.40000000  0.18155325  1
  Ba  Ba2  1  0.29996851  0.59988724  0.18146799  1
  Ba  Ba3  1  0.50001454  0.00001661  0.18123331  1
  Ba  Ba4  1  0.10003149  0.20011276  0.18146799  1
  Ba  Ba5  1  0.89998546  0.79998339  0.81876669  1
  Ba  Ba6  1  0.70000000  0.40000000  0.81844675  1
  Ba  Ba7  1  0.29996851  0.59988724  0.81853201  1
  Ba  Ba8  1  0.50001454  0.00001661  0.81876669  1
  Ba  Ba9  1  0.10003149  0.20011276  0.81853201  1
  Gd  Gd10  1  0.50008105  0.00030683  0.50000000  1
  Gd  Gd11  1  0.89991895  0.79969317  0.50000000  1
  Y  Y12  1  0.10019441  0.20038555  0.50000000  1
  Y  Y13  1  0.70000000  0.40000000  0.50000000  1
  Y  Y14  1  0.29980559  0.59961445  0.50000000  1
  Cu  Cu15  1  0.39994571  0.79994766  0.35281346  1
  Cu  Cu16  1  0.20000000  0.40000000  0.35296266  1
  Cu  Cu17  1  0.79991252  0.59994095  0.35290798  1
  Cu  Cu18  1  0.00005429  0.00005234  0.35281346  1
  Cu  Cu19  1  0.60008748  0.20005905  0.35290798  1
  Cu  Cu20  1  0.39994571  0.79994766  0.64718654  1
  Cu  Cu21  1  0.20000000  0.40000000  0.64703734  1
  Cu  Cu22  1  0.79991252  0.59994095  0.64709202  1
  Cu  Cu23  1  0.00005429  0.00005234  0.64718654  1
  Cu  Cu24  1  0.60008748  0.20005905  0.64709202  1
  Cu  Cu25  1  0.39990823  0.79999535  0.00000000  1
  Cu  Cu26  1  0.20000000  0.40000000  0.00000000  1
  Cu  Cu27  1  0.79996956  0.60002456  0.00000000  1
  Cu  Cu28  1  0.00009177  0.00000465  0.00000000  1
  Cu  Cu29  1  0.60003044  0.19997544  0.00000000  1
  O  O30  1  0.39995791  0.80003240  0.16094948  1
  O  O31  1  0.20000000  0.40000000  0.16094808  1
  O  O32  1  0.79993440  0.60003841  0.16093303  1
  O  O33  1  0.00004209  0.99996760  0.16094948  1
  O  O34  1  0.60006560  0.19996159  0.16093303  1
  O  O35  1  0.39995791  0.80003240  0.83905052  1
  O  O36  1  0.20000000  0.40000000  0.83905192  1
  O  O37  1  0.79993440  0.60003841  0.83906697  1
  O  O38  1  0.00004209  0.99996760  0.83905052  1
  O  O39  1  0.60006560  0.19996159  0.83906697  1
  O  O40  1  0.70000000  0.90000000  0.37656237  1
  O  O41  1  0.49999592  0.49997076  0.37797178  1
  O  O42  1  0.10106889  0.69937495  0.37724808  1
  O  O43  1  0.29893111  0.10062505  0.37724808  1
  O  O44  1  0.90000408  0.30002924  0.37797178  1
  O  O45  1  0.70000000  0.90000000  0.62343763  1
  O  O46  1  0.49999592  0.49997076  0.62202822  1
  O  O47  1  0.10106889  0.69937495  0.62275192  1
  O  O48  1  0.29893111  0.10062505  0.62275192  1
  O  O49  1  0.90000408  0.30002924  0.62202822  1
  O  O50  1  0.70000000  0.90000000  0.00000000  1
  O  O51  1  0.50009433  0.50006055  0.00000000  1
  O  O52  1  0.09985600  0.70007007  0.00000000  1
  O  O53  1  0.30014400  0.09992993  0.00000000  1
  O  O54  1  0.89990567  0.29993945  0.00000000  1
  O  O55  1  0.20000000  0.90000000  0.37706238  1
  O  O56  1  0.80141940  0.10055220  0.37782351  1
  O  O57  1  0.39997679  0.29998957  0.37856208  1
  O  O58  1  0.00002321  0.50001043  0.37856208  1
  O  O59  1  0.59858060  0.69944780  0.37782351  1
  O  O60  1  0.20000000  0.90000000  0.62293762  1
  O  O61  1  0.80141940  0.10055220  0.62217649  1
  O  O62  1  0.39997679  0.29998957  0.62143792  1
  O  O63  1  0.00002321  0.50001043  0.62143792  1
  O  O64  1  0.59858060  0.69944780  0.62217649  1
