# generated using pymatgen
data_Sr3NdTaAl3O12
_symmetry_space_group_name_H-M   'P 1'
_cell_length_a   5.45910450
_cell_length_b   9.51487306
_cell_length_c   9.51487358
_cell_angle_alpha   70.60417697
_cell_angle_beta   89.82790788
_cell_angle_gamma   89.82790790
_symmetry_Int_Tables_number   1
_chemical_formula_structural   Sr3NdTaAl3O12
_chemical_formula_sum   'Sr6 Nd2 Ta2 Al6 O24'
_cell_volume   466.17594526
_cell_formula_units_Z   2
loop_
 _symmetry_equiv_pos_site_id
 _symmetry_equiv_pos_as_xyz
  1  'x, y, z'
loop_
 _atom_site_type_symbol
 _atom_site_label
 _atom_site_symmetry_multiplicity
 _atom_site_fract_x
 _atom_site_fract_y
 _atom_site_fract_z
 _atom_site_occupancy
  Sr  Sr0  1  0.49877160  0.38614393  0.38688311  1
  Sr  Sr1  1  0.00000000  0.85996221  0.39003779  1
  Sr  Sr2  1  0.50122840  0.86311689  0.86385607  1
  Sr  Sr3  1  0.99981967  0.62541714  0.12664577  1
  Sr  Sr4  1  0.00018033  0.12335423  0.62458286  1
  Sr  Sr5  1  0.50000000  0.62778382  0.62221618  1
  Nd  Nd6  1  1.00000000  0.39429672  0.85570328  1
  Nd  Nd7  1  0.50000000  0.12751695  0.12248305  1
  Ta  Ta8  1  0.00075562  0.25598402  0.25386766  1
  Ta  Ta9  1  -0.00075562  0.99613234  0.99401598  1
  Al  Al10  1  0.50231069  0.74682823  0.25600490  1
  Al  Al11  1  0.49813835  0.25293253  0.74534720  1
  Al  Al12  1  0.00034180  0.74596852  0.74724146  1
  Al  Al13  1  0.50186165  0.50465280  0.99706747  1
  Al  Al14  1  0.49768931  0.99399510  0.50317177  1
  Al  Al15  1  0.99965820  0.50275854  0.50403148  1
  O  O16  1  0.27935616  0.37241786  0.13957966  1
  O  O17  1  0.75970144  0.87986219  0.14245042  1
  O  O18  1  0.76340492  0.37473656  0.64373575  1
  O  O19  1  0.25425204  0.87268523  0.63242261  1
  O  O20  1  0.24029856  0.10754958  0.37013781  1
  O  O21  1  0.74574796  0.61757739  0.37731477  1
  O  O22  1  0.72064384  0.11042034  0.87758214  1
  O  O23  1  0.23659508  0.60626425  0.87526344  1
  O  O24  1  1.00000000  0.15367709  0.09632291  1
  O  O25  1  0.49916371  0.63928213  0.11500457  1
  O  O26  1  0.50083629  0.13499543  0.61071787  1
  O  O27  1  0.00000000  0.62740535  0.62259465  1
  O  O28  1  0.72606785  0.12268532  0.35318579  1
  O  O29  1  0.24148254  0.62573625  0.36796372  1
  O  O30  1  0.23514961  0.13104233  0.85815062  1
  O  O31  1  0.74524365  0.61794467  0.86370862  1
  O  O32  1  0.99746109  0.36684780  0.39184619  1
  O  O33  1  0.50000000  0.86616806  0.38383194  1
  O  O34  1  0.50000000  0.35071314  0.89928686  1
  O  O35  1  0.00253891  0.85815381  0.88315220  1
  O  O36  1  0.76485039  0.39184938  0.11895767  1
  O  O37  1  0.27393215  0.89681421  0.12731468  1
  O  O38  1  0.25475635  0.38629138  0.63205533  1
  O  O39  1  0.75851746  0.88203628  0.62426375  1
