# generated using pymatgen
data_AgSb3PbS6
_symmetry_space_group_name_H-M   'P 1'
_cell_length_a   4.21170277
_cell_length_b   6.85347611
_cell_length_c   19.35077647
_cell_angle_alpha   90.00000000
_cell_angle_beta   90.00000000
_cell_angle_gamma   72.10535343
_symmetry_Int_Tables_number   1
_chemical_formula_structural   AgSb3PbS6
_chemical_formula_sum   'Ag2 Sb6 Pb2 S12'
_cell_volume   531.53515988
_cell_formula_units_Z   2
loop_
 _symmetry_equiv_pos_site_id
 _symmetry_equiv_pos_as_xyz
  1  'x, y, z'
loop_
 _atom_site_type_symbol
 _atom_site_label
 _atom_site_symmetry_multiplicity
 _atom_site_fract_x
 _atom_site_fract_y
 _atom_site_fract_z
 _atom_site_occupancy
  Ag  Ag0  1  0.58915416  0.82169168  0.12983927  1
  Ag  Ag1  1  0.41084584  0.17830832  0.62983927  1
  Sb  Sb2  1  0.85817783  0.28364434  0.05792083  1
  Sb  Sb3  1  0.11941878  0.76116243  0.95110415  1
  Sb  Sb4  1  0.88058122  0.23883757  0.45110415  1
  Sb  Sb5  1  0.14182217  0.71635566  0.55792083  1
  Sb  Sb6  1  0.38226144  0.23547712  0.86569748  1
  Sb  Sb7  1  0.61773856  0.76452288  0.36569748  1
  Pb  Pb8  1  0.66538313  0.66923374  0.73997725  1
  Pb  Pb9  1  0.33461687  0.33076626  0.23997725  1
  S  S10  1  0.96118091  0.07763818  0.16261308  1
  S  S11  1  0.01062444  0.97875112  0.84131128  1
  S  S12  1  0.98937556  0.02124888  0.34131128  1
  S  S13  1  0.03881909  0.92236182  0.66261308  1
  S  S14  1  0.68220276  0.63559447  0.24550622  1
  S  S15  1  0.31779724  0.36440553  0.74550622  1
  S  S16  1  0.74088905  0.51822190  0.89928735  1
  S  S17  1  0.25286098  0.49427803  0.09322341  1
  S  S18  1  0.74713902  0.50572197  0.59322341  1
  S  S19  1  0.25911095  0.48177810  0.39928735  1
  S  S20  1  0.51570244  0.96859513  0.00501968  1
  S  S21  1  0.48429756  0.03140487  0.50501968  1
