# generated using pymatgen
data_Al4InCuS8
_symmetry_space_group_name_H-M   'P 1'
_cell_length_a   7.23565667
_cell_length_b   7.17199139
_cell_length_c   7.23565667
_cell_angle_alpha   90.00000000
_cell_angle_beta   59.41872317
_cell_angle_gamma   119.70936159
_symmetry_Int_Tables_number   1
_chemical_formula_structural   Al4InCuS8
_chemical_formula_sum   'Al4 In1 Cu1 S8'
_cell_volume   264.32389430
_cell_formula_units_Z   1
loop_
 _symmetry_equiv_pos_site_id
 _symmetry_equiv_pos_as_xyz
  1  'x, y, z'
loop_
 _atom_site_type_symbol
 _atom_site_label
 _atom_site_symmetry_multiplicity
 _atom_site_fract_x
 _atom_site_fract_y
 _atom_site_fract_z
 _atom_site_occupancy
  Al  Al0  1  0.24978118  0.62489059  0.62489059  1
  Al  Al1  1  0.48637857  0.47865812  0.00772045  1
  Al  Al2  1  0.48637857  0.00772045  0.00772045  1
  Al  Al3  1  0.01544089  0.00772045  0.47865812  1
  In  In4  1  0.01007859  0.00503930  0.00503930  1
  Cu  Cu5  1  0.74804729  0.37402364  0.37402364  1
  S  S6  1  0.02036462  0.76593370  0.25443092  1
  S  S7  1  0.02036462  0.25443092  0.25443092  1
  S  S8  1  0.50886184  0.25443092  0.76593370  1
  S  S9  1  0.48674142  0.24337071  0.24337071  1
  S  S10  1  0.97813930  0.23003065  0.74810865  1
  S  S11  1  0.97813930  0.74810865  0.74810865  1
  S  S12  1  0.49621731  0.74810865  0.23003065  1
  S  S13  1  0.51506649  0.75753325  0.75753325  1
