# generated using pymatgen
data_UGe2
_symmetry_space_group_name_H-M   'P 1'
_cell_length_a   4.06662653
_cell_length_b   4.21235121
_cell_length_c   7.40537783
_cell_angle_alpha   90.00000000
_cell_angle_beta   105.93654095
_cell_angle_gamma   90.00000000
_symmetry_Int_Tables_number   1
_chemical_formula_structural   UGe2
_chemical_formula_sum   'U2 Ge4'
_cell_volume   121.97908220
_cell_formula_units_Z   2
loop_
 _symmetry_equiv_pos_site_id
 _symmetry_equiv_pos_as_xyz
  1  'x, y, z'
loop_
 _atom_site_type_symbol
 _atom_site_label
 _atom_site_symmetry_multiplicity
 _atom_site_fract_x
 _atom_site_fract_y
 _atom_site_fract_z
 _atom_site_occupancy
  Ge  Ge0  1  0.50000000  0.50000000  0.00000000  1
  Ge  Ge1  1  0.00000000  0.00000000  0.00000000  1
  Ge  Ge2  1  0.68392797  0.00000000  0.36785594  1
  Ge  Ge3  1  0.31607203  0.00000000  0.63214406  1
  U  U4  1  0.14697099  0.50000000  0.29394197  1
  U  U5  1  0.85302901  0.50000000  0.70605803  1
