# generated using pymatgen
data_Ba8PrY3(Cu3O7)4
_symmetry_space_group_name_H-M   'P 1'
_cell_length_a   3.85647679
_cell_length_b   3.93759595
_cell_length_c   47.28324268
_cell_angle_alpha   90.00000000
_cell_angle_beta   90.00000000
_cell_angle_gamma   90.00000000
_symmetry_Int_Tables_number   1
_chemical_formula_structural   Ba8PrY3(Cu3O7)4
_chemical_formula_sum   'Ba8 Pr1 Y3 Cu12 O28'
_cell_volume   718.00773748
_cell_formula_units_Z   1
loop_
 _symmetry_equiv_pos_site_id
 _symmetry_equiv_pos_as_xyz
  1  'x, y, z'
loop_
 _atom_site_type_symbol
 _atom_site_label
 _atom_site_symmetry_multiplicity
 _atom_site_fract_x
 _atom_site_fract_y
 _atom_site_fract_z
 _atom_site_occupancy
  Ba  Ba0  1  0.50000000  0.50000000  0.20476281  1
  Ba  Ba1  1  0.50000000  0.50000000  0.45469026  1
  Ba  Ba2  1  0.50000000  0.50000000  0.70464906  1
  Ba  Ba3  1  0.50000000  0.50000000  0.95540265  1
  Ba  Ba4  1  0.50000000  0.50000000  0.04535094  1
  Ba  Ba5  1  0.50000000  0.50000000  0.29530974  1
  Ba  Ba6  1  0.50000000  0.50000000  0.54523719  1
  Ba  Ba7  1  0.50000000  0.50000000  0.79459735  1
  Pr  Pr8  1  0.50000000  0.50000000  0.87500000  1
  Y  Y9  1  0.50000000  0.50000000  0.12501211  1
  Y  Y10  1  0.50000000  0.50000000  0.37500000  1
  Y  Y11  1  0.50000000  0.50000000  0.62498789  1
  Cu  Cu12  1  -0.00000000  -0.00000000  0.00027109  1
  Cu  Cu13  1  -0.00000000  0.00000000  0.24999883  1
  Cu  Cu14  1  -0.00000000  -0.00000000  0.50000117  1
  Cu  Cu15  1  0.00000000  0.00000000  0.74972891  1
  Cu  Cu16  1  0.00000000  -0.00000000  0.16199806  1
  Cu  Cu17  1  -0.00000000  0.00000000  0.41197858  1
  Cu  Cu18  1  0.00000000  0.00000000  0.66196708  1
  Cu  Cu19  1  0.00000000  0.00000000  0.91390563  1
  Cu  Cu20  1  -0.00000000  -0.00000000  0.08803292  1
  Cu  Cu21  1  0.00000000  0.00000000  0.33802142  1
  Cu  Cu22  1  -0.00000000  0.00000000  0.58800194  1
  Cu  Cu23  1  -0.00000000  -0.00000000  0.83609437  1
  O  O24  1  0.50000000  -0.00000000  0.15521204  1
  O  O25  1  0.50000000  -0.00000000  0.40520797  1
  O  O26  1  0.50000000  0.00000000  0.65518766  1
  O  O27  1  0.50000000  -0.00000000  0.90750433  1
  O  O28  1  0.50000000  -0.00000000  0.09481234  1
  O  O29  1  0.50000000  -0.00000000  0.34479203  1
  O  O30  1  0.50000000  0.00000000  0.59478796  1
  O  O31  1  0.50000000  0.00000000  0.84249567  1
  O  O32  1  0.00000000  -0.00000000  0.21023858  1
  O  O33  1  0.00000000  0.00000000  0.46027003  1
  O  O34  1  -0.00000000  -0.00000000  0.71003069  1
  O  O35  1  -0.00000000  -0.00000000  0.96069993  1
  O  O36  1  0.00000000  0.00000000  0.03996931  1
  O  O37  1  -0.00000000  -0.00000000  0.28972997  1
  O  O38  1  -0.00000000  0.00000000  0.53976142  1
  O  O39  1  0.00000000  0.00000000  0.78930007  1
  O  O40  1  0.00000000  0.50000000  0.00041551  1
  O  O41  1  0.00000000  0.50000000  0.25005012  1
  O  O42  1  -0.00000000  0.50000000  0.49994988  1
  O  O43  1  0.00000000  0.50000000  0.74958449  1
  O  O44  1  -0.00000000  0.50000000  0.15549029  1
  O  O45  1  0.00000000  0.50000000  0.40547020  1
  O  O46  1  0.00000000  0.50000000  0.65545697  1
  O  O47  1  0.00000000  0.50000000  0.90782028  1
  O  O48  1  -0.00000000  0.50000000  0.09454303  1
  O  O49  1  0.00000000  0.50000000  0.34452980  1
  O  O50  1  0.00000000  0.50000000  0.59450971  1
  O  O51  1  0.00000000  0.50000000  0.84217972  1
