# generated using pymatgen
data_Ba10CaY4(Cu3O7)5
_symmetry_space_group_name_H-M   'P 1'
_cell_length_a   8.63059225
_cell_length_b   8.70969866
_cell_length_c   12.46330050
_cell_angle_alpha   106.34113569
_cell_angle_beta   98.17043490
_cell_angle_gamma   89.25424818
_symmetry_Int_Tables_number   1
_chemical_formula_structural   Ba10CaY4(Cu3O7)5
_chemical_formula_sum   'Ba10 Ca1 Y4 Cu15 O35'
_cell_volume   889.53441013
_cell_formula_units_Z   1
loop_
 _symmetry_equiv_pos_site_id
 _symmetry_equiv_pos_as_xyz
  1  'x, y, z'
loop_
 _atom_site_type_symbol
 _atom_site_label
 _atom_site_symmetry_multiplicity
 _atom_site_fract_x
 _atom_site_fract_y
 _atom_site_fract_z
 _atom_site_occupancy
  Ba  Ba0  1  0.53722461  0.57324473  0.18303765  1
  Ba  Ba1  1  0.33678358  0.17304071  0.18293173  1
  Ba  Ba2  1  0.13598502  0.77347836  0.18289562  1
  Ba  Ba3  1  0.93611336  0.37306539  0.18281689  1
  Ba  Ba4  1  0.73730572  0.97406255  0.18535205  1
  Ba  Ba5  1  0.66388664  0.82693461  0.81718311  1
  Ba  Ba6  1  0.46401498  0.42652164  0.81710438  1
  Ba  Ba7  1  0.26321642  0.02695929  0.81706827  1
  Ba  Ba8  1  0.06277539  0.62675527  0.81696235  1
  Ba  Ba9  1  0.86269428  0.22593745  0.81464795  1
  Ca  Ca10  1  0.80000000  0.10000000  0.50000000  1
  Y  Y11  1  0.99879453  0.49823457  0.49998982  1
  Y  Y12  1  0.19795356  0.90099402  0.49995377  1
  Y  Y13  1  0.40204644  0.29900598  0.50004623  1
  Y  Y14  1  0.60120547  0.70176543  0.50001018  1
  Cu  Cu15  1  0.87053014  0.74335218  0.35478362  1
  Cu  Cu16  1  0.67148028  0.34034042  0.35478334  1
  Cu  Cu17  1  0.47266985  0.94229383  0.35485069  1
  Cu  Cu18  1  0.27093258  0.54202816  0.35505114  1
  Cu  Cu19  1  0.06929263  0.14154325  0.35489567  1
  Cu  Cu20  1  0.92851972  0.85965958  0.64521666  1
  Cu  Cu21  1  0.72946986  0.45664782  0.64521638  1
  Cu  Cu22  1  0.53070737  0.05845675  0.64510433  1
  Cu  Cu23  1  0.32906742  0.65797184  0.64494886  1
  Cu  Cu24  1  0.12733015  0.25770617  0.64514931  1
  Cu  Cu25  1  0.80000000  0.60000000  0.00000000  1
  Cu  Cu26  1  0.60002695  0.19986202  -0.00000114  1
  Cu  Cu27  1  0.40001896  0.80009100  0.00006725  1
  Cu  Cu28  1  0.19998104  0.39990900  -0.00006725  1
  Cu  Cu29  1  0.99997305  0.00013798  0.00000114  1
  O  O30  1  0.83180370  0.66346323  0.15856591  1
  O  O31  1  0.63162739  0.26356246  0.15850766  1
  O  O32  1  0.43147176  0.86334034  0.15823033  1
  O  O33  1  0.23195396  0.46384314  0.15902568  1
  O  O34  1  0.03200960  0.06365240  0.15850381  1
  O  O35  1  0.96837261  0.93643754  0.84149234  1
  O  O36  1  0.76819630  0.53653677  0.84143409  1
  O  O37  1  0.56799040  0.13634760  0.84149619  1
  O  O38  1  0.36804604  0.73615686  0.84097432  1
  O  O39  1  0.16852824  0.33665966  0.84176967  1
  O  O40  1  0.77576539  0.55154994  0.37891603  1
  O  O41  1  0.56968224  0.15251326  0.37504949  1
  O  O42  1  0.37519827  0.75182963  0.37858257  1
  O  O43  1  0.17626308  0.35107296  0.37849984  1
  O  O44  1  0.98032596  0.94746671  0.37503709  1
  O  O45  1  0.82423461  0.64845006  0.62108397  1
  O  O46  1  0.61967404  0.25253329  0.62496291  1
  O  O47  1  0.42373692  0.84892704  0.62150016  1
  O  O48  1  0.22480173  0.44817037  0.62141743  1
  O  O49  1  0.03031776  0.04748674  0.62495051  1
  O  O50  1  0.70009618  0.40033837  0.00009277  1
  O  O51  1  0.50036830  0.00048045  0.00016002  1
  O  O52  1  0.30000000  0.60000000  0.00000000  1
  O  O53  1  0.09963170  0.19951955  0.99983998  1
  O  O54  1  0.89990382  0.79966163  0.99990723  1
  O  O55  1  0.87798321  0.25567190  0.37572955  1
  O  O56  1  0.07588480  0.65114083  0.37955670  1
  O  O57  1  0.27593312  0.05196161  0.37986295  1
  O  O58  1  0.47601165  0.45245850  0.37954104  1
  O  O59  1  0.67229432  0.84491021  0.37567681  1
  O  O60  1  0.92770568  0.35508979  0.62432319  1
  O  O61  1  0.12398835  0.74754150  0.62045896  1
  O  O62  1  0.32406688  0.14803839  0.62013705  1
  O  O63  1  0.52411520  0.54885917  0.62044330  1
  O  O64  1  0.72201679  0.94432810  0.62427045  1
