# generated using pymatgen
data_RbTiP2O7
_symmetry_space_group_name_H-M   'P 1'
_cell_length_a   7.67057217
_cell_length_b   8.36003382
_cell_length_c   10.43268045
_cell_angle_alpha   90.00000000
_cell_angle_beta   90.00000000
_cell_angle_gamma   105.80891748
_symmetry_Int_Tables_number   1
_chemical_formula_structural   RbTiP2O7
_chemical_formula_sum   'Rb4 Ti4 P8 O28'
_cell_volume   643.70375321
_cell_formula_units_Z   4
loop_
 _symmetry_equiv_pos_site_id
 _symmetry_equiv_pos_as_xyz
  1  'x, y, z'
loop_
 _atom_site_type_symbol
 _atom_site_label
 _atom_site_symmetry_multiplicity
 _atom_site_fract_x
 _atom_site_fract_y
 _atom_site_fract_z
 _atom_site_occupancy
  O  O0  1  0.84588486  0.98515171  0.58931320  1
  O  O1  1  0.15411514  0.51484829  0.08931320  1
  O  O2  1  0.15411514  0.01484829  0.41068680  1
  O  O3  1  0.84588486  0.48515171  0.91068680  1
  O  O4  1  0.00243320  0.27096916  0.49944618  1
  O  O5  1  0.99756680  0.22903084  0.99944618  1
  O  O6  1  0.99756680  0.72903084  0.50055382  1
  O  O7  1  0.00243320  0.77096916  0.00055382  1
  O  O8  1  0.91624575  0.23911142  0.73361831  1
  O  O9  1  0.08375425  0.26088858  0.23361831  1
  O  O10  1  0.08375425  0.76088858  0.26638169  1
  O  O11  1  0.91624575  0.73911142  0.76638169  1
  O  O12  1  0.67198589  0.19761140  0.55906528  1
  O  O13  1  0.32801411  0.30238860  0.05906528  1
  O  O14  1  0.32801411  0.80238860  0.44093472  1
  O  O15  1  0.67198589  0.69761140  0.94093472  1
  O  O16  1  0.55466867  0.76681044  0.72331250  1
  O  O17  1  0.44533133  0.73318956  0.22331250  1
  O  O18  1  0.44533133  0.23318956  0.27668750  1
  O  O19  1  0.55466867  0.26681044  0.77668750  1
  O  O20  1  0.67589069  0.99329138  0.89231781  1
  O  O21  1  0.32410931  0.50670862  0.39231781  1
  O  O22  1  0.32410931  0.00670862  0.10768219  1
  O  O23  1  0.67589069  0.49329138  0.60768219  1
  O  O24  1  0.37543864  0.77147642  0.92428271  1
  O  O25  1  0.62456136  0.72852358  0.42428271  1
  O  O26  1  0.62456136  0.22852358  0.07571729  1
  O  O27  1  0.37543864  0.27147642  0.57571729  1
  P  P28  1  0.86833800  0.17165329  0.59747238  1
  P  P29  1  0.13166200  0.32834671  0.09747238  1
  P  P30  1  0.13166200  0.82834671  0.40252762  1
  P  P31  1  0.86833800  0.67165329  0.90252762  1
  P  P32  1  0.56438110  0.31378079  0.63436773  1
  P  P33  1  0.43561890  0.18621921  0.13436773  1
  P  P34  1  0.43561890  0.68621921  0.36563227  1
  P  P35  1  0.56438110  0.81378079  0.86563227  1
  Ti  Ti36  1  0.76230145  0.24121467  0.89835502  1
  Ti  Ti37  1  0.23769855  0.25878533  0.39835502  1
  Ti  Ti38  1  0.23769855  0.75878533  0.10164498  1
  Ti  Ti39  1  0.76230145  0.74121467  0.60164498  1
  Rb  Rb40  1  0.81070154  0.94458035  0.18282404  1
  Rb  Rb41  1  0.18929846  0.55541965  0.68282404  1
  Rb  Rb42  1  0.18929846  0.05541965  0.81717596  1
  Rb  Rb43  1  0.81070154  0.44458035  0.31717596  1
