# generated using pymatgen
data_Ge3Mo5
_symmetry_space_group_name_H-M   'P 1'
_cell_length_a   5.00691684
_cell_length_b   7.44059223
_cell_length_c   7.44059223
_cell_angle_alpha   83.49989473
_cell_angle_beta   70.33868222
_cell_angle_gamma   70.33868221
_symmetry_Int_Tables_number   1
_chemical_formula_structural   Ge3Mo5
_chemical_formula_sum   'Ge6 Mo10'
_cell_volume   245.81512645
_cell_formula_units_Z   2
loop_
 _symmetry_equiv_pos_site_id
 _symmetry_equiv_pos_as_xyz
  1  'x, y, z'
loop_
 _atom_site_type_symbol
 _atom_site_label
 _atom_site_symmetry_multiplicity
 _atom_site_fract_x
 _atom_site_fract_y
 _atom_site_fract_z
 _atom_site_occupancy
  Ge  Ge0  1  0.75000000  0.00000000  0.00000000  1
  Ge  Ge1  1  0.25000000  0.00000000  0.00000000  1
  Ge  Ge2  1  0.83185332  0.50000000  0.83629335  1
  Ge  Ge3  1  0.66814668  0.16370665  0.50000000  1
  Ge  Ge4  1  0.33185332  0.83629335  0.50000000  1
  Ge  Ge5  1  0.16814668  0.50000000  0.16370665  1
  Mo  Mo6  1  0.42317329  0.30667014  0.84698329  1
  Mo  Mo7  1  0.57682671  0.69332986  0.15301671  1
  Mo  Mo8  1  0.25000000  0.50000000  0.50000000  1
  Mo  Mo9  1  0.75000000  0.50000000  0.50000000  1
  Mo  Mo10  1  0.72984343  0.84698329  0.69332986  1
  Mo  Mo11  1  0.27015657  0.15301671  0.30667014  1
  Mo  Mo12  1  0.92317329  0.84698329  0.30667014  1
  Mo  Mo13  1  0.22984343  0.69332986  0.84698329  1
  Mo  Mo14  1  0.77015657  0.30667014  0.15301671  1
  Mo  Mo15  1  0.07682671  0.15301671  0.69332986  1
