# generated using pymatgen
data_Nd3Fe29
_symmetry_space_group_name_H-M   'P 1'
_cell_length_a   6.47937170
_cell_length_b   6.47937169
_cell_length_c   10.50996158
_cell_angle_alpha   85.39888782
_cell_angle_beta   85.39888784
_cell_angle_gamma   82.94232492
_symmetry_Int_Tables_number   1
_chemical_formula_structural   Nd3Fe29
_chemical_formula_sum   'Nd3 Fe29'
_cell_volume   435.37198844
_cell_formula_units_Z   1
loop_
 _symmetry_equiv_pos_site_id
 _symmetry_equiv_pos_as_xyz
  1  'x, y, z'
loop_
 _atom_site_type_symbol
 _atom_site_label
 _atom_site_symmetry_multiplicity
 _atom_site_fract_x
 _atom_site_fract_y
 _atom_site_fract_z
 _atom_site_occupancy
  Fe  Fe0  1  0.50000000  0.00000000  0.00000000  1
  Fe  Fe1  1  0.00000000  0.50000000  0.00000000  1
  Fe  Fe2  1  0.81109548  0.31616494  0.59624875  1
  Fe  Fe3  1  0.50000000  0.50000000  0.50000000  1
  Fe  Fe4  1  0.29184169  0.29184169  0.85996127  1
  Fe  Fe5  1  0.70815831  0.70815831  0.14003873  1
  Fe  Fe6  1  0.52097612  0.52097612  0.74718354  1
  Fe  Fe7  1  0.47902388  0.47902388  0.25281646  1
  Fe  Fe8  1  0.31626454  0.86570916  0.19609278  1
  Fe  Fe9  1  0.13429084  0.68373546  0.80390722  1
  Fe  Fe10  1  0.68373546  0.13429084  0.80390722  1
  Fe  Fe11  1  0.86570916  0.31626454  0.19609278  1
  Fe  Fe12  1  0.53974497  0.83044718  0.37509238  1
  Fe  Fe13  1  0.16955282  0.46025503  0.62490762  1
  Fe  Fe14  1  0.46025503  0.16955282  0.62490762  1
  Fe  Fe15  1  0.83044718  0.53974497  0.37509238  1
  Fe  Fe16  1  0.63992642  0.36007358  0.00000000  1
  Fe  Fe17  1  0.36007358  0.63992642  0.00000000  1
  Fe  Fe18  1  0.28021325  0.28021325  0.10626075  1
  Fe  Fe19  1  0.71978675  0.71978675  0.89373925  1
  Fe  Fe20  1  0.09711839  0.59112118  0.19764714  1
  Fe  Fe21  1  0.40887882  0.90288161  0.80235286  1
  Fe  Fe22  1  0.90288161  0.40887882  0.80235286  1
  Fe  Fe23  1  0.59112118  0.09711839  0.19764714  1
  Fe  Fe24  1  0.90446956  0.90446956  0.29095957  1
  Fe  Fe25  1  0.09553044  0.09553044  0.70904043  1
  Fe  Fe26  1  0.31616494  0.81109548  0.59624875  1
  Fe  Fe27  1  0.18890452  0.68383506  0.40375125  1
  Fe  Fe28  1  0.68383506  0.18890452  0.40375125  1
  Nd  Nd29  1  0.81335891  0.81335891  0.59925780  1
  Nd  Nd30  1  0.18664109  0.18664109  0.40074220  1
  Nd  Nd31  1  0.00000000  0.00000000  0.00000000  1
