# generated using pymatgen
data_Na6FeSe4
_symmetry_space_group_name_H-M   'P 1'
_cell_length_a   9.35791005
_cell_length_b   9.35791005
_cell_length_c   7.23878160
_cell_angle_alpha   90.00000000
_cell_angle_beta   90.00000000
_cell_angle_gamma   119.99999997
_symmetry_Int_Tables_number   1
_chemical_formula_structural   Na6FeSe4
_chemical_formula_sum   'Na12 Fe2 Se8'
_cell_volume   548.97660643
_cell_formula_units_Z   2
loop_
 _symmetry_equiv_pos_site_id
 _symmetry_equiv_pos_as_xyz
  1  'x, y, z'
loop_
 _atom_site_type_symbol
 _atom_site_label
 _atom_site_symmetry_multiplicity
 _atom_site_fract_x
 _atom_site_fract_y
 _atom_site_fract_z
 _atom_site_occupancy
  Na  Na0  1  0.14823379  0.85176621  0.54155655  1
  Na  Na1  1  0.29646758  0.14823379  0.04155655  1
  Na  Na2  1  0.85176621  0.70353242  0.04155655  1
  Na  Na3  1  0.14823379  0.29646758  0.54155655  1
  Na  Na4  1  0.70353242  0.85176621  0.54155655  1
  Na  Na5  1  0.85176621  0.14823379  0.04155655  1
  Na  Na6  1  0.53002159  0.46997841  0.36993817  1
  Na  Na7  1  0.06004318  0.53002159  0.86993817  1
  Na  Na8  1  0.46997841  0.93995682  0.86993817  1
  Na  Na9  1  0.53002159  0.06004318  0.36993817  1
  Na  Na10  1  0.93995682  0.46997841  0.36993817  1
  Na  Na11  1  0.46997841  0.53002159  0.86993817  1
  Fe  Fe12  1  0.33333333  0.66666667  0.25279141  1
  Fe  Fe13  1  0.66666667  0.33333333  0.75279141  1
  Se  Se14  1  0.33333333  0.66666667  0.59585831  1
  Se  Se15  1  0.66666667  0.33333333  0.09585831  1
  Se  Se16  1  0.18797874  0.81202126  0.14502204  1
  Se  Se17  1  0.37595748  0.18797874  0.64502204  1
  Se  Se18  1  0.81202126  0.62404252  0.64502204  1
  Se  Se19  1  0.18797874  0.37595748  0.14502204  1
  Se  Se20  1  0.62404252  0.81202126  0.14502204  1
  Se  Se21  1  0.81202126  0.18797874  0.64502204  1
