# generated using pymatgen
data_Sm3Se4
_symmetry_space_group_name_H-M   'P 1'
_cell_length_a   7.66521047
_cell_length_b   7.66521048
_cell_length_c   7.66521048
_cell_angle_alpha   109.47122064
_cell_angle_beta   109.47122065
_cell_angle_gamma   109.47122061
_symmetry_Int_Tables_number   1
_chemical_formula_structural   Sm3Se4
_chemical_formula_sum   'Sm6 Se8'
_cell_volume   346.69722302
_cell_formula_units_Z   2
loop_
 _symmetry_equiv_pos_site_id
 _symmetry_equiv_pos_as_xyz
  1  'x, y, z'
loop_
 _atom_site_type_symbol
 _atom_site_label
 _atom_site_symmetry_multiplicity
 _atom_site_fract_x
 _atom_site_fract_y
 _atom_site_fract_z
 _atom_site_occupancy
  Se  Se0  1  0.64741007  0.64741007  0.64741007  1
  Se  Se1  1  0.35258993  0.50000000  0.00000000  1
  Se  Se2  1  0.50000000  0.00000000  0.35258993  1
  Se  Se3  1  0.00000000  0.35258993  0.50000000  1
  Se  Se4  1  0.50000000  0.00000000  0.85258993  1
  Se  Se5  1  0.00000000  0.85258993  0.50000000  1
  Se  Se6  1  0.14741007  0.14741007  0.14741007  1
  Se  Se7  1  0.85258993  0.50000000  0.00000000  1
  Sm  Sm8  1  0.75000000  0.87500000  0.12500000  1
  Sm  Sm9  1  0.62500000  0.37500000  0.25000000  1
  Sm  Sm10  1  0.87500000  0.12500000  0.75000000  1
  Sm  Sm11  1  0.12500000  0.75000000  0.87500000  1
  Sm  Sm12  1  0.37500000  0.25000000  0.62500000  1
  Sm  Sm13  1  0.25000000  0.62500000  0.37500000  1
