# generated using pymatgen
data_LiLa4CoO8
_symmetry_space_group_name_H-M   'P 1'
_cell_length_a   5.34316263
_cell_length_b   5.33344875
_cell_length_c   7.01536221
_cell_angle_alpha   112.30152676
_cell_angle_beta   89.99819182
_cell_angle_gamma   89.99785398
_symmetry_Int_Tables_number   1
_chemical_formula_structural   LiLa4CoO8
_chemical_formula_sum   'Li1 La4 Co1 O8'
_cell_volume   184.96606496
_cell_formula_units_Z   1
loop_
 _symmetry_equiv_pos_site_id
 _symmetry_equiv_pos_as_xyz
  1  'x, y, z'
loop_
 _atom_site_type_symbol
 _atom_site_label
 _atom_site_symmetry_multiplicity
 _atom_site_fract_x
 _atom_site_fract_y
 _atom_site_fract_z
 _atom_site_occupancy
  Li  Li0  1  0.99999921  0.49999979  0.00000052  1
  La  La1  1  0.49999060  0.36179625  0.72470552  1
  La  La2  1  1.00004814  0.13824362  0.27629119  1
  La  La3  1  -0.00004512  0.86175794  0.72370845  1
  La  La4  1  0.50000813  0.63820409  0.27529435  1
  Co  Co5  1  0.50000017  0.00000018  0.00000014  1
  O  O6  1  0.99999198  0.68151563  0.36310160  1
  O  O7  1  0.50000935  0.82071538  0.64116953  1
  O  O8  1  0.74424372  0.24576077  0.99992492  1
  O  O9  1  0.74413578  0.75415356  1.00005810  1
  O  O10  1  0.49998960  0.17928434  0.35883002  1
  O  O11  1  0.00001161  0.31848115  0.63689851  1
  O  O12  1  0.25575494  0.75424074  0.00007528  1
  O  O13  1  0.25586291  0.24584757  -0.00005813  1
