# generated using pymatgen
data_RbCr4O8
_symmetry_space_group_name_H-M   'P 1'
_cell_length_a   3.02097377
_cell_length_b   7.23149923
_cell_length_c   7.25085842
_cell_angle_alpha   87.22054552
_cell_angle_beta   78.03435622
_cell_angle_gamma   77.44969836
_symmetry_Int_Tables_number   1
_chemical_formula_structural   RbCr4O8
_chemical_formula_sum   'Rb1 Cr4 O8'
_cell_volume   151.25800909
_cell_formula_units_Z   1
loop_
 _symmetry_equiv_pos_site_id
 _symmetry_equiv_pos_as_xyz
  1  'x, y, z'
loop_
 _atom_site_type_symbol
 _atom_site_label
 _atom_site_symmetry_multiplicity
 _atom_site_fract_x
 _atom_site_fract_y
 _atom_site_fract_z
 _atom_site_occupancy
  O  O0  1  0.46320505  0.69984385  0.37348576  1
  O  O1  1  0.54839275  0.29561790  0.62305212  1
  O  O2  1  0.83882353  0.62502766  0.69893434  1
  O  O3  1  0.16650317  0.37293508  0.29617415  1
  O  O4  1  0.84666330  0.36359587  0.95313328  1
  O  O5  1  0.20423469  0.94973601  0.63799943  1
  O  O6  1  0.15586920  0.64252367  0.05181916  1
  O  O7  1  0.78497457  0.04873580  0.36188301  1
  Cr  Cr8  1  0.14689069  0.18371447  0.49079038  1
  Cr  Cr9  1  0.65963485  0.51070783  0.18399372  1
  Cr  Cr10  1  0.83735771  0.81438066  0.50985230  1
  Cr  Cr11  1  0.34866901  0.49175461  0.81775650  1
  Rb  Rb12  1  0.49878222  1.00142483  0.00112513  1
