# generated using pymatgen
data_LiSbWO6
_symmetry_space_group_name_H-M   'P 1'
_cell_length_a   4.75928767
_cell_length_b   5.09390505
_cell_length_c   17.74070424
_cell_angle_alpha   90.00000000
_cell_angle_beta   90.00000000
_cell_angle_gamma   90.00000000
_symmetry_Int_Tables_number   1
_chemical_formula_structural   LiSbWO6
_chemical_formula_sum   'Li4 Sb4 W4 O24'
_cell_volume   430.09427061
_cell_formula_units_Z   4
loop_
 _symmetry_equiv_pos_site_id
 _symmetry_equiv_pos_as_xyz
  1  'x, y, z'
loop_
 _atom_site_type_symbol
 _atom_site_label
 _atom_site_symmetry_multiplicity
 _atom_site_fract_x
 _atom_site_fract_y
 _atom_site_fract_z
 _atom_site_occupancy
  Li  Li0  1  0.00000000  0.75000000  0.95207143  1
  Li  Li1  1  0.50000000  0.25000000  0.54792857  1
  Li  Li2  1  0.00000000  0.25000000  0.04792857  1
  Li  Li3  1  0.50000000  0.75000000  0.45207143  1
  O  O4  1  0.29382925  0.56089197  0.86384695  1
  O  O5  1  0.73991533  0.92020505  0.20667501  1
  O  O6  1  0.23991533  0.07979495  0.29332499  1
  O  O7  1  0.76008467  0.42020505  0.29332499  1
  O  O8  1  0.26008467  0.57979495  0.20667501  1
  O  O9  1  0.26008467  0.07979495  0.79332499  1
  O  O10  1  0.76008467  0.92020505  0.70667501  1
  O  O11  1  0.23991533  0.57979495  0.70667501  1
  O  O12  1  0.79382925  0.43910803  0.63615305  1
  O  O13  1  0.29382925  0.06089197  0.13615305  1
  O  O14  1  0.70617075  0.93910803  0.86384695  1
  O  O15  1  0.20617075  0.06089197  0.63615305  1
  O  O16  1  0.20617075  0.56089197  0.36384695  1
  O  O17  1  0.70617075  0.43910803  0.13615305  1
  O  O18  1  0.75384018  0.39392631  0.95760684  1
  O  O19  1  0.79382925  0.93910803  0.36384695  1
  O  O20  1  0.75384018  0.89392631  0.04239316  1
  O  O21  1  0.25384018  0.60607369  0.54239316  1
  O  O22  1  0.74615982  0.89392631  0.54239316  1
  O  O23  1  0.24615982  0.10607369  0.95760684  1
  O  O24  1  0.24615982  0.60607369  0.04239316  1
  O  O25  1  0.74615982  0.39392631  0.45760684  1
  O  O26  1  0.25384018  0.10607369  0.45760684  1
  O  O27  1  0.73991533  0.42020505  0.79332499  1
  Sb  Sb28  1  0.00000000  0.75000000  0.28153665  1
  Sb  Sb29  1  0.00000000  0.25000000  0.71846335  1
  Sb  Sb30  1  0.50000000  0.75000000  0.78153665  1
  Sb  Sb31  1  0.50000000  0.25000000  0.21846335  1
  W  W32  1  0.50000000  0.25000000  0.89676286  1
  W  W33  1  0.00000000  0.25000000  0.39676286  1
  W  W34  1  0.50000000  0.75000000  0.10323714  1
  W  W35  1  0.00000000  0.75000000  0.60323714  1
