# generated using pymatgen
data_Tm2Si2O7
_symmetry_space_group_name_H-M   'P 1'
_cell_length_a   6.59043687
_cell_length_b   6.62392375
_cell_length_c   12.05587971
_cell_angle_alpha   94.05848066
_cell_angle_beta   91.88782093
_cell_angle_gamma   92.44646541
_symmetry_Int_Tables_number   1
_chemical_formula_structural   Tm2Si2O7
_chemical_formula_sum   'Tm8 Si8 O28'
_cell_volume   524.15412440
_cell_formula_units_Z   4
loop_
 _symmetry_equiv_pos_site_id
 _symmetry_equiv_pos_as_xyz
  1  'x, y, z'
loop_
 _atom_site_type_symbol
 _atom_site_label
 _atom_site_symmetry_multiplicity
 _atom_site_fract_x
 _atom_site_fract_y
 _atom_site_fract_z
 _atom_site_occupancy
  O  O0  1  0.50091920  0.48309158  0.81538614  1
  O  O1  1  0.49908080  0.51690842  0.18461386  1
  O  O2  1  0.50017654  0.83372666  0.91859032  1
  O  O3  1  0.49982346  0.16627334  0.08140968  1
  O  O4  1  0.85185831  0.70964338  0.81601852  1
  O  O5  1  0.14814169  0.29035662  0.18398148  1
  O  O6  1  0.73018454  0.58248730  0.00804452  1
  O  O7  1  0.26981546  0.41751270  0.99195548  1
  O  O8  1  0.57661258  0.90937755  0.30603218  1
  O  O9  1  0.42338742  0.09062245  0.69396782  1
  O  O10  1  0.46152278  0.27129183  0.41127178  1
  O  O11  1  0.53847722  0.72870817  0.58872822  1
  O  O12  1  0.79326110  0.28209568  0.30954160  1
  O  O13  1  0.20673890  0.71790432  0.69045840  1
  O  O14  1  0.77984131  0.07172972  0.48757968  1
  O  O15  1  0.22015869  0.92827028  0.51242032  1
  O  O16  1  0.14837532  0.01253204  0.87547737  1
  O  O17  1  0.85162468  0.98746796  0.12452263  1
  O  O18  1  0.11297664  0.36637503  0.78606370  1
  O  O19  1  0.88702336  0.63362497  0.21393630  1
  O  O20  1  0.79802017  0.20438582  0.90597015  1
  O  O21  1  0.20197983  0.79561418  0.09402985  1
  O  O22  1  0.90009130  0.06252228  0.69330700  1
  O  O23  1  0.09990870  0.93747772  0.30669300  1
  O  O24  1  0.08953472  0.32466525  0.55018084  1
  O  O25  1  0.91046528  0.67533475  0.44981916  1
  O  O26  1  0.72468096  0.40227411  0.62180873  1
  O  O27  1  0.27531904  0.59772589  0.37819127  1
  Si  Si28  1  0.64466785  0.12264458  0.37455519  1
  Si  Si29  1  0.35533215  0.87735542  0.62544481  1
  Si  Si30  1  0.12254730  0.77669261  0.40709266  1
  Si  Si31  1  0.87745270  0.22330739  0.59290734  1
  Si  Si32  1  0.01325518  0.83501953  0.17506970  1
  Si  Si33  1  0.98674482  0.16498047  0.82493030  1
  Si  Si34  1  0.65668764  0.64818125  0.88647691  1
  Si  Si35  1  0.34331236  0.35181875  0.11352309  1
  Tm  Tm36  1  0.82476737  0.32611622  0.11126482  1
  Tm  Tm37  1  0.17523263  0.67388378  0.88873518  1
  Tm  Tm38  1  0.86571770  0.71337581  0.63544503  1
  Tm  Tm39  1  0.13428230  0.28662419  0.36455497  1
  Tm  Tm40  1  0.61954260  0.58706322  0.35306323  1
  Tm  Tm41  1  0.38045740  0.41293678  0.64693677  1
  Tm  Tm42  1  0.54824992  0.82737242  0.11361830  1
  Tm  Tm43  1  0.45175008  0.17262758  0.88638170  1
