# generated using pymatgen
data_Ba2LuCu3O7
_symmetry_space_group_name_H-M   'P 1'
_cell_length_a   3.81890268
_cell_length_b   3.89846904
_cell_length_c   11.80187084
_cell_angle_alpha   90.00000000
_cell_angle_beta   90.00000000
_cell_angle_gamma   90.00000000
_symmetry_Int_Tables_number   1
_chemical_formula_structural   Ba2LuCu3O7
_chemical_formula_sum   'Ba2 Lu1 Cu3 O7'
_cell_volume   175.70476443
_cell_formula_units_Z   1
loop_
 _symmetry_equiv_pos_site_id
 _symmetry_equiv_pos_as_xyz
  1  'x, y, z'
loop_
 _atom_site_type_symbol
 _atom_site_label
 _atom_site_symmetry_multiplicity
 _atom_site_fract_x
 _atom_site_fract_y
 _atom_site_fract_z
 _atom_site_occupancy
  O  O0  1  0.00000000  0.50000000  0.00000000  1
  O  O1  1  0.00000000  0.50000000  0.38362312  1
  O  O2  1  0.00000000  0.50000000  0.61637688  1
  O  O3  1  0.50000000  0.00000000  0.38419421  1
  O  O4  1  0.50000000  0.00000000  0.61580579  1
  O  O5  1  0.00000000  0.00000000  0.15997983  1
  O  O6  1  0.00000000  0.00000000  0.84002017  1
  Cu  Cu7  1  0.00000000  0.00000000  0.35819464  1
  Cu  Cu8  1  0.00000000  0.00000000  0.64180536  1
  Cu  Cu9  1  0.00000000  0.00000000  0.00000000  1
  Ba  Ba10  1  0.50000000  0.50000000  0.18213720  1
  Ba  Ba11  1  0.50000000  0.50000000  0.81786280  1
  Lu  Lu12  1  0.50000000  0.50000000  0.50000000  1
