# generated using pymatgen
data_NdCu3(RuO3)4
_symmetry_space_group_name_H-M   'P 1'
_cell_length_a   6.52413407
_cell_length_b   6.52413407
_cell_length_c   6.52413407
_cell_angle_alpha   109.47122067
_cell_angle_beta   109.47122066
_cell_angle_gamma   109.47122058
_symmetry_Int_Tables_number   1
_chemical_formula_structural   NdCu3(RuO3)4
_chemical_formula_sum   'Nd1 Cu3 Ru4 O12'
_cell_volume   213.76999180
_cell_formula_units_Z   1
loop_
 _symmetry_equiv_pos_site_id
 _symmetry_equiv_pos_as_xyz
  1  'x, y, z'
loop_
 _atom_site_type_symbol
 _atom_site_label
 _atom_site_symmetry_multiplicity
 _atom_site_fract_x
 _atom_site_fract_y
 _atom_site_fract_z
 _atom_site_occupancy
  O  O0  1  0.69538272  0.17007066  0.86545338  1
  O  O1  1  0.30461728  0.82992934  0.13454662  1
  O  O2  1  0.69538272  0.82992934  0.52531207  1
  O  O3  1  0.17007066  0.47468793  0.30461728  1
  O  O4  1  0.47468793  0.30461728  0.17007066  1
  O  O5  1  0.86545338  0.69538272  0.17007066  1
  O  O6  1  0.82992934  0.13454662  0.30461728  1
  O  O7  1  0.52531207  0.69538272  0.82992934  1
  O  O8  1  0.30461728  0.17007066  0.47468793  1
  O  O9  1  0.82992934  0.52531207  0.69538272  1
  O  O10  1  0.13454662  0.30461728  0.82992934  1
  O  O11  1  0.17007066  0.86545338  0.69538272  1
  Cu  Cu12  1  0.50000000  0.00000000  0.50000000  1
  Cu  Cu13  1  0.00000000  0.50000000  0.50000000  1
  Cu  Cu14  1  0.50000000  0.50000000  0.00000000  1
  Ru  Ru15  1  0.50000000  0.00000000  0.00000000  1
  Ru  Ru16  1  0.00000000  0.00000000  0.50000000  1
  Ru  Ru17  1  0.00000000  0.50000000  0.00000000  1
  Ru  Ru18  1  0.50000000  0.50000000  0.50000000  1
  Nd  Nd19  1  0.00000000  0.00000000  0.00000000  1
