# generated using pymatgen
data_CaFe4As3
_symmetry_space_group_name_H-M   'P 1'
_cell_length_a   3.74461231
_cell_length_b   11.34674301
_cell_length_c   11.90226276
_cell_angle_alpha   90.00000000
_cell_angle_beta   90.00000000
_cell_angle_gamma   90.00000000
_symmetry_Int_Tables_number   1
_chemical_formula_structural   CaFe4As3
_chemical_formula_sum   'Ca4 Fe16 As12'
_cell_volume   505.71707005
_cell_formula_units_Z   4
loop_
 _symmetry_equiv_pos_site_id
 _symmetry_equiv_pos_as_xyz
  1  'x, y, z'
loop_
 _atom_site_type_symbol
 _atom_site_label
 _atom_site_symmetry_multiplicity
 _atom_site_fract_x
 _atom_site_fract_y
 _atom_site_fract_z
 _atom_site_occupancy
  Ca  Ca0  1  0.25000000  0.06662887  0.83294827  1
  Ca  Ca1  1  0.75000000  0.93337113  0.16705173  1
  Ca  Ca2  1  0.75000000  0.56662887  0.66705173  1
  Ca  Ca3  1  0.25000000  0.43337113  0.33294827  1
  Fe  Fe4  1  0.25000000  0.77520254  0.81074334  1
  Fe  Fe5  1  0.75000000  0.22479746  0.18925666  1
  Fe  Fe6  1  0.75000000  0.27520254  0.68925666  1
  Fe  Fe7  1  0.25000000  0.72479746  0.31074334  1
  Fe  Fe8  1  0.25000000  0.37134403  0.80688254  1
  Fe  Fe9  1  0.75000000  0.62865597  0.19311746  1
  Fe  Fe10  1  0.75000000  0.87134403  0.69311746  1
  Fe  Fe11  1  0.25000000  0.12865597  0.30688254  1
  Fe  Fe12  1  0.25000000  0.31670338  0.01390370  1
  Fe  Fe13  1  0.75000000  0.68329662  0.98609630  1
  Fe  Fe14  1  0.75000000  0.81670338  0.48609630  1
  Fe  Fe15  1  0.25000000  0.18329662  0.51390370  1
  Fe  Fe16  1  0.25000000  0.53899229  0.06808666  1
  Fe  Fe17  1  0.75000000  0.46100771  0.93191334  1
  Fe  Fe18  1  0.75000000  0.03899229  0.43191334  1
  Fe  Fe19  1  0.25000000  0.96100771  0.56808666  1
  As  As20  1  0.25000000  0.57538629  0.87342204  1
  As  As21  1  0.75000000  0.42461371  0.12657796  1
  As  As22  1  0.75000000  0.07538629  0.62657796  1
  As  As23  1  0.25000000  0.92461371  0.37342204  1
  As  As24  1  0.25000000  0.75999263  0.61162050  1
  As  As25  1  0.75000000  0.24000737  0.38837950  1
  As  As26  1  0.75000000  0.25999263  0.88837950  1
  As  As27  1  0.25000000  0.74000737  0.11162050  1
  As  As28  1  0.25000000  0.37339631  0.60284478  1
  As  As29  1  0.75000000  0.62660369  0.39715522  1
  As  As30  1  0.75000000  0.87339631  0.89715522  1
  As  As31  1  0.25000000  0.12660369  0.10284478  1
