# generated using pymatgen
data_Sr2Nb5O9
_symmetry_space_group_name_H-M   'P 1'
_cell_length_a   4.19962759
_cell_length_b   4.19962759
_cell_length_c   12.18683633
_cell_angle_alpha   90.00000000
_cell_angle_beta   90.00000000
_cell_angle_gamma   90.00000000
_symmetry_Int_Tables_number   1
_chemical_formula_structural   Sr2Nb5O9
_chemical_formula_sum   'Sr2 Nb5 O9'
_cell_volume   214.93767115
_cell_formula_units_Z   1
loop_
 _symmetry_equiv_pos_site_id
 _symmetry_equiv_pos_as_xyz
  1  'x, y, z'
loop_
 _atom_site_type_symbol
 _atom_site_label
 _atom_site_symmetry_multiplicity
 _atom_site_fract_x
 _atom_site_fract_y
 _atom_site_fract_z
 _atom_site_occupancy
  O  O0  1  0.00000000  0.00000000  0.50000000  1
  O  O1  1  0.00000000  0.50000000  0.67711088  1
  O  O2  1  0.50000000  0.00000000  0.67711088  1
  O  O3  1  0.00000000  0.50000000  0.32288912  1
  O  O4  1  0.50000000  0.00000000  0.32288912  1
  O  O5  1  0.50000000  0.50000000  0.83811610  1
  O  O6  1  0.50000000  0.50000000  0.16188390  1
  O  O7  1  0.50000000  0.00000000  0.00000000  1
  O  O8  1  0.00000000  0.50000000  0.00000000  1
  Sr  Sr9  1  0.00000000  0.00000000  0.16929385  1
  Sr  Sr10  1  0.00000000  0.00000000  0.83070615  1
  Nb  Nb11  1  0.50000000  0.50000000  0.33541073  1
  Nb  Nb12  1  0.50000000  0.00000000  0.50000000  1
  Nb  Nb13  1  0.00000000  0.50000000  0.50000000  1
  Nb  Nb14  1  0.50000000  0.50000000  0.66458927  1
  Nb  Nb15  1  0.50000000  0.50000000  0.00000000  1
