# generated using pymatgen
data_UCoSn
_symmetry_space_group_name_H-M   'P 1'
_cell_length_a   7.04743806
_cell_length_b   7.04743806
_cell_length_c   4.04809378
_cell_angle_alpha   90.00000000
_cell_angle_beta   90.00000000
_cell_angle_gamma   120.00000001
_symmetry_Int_Tables_number   1
_chemical_formula_structural   UCoSn
_chemical_formula_sum   'U3 Co3 Sn3'
_cell_volume   174.11802473
_cell_formula_units_Z   3
loop_
 _symmetry_equiv_pos_site_id
 _symmetry_equiv_pos_as_xyz
  1  'x, y, z'
loop_
 _atom_site_type_symbol
 _atom_site_label
 _atom_site_symmetry_multiplicity
 _atom_site_fract_x
 _atom_site_fract_y
 _atom_site_fract_z
 _atom_site_occupancy
  Co  Co0  1  0.33333333  0.66666667  0.00000000  1
  Co  Co1  1  0.00000000  0.00000000  0.50000000  1
  Co  Co2  1  0.66666667  0.33333333  0.00000000  1
  Sn  Sn3  1  0.74904069  0.74904069  0.00000000  1
  Sn  Sn4  1  0.00000000  0.25095931  0.00000000  1
  Sn  Sn5  1  0.25095931  0.00000000  0.00000000  1
  U  U6  1  0.00000000  0.58158692  0.50000000  1
  U  U7  1  0.41841308  0.41841308  0.50000000  1
  U  U8  1  0.58158692  0.00000000  0.50000000  1
