# generated using pymatgen
data_Li2CrCl4
_symmetry_space_group_name_H-M   'P 1'
_cell_length_a   7.17812230
_cell_length_b   7.17812231
_cell_length_c   7.57043354
_cell_angle_alpha   117.66990814
_cell_angle_beta   117.66990818
_cell_angle_gamma   89.04726019
_symmetry_Int_Tables_number   1
_chemical_formula_structural   Li2CrCl4
_chemical_formula_sum   'Li4 Cr2 Cl8'
_cell_volume   295.94020364
_cell_formula_units_Z   2
loop_
 _symmetry_equiv_pos_site_id
 _symmetry_equiv_pos_as_xyz
  1  'x, y, z'
loop_
 _atom_site_type_symbol
 _atom_site_label
 _atom_site_symmetry_multiplicity
 _atom_site_fract_x
 _atom_site_fract_y
 _atom_site_fract_z
 _atom_site_occupancy
  Li  Li0  1  0.10545151  0.89454849  0.75000000  1
  Li  Li1  1  0.89454849  0.10545151  0.25000000  1
  Li  Li2  1  0.50000000  0.50000000  0.00000000  1
  Li  Li3  1  0.50000000  0.50000000  0.50000000  1
  Cl  Cl4  1  0.28119938  0.25516010  0.52698105  1
  Cl  Cl5  1  0.73198919  0.22906446  0.49183893  1
  Cl  Cl6  1  0.77093554  0.26801081  1.00816107  1
  Cl  Cl7  1  0.26801081  0.77093554  0.50816107  1
  Cl  Cl8  1  0.22906446  0.73198919  -0.00816107  1
  Cl  Cl9  1  0.71880062  0.74483990  0.47301895  1
  Cl  Cl10  1  0.25516010  0.28119938  0.02698105  1
  Cl  Cl11  1  0.74483990  0.71880062  0.97301895  1
  Cr  Cr12  1  0.50000000  0.00000000  0.50000000  1
  Cr  Cr13  1  0.00000000  0.50000000  0.00000000  1
