# generated using pymatgen
data_K2Li2FeO4
_symmetry_space_group_name_H-M   'P 1'
_cell_length_a   5.58375473
_cell_length_b   9.26153207
_cell_length_c   11.30167824
_cell_angle_alpha   90.00000000
_cell_angle_beta   113.48835676
_cell_angle_gamma   90.00000000
_symmetry_Int_Tables_number   1
_chemical_formula_structural   K2Li2FeO4
_chemical_formula_sum   'K8 Li8 Fe4 O16'
_cell_volume   536.02896378
_cell_formula_units_Z   4
loop_
 _symmetry_equiv_pos_site_id
 _symmetry_equiv_pos_as_xyz
  1  'x, y, z'
loop_
 _atom_site_type_symbol
 _atom_site_label
 _atom_site_symmetry_multiplicity
 _atom_site_fract_x
 _atom_site_fract_y
 _atom_site_fract_z
 _atom_site_occupancy
  Li  Li0  1  0.35592450  0.52283175  0.06726709  1
  Li  Li1  1  0.60894091  0.76174046  0.18389212  1
  Li  Li2  1  0.64407550  0.02283175  0.43273291  1
  Li  Li3  1  0.39105909  0.26174046  0.31610788  1
  Li  Li4  1  0.60894091  0.73825954  0.68389212  1
  Li  Li5  1  0.35592450  0.97716825  0.56726709  1
  Li  Li6  1  0.64407550  0.47716825  0.93273291  1
  Li  Li7  1  0.39105909  0.23825954  0.81610788  1
  O  O8  1  0.70994068  0.67288094  0.86743276  1
  O  O9  1  0.77184697  0.28189412  0.91010669  1
  O  O10  1  0.28399594  0.08250427  0.38705547  1
  O  O11  1  0.19283343  0.37862186  0.39592722  1
  O  O12  1  0.29005932  0.32711906  0.13256724  1
  O  O13  1  0.22815303  0.71810588  0.08989331  1
  O  O14  1  0.71600406  0.91749573  0.61294453  1
  O  O15  1  0.80716657  0.62137814  0.60407278  1
  O  O16  1  0.77184697  0.21810588  0.41010669  1
  O  O17  1  0.70994068  0.82711906  0.36743276  1
  O  O18  1  0.80716657  0.87862186  0.10407278  1
  O  O19  1  0.71600406  0.58250427  0.11294453  1
  O  O20  1  0.19283343  0.12137814  0.89592722  1
  O  O21  1  0.28399594  0.41749573  0.88705547  1
  O  O22  1  0.29005932  0.17288094  0.63256724  1
  O  O23  1  0.22815303  0.78189412  0.58989331  1
  K  K24  1  0.81068083  0.28357412  0.15728707  1
  K  K25  1  0.69017386  0.50610336  0.36200955  1
  K  K26  1  0.81068083  0.21642588  0.65728707  1
  K  K27  1  0.30982614  0.00610336  0.13799045  1
  K  K28  1  0.69017386  0.99389664  0.86200955  1
  K  K29  1  0.18931917  0.78357412  0.34271293  1
  K  K30  1  0.30982614  0.49389664  0.63799045  1
  K  K31  1  0.18931917  0.71642588  0.84271293  1
  Fe  Fe32  1  0.87509697  0.71146709  0.04309783  1
  Fe  Fe33  1  0.87509697  0.78853291  0.54309783  1
  Fe  Fe34  1  0.12490303  0.21146709  0.45690217  1
  Fe  Fe35  1  0.12490303  0.28853291  0.95690217  1
