# generated using pymatgen
data_Na2CrCl4
_symmetry_space_group_name_H-M   'P 1'
_cell_length_a   4.03848774
_cell_length_b   7.01662126
_cell_length_c   11.62827817
_cell_angle_alpha   90.00000000
_cell_angle_beta   90.00000000
_cell_angle_gamma   93.81462372
_symmetry_Int_Tables_number   1
_chemical_formula_structural   Na2CrCl4
_chemical_formula_sum   'Na4 Cr2 Cl8'
_cell_volume   328.77514523
_cell_formula_units_Z   2
loop_
 _symmetry_equiv_pos_site_id
 _symmetry_equiv_pos_as_xyz
  1  'x, y, z'
loop_
 _atom_site_type_symbol
 _atom_site_label
 _atom_site_symmetry_multiplicity
 _atom_site_fract_x
 _atom_site_fract_y
 _atom_site_fract_z
 _atom_site_occupancy
  Na  Na0  1  0.48323862  0.09393946  0.68032572  1
  Na  Na1  1  0.51676138  0.40606054  0.18032572  1
  Na  Na2  1  0.48323862  0.59393946  0.81967428  1
  Na  Na3  1  0.51676138  0.90606054  0.31967428  1
  Cl  Cl4  1  0.43319335  0.24021702  0.95302835  1
  Cl  Cl5  1  0.56680665  0.25978298  0.45302835  1
  Cl  Cl6  1  0.99192035  0.88463346  0.80651424  1
  Cl  Cl7  1  0.00807965  0.61536654  0.30651424  1
  Cl  Cl8  1  0.00807965  0.11536654  0.19348576  1
  Cl  Cl9  1  0.99192035  0.38463346  0.69348576  1
  Cl  Cl10  1  0.56680665  0.75978298  0.04697165  1
  Cl  Cl11  1  0.43319335  0.74021702  0.54697165  1
  Cr  Cr12  1  0.00000000  0.50000000  0.50000000  1
  Cr  Cr13  1  0.00000000  0.00000000  0.00000000  1
