# generated using pymatgen
data_RbTiI3
_symmetry_space_group_name_H-M   'P 1'
_cell_length_a   14.13681795
_cell_length_b   14.13681794
_cell_length_c   7.00956230
_cell_angle_alpha   90.00000000
_cell_angle_beta   90.00000000
_cell_angle_gamma   119.99999999
_symmetry_Int_Tables_number   1
_chemical_formula_structural   RbTiI3
_chemical_formula_sum   'Rb6 Ti6 I18'
_cell_volume   1213.17893891
_cell_formula_units_Z   6
loop_
 _symmetry_equiv_pos_site_id
 _symmetry_equiv_pos_as_xyz
  1  'x, y, z'
loop_
 _atom_site_type_symbol
 _atom_site_label
 _atom_site_symmetry_multiplicity
 _atom_site_fract_x
 _atom_site_fract_y
 _atom_site_fract_z
 _atom_site_occupancy
  Ti  Ti0  1  0.66666667  0.33333333  0.08657211  1
  Ti  Ti1  1  0.33333333  0.66666667  0.58657211  1
  Ti  Ti2  1  0.66666667  0.33333333  0.58657211  1
  Ti  Ti3  1  0.33333333  0.66666667  0.08657211  1
  Ti  Ti4  1  0.00000000  0.00000000  0.49427102  1
  Ti  Ti5  1  0.00000000  0.00000000  0.99427102  1
  Rb  Rb6  1  0.67011792  0.67011792  0.78616262  1
  Rb  Rb7  1  0.00000000  0.67011792  0.28616262  1
  Rb  Rb8  1  0.67011792  0.00000000  0.28616262  1
  Rb  Rb9  1  0.32988208  0.00000000  0.78616262  1
  Rb  Rb10  1  0.00000000  0.32988208  0.78616262  1
  Rb  Rb11  1  0.32988208  0.32988208  0.28616262  1
  I  I12  1  0.16283358  0.00000000  0.24311453  1
  I  I13  1  0.16283358  0.16283358  0.74311453  1
  I  I14  1  0.00000000  0.83716642  0.74311453  1
  I  I15  1  0.00000000  0.16283358  0.24311453  1
  I  I16  1  0.83716642  0.83716642  0.24311453  1
  I  I17  1  0.83716642  0.00000000  0.74311453  1
  I  I18  1  0.50409869  0.17119555  0.33712555  1
  I  I19  1  0.33290314  0.50409869  0.83712555  1
  I  I20  1  0.17119555  0.66709686  0.83712555  1
  I  I21  1  0.82880445  0.33290314  0.33712555  1
  I  I22  1  0.66709686  0.49590131  0.33712555  1
  I  I23  1  0.49590131  0.82880445  0.83712555  1
  I  I24  1  0.66709686  0.17119555  0.83712555  1
  I  I25  1  0.50409869  0.33290314  0.83712555  1
  I  I26  1  0.82880445  0.49590131  0.83712555  1
  I  I27  1  0.17119555  0.50409869  0.33712555  1
  I  I28  1  0.33290314  0.82880445  0.33712555  1
  I  I29  1  0.49590131  0.66709686  0.33712555  1
