# generated using pymatgen
data_Li3Bi2(PO4)3
_symmetry_space_group_name_H-M   'P 1'
_cell_length_a   8.87366507
_cell_length_b   9.36366837
_cell_length_c   13.00954347
_cell_angle_alpha   90.00000000
_cell_angle_beta   91.42928348
_cell_angle_gamma   90.00000000
_symmetry_Int_Tables_number   1
_chemical_formula_structural   Li3Bi2(PO4)3
_chemical_formula_sum   'Li12 Bi8 P12 O48'
_cell_volume   1080.62738919
_cell_formula_units_Z   4
loop_
 _symmetry_equiv_pos_site_id
 _symmetry_equiv_pos_as_xyz
  1  'x, y, z'
loop_
 _atom_site_type_symbol
 _atom_site_label
 _atom_site_symmetry_multiplicity
 _atom_site_fract_x
 _atom_site_fract_y
 _atom_site_fract_z
 _atom_site_occupancy
  Li  Li0  1  0.05522846  0.50751581  0.64924019  1
  Li  Li1  1  0.94477154  0.49248419  0.35075981  1
  Li  Li2  1  0.90794377  0.91552785  0.68296857  1
  Li  Li3  1  0.82372162  0.21880041  0.18468862  1
  Li  Li4  1  0.67627838  0.71880041  0.31531138  1
  Li  Li5  1  0.59205623  0.41552785  0.81703143  1
  Li  Li6  1  0.55522846  0.99248419  0.14924019  1
  Li  Li7  1  0.44477154  0.00751581  0.85075981  1
  Li  Li8  1  0.40794377  0.58447215  0.18296857  1
  Li  Li9  1  0.09205623  0.08447215  0.31703143  1
  Li  Li10  1  0.17627838  0.78119959  0.81531138  1
  Li  Li11  1  0.32372162  0.28119959  0.68468862  1
  O  O12  1  0.20724808  0.20078802  0.56080658  1
  O  O13  1  0.88464882  0.77899837  0.79445203  1
  O  O14  1  0.89563632  0.00205528  0.25907873  1
  O  O15  1  0.89943878  0.62995139  0.57733210  1
  O  O16  1  0.94550857  0.43092486  0.20335900  1
  O  O17  1  0.95984194  0.32870241  0.58923032  1
  O  O18  1  0.97965325  0.11639672  0.89563946  1
  O  O19  1  0.98184986  0.13493370  0.44737362  1
  O  O20  1  0.01815014  0.86506630  0.55262638  1
  O  O21  1  0.02034675  0.88360328  0.10436054  1
  O  O22  1  0.04015806  0.67129759  0.41076968  1
  O  O23  1  0.05449143  0.56907514  0.79664100  1
  O  O24  1  0.10056122  0.37004861  0.42266790  1
  O  O25  1  0.10436368  0.99794472  0.74092127  1
  O  O26  1  0.11535118  0.22100163  0.20554797  1
  O  O27  1  0.13060689  0.39314754  0.05794523  1
  O  O28  1  0.18642048  0.24877824  0.80084266  1
  O  O29  1  0.86939311  0.60685246  0.94205477  1
  O  O30  1  0.22757807  0.47512094  0.23335048  1
  O  O31  1  0.24753863  0.02663379  0.90689918  1
  O  O32  1  0.25246137  0.52663379  0.59310082  1
  O  O33  1  0.27242193  0.97512094  0.26664952  1
  O  O34  1  0.29275192  0.70078802  0.93919342  1
  O  O35  1  0.31357952  0.74877824  0.69915734  1
  O  O36  1  0.36939311  0.89314754  0.44205477  1
  O  O37  1  0.38464882  0.72100163  0.29445203  1
  O  O38  1  0.39563632  0.49794472  0.75907873  1
  O  O39  1  0.39943878  0.87004861  0.07733210  1
  O  O40  1  0.44550857  0.06907514  0.70335900  1
  O  O41  1  0.45984194  0.17129759  0.08923032  1
  O  O42  1  0.48184986  0.36506630  0.94737362  1
  O  O43  1  0.47965325  0.38360328  0.39563946  1
  O  O44  1  0.52034675  0.61639672  0.60436054  1
  O  O45  1  0.51815014  0.63493370  0.05262638  1
  O  O46  1  0.54015806  0.82870241  0.91076968  1
  O  O47  1  0.55449143  0.93092486  0.29664100  1
  O  O48  1  0.60056122  0.12995139  0.92266790  1
  O  O49  1  0.60436368  0.50205528  0.24092127  1
  O  O50  1  0.61535118  0.27899837  0.70554797  1
  O  O51  1  0.63060689  0.10685246  0.55794523  1
  O  O52  1  0.81357952  0.75122176  0.19915734  1
  O  O53  1  0.70724808  0.29921198  0.06080658  1
  O  O54  1  0.72757807  0.02487906  0.73335048  1
  O  O55  1  0.74753863  0.47336621  0.40689918  1
  O  O56  1  0.75246137  0.97336621  0.09310082  1
  O  O57  1  0.77242193  0.52487906  0.76664952  1
  O  O58  1  0.79275192  0.79921198  0.43919342  1
  O  O59  1  0.68642048  0.25122176  0.30084266  1
  P  P60  1  0.37335946  0.60074514  0.66465441  1
  P  P61  1  0.39077098  0.88086635  0.32513546  1
  P  P62  1  0.44007325  0.75908705  0.99228279  1
  P  P63  1  0.55992675  0.24091295  0.00771721  1
  P  P64  1  0.60922902  0.11913365  0.67486454  1
  P  P65  1  0.62664054  0.39925486  0.33534559  1
  P  P66  1  0.87335946  0.89925486  0.16465441  1
  P  P67  1  0.89077098  0.61913365  0.82513546  1
  P  P68  1  0.05992675  0.25908705  0.50771721  1
  P  P69  1  0.10922902  0.38086635  0.17486454  1
  P  P70  1  0.12664054  0.10074514  0.83534559  1
  P  P71  1  0.94007325  0.74091295  0.49228279  1
  Bi  Bi72  1  0.75961981  0.54283308  0.09453527  1
  Bi  Bi73  1  0.77832669  0.95991373  0.90785002  1
  Bi  Bi74  1  0.74038019  0.04283308  0.40546473  1
  Bi  Bi75  1  0.72167331  0.45991373  0.59214998  1
  Bi  Bi76  1  0.27832669  0.54008627  0.40785002  1
  Bi  Bi77  1  0.25961981  0.95716692  0.59453527  1
  Bi  Bi78  1  0.22167331  0.04008627  0.09214998  1
  Bi  Bi79  1  0.24038019  0.45716692  0.90546473  1
