# generated using pymatgen
data_Bi9I2
_symmetry_space_group_name_H-M   'P 1'
_cell_length_a   4.48436917
_cell_length_b   13.52802041
_cell_length_c   15.44790018
_cell_angle_alpha   114.97643260
_cell_angle_beta   90.00000000
_cell_angle_gamma   90.00000000
_symmetry_Int_Tables_number   1
_chemical_formula_structural   Bi9I2
_chemical_formula_sum   'Bi18 I4'
_cell_volume   849.50126381
_cell_formula_units_Z   2
loop_
 _symmetry_equiv_pos_site_id
 _symmetry_equiv_pos_as_xyz
  1  'x, y, z'
loop_
 _atom_site_type_symbol
 _atom_site_label
 _atom_site_symmetry_multiplicity
 _atom_site_fract_x
 _atom_site_fract_y
 _atom_site_fract_z
 _atom_site_occupancy
  I  I0  1  0.75000000  0.33678703  0.46621190  1
  I  I1  1  0.25000000  0.66321297  0.53378810  1
  I  I2  1  0.75000000  0.98633664  0.62708742  1
  I  I3  1  0.25000000  0.01366336  0.37291258  1
  Bi  Bi4  1  0.25000000  0.49601100  0.66674658  1
  Bi  Bi5  1  0.75000000  0.50398900  0.33325342  1
  Bi  Bi6  1  0.25000000  0.38544283  0.18969213  1
  Bi  Bi7  1  0.75000000  0.61455717  0.81030787  1
  Bi  Bi8  1  0.25000000  0.19405336  0.24907089  1
  Bi  Bi9  1  0.75000000  0.80594664  0.75092911  1
  Bi  Bi10  1  0.25000000  0.92626019  0.89318235  1
  Bi  Bi11  1  0.75000000  0.07373981  0.10681765  1
  Bi  Bi12  1  0.25000000  0.12319237  0.83872398  1
  Bi  Bi13  1  0.75000000  0.87680763  0.16127602  1
  Bi  Bi14  1  0.25000000  0.75943369  0.01827396  1
  Bi  Bi15  1  0.75000000  0.24056631  0.98172604  1
  Bi  Bi16  1  0.25000000  0.56086027  0.07057654  1
  Bi  Bi17  1  0.75000000  0.43913973  0.92942346  1
  Bi  Bi18  1  0.75000000  0.69872530  0.28038312  1
  Bi  Bi19  1  0.25000000  0.30127470  0.71961688  1
  Bi  Bi20  1  0.75000000  0.18310796  0.57277488  1
  Bi  Bi21  1  0.25000000  0.81689204  0.42722512  1
