# generated using pymatgen
data_Hg3Pd
_symmetry_space_group_name_H-M   'P 1'
_cell_length_a   5.94057639
_cell_length_b   5.94057593
_cell_length_c   5.48806210
_cell_angle_alpha   90.00000000
_cell_angle_beta   90.00000000
_cell_angle_gamma   119.99999791
_symmetry_Int_Tables_number   1
_chemical_formula_structural   Hg3Pd
_chemical_formula_sum   'Hg6 Pd2'
_cell_volume   167.72847322
_cell_formula_units_Z   2
loop_
 _symmetry_equiv_pos_site_id
 _symmetry_equiv_pos_as_xyz
  1  'x, y, z'
loop_
 _atom_site_type_symbol
 _atom_site_label
 _atom_site_symmetry_multiplicity
 _atom_site_fract_x
 _atom_site_fract_y
 _atom_site_fract_z
 _atom_site_occupancy
  Hg  Hg0  1  0.83135068  0.16864832  0.75000000  1
  Hg  Hg1  1  0.33729965  0.16864832  0.75000000  1
  Hg  Hg2  1  0.83135068  0.66270135  0.75000000  1
  Hg  Hg3  1  0.16864932  0.83134968  0.24999900  1
  Hg  Hg4  1  0.66270035  0.83134968  0.24999900  1
  Hg  Hg5  1  0.16864932  0.33729865  0.24999900  1
  Pd  Pd6  1  0.66666700  0.33333300  0.24999900  1
  Pd  Pd7  1  0.33333400  0.66666700  0.75000000  1
