# generated using pymatgen
data_Li3NiPCO7
_symmetry_space_group_name_H-M   'P 1'
_cell_length_a   4.97499646
_cell_length_b   6.41963083
_cell_length_c   8.39751154
_cell_angle_alpha   90.00000000
_cell_angle_beta   84.49313444
_cell_angle_gamma   90.00000000
_symmetry_Int_Tables_number   1
_chemical_formula_structural   Li3NiPCO7
_chemical_formula_sum   'Li6 Ni2 P2 C2 O14'
_cell_volume   266.95889944
_cell_formula_units_Z   2
loop_
 _symmetry_equiv_pos_site_id
 _symmetry_equiv_pos_as_xyz
  1  'x, y, z'
loop_
 _atom_site_type_symbol
 _atom_site_label
 _atom_site_symmetry_multiplicity
 _atom_site_fract_x
 _atom_site_fract_y
 _atom_site_fract_z
 _atom_site_occupancy
  Li  Li0  1  0.73625297  0.98414893  0.72522084  1
  Li  Li1  1  0.26374685  0.01585096  0.27477825  1
  Li  Li2  1  0.78915227  0.25000075  0.10399581  1
  Li  Li3  1  0.21084743  0.75000070  0.89600448  1
  Li  Li4  1  0.73625297  0.51585090  0.72522084  1
  Li  Li5  1  0.26374685  0.48414899  0.27477825  1
  C  C6  1  0.68449646  0.75000070  0.04187159  1
  C  C7  1  0.31550538  0.25000075  0.95812745  1
  O  O8  1  0.16493069  0.75000070  0.42029292  1
  O  O9  1  0.93429142  0.75000070  0.07314734  1
  O  O10  1  0.49992979  0.25000075  0.83622354  1
  O  O11  1  0.50007193  0.75000070  0.16377669  1
  O  O12  1  0.16751826  0.56235428  0.69233668  1
  O  O13  1  0.06570839  0.25000075  0.92685175  1
  O  O14  1  0.16751826  0.93764555  0.69233668  1
  O  O15  1  0.83248145  0.43764561  0.30766360  1
  O  O16  1  0.83248145  0.06235434  0.30766360  1
  O  O17  1  0.41262821  0.25000075  0.43706365  1
  O  O18  1  0.61657718  0.75000070  0.89684270  1
  O  O19  1  0.38342252  0.25000075  0.10315759  1
  O  O20  1  0.58737149  0.75000070  0.56293664  1
  O  O21  1  0.83506912  0.25000075  0.57970617  1
  P  P22  1  0.72825271  0.25000075  0.41368740  1
  P  P23  1  0.27174699  0.75000070  0.58631289  1
  Ni  Ni24  1  0.79227152  0.75000070  0.33262242  1
  Ni  Ni25  1  0.20772819  0.25000075  0.66737786  1
