# generated using pymatgen
data_LiCoP2O7
_symmetry_space_group_name_H-M   'P 1'
_cell_length_a   5.06589011
_cell_length_b   6.78757911
_cell_length_c   8.20519650
_cell_angle_alpha   67.86135905
_cell_angle_beta   87.76922787
_cell_angle_gamma   87.94964976
_symmetry_Int_Tables_number   1
_chemical_formula_structural   LiCoP2O7
_chemical_formula_sum   'Li2 Co2 P4 O14'
_cell_volume   261.07015367
_cell_formula_units_Z   2
loop_
 _symmetry_equiv_pos_site_id
 _symmetry_equiv_pos_as_xyz
  1  'x, y, z'
loop_
 _atom_site_type_symbol
 _atom_site_label
 _atom_site_symmetry_multiplicity
 _atom_site_fract_x
 _atom_site_fract_y
 _atom_site_fract_z
 _atom_site_occupancy
  Li  Li0  1  0.28225160  0.83187104  0.00033014  1
  Li  Li1  1  0.78060573  0.18051097  0.43469810  1
  Co  Co2  1  0.76065697  0.79454435  0.26953077  1
  Co  Co3  1  0.23737515  0.22842165  0.72654031  1
  P  P4  1  0.71697484  0.54045445  0.68958909  1
  P  P5  1  0.27998323  0.45760503  0.30747252  1
  P  P6  1  0.23947930  0.11674135  0.17128416  1
  P  P7  1  0.76758139  0.89008962  0.82889665  1
  O  O8  1  0.81843237  0.70524783  0.51442968  1
  O  O9  1  0.71736745  0.65551471  0.82903820  1
  O  O10  1  0.89535201  0.34559025  0.76591367  1
  O  O11  1  0.14724833  0.29420382  0.47237485  1
  O  O12  1  0.59118047  0.05151250  0.69143283  1
  O  O13  1  0.44700766  0.97251031  0.29239780  1
  O  O14  1  0.42892707  0.48102419  0.68326328  1
  O  O15  1  0.06281891  0.93313713  0.79113691  1
  O  O16  1  0.95469912  0.06339842  0.24364568  1
  O  O17  1  0.11776937  0.66397522  0.22301537  1
  O  O18  1  0.67964809  0.85396464  0.01981360  1
  O  O19  1  0.27964484  0.35745504  0.15585398  1
  O  O20  1  0.57045461  0.49304574  0.32955925  1
  O  O21  1  0.27930249  0.12454573  0.98429715  1
