# generated using pymatgen
data_K2Mn3S4
_symmetry_space_group_name_H-M   'P 1'
_cell_length_a   6.02701179
_cell_length_b   7.31283691
_cell_length_c   10.76027188
_cell_angle_alpha   106.62509149
_cell_angle_beta   90.00000000
_cell_angle_gamma   90.00000000
_symmetry_Int_Tables_number   1
_chemical_formula_structural   K2Mn3S4
_chemical_formula_sum   'K4 Mn6 S8'
_cell_volume   454.42911520
_cell_formula_units_Z   2
loop_
 _symmetry_equiv_pos_site_id
 _symmetry_equiv_pos_as_xyz
  1  'x, y, z'
loop_
 _atom_site_type_symbol
 _atom_site_label
 _atom_site_symmetry_multiplicity
 _atom_site_fract_x
 _atom_site_fract_y
 _atom_site_fract_z
 _atom_site_occupancy
  S  S0  1  0.46536588  0.27124196  0.06311868  1
  S  S1  1  0.96744347  0.04087020  0.83303641  1
  S  S2  1  0.96744347  0.45912980  0.66696359  1
  S  S3  1  0.46536588  0.22875804  0.43688132  1
  S  S4  1  0.03255653  0.54087020  0.33303641  1
  S  S5  1  0.03255653  0.95912980  0.16696359  1
  S  S6  1  0.53463412  0.77124196  0.56311868  1
  S  S7  1  0.53463412  0.72875804  0.93688132  1
  K  K8  1  0.50550422  0.75000000  0.25000000  1
  K  K9  1  0.00000000  0.00000000  0.50000000  1
  K  K10  1  0.00000000  0.50000000  0.00000000  1
  K  K11  1  0.49449578  0.25000000  0.75000000  1
  Mn  Mn12  1  0.75003750  0.46958217  0.47086645  1
  Mn  Mn13  1  0.75003750  0.03041783  0.02913355  1
  Mn  Mn14  1  0.24996250  0.53041783  0.52913355  1
  Mn  Mn15  1  0.24996250  0.96958217  0.97086645  1
  Mn  Mn16  1  0.75059968  0.75000000  0.75000000  1
  Mn  Mn17  1  0.24940032  0.25000000  0.25000000  1
