# generated using pymatgen
data_Hg5Pd2
_symmetry_space_group_name_H-M   'P 1'
_cell_length_a   3.00102853
_cell_length_b   9.95158098
_cell_length_c   9.95158098
_cell_angle_alpha   90.00000000
_cell_angle_beta   90.00000000
_cell_angle_gamma   90.00000000
_symmetry_Int_Tables_number   1
_chemical_formula_structural   Hg5Pd2
_chemical_formula_sum   'Hg10 Pd4'
_cell_volume   297.20375141
_cell_formula_units_Z   2
loop_
 _symmetry_equiv_pos_site_id
 _symmetry_equiv_pos_as_xyz
  1  'x, y, z'
loop_
 _atom_site_type_symbol
 _atom_site_label
 _atom_site_symmetry_multiplicity
 _atom_site_fract_x
 _atom_site_fract_y
 _atom_site_fract_z
 _atom_site_occupancy
  Pd  Pd0  1  0.50000000  0.81984127  0.31984127  1
  Pd  Pd1  1  0.50000000  0.68015873  0.81984127  1
  Pd  Pd2  1  0.50000000  0.31984127  0.18015873  1
  Pd  Pd3  1  0.50000000  0.18015873  0.68015873  1
  Hg  Hg4  1  0.00000000  0.20483887  0.93598915  1
  Hg  Hg5  1  0.00000000  0.93598915  0.79516113  1
  Hg  Hg6  1  0.00000000  0.56401085  0.29516113  1
  Hg  Hg7  1  0.00000000  0.43598915  0.70483887  1
  Hg  Hg8  1  0.00000000  0.70483887  0.56401085  1
  Hg  Hg9  1  0.00000000  0.29516113  0.43598915  1
  Hg  Hg10  1  0.00000000  0.79516113  0.06401085  1
  Hg  Hg11  1  0.00000000  0.06401085  0.20483887  1
  Hg  Hg12  1  0.00000000  0.50000000  0.00000000  1
  Hg  Hg13  1  0.00000000  0.00000000  0.50000000  1
