# generated using pymatgen
data_LiCoP2O7
_symmetry_space_group_name_H-M   'P 1'
_cell_length_a   5.07604022
_cell_length_b   7.91864926
_cell_length_c   13.45187639
_cell_angle_alpha   90.00000000
_cell_angle_beta   89.74459481
_cell_angle_gamma   90.00000000
_symmetry_Int_Tables_number   1
_chemical_formula_structural   LiCoP2O7
_chemical_formula_sum   'Li4 Co4 P8 O28'
_cell_volume   540.69793938
_cell_formula_units_Z   4
loop_
 _symmetry_equiv_pos_site_id
 _symmetry_equiv_pos_as_xyz
  1  'x, y, z'
loop_
 _atom_site_type_symbol
 _atom_site_label
 _atom_site_symmetry_multiplicity
 _atom_site_fract_x
 _atom_site_fract_y
 _atom_site_fract_z
 _atom_site_occupancy
  Li  Li0  1  0.73060374  0.72771613  0.75762406  1
  Li  Li1  1  0.26939626  0.27228387  0.24237594  1
  Li  Li2  1  0.23060374  0.77228387  0.25762406  1
  Li  Li3  1  0.76939626  0.22771613  0.74237594  1
  Co  Co4  1  0.79653954  0.15259333  0.11665992  1
  Co  Co5  1  0.29653954  0.34740667  0.61665992  1
  Co  Co6  1  0.70346046  0.65259333  0.38334008  1
  Co  Co7  1  0.20346046  0.84740667  0.88334008  1
  P  P8  1  0.74968091  0.53278633  0.17920652  1
  P  P9  1  0.75031909  0.03278633  0.32079348  1
  P  P10  1  0.69707626  0.79428348  0.02367024  1
  P  P11  1  0.25031909  0.46721367  0.82079348  1
  P  P12  1  0.30292374  0.20571652  0.97632976  1
  P  P13  1  0.19707626  0.70571652  0.52367024  1
  P  P14  1  0.24968091  0.96721367  0.67920652  1
  P  P15  1  0.80292374  0.29428348  0.47632976  1
  O  O16  1  0.90141665  0.68080838  0.51048208  1
  O  O17  1  0.44431575  0.36297296  0.75764286  1
  O  O18  1  0.52649785  0.96412034  0.72027447  1
  O  O19  1  0.34665600  0.70299748  0.42361440  1
  O  O20  1  0.59858335  0.18080838  0.98951792  1
  O  O21  1  0.81365439  0.91534610  0.10208643  1
  O  O22  1  0.24815457  0.89177055  0.56679161  1
  O  O23  1  0.15334400  0.20299748  0.07638560  1
  O  O24  1  0.84665600  0.79700252  0.92361440  1
  O  O25  1  0.40141665  0.81919162  0.01048208  1
  O  O26  1  0.87046386  0.85404022  0.33657226  1
  O  O27  1  0.47350215  0.03587966  0.27972553  1
  O  O28  1  0.12953614  0.14595978  0.66342774  1
  O  O29  1  0.65334400  0.29700252  0.57638560  1
  O  O30  1  0.55568425  0.63702704  0.24235714  1
  O  O31  1  0.75184543  0.10822945  0.43320839  1
  O  O32  1  0.37046386  0.64595978  0.83657226  1
  O  O33  1  0.18634561  0.08465390  0.89791357  1
  O  O34  1  0.02649785  0.53587966  0.22027447  1
  O  O35  1  0.97350215  0.46412034  0.77972553  1
  O  O36  1  0.62953614  0.35404022  0.16342774  1
  O  O37  1  0.68634561  0.41534610  0.39791357  1
  O  O38  1  0.31365439  0.58465390  0.60208643  1
  O  O39  1  0.94431575  0.13702704  0.25764286  1
  O  O40  1  0.74815457  0.60822945  0.06679161  1
  O  O41  1  0.25184543  0.39177055  0.93320839  1
  O  O42  1  0.09858335  0.31919162  0.48951792  1
  O  O43  1  0.05568425  0.86297296  0.74235714  1
