# generated using pymatgen
data_Sr2CoReO6
_symmetry_space_group_name_H-M   'P 1'
_cell_length_a   5.62135718
_cell_length_b   5.62135717
_cell_length_c   5.66063372
_cell_angle_alpha   119.77073902
_cell_angle_beta   119.77073899
_cell_angle_gamma   90.00000008
_symmetry_Int_Tables_number   1
_chemical_formula_structural   Sr2CoReO6
_chemical_formula_sum   'Sr2 Co1 Re1 O6'
_cell_volume   127.35463658
_cell_formula_units_Z   1
loop_
 _symmetry_equiv_pos_site_id
 _symmetry_equiv_pos_as_xyz
  1  'x, y, z'
loop_
 _atom_site_type_symbol
 _atom_site_label
 _atom_site_symmetry_multiplicity
 _atom_site_fract_x
 _atom_site_fract_y
 _atom_site_fract_z
 _atom_site_occupancy
  O  O0  1  0.69434725  0.78093381  0.00000000  1
  O  O1  1  0.21906619  0.69434725  0.00000000  1
  O  O2  1  0.78093381  0.30565275  0.00000000  1
  O  O3  1  0.30565275  0.21906619  0.00000000  1
  O  O4  1  0.26051713  0.26051713  0.52103425  1
  O  O5  1  0.73948287  0.73948287  0.47896575  1
  Co  Co6  1  0.00000000  0.00000000  0.00000000  1
  Sr  Sr7  1  0.25000000  0.75000000  0.50000000  1
  Sr  Sr8  1  0.75000000  0.25000000  0.50000000  1
  Re  Re9  1  0.50000000  0.50000000  0.00000000  1
