# generated using pymatgen
data_HoScO3
_symmetry_space_group_name_H-M   'P 1'
_cell_length_a   5.43751211
_cell_length_b   5.73331846
_cell_length_c   7.97480248
_cell_angle_alpha   90.00000000
_cell_angle_beta   90.00000000
_cell_angle_gamma   90.00000000
_symmetry_Int_Tables_number   1
_chemical_formula_structural   HoScO3
_chemical_formula_sum   'Ho4 Sc4 O12'
_cell_volume   248.61437606
_cell_formula_units_Z   4
loop_
 _symmetry_equiv_pos_site_id
 _symmetry_equiv_pos_as_xyz
  1  'x, y, z'
loop_
 _atom_site_type_symbol
 _atom_site_label
 _atom_site_symmetry_multiplicity
 _atom_site_fract_x
 _atom_site_fract_y
 _atom_site_fract_z
 _atom_site_occupancy
  O  O0  1  0.68964297  0.30758934  0.56916627  1
  O  O1  1  0.18964297  0.19241066  0.43083373  1
  O  O2  1  0.81035703  0.80758934  0.93083373  1
  O  O3  1  0.31035703  0.69241066  0.06916627  1
  O  O4  1  0.31035703  0.69241066  0.43083373  1
  O  O5  1  0.81035703  0.80758934  0.56916627  1
  O  O6  1  0.18964297  0.19241066  0.06916627  1
  O  O7  1  0.68964297  0.30758934  0.93083373  1
  O  O8  1  0.86764834  0.55916623  0.25000000  1
  O  O9  1  0.36764834  0.94083377  0.75000000  1
  O  O10  1  0.63235166  0.05916623  0.25000000  1
  O  O11  1  0.13235166  0.44083377  0.75000000  1
  Sc  Sc12  1  0.00000000  0.50000000  0.50000000  1
  Sc  Sc13  1  0.50000000  0.00000000  0.50000000  1
  Sc  Sc14  1  0.50000000  0.00000000  0.00000000  1
  Sc  Sc15  1  0.00000000  0.50000000  0.00000000  1
  Ho  Ho16  1  0.98017860  0.06209006  0.75000000  1
  Ho  Ho17  1  0.48017860  0.43790994  0.25000000  1
  Ho  Ho18  1  0.51982140  0.56209006  0.75000000  1
  Ho  Ho19  1  0.01982140  0.93790994  0.25000000  1
