# generated using pymatgen
data_Co3(P3O10)2
_symmetry_space_group_name_H-M   'P 1'
_cell_length_a   8.35121026
_cell_length_b   8.35121018
_cell_length_c   12.39550632
_cell_angle_alpha   90.00000000
_cell_angle_beta   90.00000000
_cell_angle_gamma   74.61067361
_symmetry_Int_Tables_number   1
_chemical_formula_structural   Co3(P3O10)2
_chemical_formula_sum   'Co6 P12 O40'
_cell_volume   833.49959333
_cell_formula_units_Z   2
loop_
 _symmetry_equiv_pos_site_id
 _symmetry_equiv_pos_as_xyz
  1  'x, y, z'
loop_
 _atom_site_type_symbol
 _atom_site_label
 _atom_site_symmetry_multiplicity
 _atom_site_fract_x
 _atom_site_fract_y
 _atom_site_fract_z
 _atom_site_occupancy
  Co  Co0  1  0.30057205  0.30057205  0.25000000  1
  Co  Co1  1  0.86068263  0.13931737  0.00000000  1
  Co  Co2  1  0.13931737  0.86068263  0.50000000  1
  Co  Co3  1  0.75709092  0.75709092  0.25000000  1
  Co  Co4  1  0.24290908  0.24290908  0.75000000  1
  Co  Co5  1  0.69942795  0.69942795  0.75000000  1
  P  P6  1  0.17716694  0.70037502  0.27757344  1
  P  P7  1  0.90972062  0.36833929  0.31715117  1
  P  P8  1  0.36833929  0.90972062  0.18284883  1
  P  P9  1  0.74128703  0.84894977  0.51401067  1
  P  P10  1  0.29962498  0.82283306  0.72242656  1
  P  P11  1  0.25871297  0.15105023  0.01400967  1
  P  P12  1  0.63166071  0.09027938  0.68284883  1
  P  P13  1  0.09027938  0.63166071  0.81715117  1
  P  P14  1  0.82283306  0.29962498  0.77757344  1
  P  P15  1  0.84894977  0.74128703  0.98598933  1
  P  P16  1  0.15105023  0.25871297  0.48599033  1
  P  P17  1  0.70037502  0.17716694  0.22242656  1
  O  O18  1  0.83490273  0.20958369  0.30883286  1
  O  O19  1  0.68197506  0.84354591  0.39923109  1
  O  O20  1  0.73149264  0.99096186  0.20967262  1
  O  O21  1  0.79041631  0.16509727  0.69116714  1
  O  O22  1  0.94243129  0.66271040  0.74299993  1
  O  O23  1  0.07316169  0.15820407  0.02354733  1
  O  O24  1  0.25432209  0.73682312  0.38524186  1
  O  O25  1  0.99096186  0.73149264  0.29032738  1
  O  O26  1  0.22526128  0.47334739  0.80045989  1
  O  O27  1  0.31802494  0.15645409  0.89923109  1
  O  O28  1  0.73682312  0.25432209  0.11475814  1
  O  O29  1  0.69230658  0.72302595  0.58749040  1
  O  O30  1  0.35639838  0.96607912  0.05859252  1
  O  O31  1  0.16509727  0.79041631  0.80883286  1
  O  O32  1  0.64360162  0.03392088  0.55859252  1
  O  O33  1  0.96607912  0.35639838  0.44140748  1
  O  O34  1  0.27106158  0.53425002  0.23118130  1
  O  O35  1  0.72302595  0.69230658  0.91250960  1
  O  O36  1  0.33728960  0.05756871  0.25700007  1
  O  O37  1  0.74567791  0.26317688  0.88524186  1
  O  O38  1  0.15820407  0.07316169  0.47645267  1
  O  O39  1  0.20958369  0.83490273  0.19116714  1
  O  O40  1  0.03392088  0.64360162  0.94140748  1
  O  O41  1  0.72893842  0.46574998  0.73118130  1
  O  O42  1  0.84179593  0.92683831  0.97645267  1
  O  O43  1  0.30769342  0.27697405  0.08749040  1
  O  O44  1  0.00903814  0.26850736  0.79032738  1
  O  O45  1  0.84354591  0.68197506  0.10076891  1
  O  O46  1  0.92683831  0.84179593  0.52354733  1
  O  O47  1  0.52665261  0.77473872  0.19954011  1
  O  O48  1  0.53425002  0.27106158  0.26881870  1
  O  O49  1  0.77473872  0.52665261  0.30045989  1
  O  O50  1  0.26317688  0.74567791  0.61475814  1
  O  O51  1  0.66271040  0.94243129  0.75700007  1
  O  O52  1  0.26850736  0.00903814  0.70967262  1
  O  O53  1  0.46574998  0.72893842  0.76881870  1
  O  O54  1  0.05756871  0.33728960  0.24299993  1
  O  O55  1  0.47334739  0.22526128  0.69954011  1
  O  O56  1  0.27697405  0.30769342  0.41250960  1
  O  O57  1  0.15645409  0.31802494  0.60076891  1
