# generated using pymatgen
data_Tb6Br7
_symmetry_space_group_name_H-M   'P 1'
_cell_length_a   3.80910918
_cell_length_b   10.82509005
_cell_length_c   10.91834452
_cell_angle_alpha   65.40577983
_cell_angle_beta   79.95414958
_cell_angle_gamma   79.86669828
_symmetry_Int_Tables_number   1
_chemical_formula_structural   Tb6Br7
_chemical_formula_sum   'Tb6 Br7'
_cell_volume   400.39277638
_cell_formula_units_Z   1
loop_
 _symmetry_equiv_pos_site_id
 _symmetry_equiv_pos_as_xyz
  1  'x, y, z'
loop_
 _atom_site_type_symbol
 _atom_site_label
 _atom_site_symmetry_multiplicity
 _atom_site_fract_x
 _atom_site_fract_y
 _atom_site_fract_z
 _atom_site_occupancy
  Br  Br0  1  0.50000000  0.50000000  0.50000000  1
  Br  Br1  1  0.05337803  0.16639596  0.72684798  1
  Br  Br2  1  0.94662197  0.83360404  0.27315202  1
  Br  Br3  1  0.16665353  0.51160010  0.15509284  1
  Br  Br4  1  0.83334647  0.48839990  0.84490716  1
  Br  Br5  1  0.39188822  0.15525242  0.06097113  1
  Br  Br6  1  0.60811178  0.84474758  0.93902887  1
  Tb  Tb7  1  0.12777294  0.30229442  0.44215970  1
  Tb  Tb8  1  0.87222706  0.69770558  0.55784030  1
  Tb  Tb9  1  0.31793089  0.00108956  0.36304867  1
  Tb  Tb10  1  0.68206911  0.99891044  0.63695133  1
  Tb  Tb11  1  0.77191397  0.29769437  0.15847769  1
  Tb  Tb12  1  0.22808603  0.70230563  0.84152231  1
