# generated using pymatgen
data_Li3Mn3(PO4)4
_symmetry_space_group_name_H-M   'P 1'
_cell_length_a   8.42085980
_cell_length_b   11.70186226
_cell_length_c   6.15130021
_cell_angle_alpha   90.00000000
_cell_angle_beta   99.94234253
_cell_angle_gamma   90.00000000
_symmetry_Int_Tables_number   1
_chemical_formula_structural   Li3Mn3(PO4)4
_chemical_formula_sum   'Li6 Mn6 P8 O32'
_cell_volume   597.04440841
_cell_formula_units_Z   2
loop_
 _symmetry_equiv_pos_site_id
 _symmetry_equiv_pos_as_xyz
  1  'x, y, z'
loop_
 _atom_site_type_symbol
 _atom_site_label
 _atom_site_symmetry_multiplicity
 _atom_site_fract_x
 _atom_site_fract_y
 _atom_site_fract_z
 _atom_site_occupancy
  Li  Li0  1  0.06986859  0.62293968  0.62128831  1
  Li  Li1  1  0.04333334  0.91794517  0.10086371  1
  Li  Li2  1  0.30638063  0.15070054  0.04728307  1
  Li  Li3  1  0.69361937  0.65070054  0.45271793  1
  Li  Li4  1  0.93013241  0.12293968  0.87871169  1
  Li  Li5  1  0.95666666  0.41794517  0.39913729  1
  Mn  Mn6  1  0.28146140  0.90863707  0.65163386  1
  Mn  Mn7  1  0.28898777  0.57835057  0.18850746  1
  Mn  Mn8  1  0.33685900  0.30760388  0.62805312  1
  Mn  Mn9  1  0.66314100  0.80760288  0.87194688  1
  Mn  Mn10  1  0.71853860  0.40863607  0.84836514  1
  Mn  Mn11  1  0.71101223  0.07835057  0.31149154  1
  P  P12  1  0.91742499  0.63820577  0.12196985  1
  P  P13  1  0.91702668  0.88028650  0.60508539  1
  P  P14  1  0.58887403  0.40269092  0.32894967  1
  P  P15  1  0.58899626  0.08179214  0.78794417  1
  P  P16  1  0.41112597  0.90269092  0.17105133  1
  P  P17  1  0.41100474  0.58179214  0.71205583  1
  P  P18  1  0.08297332  0.38028550  0.89491361  1
  P  P19  1  0.08257501  0.13820577  0.37802915  1
  O  O20  1  0.13557619  0.43846266  0.11938267  1
  O  O21  1  0.90287948  0.16872312  0.38608235  1
  O  O22  1  0.92746057  0.95641197  0.80715276  1
  O  O23  1  0.91818528  0.31531211  0.89748560  1
  O  O24  1  0.86442381  0.93846366  0.38061833  1
  O  O25  1  0.83882776  0.76007094  0.08775498  1
  O  O26  1  0.07253943  0.45641197  0.69284724  1
  O  O27  1  0.08181472  0.81531111  0.60251440  1
  O  O28  1  0.10221764  0.09287595  0.14961210  1
  O  O29  1  0.16273272  0.05993430  0.56524592  1
  O  O30  1  0.09712052  0.66872312  0.11391865  1
  O  O31  1  0.21477466  0.28680013  0.86990010  1
  O  O32  1  0.89778236  0.59287595  0.35038890  1
  O  O33  1  0.27125918  0.91490576  0.96798826  1
  O  O34  1  0.16117224  0.26007094  0.41224502  1
  O  O35  1  0.32130882  0.61912437  0.89604132  1
  O  O36  1  0.27961560  0.58147709  0.50089112  1
  O  O37  1  0.32968610  0.85863788  0.36237370  1
  O  O38  1  0.45300064  0.16488881  0.80938765  1
  O  O39  1  0.47932739  0.45426069  0.75657443  1
  O  O40  1  0.83726728  0.55993430  0.93475308  1
  O  O41  1  0.52067261  0.95426069  0.74342657  1
  O  O42  1  0.54699836  0.66488881  0.69061335  1
  O  O43  1  0.48576678  0.02373484  0.22800253  1
  O  O44  1  0.51423322  0.52373484  0.27199747  1
  O  O45  1  0.53759201  0.81522915  0.11963244  1
  O  O46  1  0.67869118  0.11912437  0.60395768  1
  O  O47  1  0.72874082  0.41490676  0.53201174  1
  O  O48  1  0.67031390  0.35863788  0.13762730  1
  O  O49  1  0.78522534  0.78680013  0.63009890  1
  O  O50  1  0.72038440  0.08147609  0.99910988  1
  O  O51  1  0.46240799  0.31522915  0.38036856  1
