# generated using pymatgen
data_Mn(PO3)4
_symmetry_space_group_name_H-M   'P 1'
_cell_length_a   5.09677310
_cell_length_b   13.48221384
_cell_length_c   7.34168457
_cell_angle_alpha   90.00000000
_cell_angle_beta   100.81667358
_cell_angle_gamma   90.00000000
_symmetry_Int_Tables_number   1
_chemical_formula_structural   Mn(PO3)4
_chemical_formula_sum   'Mn2 P8 O24'
_cell_volume   495.52618855
_cell_formula_units_Z   2
loop_
 _symmetry_equiv_pos_site_id
 _symmetry_equiv_pos_as_xyz
  1  'x, y, z'
loop_
 _atom_site_type_symbol
 _atom_site_label
 _atom_site_symmetry_multiplicity
 _atom_site_fract_x
 _atom_site_fract_y
 _atom_site_fract_z
 _atom_site_occupancy
  O  O0  1  0.70278002  0.38913466  0.48649583  1
  O  O1  1  0.97000877  0.64668288  0.22916721  1
  O  O2  1  0.02999259  0.14668276  0.77083398  1
  O  O3  1  0.07119085  0.72774311  0.94179450  1
  O  O4  1  0.04020420  0.89244255  0.78115654  1
  O  O5  1  0.05666486  0.51608826  0.48094571  1
  O  O6  1  0.17124531  0.37350255  0.92862563  1
  O  O7  1  0.19812349  0.34180817  0.54369929  1
  O  O8  1  0.21382397  0.68753403  0.55863765  1
  O  O9  1  0.28567803  0.14591487  0.50255193  1
  O  O10  1  0.29722131  0.88913478  0.51350399  1
  O  O11  1  0.37065451  0.76032165  0.24730137  1
  O  O12  1  0.37318675  0.28329297  0.23222079  1
  O  O13  1  0.37166189  0.58665854  0.08742288  1
  O  O14  1  0.62833746  0.08665842  0.91257806  1
  O  O15  1  0.95979713  0.39244318  0.21884328  1
  O  O16  1  0.62934682  0.26032153  0.75269845  1
  O  O17  1  0.92880850  0.22774299  0.05820645  1
  O  O18  1  0.71432129  0.64591499  0.49744765  1
  O  O19  1  0.78617536  0.18753391  0.44136192  1
  O  O20  1  0.80187584  0.84180829  0.45630028  1
  O  O21  1  0.82875602  0.87350267  0.07137418  1
  O  O22  1  0.94333650  0.01608888  0.51905547  1
  O  O23  1  0.62681458  0.78329309  0.76777902  1
  P  P24  1  0.77353745  0.17536124  0.87371484  1
  P  P25  1  0.87209283  0.82264601  0.90376398  1
  P  P26  1  0.01568929  0.12997433  0.55769962  1
  P  P27  1  0.02582146  0.90405214  0.56566346  1
  P  P28  1  0.98431003  0.62997370  0.44229995  1
  P  P29  1  0.12790850  0.32264589  0.09623583  1
  P  P30  1  0.22646188  0.67536136  0.12628473  1
  P  P31  1  0.97417789  0.40405202  0.43433748  1
  Mn  Mn32  1  0.50625542  0.76708073  0.50653132  1
  Mn  Mn33  1  0.49374391  0.26708061  0.49346826  1
