# generated using pymatgen
data_LiCr2(PO4)3
_symmetry_space_group_name_H-M   'P 1'
_cell_length_a   8.31430564
_cell_length_b   8.65262479
_cell_length_c   11.80487798
_cell_angle_alpha   90.00000000
_cell_angle_beta   89.94306667
_cell_angle_gamma   90.00000000
_symmetry_Int_Tables_number   1
_chemical_formula_structural   LiCr2(PO4)3
_chemical_formula_sum   'Li4 Cr8 P12 O48'
_cell_volume   849.24919666
_cell_formula_units_Z   4
loop_
 _symmetry_equiv_pos_site_id
 _symmetry_equiv_pos_as_xyz
  1  'x, y, z'
loop_
 _atom_site_type_symbol
 _atom_site_label
 _atom_site_symmetry_multiplicity
 _atom_site_fract_x
 _atom_site_fract_y
 _atom_site_fract_z
 _atom_site_occupancy
  Li  Li0  1  0.18122168  0.78433291  0.81946184  1
  Li  Li1  1  0.81877832  0.21566709  0.18053816  1
  Li  Li2  1  0.31877832  0.28433291  0.68053816  1
  Li  Li3  1  0.68122168  0.71566709  0.31946184  1
  Cr  Cr4  1  0.24563388  0.52753714  0.38365517  1
  Cr  Cr5  1  0.74563388  0.97246286  0.88365517  1
  Cr  Cr6  1  0.25128115  0.46406954  0.88639492  1
  Cr  Cr7  1  0.24871885  0.96406954  0.61360508  1
  Cr  Cr8  1  0.74871885  0.53593046  0.11360508  1
  Cr  Cr9  1  0.25436612  0.02753714  0.11634483  1
  Cr  Cr10  1  0.75128115  0.03593046  0.38639492  1
  Cr  Cr11  1  0.75436612  0.47246286  0.61634483  1
  P  P12  1  0.61219580  0.39054276  0.35789089  1
  P  P13  1  0.11219580  0.10945724  0.85789089  1
  P  P14  1  0.03504423  0.25202513  0.50892187  1
  P  P15  1  0.89158642  0.61821955  0.85254968  1
  P  P16  1  0.38780420  0.60945724  0.64210911  1
  P  P17  1  0.46495577  0.75202513  0.99107813  1
  P  P18  1  0.53504423  0.24797487  0.00892187  1
  P  P19  1  0.96495577  0.74797487  0.49107813  1
  P  P20  1  0.88780420  0.89054276  0.14210911  1
  P  P21  1  0.60841358  0.11821955  0.64745032  1
  P  P22  1  0.39158642  0.88178045  0.35254968  1
  P  P23  1  0.10841358  0.38178045  0.14745032  1
  O  O24  1  0.90871014  0.63481370  0.58223999  1
  O  O25  1  0.93360819  0.11233258  0.89145621  1
  O  O26  1  0.56966426  0.92124008  0.32396304  1
  O  O27  1  0.43360819  0.38766742  0.39145621  1
  O  O28  1  0.93033574  0.42124008  0.17603696  1
  O  O29  1  0.27761209  0.97338492  0.27323644  1
  O  O30  1  0.32772750  0.77033658  0.68200611  1
  O  O31  1  0.27842593  0.55400796  0.54433237  1
  O  O32  1  0.72238791  0.02661508  0.72676356  1
  O  O33  1  0.67227250  0.22966342  0.31799389  1
  O  O34  1  0.06109566  0.87472748  0.55521041  1
  O  O35  1  0.68067144  0.32368858  0.06770210  1
  O  O36  1  0.22238791  0.47338492  0.22676356  1
  O  O37  1  0.59128986  0.13481370  0.91776001  1
  O  O38  1  0.11827008  0.20481689  0.16133112  1
  O  O39  1  0.56109566  0.62527252  0.05521041  1
  O  O40  1  0.06639181  0.88766742  0.10854379  1
  O  O41  1  0.43033574  0.07875992  0.67603696  1
  O  O42  1  0.81932856  0.82368858  0.43229790  1
  O  O43  1  0.14019871  0.42886485  0.02431218  1
  O  O44  1  0.93890434  0.12527252  0.44478959  1
  O  O45  1  0.86038675  0.00750342  0.24007712  1
  O  O46  1  0.31932856  0.67631142  0.93229790  1
  O  O47  1  0.17227250  0.27033658  0.81799389  1
  O  O48  1  0.88172992  0.79518311  0.83866888  1
  O  O49  1  0.77761209  0.52661508  0.77323644  1
  O  O50  1  0.42983605  0.17421064  0.10324124  1
  O  O51  1  0.64019871  0.07113515  0.52431218  1
  O  O52  1  0.56639181  0.61233258  0.60854379  1
  O  O53  1  0.63961325  0.50750342  0.25992288  1
  O  O54  1  0.07016395  0.67421064  0.39675876  1
  O  O55  1  0.06966426  0.57875992  0.82396304  1
  O  O56  1  0.36038675  0.49249658  0.74007712  1
  O  O57  1  0.43890434  0.37472748  0.94478959  1
  O  O58  1  0.57016395  0.82578936  0.89675876  1
  O  O59  1  0.40871014  0.86518630  0.08223999  1
  O  O60  1  0.61827008  0.29518311  0.66133112  1
  O  O61  1  0.18067144  0.17631142  0.56770210  1
  O  O62  1  0.72157407  0.44599204  0.45566763  1
  O  O63  1  0.09128986  0.36518630  0.41776001  1
  O  O64  1  0.35980129  0.92886485  0.47568782  1
  O  O65  1  0.13961325  0.99249658  0.75992288  1
  O  O66  1  0.92983605  0.32578936  0.60324124  1
  O  O67  1  0.85980129  0.57113515  0.97568782  1
  O  O68  1  0.22157407  0.05400796  0.95566763  1
  O  O69  1  0.77842593  0.94599204  0.04433237  1
  O  O70  1  0.82772750  0.72966342  0.18200611  1
  O  O71  1  0.38172992  0.70481689  0.33866888  1
