# generated using pymatgen
data_LiMoP2O7
_symmetry_space_group_name_H-M   'P 1'
_cell_length_a   6.94304019
_cell_length_b   8.55027169
_cell_length_c   9.55524390
_cell_angle_alpha   90.00000000
_cell_angle_beta   106.14437850
_cell_angle_gamma   90.00000000
_symmetry_Int_Tables_number   1
_chemical_formula_structural   LiMoP2O7
_chemical_formula_sum   'Li4 Mo4 P8 O28'
_cell_volume   544.87603784
_cell_formula_units_Z   4
loop_
 _symmetry_equiv_pos_site_id
 _symmetry_equiv_pos_as_xyz
  1  'x, y, z'
loop_
 _atom_site_type_symbol
 _atom_site_label
 _atom_site_symmetry_multiplicity
 _atom_site_fract_x
 _atom_site_fract_y
 _atom_site_fract_z
 _atom_site_occupancy
  Li  Li0  1  0.23715108  0.90026550  0.57602162  1
  Li  Li1  1  0.23715100  0.59973420  0.07602096  1
  Li  Li2  1  0.76284821  0.40026560  0.92397898  1
  Li  Li3  1  0.76284813  0.09973430  0.42397831  1
  O  O4  1  0.22047811  0.90063907  0.21689765  1
  O  O5  1  0.85551420  0.94957281  0.16403027  1
  O  O6  1  0.92505683  0.67082711  0.38460653  1
  O  O7  1  0.77952252  0.40063917  0.28310299  1
  O  O8  1  0.08440709  0.41105850  0.87530780  1
  O  O9  1  0.14448500  0.05042699  0.83596967  1
  O  O10  1  0.07494388  0.32917269  0.61539372  1
  O  O11  1  0.22047820  0.59936063  0.71689726  1
  O  O12  1  0.08440701  0.08894140  0.37530819  1
  O  O13  1  0.14448492  0.44957291  0.33597005  1
  O  O14  1  0.07494380  0.17082721  0.11539306  1
  O  O15  1  0.91559362  0.58894130  0.12469245  1
  O  O16  1  0.41398770  0.08891080  0.63644158  1
  O  O17  1  0.52883755  0.23296173  0.88378037  1
  O  O18  1  0.52600382  0.93306520  0.86449023  1
  O  O19  1  0.47399548  0.43306530  0.63550932  1
  O  O20  1  0.47116324  0.73296163  0.61622054  1
  O  O21  1  0.58601310  0.58891070  0.86355829  1
  O  O22  1  0.91559371  0.91105958  0.62469206  1
  O  O23  1  0.52883748  0.26703817  0.38377971  1
  O  O24  1  0.52600524  0.56693450  0.36449093  1
  O  O25  1  0.47399539  0.06693460  0.13550970  1
  O  O26  1  0.47116316  0.76703807  0.11621988  1
  O  O27  1  0.58601301  0.91108900  0.36355867  1
  O  O28  1  0.77952261  0.09936073  0.78310260  1
  O  O29  1  0.92505691  0.82917259  0.88460719  1
  O  O30  1  0.85551429  0.55042689  0.66402988  1
  O  O31  1  0.41398761  0.41108910  0.13644196  1
  P  P32  1  0.94755929  0.53622079  0.28528250  1
  P  P33  1  0.94755937  0.96377891  0.78528316  1
  P  P34  1  0.55107666  0.41263851  0.29403286  1
  P  P35  1  0.44892246  0.91263959  0.20596746  1
  P  P36  1  0.05244142  0.46377901  0.71471775  1
  P  P37  1  0.05244134  0.03622089  0.21471709  1
  P  P38  1  0.55107675  0.08736139  0.79403248  1
  P  P39  1  0.44892254  0.58736129  0.70596707  1
  Mo  Mo40  1  0.28323428  0.22210058  0.99227354  1
  Mo  Mo41  1  0.28323419  0.27789932  0.49227392  1
  Mo  Mo42  1  0.71676501  0.72210048  0.50772601  1
  Mo  Mo43  1  0.71676492  0.77789922  0.00772640  1
