# generated using pymatgen
data_LiFePO4
_symmetry_space_group_name_H-M   'P 1'
_cell_length_a   7.52726658
_cell_length_b   7.52729701
_cell_length_c   9.58360841
_cell_angle_alpha   89.99994060
_cell_angle_beta   90.00002969
_cell_angle_gamma   120.00013372
_symmetry_Int_Tables_number   1
_chemical_formula_structural   LiFePO4
_chemical_formula_sum   'Li6 Fe6 P6 O24'
_cell_volume   470.25720221
_cell_formula_units_Z   6
loop_
 _symmetry_equiv_pos_site_id
 _symmetry_equiv_pos_as_xyz
  1  'x, y, z'
loop_
 _atom_site_type_symbol
 _atom_site_label
 _atom_site_symmetry_multiplicity
 _atom_site_fract_x
 _atom_site_fract_y
 _atom_site_fract_z
 _atom_site_occupancy
  Li  Li0  1  0.20455088  0.94995897  0.25942560  1
  Li  Li1  1  0.94995819  0.20454257  0.75942843  1
  Li  Li2  1  0.79544927  0.74540893  0.75942524  1
  Li  Li3  1  0.74541914  0.79546016  0.25942671  1
  Li  Li4  1  0.25458103  0.05004083  0.75942738  1
  Li  Li5  1  0.05004301  0.25458459  0.25942775  1
  O  O6  1  0.11989852  0.49807550  0.82803069  1
  O  O7  1  0.66667803  0.33334856  0.11153120  1
  O  O8  1  0.89698974  0.77595512  0.95171685  1
  O  O9  1  0.82930710  0.54939030  0.63422395  1
  O  O10  1  0.72007915  0.17067882  0.63422493  1
  O  O11  1  0.88010185  0.37817708  0.32803062  1
  O  O12  1  0.10301026  0.87896565  0.45171721  1
  O  O13  1  0.17069242  0.72008313  0.13422431  1
  O  O14  1  0.54940034  0.82930869  0.13422206  1
  O  O15  1  0.37815446  0.88008520  0.82803011  1
  O  O16  1  0.33333920  0.66666462  0.35077344  1
  O  O17  1  0.66666104  0.33332621  0.85077308  1
  O  O18  1  0.33332169  0.66667061  0.61153128  1
  O  O19  1  0.12103992  0.22405475  0.45172429  1
  O  O20  1  0.27992057  0.45059896  0.13422529  1
  O  O21  1  0.87896063  0.10301443  0.95172393  1
  O  O22  1  0.22405216  0.12104274  0.95171779  1
  O  O23  1  0.50191304  0.62182682  0.82802321  1
  O  O24  1  0.45059999  0.27990883  0.63422169  1
  O  O25  1  0.77594677  0.89699043  0.45171816  1
  O  O26  1  0.62184537  0.50193066  0.32803004  1
  O  O27  1  0.49808618  0.11991393  0.32802314  1
  O  O28  1  1.00000571  0.99999973  0.17010956  1
  O  O29  1  -0.00000551  -0.00000616  0.67010963  1
  P  P30  1  0.33333747  0.66666563  0.18494897  1
  P  P31  1  0.99999679  1.00000003  0.50890270  1
  P  P32  1  0.33332231  0.66666122  0.77776212  1
  P  P33  1  0.00000290  1.00000241  0.00890306  1
  P  P34  1  0.66667828  0.33334010  0.27776205  1
  P  P35  1  0.66666219  0.33332776  0.68494860  1
  Fe  Fe36  1  0.95011308  0.53586350  0.98099145  1
  Fe  Fe37  1  0.58574478  0.04987973  0.98097381  1
  Fe  Fe38  1  0.46414772  0.41426241  0.98098121  1
  Fe  Fe39  1  0.41425574  0.46413459  0.48097417  1
  Fe  Fe40  1  0.53585177  0.95011402  0.48098157  1
  Fe  Fe41  1  0.04988679  0.58574980  0.48099077  1
