# generated using pymatgen
data_LiFeP2O7
_symmetry_space_group_name_H-M   'P 1'
_cell_length_a   6.99407769
_cell_length_b   8.29983795
_cell_length_c   8.91510682
_cell_angle_alpha   90.00000000
_cell_angle_beta   111.54660981
_cell_angle_gamma   90.00000000
_symmetry_Int_Tables_number   1
_chemical_formula_structural   LiFeP2O7
_chemical_formula_sum   'Li4 Fe4 P8 O28'
_cell_volume   481.35466516
_cell_formula_units_Z   4
loop_
 _symmetry_equiv_pos_site_id
 _symmetry_equiv_pos_as_xyz
  1  'x, y, z'
loop_
 _atom_site_type_symbol
 _atom_site_label
 _atom_site_symmetry_multiplicity
 _atom_site_fract_x
 _atom_site_fract_y
 _atom_site_fract_z
 _atom_site_occupancy
  Li  Li0  1  0.12800800  0.94834065  0.84452347  1
  Li  Li1  1  0.87199272  0.05165927  0.15547698  1
  Li  Li2  1  0.62800760  0.55165923  0.34452314  1
  Li  Li3  1  0.37199312  0.44834069  0.65547731  1
  O  O4  1  0.06924111  0.88475596  0.17825879  1
  O  O5  1  0.82222144  0.10553572  0.40353557  1
  O  O6  1  0.66553951  0.25142474  0.04007399  1
  O  O7  1  0.86355108  0.40265156  0.34165727  1
  O  O8  1  0.13644964  0.59734957  0.65834318  1
  O  O9  1  0.33445968  0.74857518  0.95992602  1
  O  O10  1  0.17777928  0.89446420  0.59646488  1
  O  O11  1  0.32222031  0.39446424  0.90353546  1
  O  O12  1  0.16553991  0.24857522  0.54007321  1
  O  O13  1  0.13983270  0.66370831  0.39473325  1
  O  O14  1  0.36354994  0.09734961  0.84165605  1
  O  O15  1  0.41973838  0.74271494  0.30276539  1
  O  O16  1  0.08026122  0.24271498  0.19723461  1
  O  O17  1  0.10479561  0.58747886  0.11890261  1
  O  O18  1  0.63983383  0.83629157  0.89473369  1
  O  O19  1  0.83445928  0.75142470  0.45992569  1
  O  O20  1  0.56924071  0.61524392  0.67825879  1
  O  O21  1  0.58026235  0.25728498  0.69723506  1
  O  O22  1  0.67777889  0.60553569  0.09646454  1
  O  O23  1  0.43075848  0.38475600  0.32174122  1
  O  O24  1  0.60479520  0.91252102  0.61890261  1
  O  O25  1  0.36016690  0.16370835  0.10526676  1
  O  O26  1  0.89520512  0.41252106  0.88109784  1
  O  O27  1  0.91973797  0.75728494  0.80276540  1
  O  O28  1  0.93075808  0.11524396  0.82174122  1
  O  O29  1  0.63644925  0.90265152  0.15834284  1
  O  O30  1  0.86016649  0.33629161  0.60526565  1
  O  O31  1  0.39520399  0.08747890  0.38109740  1
  P  P32  1  0.31692710  0.23287250  0.25962939  1
  P  P33  1  0.68307209  0.76712742  0.74037062  1
  P  P34  1  0.81692823  0.26712746  0.75962983  1
  P  P35  1  0.56995933  0.76592441  0.03354958  1
  P  P36  1  0.06995973  0.73407547  0.53354991  1
  P  P37  1  0.43003986  0.23407551  0.96645043  1
  P  P38  1  0.18307249  0.73287246  0.24037061  1
  P  P39  1  0.93003946  0.26592445  0.46645009  1
  Fe  Fe40  1  0.87797465  0.42424714  0.11839495  1
  Fe  Fe41  1  0.62202414  0.92424710  0.38160472  1
  Fe  Fe42  1  0.37797505  0.07575282  0.61839529  1
  Fe  Fe43  1  0.12202454  0.57575278  0.88160506  1
