# generated using pymatgen
data_Li3Cr2(PO4)3
_symmetry_space_group_name_H-M   'P 1'
_cell_length_a   8.53451430
_cell_length_b   8.53453128
_cell_length_c   6.38098215
_cell_angle_alpha   73.44849130
_cell_angle_beta   106.55147555
_cell_angle_gamma   87.95642206
_symmetry_Int_Tables_number   1
_chemical_formula_structural   Li3Cr2(PO4)3
_chemical_formula_sum   'Li6 Cr4 P6 O24'
_cell_volume   423.59421540
_cell_formula_units_Z   2
loop_
 _symmetry_equiv_pos_site_id
 _symmetry_equiv_pos_as_xyz
  1  'x, y, z'
loop_
 _atom_site_type_symbol
 _atom_site_label
 _atom_site_symmetry_multiplicity
 _atom_site_fract_x
 _atom_site_fract_y
 _atom_site_fract_z
 _atom_site_occupancy
  Li  Li0  1  0.27979549  0.27979504  0.75000217  1
  Li  Li1  1  0.49999991  0.49999973  0.00000083  1
  Li  Li2  1  0.72020557  0.72020439  0.25000072  1
  Li  Li3  1  0.02612240  0.02612150  0.25000126  1
  Li  Li4  1  0.49999970  0.50000036  0.50000150  1
  Li  Li5  1  0.97387802  0.97387636  0.75000266  1
  O  O6  1  0.15882315  0.83480344  0.10562288  1
  O  O7  1  0.94796671  0.40473418  0.17370155  1
  O  O8  1  0.83480403  0.15882349  0.39437820  1
  O  O9  1  0.65923968  0.00901028  0.09619142  1
  O  O10  1  0.34075900  0.99098838  0.90380969  1
  O  O11  1  0.16519544  0.84117659  0.60562170  1
  O  O12  1  0.05203222  0.59526501  0.82629492  1
  O  O13  1  0.00901304  0.65923915  0.40380818  1
  O  O14  1  0.83622904  0.74656379  0.96588194  1
  O  O15  1  0.40473415  0.94796820  0.32629717  1
  O  O16  1  0.29569147  0.53942623  0.69886458  1
  O  O17  1  0.84117712  0.16519638  0.89437889  1
  O  O18  1  0.46057541  0.70431031  0.19886572  1
  O  O19  1  0.74656511  0.83622804  0.53411871  1
  O  O20  1  0.99098894  0.34076009  0.59619016  1
  O  O21  1  0.26415656  0.45984492  0.27158696  1
  O  O22  1  0.73584299  0.54015573  0.72841244  1
  O  O23  1  0.16377117  0.25343578  0.03411800  1
  O  O24  1  0.25343508  0.16377279  0.46588172  1
  O  O25  1  0.53942702  0.29568758  0.80113833  1
  O  O26  1  0.45984543  0.26415510  0.22841390  1
  O  O27  1  0.70431048  0.46057393  0.30113713  1
  O  O28  1  0.59526537  0.05203351  0.67370148  1
  O  O29  1  0.54015459  0.73584555  0.77158753  1
  P  P30  1  0.34461564  0.86096759  0.13214304  1
  P  P31  1  0.71566817  0.71566801  0.75000098  1
  P  P32  1  0.28433246  0.28433111  0.24999976  1
  P  P33  1  0.65538061  0.13903713  0.86785403  1
  P  P34  1  0.13903468  0.65538360  0.63214366  1
  P  P35  1  0.86096433  0.34461756  0.36785354  1
  Cr  Cr36  1  0.61950082  0.05832716  0.36137660  1
  Cr  Cr37  1  0.94167058  0.38050267  0.86136783  1
  Cr  Cr38  1  0.05832916  0.61949523  0.13862809  1
  Cr  Cr39  1  0.38050009  0.94167385  0.63862231  1
