# generated using pymatgen
data_Li2Mn(PO3)4
_symmetry_space_group_name_H-M   'P 1'
_cell_length_a   7.59905215
_cell_length_b   9.54289786
_cell_length_c   7.73222384
_cell_angle_alpha   90.00000000
_cell_angle_beta   110.24208913
_cell_angle_gamma   90.00000000
_symmetry_Int_Tables_number   1
_chemical_formula_structural   Li2Mn(PO3)4
_chemical_formula_sum   'Li4 Mn2 P8 O24'
_cell_volume   526.08710031
_cell_formula_units_Z   2
loop_
 _symmetry_equiv_pos_site_id
 _symmetry_equiv_pos_as_xyz
  1  'x, y, z'
loop_
 _atom_site_type_symbol
 _atom_site_label
 _atom_site_symmetry_multiplicity
 _atom_site_fract_x
 _atom_site_fract_y
 _atom_site_fract_z
 _atom_site_occupancy
  Li  Li0  1  0.12066081  0.63724701  0.31550891  1
  Li  Li1  1  0.62066025  0.86275352  0.81550844  1
  Li  Li2  1  0.37934004  0.13724683  0.18449111  1
  Li  Li3  1  0.87933948  0.36275335  0.68449064  1
  O  O4  1  0.40124349  0.96756887  0.74872917  1
  O  O5  1  0.90124383  0.53243061  0.24872903  1
  O  O6  1  0.04647684  0.73057184  0.68674595  1
  O  O7  1  0.09875646  0.46756869  0.75127052  1
  O  O8  1  0.21895240  0.10798188  0.91961878  1
  O  O9  1  0.15427876  0.15135969  0.58563581  1
  O  O10  1  0.34572119  0.65135987  0.91436388  1
  O  O11  1  0.28104755  0.60798206  0.58038091  1
  O  O12  1  0.16812714  0.08864642  0.26803645  1
  O  O13  1  0.95352345  0.26942852  0.31325360  1
  O  O14  1  0.18825556  0.81667399  0.08323154  1
  O  O15  1  0.31174388  0.31667382  0.41676799  1
  O  O16  1  0.45352311  0.23057166  0.81325374  1
  O  O17  1  0.33187230  0.58864660  0.23196438  1
  O  O18  1  0.66812798  0.41135375  0.76803646  1
  O  O19  1  0.78104789  0.89201847  0.08038077  1
  O  O20  1  0.68825641  0.68332654  0.58323156  1
  O  O21  1  0.81174473  0.18332636  0.91676801  1
  O  O22  1  0.59875539  0.03243149  0.25126990  1
  O  O23  1  0.83187315  0.91135288  0.73196439  1
  O  O24  1  0.71895273  0.39201829  0.41961993  1
  O  O25  1  0.65427910  0.34864048  0.08563567  1
  O  O26  1  0.84572152  0.84863961  0.41436503  1
  O  O27  1  0.54647718  0.76942869  0.18674581  1
  P  P28  1  0.81169409  0.39980089  0.27552869  1
  P  P29  1  0.83900498  0.79044854  0.60822264  1
  P  P30  1  0.18830619  0.60019841  0.72447215  1
  P  P31  1  0.16099531  0.20955181  0.39177820  1
  P  P32  1  0.31169376  0.10019823  0.77552883  1
  P  P33  1  0.68830512  0.89980107  0.22447152  1
  P  P34  1  0.66099475  0.29044837  0.89177773  1
  P  P35  1  0.33900553  0.70955198  0.10822310  1
  Mn  Mn36  1  0.00000000  0.00000000  0.00000000  1
  Mn  Mn37  1  0.49999944  0.50000018  0.49999953  1
