# generated using pymatgen
data_MoP2O7
_symmetry_space_group_name_H-M   'P 1'
_cell_length_a   5.30633890
_cell_length_b   5.30633889
_cell_length_c   4.66016186
_cell_angle_alpha   82.58788227
_cell_angle_beta   97.41211774
_cell_angle_gamma   78.37609592
_symmetry_Int_Tables_number   1
_chemical_formula_structural   MoP2O7
_chemical_formula_sum   'Mo1 P2 O7'
_cell_volume   125.81894696
_cell_formula_units_Z   1
loop_
 _symmetry_equiv_pos_site_id
 _symmetry_equiv_pos_as_xyz
  1  'x, y, z'
loop_
 _atom_site_type_symbol
 _atom_site_label
 _atom_site_symmetry_multiplicity
 _atom_site_fract_x
 _atom_site_fract_y
 _atom_site_fract_z
 _atom_site_occupancy
  O  O0  1  0.54472223  0.54472342  0.49999902  1
  O  O1  1  0.15670212  0.44011852  0.72298415  1
  O  O2  1  0.08875135  0.80191974  0.29719302  1
  O  O3  1  0.32535594  0.84417582  0.80300896  1
  O  O4  1  0.80192009  0.08875129  0.70280758  1
  O  O5  1  0.84417503  0.32535671  0.19698920  1
  O  O6  1  0.44011828  0.15670163  0.27701642  1
  P  P7  1  0.26420602  0.66315476  0.58341611  1
  P  P8  1  0.66315351  0.26420684  0.41658412  1
  Mo  Mo9  1  0.11985667  0.11985713  0.99999993  1
