# generated using pymatgen
data_Li2VP2O7
_symmetry_space_group_name_H-M   'P 1'
_cell_length_a   5.06472258
_cell_length_b   7.00769024
_cell_length_c   8.45637939
_cell_angle_alpha   67.10689508
_cell_angle_beta   87.82557216
_cell_angle_gamma   88.07215382
_symmetry_Int_Tables_number   1
_chemical_formula_structural   Li2VP2O7
_chemical_formula_sum   'Li4 V2 P4 O14'
_cell_volume   276.23579083
_cell_formula_units_Z   2
loop_
 _symmetry_equiv_pos_site_id
 _symmetry_equiv_pos_as_xyz
  1  'x, y, z'
loop_
 _atom_site_type_symbol
 _atom_site_label
 _atom_site_symmetry_multiplicity
 _atom_site_fract_x
 _atom_site_fract_y
 _atom_site_fract_z
 _atom_site_occupancy
  Li  Li0  1  0.22856232  0.79737504  0.55962884  1
  Li  Li1  1  0.28871110  0.83382705  0.00126584  1
  Li  Li2  1  0.71128859  0.16617249  0.99873369  1
  Li  Li3  1  0.77143737  0.20262451  0.44037188  1
  O  O4  1  0.30382156  0.12288014  1.00066571  1
  O  O5  1  0.13437838  0.29363975  0.46273314  1
  O  O6  1  0.13114568  0.65463766  0.21798843  1
  O  O7  1  0.28594571  0.34719984  0.16034664  1
  O  O8  1  0.07902193  0.91432092  0.78315788  1
  O  O9  1  0.38966413  0.95894758  0.32104382  1
  O  O10  1  0.42999569  0.52550368  0.66576278  1
  O  O11  1  0.57000397  0.47449742  0.33423624  1
  O  O12  1  0.92097773  0.08568018  0.21684233  1
  O  O13  1  0.69617813  0.87711940  -0.00066500  1
  O  O14  1  0.71405398  0.65279970  0.83965407  1
  O  O15  1  0.86885398  0.34536344  0.78201059  1
  O  O16  1  0.86562131  0.70635979  0.53726639  1
  O  O17  1  0.61033556  0.04105196  0.67895689  1
  P  P18  1  0.22078634  0.11528542  0.17944227  1
  P  P19  1  0.27925468  0.44835907  0.30491346  1
  P  P20  1  0.72074500  0.55164047  0.69508606  1
  P  P21  1  0.77921531  0.88471567  0.82055789  1
  V  V22  1  0.24529489  0.22509228  0.72214958  1
  V  V23  1  0.75470477  0.77490882  0.27784944  1
