# generated using pymatgen
data_La4Ti3O12
_symmetry_space_group_name_H-M   'P 1'
_cell_length_a   9.36623496
_cell_length_b   9.36623497
_cell_length_c   9.36623497
_cell_angle_alpha   34.80245134
_cell_angle_beta   34.80245131
_cell_angle_gamma   34.80245129
_symmetry_Int_Tables_number   1
_chemical_formula_structural   La4Ti3O12
_chemical_formula_sum   'La4 Ti3 O12'
_cell_volume   238.90883922
_cell_formula_units_Z   1
loop_
 _symmetry_equiv_pos_site_id
 _symmetry_equiv_pos_as_xyz
  1  'x, y, z'
loop_
 _atom_site_type_symbol
 _atom_site_label
 _atom_site_symmetry_multiplicity
 _atom_site_fract_x
 _atom_site_fract_y
 _atom_site_fract_z
 _atom_site_occupancy
  O  O0  1  0.88341830  0.30247432  0.44746408  1
  O  O1  1  0.30247432  0.44746408  0.88341830  1
  O  O2  1  0.44746408  0.88341830  0.30247432  1
  O  O3  1  0.11658170  0.69752568  0.55253592  1
  O  O4  1  0.69752568  0.55253592  0.11658170  1
  O  O5  1  0.55253592  0.11658170  0.69752568  1
  O  O6  1  0.70884391  0.14332050  0.27154196  1
  O  O7  1  0.72845804  0.29115609  0.85667950  1
  O  O8  1  0.85667950  0.72845804  0.29115609  1
  O  O9  1  0.29115609  0.85667950  0.72845804  1
  O  O10  1  0.27154196  0.70884391  0.14332050  1
  O  O11  1  0.14332050  0.27154196  0.70884391  1
  Ti  Ti12  1  0.00000000  0.00000000  0.00000000  1
  Ti  Ti13  1  0.57562274  0.57562274  0.57562274  1
  Ti  Ti14  1  0.42437726  0.42437726  0.42437726  1
  La  La15  1  0.86574363  0.86574363  0.86574363  1
  La  La16  1  0.13425637  0.13425637  0.13425637  1
  La  La17  1  0.71260974  0.71260974  0.71260974  1
  La  La18  1  0.28739026  0.28739026  0.28739026  1
