# generated using pymatgen
data_LiNi(PO3)4
_symmetry_space_group_name_H-M   'P 1'
_cell_length_a   8.55292929
_cell_length_b   8.55327490
_cell_length_c   7.65634344
_cell_angle_alpha   82.42326191
_cell_angle_beta   97.57667697
_cell_angle_gamma   66.62021885
_symmetry_Int_Tables_number   1
_chemical_formula_structural   LiNi(PO3)4
_chemical_formula_sum   'Li2 Ni2 P8 O24'
_cell_volume   499.07824639
_cell_formula_units_Z   2
loop_
 _symmetry_equiv_pos_site_id
 _symmetry_equiv_pos_as_xyz
  1  'x, y, z'
loop_
 _atom_site_type_symbol
 _atom_site_label
 _atom_site_symmetry_multiplicity
 _atom_site_fract_x
 _atom_site_fract_y
 _atom_site_fract_z
 _atom_site_occupancy
  Li  Li0  1  0.53134188  0.17383859  0.22920837  1
  Li  Li1  1  0.82613708  0.46865235  0.72921356  1
  O  O2  1  0.40412190  0.26790207  0.41057448  1
  O  O3  1  0.90375057  0.64094842  0.19193271  1
  O  O4  1  0.11213806  0.12082671  0.27472462  1
  O  O5  1  0.08947637  0.36708792  0.82298170  1
  O  O6  1  0.99620672  0.74239695  0.52100749  1
  O  O7  1  0.15731749  0.62673364  0.84271960  1
  O  O8  1  0.35908529  0.09625349  0.69192197  1
  O  O9  1  0.09200796  0.85209807  0.17963902  1
  O  O10  1  0.32530086  0.40847192  0.67528476  1
  O  O11  1  0.14790644  0.90799101  0.67965125  1
  O  O12  1  0.87916443  0.88784818  0.77473164  1
  O  O13  1  0.37687354  0.33398520  0.01750914  1
  O  O14  1  0.61878303  0.17131010  0.69472289  1
  O  O15  1  0.25760802  0.00379091  0.02099408  1
  O  O16  1  0.37326340  0.84266720  0.34272672  1
  O  O17  1  0.73181786  0.01911017  0.01783343  1
  O  O18  1  0.98087707  0.26818284  0.51782231  1
  O  O19  1  0.59152354  0.67468821  0.17528867  1
  O  O20  1  0.66600479  0.62311090  0.51750687  1
  O  O21  1  0.73210179  0.59585953  0.91057906  1
  O  O22  1  0.89412291  0.16885650  0.84494712  1
  O  O23  1  0.63293509  0.91050298  0.32299390  1
  O  O24  1  0.82867384  0.38122852  0.19472628  1
  O  O25  1  0.83110995  0.10590928  0.34494068  1
  P  P26  1  0.93611712  0.21168366  0.34665620  1
  P  P27  1  0.77228769  0.58229443  0.10890520  1
  P  P28  1  0.04748562  0.79852384  0.68925460  1
  P  P29  1  0.23908383  0.42104051  0.85248915  1
  P  P30  1  0.41770020  0.22771096  0.60888214  1
  P  P31  1  0.57896009  0.76089510  0.35249689  1
  P  P32  1  0.78831957  0.06386830  0.84667051  1
  P  P33  1  0.20148743  0.95252122  0.18923627  1
  Ni  Ni34  1  0.12893388  0.12551294  0.76566312  1
  Ni  Ni35  1  0.87455541  0.87112389  0.26575642  1
