# generated using pymatgen
data_LiVPO5
_symmetry_space_group_name_H-M   'P 1'
_cell_length_a   6.36353997
_cell_length_b   6.36353998
_cell_length_c   4.54910889
_cell_angle_alpha   90.00000000
_cell_angle_beta   90.00000000
_cell_angle_gamma   88.30923946
_symmetry_Int_Tables_number   1
_chemical_formula_structural   LiVPO5
_chemical_formula_sum   'Li2 V2 P2 O10'
_cell_volume   184.13433017
_cell_formula_units_Z   2
loop_
 _symmetry_equiv_pos_site_id
 _symmetry_equiv_pos_as_xyz
  1  'x, y, z'
loop_
 _atom_site_type_symbol
 _atom_site_label
 _atom_site_symmetry_multiplicity
 _atom_site_fract_x
 _atom_site_fract_y
 _atom_site_fract_z
 _atom_site_occupancy
  Li  Li0  1  0.48391990  0.48391974  0.98094387  1
  Li  Li1  1  0.98392059  0.98392114  0.01905641  1
  O  O2  1  0.25171546  0.55169364  0.29605926  1
  O  O3  1  0.24148681  0.94452849  0.29947700  1
  O  O4  1  0.25684980  0.25684908  0.77959682  1
  O  O5  1  0.05169429  0.75171466  0.70394103  1
  O  O6  1  0.44452935  0.74148689  0.70052110  1
  O  O7  1  0.55169428  0.25171418  0.29605926  1
  O  O8  1  0.94452934  0.24148642  0.29947700  1
  O  O9  1  0.75171540  0.05169474  0.70394103  1
  O  O10  1  0.75684895  0.75684890  0.22040346  1
  O  O11  1  0.74148676  0.44452959  0.70052110  1
  P  P12  1  0.24738991  0.74738954  0.49999905  1
  P  P13  1  0.74738989  0.24738906  0.49999905  1
  V  V14  1  0.24841530  0.24841447  0.41788619  1
  V  V15  1  0.74841441  0.74841586  0.58211409  1
