# generated using pymatgen
data_NaLiLa2Ti4O12
_symmetry_space_group_name_H-M   'P 1'
_cell_length_a   3.90746948
_cell_length_b   7.83376888
_cell_length_c   7.83376888
_cell_angle_alpha   90.00000000
_cell_angle_beta   90.00000000
_cell_angle_gamma   90.00000000
_symmetry_Int_Tables_number   1
_chemical_formula_structural   NaLiLa2Ti4O12
_chemical_formula_sum   'Na1 Li1 La2 Ti4 O12'
_cell_volume   239.79333254
_cell_formula_units_Z   1
loop_
 _symmetry_equiv_pos_site_id
 _symmetry_equiv_pos_as_xyz
  1  'x, y, z'
loop_
 _atom_site_type_symbol
 _atom_site_label
 _atom_site_symmetry_multiplicity
 _atom_site_fract_x
 _atom_site_fract_y
 _atom_site_fract_z
 _atom_site_occupancy
  La  La0  1  0.50000000  0.25000000  0.75000000  1
  La  La1  1  0.50000000  0.75000000  0.25000000  1
  Li  Li2  1  0.00000000  0.75000000  0.75000000  1
  Na  Na3  1  0.50000000  0.25000000  0.25000000  1
  O  O4  1  0.00000000  0.98219877  0.25000000  1
  O  O5  1  0.00000000  0.25000000  0.98219877  1
  O  O6  1  0.00000000  0.00503309  0.75000000  1
  O  O7  1  0.00000000  0.25000000  0.51780123  1
  O  O8  1  0.00000000  0.51780123  0.25000000  1
  O  O9  1  0.00000000  0.75000000  0.00503309  1
  O  O10  1  0.00000000  0.49496691  0.75000000  1
  O  O11  1  0.00000000  0.75000000  0.49496691  1
  O  O12  1  0.50000000  0.00863211  0.00863211  1
  O  O13  1  0.50000000  0.00863211  0.49136789  1
  O  O14  1  0.50000000  0.49136789  0.00863211  1
  O  O15  1  0.50000000  0.49136789  0.49136789  1
  Ti  Ti16  1  0.00000000  0.00173725  0.00173725  1
  Ti  Ti17  1  0.00000000  0.00173725  0.49826275  1
  Ti  Ti18  1  0.00000000  0.49826275  0.00173725  1
  Ti  Ti19  1  0.00000000  0.49826275  0.49826275  1
