# generated using pymatgen
data_Nd6Al7Si5N3O25
_symmetry_space_group_name_H-M   'P 1'
_cell_length_a   8.02283524
_cell_length_b   8.10209535
_cell_length_c   9.92885911
_cell_angle_alpha   90.27624589
_cell_angle_beta   89.13376255
_cell_angle_gamma   120.36253383
_symmetry_Int_Tables_number   1
_chemical_formula_structural   Nd6Al7Si5N3O25
_chemical_formula_sum   'Nd6 Al7 Si5 N3 O25'
_cell_volume   556.80751928
_cell_formula_units_Z   1
loop_
 _symmetry_equiv_pos_site_id
 _symmetry_equiv_pos_as_xyz
  1  'x, y, z'
loop_
 _atom_site_type_symbol
 _atom_site_label
 _atom_site_symmetry_multiplicity
 _atom_site_fract_x
 _atom_site_fract_y
 _atom_site_fract_z
 _atom_site_occupancy
  Nd  Nd0  1  0.00003255  0.40562919  0.00014810  1
  Nd  Nd1  1  0.99954696  0.41112947  0.49818419  1
  Nd  Nd2  1  0.59892800  0.58449719  0.00950057  1
  Nd  Nd3  1  0.58594487  0.58483674  0.50078902  1
  Nd  Nd4  1  0.41130032  0.99909535  0.00779371  1
  Nd  Nd5  1  0.40114448  0.99059428  0.49408715  1
  Al  Al6  1  0.99946888  0.75273198  0.75062725  1
  Al  Al7  1  0.99478632  0.00157981  0.99600224  1
  Al  Al8  1  0.00626254  0.00770273  0.49994874  1
  Al  Al9  1  0.23503327  0.23585539  0.25327793  1
  Al  Al10  1  0.19831369  0.23273656  0.76967471  1
  Al  Al11  1  0.76693054  0.00285546  0.24668507  1
  Al  Al12  1  0.76483374  0.01132840  0.74310564  1
  Si  Si13  1  0.33266908  0.66848602  0.26923310  1
  Si  Si14  1  0.34066491  0.67006377  0.77105808  1
  Si  Si15  1  0.65456525  0.32759884  0.73041833  1
  Si  Si16  1  0.66833360  0.33733745  0.23177824  1
  Si  Si17  1  0.99903290  0.73868256  0.25088087  1
  N  N18  1  0.15645675  0.69502509  0.34183397  1
  N  N19  1  0.83867954  0.54084741  0.15921135  1
  N  N20  1  0.94904402  0.15197653  0.86357389  1
  O  O21  1  0.12194842  0.90784804  0.13403950  1
  O  O22  1  0.12529452  0.90526498  0.61633641  1
  O  O23  1  0.15659694  0.68369612  0.83519944  1
  O  O24  1  0.08191222  0.21563053  0.12261433  1
  O  O25  1  0.09874194  0.23015274  0.60777243  1
  O  O26  1  0.33926003  0.66815936  0.10374687  1
  O  O27  1  0.33796062  0.66352706  0.60681401  1
  O  O28  1  0.32023968  0.47153413  0.33275551  1
  O  O29  1  0.32577979  0.48022301  0.84247310  1
  O  O30  1  0.53956165  0.83803996  0.33620402  1
  O  O31  1  0.53341410  0.85633050  0.83293582  1
  O  O32  1  0.23013582  0.10199042  0.39167961  1
  O  O33  1  0.23168631  0.08408676  0.89050671  1
  O  O34  1  0.45945790  0.29217050  0.16349032  1
  O  O35  1  0.45994606  0.31535874  0.66987379  1
  O  O36  1  0.76896119  0.87646895  0.10424139  1
  O  O37  1  0.77550582  0.86993343  0.60861666  1
  O  O38  1  0.87617013  0.78611189  0.36871639  1
  O  O39  1  0.86848168  0.77167649  0.88474110  1
  O  O40  1  0.66068566  0.33149822  0.39733358  1
  O  O41  1  0.66421641  0.32263955  0.89439697  1
  O  O42  1  0.83725821  0.52772476  0.66358997  1
  O  O43  1  0.68674651  0.15616463  0.16806020  1
  O  O44  1  0.68088736  0.15778994  0.65577310  1
  O  O45  1  0.91717980  0.13538905  0.38027363  1
