# generated using pymatgen
data_NaNdTiNbO6F
_symmetry_space_group_name_H-M   'P 1'
_cell_length_a   7.37826399
_cell_length_b   14.78588892
_cell_length_c   12.81305569
_cell_angle_alpha   29.93581070
_cell_angle_beta   54.84155366
_cell_angle_gamma   60.06566606
_symmetry_Int_Tables_number   1
_chemical_formula_structural   NaNdTiNbO6F
_chemical_formula_sum   'Na4 Nd4 Ti4 Nb4 O24 F4'
_cell_volume   570.29770381
_cell_formula_units_Z   4
loop_
 _symmetry_equiv_pos_site_id
 _symmetry_equiv_pos_as_xyz
  1  'x, y, z'
loop_
 _atom_site_type_symbol
 _atom_site_label
 _atom_site_symmetry_multiplicity
 _atom_site_fract_x
 _atom_site_fract_y
 _atom_site_fract_z
 _atom_site_occupancy
  F  F0  1  0.11626016  0.50871686  0.11630254  1
  F  F1  1  0.13372739  0.99130801  0.13367952  1
  F  F2  1  0.88370245  0.50869199  0.86632048  1
  F  F3  1  0.86629896  0.99128314  0.88369746  1
  Na  Na4  1  0.50001902  0.97960588  0.02037281  1
  Na  Na5  1  -0.00002360  0.52039412  0.97962719  1
  Na  Na6  1  0.97966086  0.75000000  0.00000000  1
  Na  Na7  1  0.02029017  0.75000000  0.50000000  1
  Nb  Nb8  1  -0.00003893  0.00748287  0.49249965  1
  Nb  Nb9  1  0.49257913  0.75000000  0.00000000  1
  Nb  Nb10  1  0.49992609  0.49251713  0.50750035  1
  Nb  Nb11  1  0.50739953  0.75000000  0.50000000  1
  Nd  Nd12  1  1.00003092  0.97599391  0.02398155  1
  Nd  Nd13  1  0.02410337  0.25000000  0.00000000  1
  Nd  Nd14  1  0.97582875  0.25000000  0.50000000  1
  Nd  Nd15  1  0.49998185  0.52400609  0.97601845  1
  O  O16  1  0.18900828  0.19810057  0.16960942  1
  O  O17  1  0.17972567  0.02319018  0.54854854  1
  O  O18  1  0.58339065  0.20834293  0.16665273  1
  O  O19  1  0.16663685  0.29164410  0.58336850  1
  O  O20  1  0.16958400  0.69330490  0.18898769  1
  O  O21  1  0.41666204  0.20835590  0.41663150  1
  O  O22  1  0.54851715  0.49854601  0.17971992  1
  O  O23  1  0.40504901  0.00145399  0.82028008  1
  O  O24  1  0.17679385  0.47680873  0.59494298  1
  O  O25  1  0.57556730  0.30188491  0.56583848  1
  O  O26  1  0.56282454  0.68784245  0.18716855  1
  O  O27  1  0.81101409  0.19811509  0.43416152  1
  O  O28  1  0.43715899  0.68783146  0.43716890  1
  O  O29  1  0.18715972  0.81216854  0.56283110  1
  O  O30  1  0.42442826  0.30189943  0.83039058  1
  O  O31  1  0.59496832  0.00145662  0.17679971  1
  O  O32  1  0.82320311  0.47680982  0.45145146  1
  O  O33  1  0.45148096  0.49854338  0.82320029  1
  O  O34  1  0.56585601  0.80670034  0.57559004  1
  O  O35  1  0.83338197  0.29165707  0.83334727  1
  O  O36  1  0.83043678  0.69329966  0.42440996  1
  O  O37  1  0.43416917  0.80669510  0.81101231  1
  O  O38  1  0.82029726  0.02319127  0.40505702  1
  O  O39  1  0.81284655  0.81215755  0.81283145  1
  Ti  Ti40  1  0.51466754  0.25000000  0.00000000  1
  Ti  Ti41  1  0.00004695  0.48555056  0.51446344  1
  Ti  Ti42  1  0.48530392  0.25000000  0.50000000  1
  Ti  Ti43  1  0.50007496  0.01444944  0.48553656  1
