# generated using pymatgen
data_AgAsSe2
_symmetry_space_group_name_H-M   'P 1'
_cell_length_a   6.95631191
_cell_length_b   6.95631191
_cell_length_c   6.95631191
_cell_angle_alpha   32.77649837
_cell_angle_beta   32.77649833
_cell_angle_gamma   32.77649837
_symmetry_Int_Tables_number   1
_chemical_formula_structural   AgAsSe2
_chemical_formula_sum   'Ag1 As1 Se2'
_cell_volume   87.76192021
_cell_formula_units_Z   1
loop_
 _symmetry_equiv_pos_site_id
 _symmetry_equiv_pos_as_xyz
  1  'x, y, z'
loop_
 _atom_site_type_symbol
 _atom_site_label
 _atom_site_symmetry_multiplicity
 _atom_site_fract_x
 _atom_site_fract_y
 _atom_site_fract_z
 _atom_site_occupancy
  As  As0  1  0.00000000  0.00000000  0.00000000  1
  Se  Se1  1  0.74533621  0.74533621  0.74533621  1
  Se  Se2  1  0.25466379  0.25466379  0.25466379  1
  Ag  Ag3  1  0.50000000  0.50000000  0.50000000  1
