# generated using pymatgen
data_LiV6P7O24
_symmetry_space_group_name_H-M   'P 1'
_cell_length_a   5.39330225
_cell_length_b   26.85238354
_cell_length_c   6.64849343
_cell_angle_alpha   90.00000000
_cell_angle_beta   107.41629420
_cell_angle_gamma   90.00000000
_symmetry_Int_Tables_number   1
_chemical_formula_structural   LiV6P7O24
_chemical_formula_sum   'Li2 V12 P14 O48'
_cell_volume   918.71305436
_cell_formula_units_Z   2
loop_
 _symmetry_equiv_pos_site_id
 _symmetry_equiv_pos_as_xyz
  1  'x, y, z'
loop_
 _atom_site_type_symbol
 _atom_site_label
 _atom_site_symmetry_multiplicity
 _atom_site_fract_x
 _atom_site_fract_y
 _atom_site_fract_z
 _atom_site_occupancy
  Li  Li0  1  0.12414428  0.25000000  0.46023329  1
  Li  Li1  1  0.87585472  0.75000000  0.53976571  1
  O  O2  1  0.05673913  0.66464980  0.94649332  1
  O  O3  1  0.05673913  0.83534920  0.94649332  1
  O  O4  1  0.13034722  0.54952668  0.99883064  1
  O  O5  1  0.13034722  0.95047332  0.99883064  1
  O  O6  1  0.15723987  0.12138445  0.76083782  1
  O  O7  1  0.15723987  0.37861555  0.76083782  1
  O  O8  1  0.11210461  0.69485389  0.60094309  1
  O  O9  1  0.11210461  0.80514611  0.60094309  1
  O  O10  1  0.18719042  0.25000000  0.77766864  1
  O  O11  1  0.13268744  0.52048036  0.36379222  1
  O  O12  1  0.13268744  0.97951964  0.36379222  1
  O  O13  1  0.15192678  0.09507804  0.39295321  1
  O  O14  1  0.15192678  0.40492196  0.39295321  1
  O  O15  1  0.38156585  0.61977643  0.78771789  1
  O  O16  1  0.38156585  0.88022357  0.78771789  1
  O  O17  1  0.48515518  0.70334177  0.94119880  1
  O  O18  1  0.48515518  0.79665723  0.94119880  1
  O  O19  1  0.45687214  0.05651399  0.70172579  1
  O  O20  1  0.45687214  0.44348601  0.70172579  1
  O  O21  1  0.33728878  0.75000000  0.22319321  1
  O  O22  1  0.59006309  0.52582158  0.83151819  1
  O  O23  1  0.59006309  0.97417842  0.83151819  1
  O  O24  1  0.52538675  0.14790072  0.61771034  1
  O  O25  1  0.52538675  0.35209928  0.61771034  1
  O  O26  1  0.47461425  0.64790072  0.38229066  1
  O  O27  1  0.47461425  0.85209928  0.38229066  1
  O  O28  1  0.40993591  0.02582158  0.16848181  1
  O  O29  1  0.40993591  0.47417842  0.16848181  1
  O  O30  1  0.66271222  0.25000000  0.77680579  1
  O  O31  1  0.54312686  0.55651399  0.29827421  1
  O  O32  1  0.54312686  0.94348601  0.29827421  1
  O  O33  1  0.51484582  0.20334177  0.05880220  1
  O  O34  1  0.51484582  0.29665823  0.05880220  1
  O  O35  1  0.61843315  0.11977643  0.21228211  1
  O  O36  1  0.61843315  0.38022257  0.21228211  1
  O  O37  1  0.84807222  0.59507804  0.60704679  1
  O  O38  1  0.84807222  0.90492196  0.60704679  1
  O  O39  1  0.86731156  0.02048036  0.63620778  1
  O  O40  1  0.86731156  0.47951964  0.63620778  1
  O  O41  1  0.81281058  0.75000000  0.22233136  1
  O  O42  1  0.88789439  0.19485389  0.39905691  1
  O  O43  1  0.88789439  0.30514611  0.39905691  1
  O  O44  1  0.84275913  0.62138445  0.23916218  1
  O  O45  1  0.84275913  0.87861555  0.23916218  1
  O  O46  1  0.86965378  0.04952668  0.00116936  1
  O  O47  1  0.86965378  0.45047332  0.00116936  1
  O  O48  1  0.94326187  0.16464980  0.05350568  1
  O  O49  1  0.94326187  0.33535020  0.05350568  1
  P  P50  1  0.23921846  0.66776348  0.80804851  1
  P  P51  1  0.23921846  0.83223652  0.80804851  1
  P  P52  1  0.32471187  0.10892331  0.61546511  1
  P  P53  1  0.32471187  0.39107669  0.61546511  1
  P  P54  1  0.47450341  0.25000000  0.90787211  1
  P  P55  1  0.28738833  0.52390791  0.20414647  1
  P  P56  1  0.28738833  0.97609209  0.20414647  1
  P  P57  1  0.71261267  0.02390791  0.79585353  1
  P  P58  1  0.71261267  0.47609209  0.79585353  1
  P  P59  1  0.52549559  0.75000000  0.09212789  1
  P  P60  1  0.67528713  0.60892331  0.38453489  1
  P  P61  1  0.67528713  0.89107669  0.38453489  1
  P  P62  1  0.76078054  0.16776348  0.19195149  1
  P  P63  1  0.76078054  0.33223652  0.19195149  1
  V  V64  1  0.17742112  0.54532571  0.68886013  1
  V  V65  1  0.17742112  0.95467429  0.68886013  1
  V  V66  1  0.11363281  0.68349632  0.27515287  1
  V  V67  1  0.11363281  0.81650468  0.27515287  1
  V  V68  1  0.20859588  0.09754705  0.08666479  1
  V  V69  1  0.20859588  0.40245295  0.08666479  1
  V  V70  1  0.79140512  0.59754705  0.91333521  1
  V  V71  1  0.79140512  0.90245295  0.91333521  1
  V  V72  1  0.88636619  0.18349632  0.72484713  1
  V  V73  1  0.88636619  0.31650368  0.72484713  1
  V  V74  1  0.82257788  0.04532571  0.31113987  1
  V  V75  1  0.82257788  0.45467429  0.31113987  1
