# generated using pymatgen
data_SrAl3P2(HO2)7
_symmetry_space_group_name_H-M   'P 1'
_cell_length_a   6.84120044
_cell_length_b   6.84120075
_cell_length_c   6.84120101
_cell_angle_alpha   63.26834737
_cell_angle_beta   63.26835104
_cell_angle_gamma   63.26834988
_symmetry_Int_Tables_number   1
_chemical_formula_structural   SrAl3P2(HO2)7
_chemical_formula_sum   'Sr1 Al3 P2 H7 O14'
_cell_volume   242.79609355
_cell_formula_units_Z   1
loop_
 _symmetry_equiv_pos_site_id
 _symmetry_equiv_pos_as_xyz
  1  'x, y, z'
loop_
 _atom_site_type_symbol
 _atom_site_label
 _atom_site_symmetry_multiplicity
 _atom_site_fract_x
 _atom_site_fract_y
 _atom_site_fract_z
 _atom_site_occupancy
  Al  Al0  1  0.00205735  0.49597905  0.00205735  1
  Al  Al1  1  0.00205735  0.00205735  0.49597905  1
  Al  Al2  1  0.49597905  0.00205735  0.00205735  1
  H  H3  1  0.30488908  0.71349025  0.30488908  1
  H  H4  1  0.30488908  0.30488908  0.71349025  1
  H  H5  1  0.27069194  0.70707722  0.70707722  1
  H  H6  1  0.71349025  0.30488908  0.30488908  1
  H  H7  1  0.53736338  0.53736338  0.53736338  1
  H  H8  1  0.70707722  0.27069194  0.70707722  1
  H  H9  1  0.70707722  0.70707722  0.27069194  1
  O  O10  1  0.15898509  0.51260133  0.15898509  1
  O  O11  1  0.15898509  0.15898509  0.51260133  1
  O  O12  1  0.51260133  0.15898509  0.15898509  1
  O  O13  1  0.40446577  0.40446577  0.40446577  1
  O  O14  1  0.25958825  0.25958825  0.88435484  1
  O  O15  1  0.25958825  0.88435484  0.25958825  1
  O  O16  1  0.10651135  0.74095334  0.74095334  1
  O  O17  1  0.88435484  0.25958825  0.25958825  1
  O  O18  1  0.74095334  0.10651135  0.74095334  1
  O  O19  1  0.74095334  0.74095334  0.10651135  1
  O  O20  1  0.59713637  0.59713637  0.59713637  1
  O  O21  1  0.48473348  0.83918236  0.83918236  1
  O  O22  1  0.83918236  0.48473348  0.83918236  1
  O  O23  1  0.83918236  0.83918236  0.48473348  1
  P  P24  1  0.30991046  0.30991046  0.30991046  1
  P  P25  1  0.69460257  0.69460257  0.69460257  1
  Sr  Sr26  1  0.99969385  0.99969385  0.99969385  1
