# generated using pymatgen
data_Na8Be3Si9(ClO12)2
_symmetry_space_group_name_H-M   'P 1'
_cell_length_a   7.61212315
_cell_length_b   7.61174924
_cell_length_c   15.18303529
_cell_angle_alpha   109.36382468
_cell_angle_beta   109.41075089
_cell_angle_gamma   109.56903553
_symmetry_Int_Tables_number   1
_chemical_formula_structural   Na8Be3Si9(ClO12)2
_chemical_formula_sum   'Na8 Be3 Si9 Cl2 O24'
_cell_volume   677.79869854
_cell_formula_units_Z   1
loop_
 _symmetry_equiv_pos_site_id
 _symmetry_equiv_pos_as_xyz
  1  'x, y, z'
loop_
 _atom_site_type_symbol
 _atom_site_label
 _atom_site_symmetry_multiplicity
 _atom_site_fract_x
 _atom_site_fract_y
 _atom_site_fract_z
 _atom_site_occupancy
  Be  Be0  1  0.50064451  0.24540966  0.87445964  1
  Be  Be1  1  0.75171781  0.49881369  0.62620893  1
  Be  Be2  1  0.75019630  0.25454777  0.25089747  1
  Cl  Cl3  1  0.99932158  0.99703406  0.49886769  1
  Cl  Cl4  1  -0.00055479  0.00290686  0.00242543  1
  Na  Na5  1  0.01009607  0.98621461  0.81439415  1
  Na  Na6  1  0.38337794  0.35827011  0.68507127  1
  Na  Na7  1  0.98299474  0.01244427  0.32027904  1
  Na  Na8  1  0.67691658  0.05166722  0.52045451  1
  Na  Na9  1  0.37585771  0.33335167  0.18039706  1
  Na  Na10  1  0.97780273  0.62017586  0.49694661  1
  Na  Na11  1  0.63133426  0.01836929  0.99783347  1
  Na  Na12  1  0.95866479  0.62441006  0.98962638  1
  O  O13  1  0.99745520  0.58724740  0.64713544  1
  O  O14  1  0.29046053  0.69006406  0.84529143  1
  O  O15  1  0.40102036  0.70022618  0.69925936  1
  O  O16  1  0.40592894  0.39965067  0.85064406  1
  O  O17  1  0.99727712  0.60642267  0.15270742  1
  O  O18  1  0.30693038  0.99635094  0.79993902  1
  O  O19  1  0.31158609  0.60896875  0.50099985  1
  O  O20  1  0.30049993  0.69640446  0.34640205  1
  O  O21  1  0.60054189  0.00085742  0.65355325  1
  O  O22  1  0.70170063  0.28814832  0.85158093  1
  O  O23  1  0.70273274  0.69826854  0.64904838  1
  O  O24  1  0.39381457  0.70490306  0.19596817  1
  O  O25  1  0.40199906  0.40188569  0.35267312  1
  O  O26  1  0.29813012  1.00068699  0.29813062  1
  O  O27  1  0.30027181  0.59447708  0.99688689  1
  O  O28  1  0.71306280  0.40164228  0.70298774  1
  O  O29  1  0.58640407  0.30061630  0.50102799  1
  O  O30  1  0.59584951  0.00407854  0.14875693  1
  O  O31  1  0.00135057  0.29639473  0.79789346  1
  O  O32  1  0.69034934  0.28708333  0.34635670  1
  O  O33  1  0.69319628  0.69980409  0.14761043  1
  O  O34  1  0.71472294  0.41592948  0.20798920  1
  O  O35  1  0.59686545  0.30925457  0.00120436  1
  O  O36  1  0.00076295  0.30697313  0.30094085  1
  Si  Si37  1  0.25463719  0.49060427  0.87068420  1
  Si  Si38  1  0.24032316  0.74775868  0.74526986  1
  Si  Si39  1  0.51239687  0.75049120  0.62791307  1
  Si  Si40  1  0.24746752  0.75251789  0.24876129  1
  Si  Si41  1  0.24435835  0.49529749  0.37313515  1
  Si  Si42  1  0.50031640  0.76077271  0.12197494  1
  Si  Si43  1  0.50959562  0.25404810  0.38039045  1
  Si  Si44  1  0.75052122  0.25607323  0.75448464  1
  Si  Si45  1  0.73910016  0.49248263  0.12453706  1
