# generated using pymatgen
data_Yb3Al5O12
_symmetry_space_group_name_H-M   'P 1'
_cell_length_a   10.48665651
_cell_length_b   10.48665651
_cell_length_c   10.48665651
_cell_angle_alpha   109.47122062
_cell_angle_beta   109.47122064
_cell_angle_gamma   109.47122064
_symmetry_Int_Tables_number   1
_chemical_formula_structural   Yb3Al5O12
_chemical_formula_sum   'Yb12 Al20 O48'
_cell_volume   887.74705065
_cell_formula_units_Z   4
loop_
 _symmetry_equiv_pos_site_id
 _symmetry_equiv_pos_as_xyz
  1  'x, y, z'
loop_
 _atom_site_type_symbol
 _atom_site_label
 _atom_site_symmetry_multiplicity
 _atom_site_fract_x
 _atom_site_fract_y
 _atom_site_fract_z
 _atom_site_occupancy
  O  O0  1  0.69659099  0.67998906  0.08219703  1
  O  O1  1  0.82001094  0.51660193  0.40220797  1
  O  O2  1  0.41780297  0.09779203  0.61439395  1
  O  O3  1  0.80340901  0.88560605  0.98339807  1
  O  O4  1  0.80340901  0.41780297  0.82001094  1
  O  O5  1  0.88560605  0.98339807  0.80340901  1
  O  O6  1  0.09779203  0.98339807  0.67998906  1
  O  O7  1  0.98339807  0.80340901  0.88560605  1
  O  O8  1  0.40220797  0.08219703  0.88560605  1
  O  O9  1  0.51660193  0.61439395  0.69659099  1
  O  O10  1  0.61439395  0.69659099  0.51660193  1
  O  O11  1  0.82001094  0.80340901  0.41780297  1
  O  O12  1  0.98339807  0.67998906  0.09779203  1
  O  O13  1  0.88560605  0.40220797  0.08219703  1
  O  O14  1  0.41780297  0.82001094  0.80340901  1
  O  O15  1  0.67998906  0.09779203  0.98339807  1
  O  O16  1  0.08219703  0.88560605  0.40220797  1
  O  O17  1  0.40220797  0.82001094  0.51660193  1
  O  O18  1  0.09779203  0.61439395  0.41780297  1
  O  O19  1  0.59779203  0.91780297  0.11439395  1
  O  O20  1  0.61439395  0.41780297  0.09779203  1
  O  O21  1  0.08219703  0.69659099  0.67998906  1
  O  O22  1  0.51660193  0.40220797  0.82001094  1
  O  O23  1  0.69659099  0.51660193  0.61439395  1
  O  O24  1  0.30340901  0.32001094  0.91780297  1
  O  O25  1  0.17998906  0.48339807  0.59779203  1
  O  O26  1  0.58219703  0.90220797  0.38560605  1
  O  O27  1  0.19659099  0.11439395  0.01660193  1
  O  O28  1  0.19659099  0.58219703  0.17998906  1
  O  O29  1  0.11439395  0.01660193  0.19659099  1
  O  O30  1  0.90220797  0.01660193  0.32001094  1
  O  O31  1  0.01660193  0.19659099  0.11439395  1
  O  O32  1  0.30340901  0.48339807  0.38560605  1
  O  O33  1  0.48339807  0.59779203  0.17998906  1
  O  O34  1  0.91780297  0.30340901  0.32001094  1
  O  O35  1  0.32001094  0.91780297  0.30340901  1
  O  O36  1  0.38560605  0.58219703  0.90220797  1
  O  O37  1  0.90220797  0.38560605  0.58219703  1
  O  O38  1  0.59779203  0.17998906  0.48339807  1
  O  O39  1  0.91780297  0.11439395  0.59779203  1
  O  O40  1  0.32001094  0.90220797  0.01660193  1
  O  O41  1  0.58219703  0.17998906  0.19659099  1
  O  O42  1  0.11439395  0.59779203  0.91780297  1
  O  O43  1  0.01660193  0.32001094  0.90220797  1
  O  O44  1  0.17998906  0.19659099  0.58219703  1
  O  O45  1  0.38560605  0.30340901  0.48339807  1
  O  O46  1  0.48339807  0.38560605  0.30340901  1
  O  O47  1  0.67998906  0.08219703  0.69659099  1
  Al  Al48  1  0.25000000  0.12500000  0.87500000  1
  Al  Al49  1  0.75000000  0.87500000  0.12500000  1
  Al  Al50  1  0.37500000  0.25000000  0.62500000  1
  Al  Al51  1  0.62500000  0.37500000  0.25000000  1
  Al  Al52  1  0.12500000  0.75000000  0.87500000  1
  Al  Al53  1  0.87500000  0.12500000  0.75000000  1
  Al  Al54  1  0.75000000  0.37500000  0.62500000  1
  Al  Al55  1  0.37500000  0.62500000  0.75000000  1
  Al  Al56  1  0.12500000  0.87500000  0.25000000  1
  Al  Al57  1  0.87500000  0.25000000  0.12500000  1
  Al  Al58  1  0.62500000  0.75000000  0.37500000  1
  Al  Al59  1  0.25000000  0.62500000  0.37500000  1
  Al  Al60  1  0.50000000  0.50000000  0.50000000  1
  Al  Al61  1  0.50000000  0.50000000  0.00000000  1
  Al  Al62  1  0.50000000  0.00000000  0.50000000  1
  Al  Al63  1  0.00000000  0.50000000  0.50000000  1
  Al  Al64  1  0.50000000  0.00000000  0.00000000  1
  Al  Al65  1  0.00000000  0.00000000  0.50000000  1
  Al  Al66  1  0.00000000  0.50000000  0.00000000  1
  Al  Al67  1  0.00000000  0.00000000  0.00000000  1
  Yb  Yb68  1  0.25000000  0.87500000  0.62500000  1
  Yb  Yb69  1  0.87500000  0.62500000  0.25000000  1
  Yb  Yb70  1  0.62500000  0.87500000  0.75000000  1
  Yb  Yb71  1  0.87500000  0.75000000  0.62500000  1
  Yb  Yb72  1  0.62500000  0.25000000  0.87500000  1
  Yb  Yb73  1  0.75000000  0.62500000  0.87500000  1
  Yb  Yb74  1  0.75000000  0.12500000  0.37500000  1
  Yb  Yb75  1  0.12500000  0.37500000  0.75000000  1
  Yb  Yb76  1  0.37500000  0.12500000  0.25000000  1
  Yb  Yb77  1  0.12500000  0.25000000  0.37500000  1
  Yb  Yb78  1  0.37500000  0.75000000  0.12500000  1
  Yb  Yb79  1  0.25000000  0.37500000  0.12500000  1
