# generated using pymatgen
data_V2O5
_symmetry_space_group_name_H-M   'P 1'
_cell_length_a   3.61754316
_cell_length_b   6.37667755
_cell_length_c   7.83805276
_cell_angle_alpha   88.87300680
_cell_angle_beta   90.00000000
_cell_angle_gamma   90.00000000
_symmetry_Int_Tables_number   1
_chemical_formula_structural   V2O5
_chemical_formula_sum   'V4 O10'
_cell_volume   180.77249050
_cell_formula_units_Z   2
loop_
 _symmetry_equiv_pos_site_id
 _symmetry_equiv_pos_as_xyz
  1  'x, y, z'
loop_
 _atom_site_type_symbol
 _atom_site_label
 _atom_site_symmetry_multiplicity
 _atom_site_fract_x
 _atom_site_fract_y
 _atom_site_fract_z
 _atom_site_occupancy
  O  O0  1  0.25000100  0.74329346  0.82294549  1
  O  O1  1  0.75000100  0.25670654  0.17705551  1
  O  O2  1  0.75000100  0.04169385  0.72582407  1
  O  O3  1  0.25000100  0.95830715  0.27417593  1
  O  O4  1  0.75000100  0.44184455  0.83390897  1
  O  O5  1  0.25000100  0.55815545  0.16609103  1
  O  O6  1  0.25000100  0.14607451  0.97037037  1
  O  O7  1  0.75000100  0.69106173  0.54556244  1
  O  O8  1  0.25000100  0.30893827  0.45443756  1
  O  O9  1  0.75000100  0.85392549  0.02962963  1
  V  V10  1  0.75000100  0.74438458  0.74420894  1
  V  V11  1  0.25000100  0.25561542  0.25579106  1
  V  V12  1  0.75000100  0.19460130  0.90955962  1
  V  V13  1  0.25000100  0.80539870  0.09044038  1
