# generated using pymatgen
data_Tl9SbSe6
_symmetry_space_group_name_H-M   'P 1'
_cell_length_a   17.45785473
_cell_length_b   12.34456746
_cell_length_c   13.12891909
_cell_angle_alpha   90.00000000
_cell_angle_beta   90.00000000
_cell_angle_gamma   45.00000000
_symmetry_Int_Tables_number   1
_chemical_formula_structural   Tl9SbSe6
_chemical_formula_sum   'Tl36 Sb4 Se24'
_cell_volume   2000.69426341
_cell_formula_units_Z   4
loop_
 _symmetry_equiv_pos_site_id
 _symmetry_equiv_pos_as_xyz
  1  'x, y, z'
loop_
 _atom_site_type_symbol
 _atom_site_label
 _atom_site_symmetry_multiplicity
 _atom_site_fract_x
 _atom_site_fract_y
 _atom_site_fract_z
 _atom_site_occupancy
  Tl  Tl0  1  0.00000000  0.25000000  0.77657872  1
  Tl  Tl1  1  0.10998436  0.38108689  0.09640457  1
  Tl  Tl2  1  0.22099588  0.13059834  0.60924397  1
  Tl  Tl3  1  0.10520701  0.40675086  0.39687083  1
  Tl  Tl4  1  0.27926448  0.07253993  0.90224307  1
  Tl  Tl5  1  0.00000000  0.75000000  0.71498125  1
  Tl  Tl6  1  0.22468137  0.42130444  0.90092655  1
  Tl  Tl7  1  0.39546506  0.08350555  0.39705784  1
  Tl  Tl8  1  0.26606646  0.37787509  0.60773089  1
  Tl  Tl9  1  0.39797957  0.12721176  0.09216605  1
  Tl  Tl10  1  0.10180441  0.86893111  0.90224307  1
  Tl  Tl11  1  0.22897061  0.62556433  0.39705784  1
  Tl  Tl12  1  0.10159422  0.92740990  0.60924397  1
  Tl  Tl13  1  0.27519133  0.57682909  0.09216605  1
  Tl  Tl14  1  0.50000000  0.25000000  0.28118419  1
  Tl  Tl15  1  0.24107125  0.89894439  0.09640457  1
  Tl  Tl16  1  0.39394155  0.58999199  0.60773089  1
  Tl  Tl17  1  0.26195787  0.88283512  0.39687083  1
  Tl  Tl18  1  0.39598582  0.62933281  0.90092655  1
  Tl  Tl19  1  0.60202043  0.37278824  0.09216605  1
  Tl  Tl20  1  0.73393354  0.12212491  0.60773089  1
  Tl  Tl21  1  0.60453494  0.41649445  0.39705784  1
  Tl  Tl22  1  0.77531863  0.07869556  0.90092655  1
  Tl  Tl23  1  0.50000000  0.75000000  0.71498125  1
  Tl  Tl24  1  0.72073552  0.42746007  0.90224307  1
  Tl  Tl25  1  0.89479299  0.09324914  0.39687083  1
  Tl  Tl26  1  0.77900412  0.36940166  0.60924397  1
  Tl  Tl27  1  0.89001564  0.11891311  0.09640457  1
  Tl  Tl28  1  0.60401418  0.87066719  0.90092655  1
  Tl  Tl29  1  0.73804213  0.61716488  0.39687083  1
  Tl  Tl30  1  0.60605845  0.91000801  0.60773089  1
  Tl  Tl31  1  0.75892875  0.60105561  0.09640457  1
  Tl  Tl32  1  0.72480867  0.92317091  0.09216605  1
  Tl  Tl33  1  0.89840578  0.57259010  0.60924397  1
  Tl  Tl34  1  0.77102939  0.87443567  0.39705784  1
  Tl  Tl35  1  0.89819559  0.63106889  0.90224307  1
  Sb  Sb36  1  -0.00000000  0.75000000  0.23592827  1
  Sb  Sb37  1  0.50000000  0.25000000  0.75836414  1
  Sb  Sb38  1  0.50000000  0.75000000  0.23592827  1
  Sb  Sb39  1  -0.00000000  0.25000000  0.25108547  1
  Se  Se40  1  -0.00000000  0.25000000  0.52599294  1
  Se  Se41  1  0.08949654  0.40976979  0.75807095  1
  Se  Se42  1  0.25244282  0.07799760  0.24298527  1
  Se  Se43  1  0.00000000  0.75000000  0.43862360  1
  Se  Se44  1  0.00000000  0.75000000  0.97320674  1
  Se  Se45  1  0.21985315  0.44769042  0.23951739  1
  Se  Se46  1  0.41583796  0.11039174  0.75982078  1
  Se  Se47  1  0.08044042  0.91711677  0.24298527  1
  Se  Se48  1  0.27622970  0.55793235  0.75982078  1
  Se  Se49  1  0.50000000  0.25000000  0.05134026  1
  Se  Se50  1  0.50000000  0.25000000  0.55744954  1
  Se  Se51  1  0.24926633  0.91123713  0.75807095  1
  Se  Se52  1  0.41754357  0.61260327  0.23951739  1
  Se  Se53  1  0.58416204  0.38960826  0.75982078  1
  Se  Se54  1  0.78014685  0.05230958  0.23951739  1
  Se  Se55  1  0.50000000  0.75000000  0.43862360  1
  Se  Se56  1  0.50000000  0.75000000  0.97320674  1
  Se  Se57  1  0.74755718  0.42200240  0.24298527  1
  Se  Se58  1  0.91050346  0.09023021  0.75807095  1
  Se  Se59  1  0.58245643  0.88739673  0.23951739  1
  Se  Se60  1  0.75073367  0.58876287  0.75807095  1
  Se  Se61  1  0.00000000  0.25000000  0.06037238  1
  Se  Se62  1  0.72377030  0.94206765  0.75982078  1
  Se  Se63  1  0.91955958  0.58288323  0.24298527  1
