# generated using pymatgen
data_Dy2(WO4)3
_symmetry_space_group_name_H-M   'P 1'
_cell_length_a   6.92719507
_cell_length_b   6.92719502
_cell_length_c   11.40896609
_cell_angle_alpha   100.76514669
_cell_angle_beta   100.76514661
_cell_angle_gamma   111.87546687
_symmetry_Int_Tables_number   1
_chemical_formula_structural   Dy2(WO4)3
_chemical_formula_sum   'Dy4 W6 O24'
_cell_volume   478.96736191
_cell_formula_units_Z   2
loop_
 _symmetry_equiv_pos_site_id
 _symmetry_equiv_pos_as_xyz
  1  'x, y, z'
loop_
 _atom_site_type_symbol
 _atom_site_label
 _atom_site_symmetry_multiplicity
 _atom_site_fract_x
 _atom_site_fract_y
 _atom_site_fract_z
 _atom_site_occupancy
  O  O0  1  0.52929205  0.10640829  0.42630771  1
  O  O1  1  0.39359271  0.97070795  0.07369329  1
  O  O2  1  0.47070795  0.89359171  0.57369329  1
  O  O3  1  0.60640829  0.02929205  0.92630671  1
  O  O4  1  0.66704296  0.73014202  0.06124373  1
  O  O5  1  0.76985798  0.83295704  0.43875627  1
  O  O6  1  0.33295604  0.26985798  0.93875627  1
  O  O7  1  0.23014202  0.16704296  0.56124273  1
  O  O8  1  0.09995283  0.95840590  0.29810770  1
  O  O9  1  0.54159310  0.40004617  0.20189230  1
  O  O10  1  0.66054356  0.57734566  0.60515796  1
  O  O11  1  0.92265334  0.83945644  0.89484204  1
  O  O12  1  0.33945544  0.42265434  0.39484204  1
  O  O13  1  0.07734666  0.16054456  0.10515796  1
  O  O14  1  0.12924007  0.70869659  0.72037758  1
  O  O15  1  0.79130341  0.37075893  0.77962242  1
  O  O16  1  0.87075893  0.29130341  0.27962242  1
  O  O17  1  0.90004717  0.04159410  0.70189230  1
  O  O18  1  0.92023414  0.31894680  0.54001509  1
  O  O19  1  0.18105320  0.57976586  0.95998491  1
  O  O20  1  0.07976586  0.68105320  0.45998591  1
  O  O21  1  0.81894780  0.42023414  0.04001509  1
  O  O22  1  0.45840590  0.59995383  0.79810770  1
  O  O23  1  0.20869659  0.62924107  0.22037658  1
  Dy  Dy24  1  0.28823128  0.54175882  0.59280020  1
  Dy  Dy25  1  0.95824118  0.21176872  0.90720080  1
  Dy  Dy26  1  0.71176872  0.45824118  0.40720080  1
  Dy  Dy27  1  0.04175882  0.78823128  0.09279920  1
  W  W28  1  0.86824134  0.63175866  0.75000000  1
  W  W29  1  0.13175966  0.36824134  0.25000000  1
  W  W30  1  0.45985307  0.74684536  0.94991711  1
  W  W31  1  0.75315464  0.04014793  0.55008189  1
  W  W32  1  0.54014693  0.25315464  0.05008189  1
  W  W33  1  0.24684436  0.95985207  0.44991711  1
