# generated using pymatgen
data_CoPO4
_symmetry_space_group_name_H-M   'P 1'
_cell_length_a   4.88254445
_cell_length_b   5.97837528
_cell_length_c   9.68627191
_cell_angle_alpha   90.00000000
_cell_angle_beta   90.00000000
_cell_angle_gamma   90.00000000
_symmetry_Int_Tables_number   1
_chemical_formula_structural   CoPO4
_chemical_formula_sum   'Co4 P4 O16'
_cell_volume   282.73920692
_cell_formula_units_Z   4
loop_
 _symmetry_equiv_pos_site_id
 _symmetry_equiv_pos_as_xyz
  1  'x, y, z'
loop_
 _atom_site_type_symbol
 _atom_site_label
 _atom_site_symmetry_multiplicity
 _atom_site_fract_x
 _atom_site_fract_y
 _atom_site_fract_z
 _atom_site_occupancy
  O  O0  1  0.25279686  0.45273058  0.66432124  1
  O  O1  1  0.75279686  0.54726942  0.83567876  1
  O  O2  1  0.74720314  0.95273058  0.33567876  1
  O  O3  1  0.24720314  0.04726942  0.16432124  1
  O  O4  1  0.74720314  0.54726942  0.33567876  1
  O  O5  1  0.24720314  0.45273058  0.16432124  1
  O  O6  1  0.25279686  0.04726942  0.66432124  1
  O  O7  1  0.75279686  0.95273058  0.83567876  1
  O  O8  1  0.29238429  0.75000000  0.87523410  1
  O  O9  1  0.79238429  0.25000000  0.62476590  1
  O  O10  1  0.70761571  0.25000000  0.12476590  1
  O  O11  1  0.20761571  0.75000000  0.37523410  1
  O  O12  1  0.85589586  0.75000000  0.56209012  1
  O  O13  1  0.35589586  0.25000000  0.93790988  1
  O  O14  1  0.14410414  0.25000000  0.43790988  1
  O  O15  1  0.64410414  0.75000000  0.06209012  1
  P  P16  1  0.89706600  0.75000000  0.40429543  1
  P  P17  1  0.39706600  0.25000000  0.09570457  1
  P  P18  1  0.10293400  0.25000000  0.59570457  1
  P  P19  1  0.60293400  0.75000000  0.90429543  1
  Co  Co20  1  0.45795396  0.75000000  0.23167492  1
  Co  Co21  1  0.95795396  0.25000000  0.26832508  1
  Co  Co22  1  0.54204604  0.25000000  0.76832508  1
  Co  Co23  1  0.04204604  0.75000000  0.73167492  1
