# generated using pymatgen
data_U2V2O11
_symmetry_space_group_name_H-M   'P 1'
_cell_length_a   6.14980825
_cell_length_b   6.82762624
_cell_length_c   13.21955757
_cell_angle_alpha   90.00000000
_cell_angle_beta   90.00000000
_cell_angle_gamma   110.99668334
_symmetry_Int_Tables_number   1
_chemical_formula_structural   U2V2O11
_chemical_formula_sum   'U4 V4 O22'
_cell_volume   518.21457220
_cell_formula_units_Z   2
loop_
 _symmetry_equiv_pos_site_id
 _symmetry_equiv_pos_as_xyz
  1  'x, y, z'
loop_
 _atom_site_type_symbol
 _atom_site_label
 _atom_site_symmetry_multiplicity
 _atom_site_fract_x
 _atom_site_fract_y
 _atom_site_fract_z
 _atom_site_occupancy
  O  O0  1  0.72501513  0.76029131  0.48807467  1
  O  O1  1  0.77498487  0.73970869  0.98807467  1
  O  O2  1  0.27498587  0.23970869  0.51192633  1
  O  O3  1  0.22501513  0.26029131  0.01192633  1
  O  O4  1  0.33679558  0.51332414  0.34270414  1
  O  O5  1  0.16320342  0.98667586  0.84270414  1
  O  O6  1  0.66320342  0.48667686  0.65729586  1
  O  O7  1  0.83679658  0.01332514  0.15729586  1
  O  O8  1  0.00000000  0.50000000  0.50000000  1
  O  O9  1  0.50000000  0.00000100  0.00000000  1
  O  O10  1  0.46287429  0.67018196  0.15344842  1
  O  O11  1  0.03712571  0.82981804  0.65344742  1
  O  O12  1  0.53712671  0.32981904  0.84655258  1
  O  O13  1  0.96287329  0.17018096  0.34655258  1
  O  O14  1  0.36733216  0.19752274  0.20277128  1
  O  O15  1  0.46789922  0.95494313  0.35589963  1
  O  O16  1  0.63266684  0.80247726  0.79722872  1
  O  O17  1  0.86733316  0.69752374  0.29722872  1
  O  O18  1  0.96790022  0.45494313  0.14409937  1
  O  O19  1  0.53209978  0.04505687  0.64410037  1
  O  O20  1  0.03210078  0.54505787  0.85589963  1
  O  O21  1  0.13266784  0.30247726  0.70277128  1
  V  V22  1  0.64196324  0.85401644  0.07022280  1
  V  V23  1  0.85803676  0.64598356  0.57022280  1
  V  V24  1  0.35803576  0.14598356  0.92977720  1
  V  V25  1  0.14196424  0.35401644  0.42977720  1
  U  U26  1  0.66778701  0.82867359  0.32297909  1
  U  U27  1  0.83221299  0.67132641  0.82298009  1
  U  U28  1  0.33221399  0.17132641  0.67701991  1
  U  U29  1  0.16778701  0.32867359  0.17702091  1
