# generated using pymatgen
data_Na11Ti10O21
_symmetry_space_group_name_H-M   'P 1'
_cell_length_a   5.71964325
_cell_length_b   17.14574069
_cell_length_c   39.98184476
_cell_angle_alpha   30.88066286
_cell_angle_beta   30.86309014
_cell_angle_gamma   30.89273733
_symmetry_Int_Tables_number   1
_chemical_formula_structural   Na11Ti10O21
_chemical_formula_sum   'Na22 Ti20 O42'
_cell_volume   916.01460704
_cell_formula_units_Z   2
loop_
 _symmetry_equiv_pos_site_id
 _symmetry_equiv_pos_as_xyz
  1  'x, y, z'
loop_
 _atom_site_type_symbol
 _atom_site_label
 _atom_site_symmetry_multiplicity
 _atom_site_fract_x
 _atom_site_fract_y
 _atom_site_fract_z
 _atom_site_occupancy
  Na  Na0  1  0.97093151  0.99783802  0.14694289  1
  Na  Na1  1  0.96968585  0.34131245  1.00060487  1
  Na  Na2  1  -0.00168430  0.99802154  0.28630488  1
  Na  Na3  1  0.01195971  0.32651858  0.14359897  1
  Na  Na4  1  0.03031415  0.65868755  -0.00060487  1
  Na  Na5  1  0.99909905  -0.00002921  0.42866200  1
  Na  Na6  1  0.00040442  0.33380791  0.28533873  1
  Na  Na7  1  0.00178071  0.66475310  0.14348472  1
  Na  Na8  1  0.49725883  0.83472158  0.07116598  1
  Na  Na9  1  0.00090095  1.00002921  0.57133800  1
  Na  Na10  1  -0.00072382  0.33273756  0.42885687  1
  Na  Na11  1  0.98975316  0.66383870  0.28834314  1
  Na  Na12  1  -0.00141837  0.66676919  0.42846173  1
  Na  Na13  1  0.02906849  0.00216198  0.85305711  1
  Na  Na14  1  1.00072382  0.66726244  0.57114313  1
  Na  Na15  1  1.00168430  0.00197846  0.71369512  1
  Na  Na16  1  1.00141837  0.33323081  0.57153827  1
  Na  Na17  1  0.99821929  0.33524690  0.85651528  1
  Na  Na18  1  0.99959558  0.66619209  0.71466127  1
  Na  Na19  1  0.01024684  0.33616130  0.71165686  1
  Na  Na20  1  0.50274117  0.16527842  0.92883402  1
  Na  Na21  1  0.98804029  0.67348142  0.85640103  1
  O  O22  1  0.17405525  0.09341025  0.03982426  1
  O  O23  1  0.21952687  0.41234217  0.03464884  1
  O  O24  1  0.22381794  0.07738528  0.17794137  1
  O  O25  1  0.76496308  0.25743038  0.11081173  1
  O  O26  1  0.22620248  0.41394616  0.17721586  1
  O  O27  1  0.27537538  0.75012157  0.03055709  1
  O  O28  1  0.23586768  0.07925915  0.31924919  1
  O  O29  1  0.76248000  0.25287126  0.25403679  1
  O  O30  1  0.81349099  0.56114981  0.11420525  1
  O  O31  1  0.23430714  0.07743432  0.46282999  1
  O  O32  1  0.23538247  0.40760593  0.32052529  1
  O  O33  1  0.18983173  0.73099965  0.18820853  1
  O  O34  1  0.72290792  0.92988134  0.10659284  1
  O  O35  1  0.75988657  0.25609546  0.39417829  1
  O  O36  1  0.76546062  0.58814927  0.25159056  1
  O  O37  1  0.23360818  0.08004725  0.60498163  1
  O  O38  1  0.22211550  0.74594638  0.31906093  1
  O  O39  1  0.23596881  0.41335211  0.46189158  1
  O  O40  1  0.76304755  0.58690504  0.39585016  1
  O  O41  1  0.75995017  0.92067330  0.25278319  1
  O  O42  1  0.76601224  0.25442032  0.53777806  1
  O  O43  1  0.23695245  0.41309496  0.60414984  1
  O  O44  1  0.24004983  0.07932670  0.74721681  1
  O  O45  1  0.23398776  0.74557968  0.46222194  1
  O  O46  1  0.76639182  0.91995275  0.39501837  1
  O  O47  1  0.77788450  0.25405362  0.68093907  1
  O  O48  1  0.76403119  0.58664789  0.53810842  1
  O  O49  1  0.27709208  0.07011866  0.89340716  1
  O  O50  1  0.24011343  0.74390454  0.60582171  1
  O  O51  1  0.23453938  0.41185073  0.74840944  1
  O  O52  1  0.76461753  0.59239407  0.67947471  1
  O  O53  1  0.76569286  0.92256568  0.53717001  1
  O  O54  1  0.81016827  0.26900035  0.81179147  1
  O  O55  1  0.18650901  0.43885019  0.88579475  1
  O  O56  1  0.23752000  0.74712874  0.74596321  1
  O  O57  1  0.76413232  0.92074085  0.68075081  1
  O  O58  1  0.72462462  0.24987843  0.96944291  1
  O  O59  1  0.77379752  0.58605384  0.82278414  1
  O  O60  1  0.23503692  0.74256962  0.88918827  1
  O  O61  1  0.78047313  0.58765783  0.96535116  1
  O  O62  1  0.77618206  0.92261472  0.82205863  1
  O  O63  1  0.82594475  0.90658975  0.96017574  1
  Ti  Ti64  1  0.00000000  0.00000000  0.00000000  1
  Ti  Ti65  1  0.55066008  0.16153892  0.06708683  1
  Ti  Ti66  1  0.49986117  0.16643307  0.21430088  1
  Ti  Ti67  1  0.48438884  0.51359081  0.06947929  1
  Ti  Ti68  1  0.49383029  0.16278537  0.35954954  1
  Ti  Ti69  1  0.49825787  0.50463559  0.21270394  1
  Ti  Ti70  1  0.50639221  0.49733163  0.35707731  1
  Ti  Ti71  1  0.49918871  0.17229014  0.49772234  1
  Ti  Ti72  1  0.50286066  0.83981789  0.20889734  1
  Ti  Ti73  1  0.48954807  0.83729839  0.35689612  1
  Ti  Ti74  1  0.51045193  0.16270161  0.64310388  1
  Ti  Ti75  1  0.50000000  0.50000000  0.50000000  1
  Ti  Ti76  1  0.49713934  0.16018211  0.79110266  1
  Ti  Ti77  1  0.49360779  0.50266837  0.64292269  1
  Ti  Ti78  1  0.50081129  0.82770986  0.50227766  1
  Ti  Ti79  1  0.50174213  0.49536441  0.78729606  1
  Ti  Ti80  1  0.50616971  0.83721463  0.64045046  1
  Ti  Ti81  1  0.51561116  0.48640919  0.93052071  1
  Ti  Ti82  1  0.50013883  0.83356693  0.78569912  1
  Ti  Ti83  1  0.44933992  0.83846108  0.93291317  1
