# generated using pymatgen
data_MgBi5
_symmetry_space_group_name_H-M   'P 1'
_cell_length_a   4.20907005
_cell_length_b   8.33443066
_cell_length_c   5.52935470
_cell_angle_alpha   90.00000000
_cell_angle_beta   90.00000000
_cell_angle_gamma   75.37386560
_symmetry_Int_Tables_number   1
_chemical_formula_structural   MgBi5
_chemical_formula_sum   'Mg1 Bi5'
_cell_volume   187.68508005
_cell_formula_units_Z   1
loop_
 _symmetry_equiv_pos_site_id
 _symmetry_equiv_pos_as_xyz
  1  'x, y, z'
loop_
 _atom_site_type_symbol
 _atom_site_label
 _atom_site_symmetry_multiplicity
 _atom_site_fract_x
 _atom_site_fract_y
 _atom_site_fract_z
 _atom_site_occupancy
  Mg  Mg0  1  0.78035459  0.43929282  0.49999800  1
  Bi  Bi1  1  0.32840153  0.34319493  0.00000000  1
  Bi  Bi2  1  0.66790167  0.66419866  0.00000000  1
  Bi  Bi3  1  0.00098046  0.99803707  0.00000000  1
  Bi  Bi4  1  0.42895193  0.14209514  0.49999800  1
  Bi  Bi5  1  0.12674181  0.74651538  0.49999800  1
