# generated using pymatgen
data_V4O9
_symmetry_space_group_name_H-M   'P 1'
_cell_length_a   3.69790899
_cell_length_b   9.62821965
_cell_length_c   18.12095095
_cell_angle_alpha   90.00000000
_cell_angle_beta   90.00000000
_cell_angle_gamma   90.00000000
_symmetry_Int_Tables_number   1
_chemical_formula_structural   V4O9
_chemical_formula_sum   'V16 O36'
_cell_volume   645.18341152
_cell_formula_units_Z   4
loop_
 _symmetry_equiv_pos_site_id
 _symmetry_equiv_pos_as_xyz
  1  'x, y, z'
loop_
 _atom_site_type_symbol
 _atom_site_label
 _atom_site_symmetry_multiplicity
 _atom_site_fract_x
 _atom_site_fract_y
 _atom_site_fract_z
 _atom_site_occupancy
  O  O0  1  0.25000000  0.18642467  0.73968639  1
  O  O1  1  0.75000100  0.81357433  0.26031261  1
  O  O2  1  0.75000100  0.68642567  0.76031361  1
  O  O3  1  0.25000000  0.31357533  0.23968739  1
  O  O4  1  0.25000000  0.91831477  0.66446354  1
  O  O5  1  0.75000100  0.08168423  0.33553746  1
  O  O6  1  0.75000100  0.41831577  0.83553646  1
  O  O7  1  0.25000000  0.58168523  0.16446354  1
  O  O8  1  0.25000000  0.14797776  0.89660561  1
  O  O9  1  0.75000100  0.85202224  0.10339439  1
  O  O10  1  0.75000100  0.64797776  0.60339439  1
  O  O11  1  0.25000000  0.35202124  0.39660561  1
  O  O12  1  0.25000000  0.40215132  0.54498140  1
  O  O13  1  0.75000100  0.59784768  0.45501860  1
  O  O14  1  0.75000100  0.90215232  0.95501860  1
  O  O15  1  0.25000000  0.09784868  0.04498140  1
  O  O16  1  0.75000100  0.28035327  0.97722203  1
  O  O17  1  0.25000000  0.71964673  0.02277697  1
  O  O18  1  0.25000000  0.78035227  0.52277797  1
  O  O19  1  0.75000100  0.21964773  0.47722303  1
  O  O20  1  0.75000100  0.55311063  0.04979700  1
  O  O21  1  0.25000000  0.44688937  0.95020300  1
  O  O22  1  0.25000000  0.05310963  0.45020300  1
  O  O23  1  0.75000100  0.94689037  0.54979700  1
  O  O24  1  0.75000100  0.14602994  0.15532172  1
  O  O25  1  0.25000000  0.85396906  0.84467728  1
  O  O26  1  0.25000000  0.15492390  0.58577558  1
  O  O27  1  0.75000100  0.35396906  0.65532272  1
  O  O28  1  0.75000100  0.50714628  0.29803352  1
  O  O29  1  0.25000000  0.49285472  0.70196648  1
  O  O30  1  0.25000000  0.00714528  0.20196648  1
  O  O31  1  0.75000100  0.99285372  0.79803352  1
  O  O32  1  0.25000000  0.34507610  0.08577558  1
  O  O33  1  0.75000100  0.65492290  0.91422442  1
  O  O34  1  0.75000100  0.84507710  0.41422442  1
  O  O35  1  0.25000000  0.64603094  0.34467728  1
  V  V36  1  0.25000000  0.04781382  0.81649498  1
  V  V37  1  0.75000100  0.95218718  0.18350502  1
  V  V38  1  0.75000100  0.54781282  0.68350502  1
  V  V39  1  0.25000000  0.45218718  0.31649498  1
  V  V40  1  0.25000000  0.29949750  0.66719965  1
  V  V41  1  0.75000100  0.70050250  0.33280035  1
  V  V42  1  0.75000100  0.79949750  0.83280035  1
  V  V43  1  0.25000000  0.20050150  0.16719965  1
  V  V44  1  0.25000000  0.96578746  0.57907522  1
  V  V45  1  0.75000100  0.03421254  0.42092378  1
  V  V46  1  0.75000100  0.46578746  0.92092478  1
  V  V47  1  0.25000000  0.53421154  0.07907522  1
  V  V48  1  0.25000000  0.26776176  0.48955546  1
  V  V49  1  0.75000100  0.73223924  0.51044454  1
  V  V50  1  0.75000100  0.76776076  0.01044454  1
  V  V51  1  0.25000000  0.23223824  0.98955546  1
