# generated using pymatgen
data_PrAl22O34
_symmetry_space_group_name_H-M   'P 1'
_cell_length_a   11.80841957
_cell_length_b   23.61710506
_cell_length_c   34.49858978
_cell_angle_alpha   18.57928891
_cell_angle_beta   24.67498288
_cell_angle_gamma   27.68533432
_symmetry_Int_Tables_number   1
_chemical_formula_structural   PrAl22O34
_chemical_formula_sum   'Pr2 Al44 O68'
_cell_volume   1258.39492095
_cell_formula_units_Z   2
loop_
 _symmetry_equiv_pos_site_id
 _symmetry_equiv_pos_as_xyz
  1  'x, y, z'
loop_
 _atom_site_type_symbol
 _atom_site_label
 _atom_site_symmetry_multiplicity
 _atom_site_fract_x
 _atom_site_fract_y
 _atom_site_fract_z
 _atom_site_occupancy
  Al  Al0  1  1.00081825  -0.00035824  0.99923958  1
  Al  Al1  1  0.09960459  0.27264529  0.04997909  1
  Al  Al2  1  0.59298206  0.02464261  0.04705370  1
  Al  Al3  1  -0.00081824  0.50035832  0.00076033  1
  Al  Al4  1  0.34955644  0.08622244  0.17626698  1
  Al  Al5  1  0.44462478  0.11146660  0.22782916  1
  Al  Al6  1  0.54374846  0.13602223  0.27764068  1
  Al  Al7  1  0.09351073  0.02046064  0.54965138  1
  Al  Al8  1  0.09323303  0.40023203  0.29675510  1
  Al  Al9  1  0.09521805  0.77206055  0.04810235  1
  Al  Al10  1  0.59143608  0.52241791  0.04929348  1
  Al  Al11  1  0.00000013  0.24999988  0.50000011  1
  Al  Al12  1  0.64665197  0.16233121  0.32576232  1
  Al  Al13  1  0.34856435  0.59009083  0.17385115  1
  Al  Al14  1  0.40516767  0.22537619  0.44989281  1
  Al  Al15  1  0.90307293  0.35045634  0.20430971  1
  Al  Al16  1  0.45068942  0.61716054  0.22211747  1
  Al  Al17  1  0.54895976  0.64126975  0.27247691  1
  Al  Al18  1  0.09692707  0.14954375  0.79569022  1
  Al  Al19  1  0.09686373  0.52353716  0.54674365  1
  Al  Al20  1  0.09442377  0.90052963  0.29593347  1
  Al  Al21  1  0.59483255  0.27462389  0.55010721  1
  Al  Al22  1  0.99999991  0.75000000  0.50000004  1
  Al  Al23  1  0.65048222  0.66365843  0.32415150  1
  Al  Al24  1  0.35334803  0.33766882  0.67423770  1
  Al  Al25  1  0.40721934  0.72621711  0.45205486  1
  Al  Al26  1  0.90648956  0.47953934  0.45034859  1
  Al  Al27  1  0.90676700  0.09976788  0.70324510  1
  Al  Al28  1  0.90270263  0.85203978  0.20299080  1
  Al  Al29  1  0.45625140  0.36397783  0.72235936  1
  Al  Al30  1  0.55537527  0.38853350  0.77217072  1
  Al  Al31  1  0.09729742  0.64796001  0.79700925  1
  Al  Al32  1  0.59278052  0.77378303  0.54794508  1
  Al  Al33  1  0.65044321  0.41377765  0.82373302  1
  Al  Al34  1  0.34951791  0.83634177  0.67584833  1
  Al  Al35  1  0.40701774  0.47535757  0.95294619  1
  Al  Al36  1  0.90039549  0.22735460  0.95002086  1
  Al  Al37  1  0.90557604  0.59947049  0.70406653  1
  Al  Al38  1  0.90313615  0.97646291  0.45325637  1
  Al  Al39  1  0.45104047  0.85873027  0.72752304  1
  Al  Al40  1  0.54931079  0.88283931  0.77788264  1
  Al  Al41  1  0.65143575  0.90990891  0.82614907  1
  Al  Al42  1  0.40856391  0.97758196  0.95070666  1
  Al  Al43  1  0.90478204  0.72793952  0.95189761  1
  O  O44  1  0.09172329  0.03024964  0.04500482  1
  O  O45  1  0.29634068  0.07353693  0.14852842  1
  O  O46  1  0.19300422  0.31106166  0.09534493  1
  O  O47  1  0.72054592  0.04936410  0.09331748  1
  O  O48  1  0.09389845  0.52279823  0.04825764  1
  O  O49  1  0.09164477  0.14893244  0.30065587  1
  O  O50  1  0.60903175  0.27461856  0.04518889  1
  O  O51  1  0.56327128  0.14067517  0.21841521  1
  O  O52  1  0.40079645  0.35022164  0.20326997  1
  O  O53  1  0.90926791  0.10567472  0.19515468  1
  O  O54  1  0.29562896  0.57476374  0.14800108  1
  O  O55  1  0.27574768  0.20225067  0.40613529  1
  O  O56  1  0.81187969  0.33381832  0.14053464  1
  O  O57  1  0.19211166  0.06312357  0.59370401  1
  O  O58  1  0.19032095  0.81580479  0.09294073  1
  O  O59  1  0.19171048  0.41482364  0.35933217  1
  O  O60  1  0.71728319  0.54630391  0.09712443  1
  O  O61  1  0.70242003  0.17630596  0.35181070  1
  O  O62  1  0.10557269  0.27336967  0.54505156  1
  O  O63  1  0.09669284  0.65188662  0.29628639  1
  O  O64  1  0.59386466  0.39293000  0.30480603  1
  O  O65  1  0.59459879  0.03201876  0.54504397  1
  O  O66  1  0.59861071  0.77771430  0.04603549  1
  O  O67  1  0.50059007  0.57731759  0.28163323  1
  O  O68  1  0.40540128  0.46798140  0.45495599  1
  O  O69  1  0.40613531  0.10707023  0.69519390  1
  O  O70  1  0.40068813  0.85413169  0.19972437  1
  O  O71  1  0.90267410  0.60158713  0.20167452  1
  O  O72  1  0.89442736  0.22663041  0.45494851  1
  O  O73  1  0.29757999  0.32369414  0.64818932  1
  O  O74  1  0.28218151  0.70022987  0.40559097  1
  O  O75  1  0.80788809  0.43687660  0.40629608  1
  O  O76  1  0.80980651  0.83560355  0.13986178  1
  O  O77  1  0.80828936  0.08517632  0.64066800  1
  O  O78  1  0.18812022  0.16618169  0.85946539  1
  O  O79  1  0.18984022  0.56064805  0.59666916  1
  O  O80  1  0.18905191  0.91437962  0.36035978  1
  O  O81  1  0.72425229  0.29774924  0.59386494  1
  O  O82  1  0.70465812  0.67587717  0.35163181  1
  O  O83  1  0.09380527  0.77288309  0.54817912  1
  O  O84  1  0.09073194  0.39432520  0.80484545  1
  O  O85  1  0.59920306  0.14977835  0.79673026  1
  O  O86  1  0.59465154  0.89951498  0.29834719  1
  O  O87  1  0.60128902  0.52619396  0.54616829  1
  O  O88  1  0.43672915  0.35932508  0.78158439  1
  O  O89  1  0.39096831  0.22538150  0.95481098  1
  O  O90  1  0.40534820  0.60048524  0.70165270  1
  O  O91  1  0.39871133  0.97380638  0.45383140  1
  O  O92  1  0.90835567  0.35106762  0.69934389  1
  O  O93  1  0.90619487  0.72711703  0.45182079  1
  O  O94  1  0.29534200  0.82412282  0.64836819  1
  O  O95  1  0.27945383  0.45063605  0.90668245  1
  O  O96  1  0.80699587  0.18893847  0.90465491  1
  O  O97  1  0.81094821  0.58562032  0.63964021  1
  O  O98  1  0.81015983  0.93935181  0.40333096  1
  O  O99  1  0.19019344  0.66439670  0.86013806  1
  O  O100  1  0.71781841  0.79977019  0.59440904  1
  O  O101  1  0.70365933  0.42646314  0.85147151  1
  O  O102  1  0.09732577  0.89841297  0.79832556  1
  O  O103  1  0.59931172  0.64586832  0.80027566  1
  O  O104  1  0.49941017  0.92268247  0.71836668  1
  O  O105  1  0.40138919  0.72228557  0.95396465  1
  O  O106  1  0.90330717  0.84811324  0.70371371  1
  O  O107  1  0.90827630  0.46975025  0.95499534  1
  O  O108  1  0.28271680  0.95369625  0.90287547  1
  O  O109  1  0.80967888  0.68419518  0.90705938  1
  O  O110  1  0.70437117  0.92523620  0.85199900  1
  O  O111  1  0.90610176  0.97720182  0.95174225  1
  Pr  Pr112  1  0.00000040  0.24999994  0.99999987  1
  Pr  Pr113  1  0.49999949  0.24999989  0.50000031  1
