# generated using pymatgen
data_Sr4V3O10
_symmetry_space_group_name_H-M   'P 1'
_cell_length_a   3.89890932
_cell_length_b   3.89918782
_cell_length_c   14.36855572
_cell_angle_alpha   97.87361563
_cell_angle_beta   97.79681307
_cell_angle_gamma   90.01415634
_symmetry_Int_Tables_number   1
_chemical_formula_structural   Sr4V3O10
_chemical_formula_sum   'Sr4 V3 O10'
_cell_volume   214.33999753
_cell_formula_units_Z   1
loop_
 _symmetry_equiv_pos_site_id
 _symmetry_equiv_pos_as_xyz
  1  'x, y, z'
loop_
 _atom_site_type_symbol
 _atom_site_label
 _atom_site_symmetry_multiplicity
 _atom_site_fract_x
 _atom_site_fract_y
 _atom_site_fract_z
 _atom_site_occupancy
  O  O0  1  0.79090091  0.79086056  0.58185855  1
  O  O1  1  0.20916700  0.20913360  0.41815199  1
  O  O2  1  0.86159766  0.36159265  0.72323245  1
  O  O3  1  0.36157101  0.86160636  0.72320413  1
  O  O4  1  0.13840530  0.63841213  0.27676881  1
  O  O5  1  0.63842823  0.13839628  0.27679278  1
  O  O6  1  0.93122020  0.93130783  0.86265294  1
  O  O7  1  0.49998421  0.00000131  0.00000350  1
  O  O8  1  0.06874443  0.06869957  0.13733940  1
  O  O9  1  -0.00000843  0.50000036  -0.00000147  1
  V  V10  1  0.86083235  0.86085220  0.72165815  1
  V  V11  1  0.13919273  0.13914558  0.27833175  1
  V  V12  1  -0.00004282  -0.00000166  0.00000052  1
  Sr  Sr13  1  0.70245402  0.70243169  0.40491457  1
  Sr  Sr14  1  0.29758186  0.29755867  0.59508582  1
  Sr  Sr15  1  0.56855263  0.56855393  0.13703383  1
  Sr  Sr16  1  0.43141970  0.43145293  0.86297128  1
