# generated using pymatgen
data_Yb4Zr3O12
_symmetry_space_group_name_H-M   'P 1'
_cell_length_a   6.45283447
_cell_length_b   6.39667558
_cell_length_c   25.81742975
_cell_angle_alpha   98.55053609
_cell_angle_beta   98.92251600
_cell_angle_gamma   100.07098390
_symmetry_Int_Tables_number   1
_chemical_formula_structural   Yb4Zr3O12
_chemical_formula_sum   'Yb16 Zr12 O48'
_cell_volume   1019.47012174
_cell_formula_units_Z   4
loop_
 _symmetry_equiv_pos_site_id
 _symmetry_equiv_pos_as_xyz
  1  'x, y, z'
loop_
 _atom_site_type_symbol
 _atom_site_label
 _atom_site_symmetry_multiplicity
 _atom_site_fract_x
 _atom_site_fract_y
 _atom_site_fract_z
 _atom_site_occupancy
  O  O0  1  0.05509693  0.68336073  0.99211930  1
  O  O1  1  0.09053604  0.95215987  0.82997659  1
  O  O2  1  0.05132308  0.67659559  0.73989475  1
  O  O3  1  0.18188067  0.42975202  0.88816255  1
  O  O4  1  0.09024701  0.95117844  0.57993481  1
  O  O5  1  0.05165538  0.67539500  0.48969140  1
  O  O6  1  0.31523936  0.05872091  0.98239377  1
  O  O7  1  0.18282722  0.42907900  0.63778784  1
  O  O8  1  0.39332590  0.82901470  0.88921290  1
  O  O9  1  0.06909762  0.93517302  0.33061353  1
  O  O10  1  0.07508176  0.66506413  0.23621233  1
  O  O11  1  0.31466065  0.05853073  0.73266573  1
  O  O12  1  0.42604942  0.58135771  0.79718046  1
  O  O13  1  0.17930582  0.42293235  0.38601841  1
  O  O14  1  0.39452169  0.82994009  0.63906289  1
  O  O15  1  0.10535763  0.96086253  0.08156089  1
  O  O16  1  0.53392205  0.39333006  0.94961588  1
  O  O17  1  0.31232059  0.05653244  0.48215287  1
  O  O18  1  0.42611601  0.57978683  0.54699720  1
  O  O19  1  0.55195544  0.17829372  0.86358682  1
  O  O20  1  0.19332396  0.43091763  0.14107460  1
  O  O21  1  0.39237842  0.82908927  0.38901528  1
  O  O22  1  0.53390638  0.39388114  0.70004225  1
  O  O23  1  0.69324742  0.94092674  0.76436809  1
  O  O24  1  0.33996822  0.04371968  0.23037960  1
  O  O25  1  0.42258487  0.59135793  0.29426018  1
  O  O26  1  0.55042966  0.17440458  0.61286219  1
  O  O27  1  0.84827953  0.56358746  0.85316691  1
  O  O28  1  0.39423764  0.80851528  0.14301053  1
  O  O29  1  0.52917553  0.38963615  0.44917480  1
  O  O30  1  0.69236683  0.93894285  0.51422982  1
  O  O31  1  0.42078233  0.57556000  0.04700735  1
  O  O32  1  0.95013870  0.06426682  0.92214076  1
  O  O33  1  0.54392434  0.17601746  0.36150844  1
  O  O34  1  0.84717148  0.56113384  0.60231673  1
  O  O35  1  0.54142494  0.42894655  0.20314651  1
  O  O36  1  0.65231888  0.93156075  0.25853195  1
  O  O37  1  0.97222306  0.32571354  0.77120229  1
  O  O38  1  0.95172038  0.06256105  0.67202212  1
  O  O39  1  0.56446483  0.16995001  0.11199709  1
  O  O40  1  0.84369283  0.56173987  0.35343317  1
  O  O41  1  0.69527389  0.93225875  0.01415313  1
  O  O42  1  0.97204987  0.32504561  0.52131032  1
  O  O43  1  0.94725539  0.06316094  0.42233704  1
  O  O44  1  0.84539804  0.57115347  0.10144668  1
  O  O45  1  0.95783872  0.35260030  0.26442176  1
  O  O46  1  0.97799684  0.06467663  0.16408208  1
  O  O47  1  0.97209102  0.32405462  0.02271910  1
  Yb  Yb48  1  0.39276116  0.70510219  0.96783461  1
  Yb  Yb49  1  0.39325589  0.70495427  0.71748350  1
  Yb  Yb50  1  1.00158048  0.00552294  0.24893711  1
  Yb  Yb51  1  0.39300127  0.70350752  0.46730431  1
  Yb  Yb52  1  0.70430547  0.86242142  0.84905571  1
  Yb  Yb53  1  0.60856074  0.29933838  0.78526892  1
  Yb  Yb54  1  0.70493160  0.86071741  0.59886215  1
  Yb  Yb55  1  0.86305122  0.39784761  0.92647593  1
  Yb  Yb56  1  0.60661640  0.29648391  0.53473394  1
  Yb  Yb57  1  0.70047712  0.86340725  0.34877179  1
  Yb  Yb58  1  0.85998548  0.39324097  0.67507924  1
  Yb  Yb59  1  0.60716130  0.31623667  0.28577343  1
  Yb  Yb60  1  0.69046227  0.85681642  0.09830829  1
  Yb  Yb61  1  0.85757280  0.39313787  0.42530975  1
  Yb  Yb62  1  0.60923609  0.29629348  0.03549901  1
  Yb  Yb63  1  0.85424245  0.39075980  0.17125993  1
  Zr  Zr64  1  0.14507070  0.62349462  0.82411671  1
  Zr  Zr65  1  0.99696506  0.99922710  0.75006389  1
  Zr  Zr66  1  0.14572159  0.62287309  0.57401666  1
  Zr  Zr67  1  0.99588277  0.99805749  0.50014875  1
  Zr  Zr68  1  0.28416612  0.13238746  0.90510728  1
  Zr  Zr69  1  0.13874237  0.62490105  0.32521336  1
  Zr  Zr70  1  0.28433560  0.13313341  0.65511777  1
  Zr  Zr71  1  0.14055627  0.61719855  0.07502107  1
  Zr  Zr72  1  0.99491908  0.00375437  0.99950183  1
  Zr  Zr73  1  0.27780217  0.12609284  0.40411439  1
  Zr  Zr74  1  0.38569360  0.68932016  0.21780090  1
  Zr  Zr75  1  0.31675866  0.14133297  0.15361810  1
