# generated using pymatgen
data_RbHfMg30O31
_symmetry_space_group_name_H-M   'P 1'
_cell_length_a   8.70256007
_cell_length_b   8.69963374
_cell_length_c   8.69233785
_cell_angle_alpha   90.00000000
_cell_angle_beta   90.00000000
_cell_angle_gamma   90.00000000
_symmetry_Int_Tables_number   1
_chemical_formula_structural   RbHfMg30O31
_chemical_formula_sum   'Rb1 Hf1 Mg30 O31'
_cell_volume   658.08894695
_cell_formula_units_Z   1
loop_
 _symmetry_equiv_pos_site_id
 _symmetry_equiv_pos_as_xyz
  1  'x, y, z'
loop_
 _atom_site_type_symbol
 _atom_site_label
 _atom_site_symmetry_multiplicity
 _atom_site_fract_x
 _atom_site_fract_y
 _atom_site_fract_z
 _atom_site_occupancy
  Rb  Rb0  1  0.99978680  0.00000000  0.00000000  1
  Hf  Hf1  1  0.99946510  0.50000000  0.50000000  1
  Mg  Mg2  1  0.99684004  0.00000000  0.50000000  1
  Mg  Mg3  1  0.99989573  0.50000000  0.00000000  1
  Mg  Mg4  1  0.50030509  0.00000000  0.00000000  1
  Mg  Mg5  1  0.50131987  0.00000000  0.50000000  1
  Mg  Mg6  1  0.50007188  0.50000000  0.00000000  1
  Mg  Mg7  1  0.50085782  0.50000000  0.50000000  1
  Mg  Mg8  1  0.00020297  0.24546003  0.24549259  1
  Mg  Mg9  1  0.00020297  0.24546003  0.75450741  1
  Mg  Mg10  1  0.00020297  0.75453997  0.24549259  1
  Mg  Mg11  1  0.00020297  0.75453997  0.75450741  1
  Mg  Mg12  1  0.49986778  0.24829223  0.24845965  1
  Mg  Mg13  1  0.49986778  0.24829223  0.75154035  1
  Mg  Mg14  1  0.49986778  0.75170777  0.24845965  1
  Mg  Mg15  1  0.49986778  0.75170777  0.75154035  1
  Mg  Mg16  1  0.25441909  0.00000000  0.24903637  1
  Mg  Mg17  1  0.25441909  0.00000000  0.75096363  1
  Mg  Mg18  1  0.25617761  0.50000000  0.24252313  1
  Mg  Mg19  1  0.25617761  0.50000000  0.75747687  1
  Mg  Mg20  1  0.74591727  0.00000000  0.25053682  1
  Mg  Mg21  1  0.74591727  0.00000000  0.74946318  1
  Mg  Mg22  1  0.74365295  0.50000000  0.24289349  1
  Mg  Mg23  1  0.74365295  0.50000000  0.75710651  1
  Mg  Mg24  1  0.25393704  0.25200056  -0.00000000  1
  Mg  Mg25  1  0.25683026  0.24466819  0.50000000  1
  Mg  Mg26  1  0.25393704  0.74799944  -0.00000000  1
  Mg  Mg27  1  0.25683026  0.75533181  0.50000000  1
  Mg  Mg28  1  0.74596963  0.25131492  -0.00000000  1
  Mg  Mg29  1  0.74391866  0.24369518  0.50000000  1
  Mg  Mg30  1  0.74596963  0.74868508  0.00000000  1
  Mg  Mg31  1  0.74391866  0.75630482  0.50000000  1
  O  O32  1  0.27892398  0.00000000  0.00000000  1
  O  O33  1  0.25410414  0.50000000  -0.00000000  1
  O  O34  1  0.24465798  0.50000000  0.50000000  1
  O  O35  1  0.72128750  0.00000000  0.00000000  1
  O  O36  1  0.74606177  0.00000000  0.50000000  1
  O  O37  1  0.74594509  0.50000000  0.00000000  1
  O  O38  1  0.75487167  0.50000000  0.50000000  1
  O  O39  1  0.24828363  0.25202940  0.24974871  1
  O  O40  1  0.24828363  0.25202940  0.75025129  1
  O  O41  1  0.24828363  0.74797060  0.24974871  1
  O  O42  1  0.24828363  0.74797060  0.75025129  1
  O  O43  1  0.75182696  0.25070312  0.25111334  1
  O  O44  1  0.75182696  0.25070312  0.74888666  1
  O  O45  1  0.75182696  0.74929688  0.25111334  1
  O  O46  1  0.75182696  0.74929688  0.74888666  1
  O  O47  1  0.00039820  0.00000000  0.27955898  1
  O  O48  1  0.00039820  0.00000000  0.72044102  1
  O  O49  1  0.00029515  0.50000000  0.25914229  1
  O  O50  1  0.00029515  0.50000000  0.74085771  1
  O  O51  1  0.50094625  0.00000000  0.25521602  1
  O  O52  1  0.50094625  0.00000000  0.74478398  1
  O  O53  1  0.49982927  0.50000000  0.25304825  1
  O  O54  1  0.49982927  0.50000000  0.74695175  1
  O  O55  1  0.00015946  0.27955149  0.00000000  1
  O  O56  1  0.99873359  0.25950550  0.50000000  1
  O  O57  1  0.00015946  0.72044851  0.00000000  1
  O  O58  1  0.99873359  0.74049450  0.50000000  1
  O  O59  1  0.49987794  0.25607412  0.00000000  1
  O  O60  1  0.50137772  0.25425188  0.50000000  1
  O  O61  1  0.49987794  0.74392588  -0.00000000  1
  O  O62  1  0.50137772  0.74574812  0.50000000  1
