# generated using pymatgen
data_Mn5(P2O7)4
_symmetry_space_group_name_H-M   'P 1'
_cell_length_a   13.00148602
_cell_length_b   9.59424435
_cell_length_c   10.87155743
_cell_angle_alpha   61.24277680
_cell_angle_beta   83.59454353
_cell_angle_gamma   72.26641397
_symmetry_Int_Tables_number   1
_chemical_formula_structural   Mn5(P2O7)4
_chemical_formula_sum   'Mn10 P16 O56'
_cell_volume   1131.37277676
_cell_formula_units_Z   2
loop_
 _symmetry_equiv_pos_site_id
 _symmetry_equiv_pos_as_xyz
  1  'x, y, z'
loop_
 _atom_site_type_symbol
 _atom_site_label
 _atom_site_symmetry_multiplicity
 _atom_site_fract_x
 _atom_site_fract_y
 _atom_site_fract_z
 _atom_site_occupancy
  Mn  Mn0  1  0.99315411  0.80542777  0.00392122  1
  Mn  Mn1  1  0.13312332  0.09559873  0.29351670  1
  Mn  Mn2  1  0.19287094  0.49400534  0.24822395  1
  Mn  Mn3  1  0.30712906  0.50599466  0.75177605  1
  Mn  Mn4  1  0.50684589  0.19457223  0.99607878  1
  Mn  Mn5  1  0.36687668  0.90440127  0.70648330  1
  Mn  Mn6  1  0.64577698  0.10557744  0.28811819  1
  Mn  Mn7  1  0.68106767  0.51432989  0.24870825  1
  Mn  Mn8  1  0.81893233  0.48567011  0.75129175  1
  Mn  Mn9  1  0.85422302  0.89442256  0.71188181  1
  O  O10  1  0.01740333  0.00345597  0.85316629  1
  O  O11  1  -0.00013549  0.28594263  0.24169103  1
  O  O12  1  0.04057821  0.23210393  0.61116351  1
  O  O13  1  0.00484766  0.58015988  0.15909285  1
  O  O14  1  0.12868344  0.06582122  0.48174844  1
  O  O15  1  0.17292374  0.15430700  0.09523865  1
  O  O16  1  0.09925292  0.46307106  0.95546538  1
  O  O17  1  0.04792080  0.94269687  0.30829185  1
  O  O18  1  0.16877084  0.33512204  0.43092148  1
  O  O19  1  0.23185703  0.07244608  0.66317440  1
  O  O20  1  0.21821499  0.33089547  0.17424050  1
  O  O21  1  0.14240394  0.56821992  0.70117698  1
  O  O22  1  0.13977856  0.66671206  0.30520262  1
  O  O23  1  0.19851306  0.66945814  0.05200899  1
  O  O24  1  0.30148694  0.33054186  0.94799101  1
  O  O25  1  0.36022144  0.33328794  0.69479738  1
  O  O26  1  0.35759606  0.43178008  0.29882302  1
  O  O27  1  0.28178501  0.66910453  0.82575950  1
  O  O28  1  0.26814297  0.92755392  0.33682560  1
  O  O29  1  0.33122916  0.66487796  0.56907852  1
  O  O30  1  0.45207920  0.05730313  0.69170815  1
  O  O31  1  0.40074708  0.53692894  0.04453462  1
  O  O32  1  0.32707626  0.84569300  0.90476135  1
  O  O33  1  0.50776172  0.26473609  0.20259894  1
  O  O34  1  0.52146286  0.11541230  0.86174364  1
  O  O35  1  0.37131656  0.93417878  0.51825156  1
  O  O36  1  0.49515234  0.41984012  0.84090715  1
  O  O37  1  0.45942179  0.76789607  0.38883649  1
  O  O38  1  0.54370678  0.28041395  0.59546800  1
  O  O39  1  0.53322029  0.50929379  0.22260202  1
  O  O40  1  0.61900498  0.11974620  0.45610458  1
  O  O41  1  0.50013549  0.71405737  0.75830897  1
  O  O42  1  0.48259667  0.99654403  0.14683371  1
  O  O43  1  0.66852652  0.15554660  0.07759589  1
  O  O44  1  0.61676497  0.47340536  0.96681982  1
  O  O45  1  0.71853668  0.06153277  0.66735416  1
  O  O46  1  0.58057698  0.93435212  0.36409432  1
  O  O47  1  0.72458565  0.28195273  0.19401590  1
  O  O48  1  0.69811115  0.34137231  0.44213064  1
  O  O49  1  0.63290195  0.72137461  0.27560243  1
  O  O50  1  0.66472486  0.50574334  0.72694435  1
  O  O51  1  0.68871921  0.67630389  0.04394011  1
  O  O52  1  0.81128079  0.32369611  0.95605989  1
  O  O53  1  0.83527514  0.49425666  0.27305565  1
  O  O54  1  0.86709805  0.27862539  0.72439757  1
  O  O55  1  0.80188885  0.65862769  0.55786936  1
  O  O56  1  0.77541435  0.71804727  0.80598410  1
  O  O57  1  0.91942302  0.06564788  0.63590568  1
  O  O58  1  0.78146332  0.93846723  0.33264584  1
  O  O59  1  0.88323503  0.52659464  0.03318018  1
  O  O60  1  0.83147348  0.84445340  0.92240411  1
  O  O61  1  0.88099502  0.88025380  0.54389542  1
  O  O62  1  0.96677971  0.49070621  0.77739798  1
  O  O63  1  0.95629322  0.71958605  0.40453200  1
  O  O64  1  0.97853714  0.88458770  0.13825636  1
  O  O65  1  0.99223828  0.73526391  0.79740106  1
  P  P66  1  0.04839210  0.56533433  0.79521475  1
  P  P67  1  0.14906940  0.17261202  0.54000629  1
  P  P68  1  0.03692056  0.80700904  0.28366236  1
  P  P69  1  0.20275127  0.31511090  0.04292887  1
  P  P70  1  0.29724873  0.68488910  0.95707113  1
  P  P71  1  0.46307944  0.19299096  0.71633764  1
  P  P72  1  0.35093060  0.82738798  0.45999371  1
  P  P73  1  0.45160790  0.43466567  0.20478525  1
  P  P74  1  0.56688280  0.53676219  0.81140364  1
  P  P75  1  0.64936690  0.20047386  0.53496491  1
  P  P76  1  0.54397747  0.85639985  0.28610969  1
  P  P77  1  0.71324434  0.30570145  0.04389070  1
  P  P78  1  0.78675566  0.69429855  0.95610930  1
  P  P79  1  0.95602253  0.14360015  0.71389031  1
  P  P80  1  0.85063310  0.79952614  0.46503509  1
  P  P81  1  0.93311720  0.46323781  0.18859636  1
