# generated using pymatgen
data_Fe3P3O11
_symmetry_space_group_name_H-M   'P 1'
_cell_length_a   9.73299938
_cell_length_b   9.73721587
_cell_length_c   10.17353964
_cell_angle_alpha   90.00000000
_cell_angle_beta   63.99007627
_cell_angle_gamma   90.00000000
_symmetry_Int_Tables_number   1
_chemical_formula_structural   Fe3P3O11
_chemical_formula_sum   'Fe12 P12 O44'
_cell_volume   866.51695907
_cell_formula_units_Z   4
loop_
 _symmetry_equiv_pos_site_id
 _symmetry_equiv_pos_as_xyz
  1  'x, y, z'
loop_
 _atom_site_type_symbol
 _atom_site_label
 _atom_site_symmetry_multiplicity
 _atom_site_fract_x
 _atom_site_fract_y
 _atom_site_fract_z
 _atom_site_occupancy
  Fe  Fe0  1  0.13894506  0.62398312  0.13275610  1
  Fe  Fe1  1  0.01104190  0.86289834  0.87729605  1
  Fe  Fe2  1  0.18593859  0.12926923  0.73278266  1
  Fe  Fe3  1  0.36105494  0.12398312  0.36724390  1
  Fe  Fe4  1  0.31406141  0.62926923  0.76721734  1
  Fe  Fe5  1  0.51104190  0.63710166  0.37729605  1
  Fe  Fe6  1  0.48895810  0.36289834  0.62270395  1
  Fe  Fe7  1  0.68593859  0.37073077  0.23278266  1
  Fe  Fe8  1  0.63894506  0.87601688  0.63275610  1
  Fe  Fe9  1  0.81406141  0.87073077  0.26721734  1
  Fe  Fe10  1  0.98895810  0.13710166  0.12270395  1
  Fe  Fe11  1  0.86105494  0.37601688  0.86724390  1
  O  O12  1  0.01023579  0.97727841  0.24707635  1
  O  O13  1  0.15111289  0.27492167  0.08114699  1
  O  O14  1  0.16215497  0.77246866  0.25285535  1
  O  O15  1  0.29801468  0.97098943  0.08025605  1
  O  O16  1  0.04089801  0.45842022  0.69444653  1
  O  O17  1  0.20558463  0.00748311  0.34765070  1
  O  O18  1  0.29441537  0.50748311  0.15234930  1
  O  O19  1  0.20198532  0.47098943  0.41974395  1
  O  O20  1  0.02246398  0.28604564  0.91810605  1
  O  O21  1  0.33784503  0.27246866  0.24714465  1
  O  O22  1  0.21408978  0.25700468  0.55379211  1
  O  O23  1  0.19850269  0.77607727  0.69977206  1
  O  O24  1  0.34888711  0.77492167  0.41885301  1
  O  O25  1  0.32247794  0.99784103  0.55684105  1
  O  O26  1  0.16970657  0.98529919  0.91359353  1
  O  O27  1  0.33029343  0.48529919  0.58640647  1
  O  O28  1  0.17752206  0.49784103  0.94315895  1
  O  O29  1  0.48976421  0.47727841  0.25292365  1
  O  O30  1  0.54089801  0.04157978  0.19444653  1
  O  O31  1  0.30149731  0.27607727  0.80022794  1
  O  O32  1  0.52246398  0.21395436  0.41810605  1
  O  O33  1  0.28591022  0.75700468  0.94620789  1
  O  O34  1  0.71408978  0.24299532  0.05379211  1
  O  O35  1  0.47753602  0.78604564  0.58189395  1
  O  O36  1  0.69850269  0.72392273  0.19977206  1
  O  O37  1  0.45910199  0.95842022  0.80555347  1
  O  O38  1  0.51023579  0.52272159  0.74707635  1
  O  O39  1  0.82247794  0.50215897  0.05684105  1
  O  O40  1  0.66970657  0.51470081  0.41359353  1
  O  O41  1  0.83029343  0.01470081  0.08640647  1
  O  O42  1  0.67752206  0.00215897  0.44315895  1
  O  O43  1  0.65111289  0.22507833  0.58114699  1
  O  O44  1  0.80149731  0.22392273  0.30022794  1
  O  O45  1  0.78591022  0.74299532  0.44620789  1
  O  O46  1  0.66215497  0.72753134  0.75285535  1
  O  O47  1  0.97753602  0.71395436  0.08189395  1
  O  O48  1  0.79801468  0.52901057  0.58025605  1
  O  O49  1  0.70558463  0.49251689  0.84765070  1
  O  O50  1  0.79441537  0.99251689  0.65234930  1
  O  O51  1  0.95910199  0.54157978  0.30555347  1
  O  O52  1  0.70198532  0.02901057  0.91974395  1
  O  O53  1  0.83784503  0.22753134  0.74714465  1
  O  O54  1  0.84888711  0.72507833  0.91885301  1
  O  O55  1  0.98976421  0.02272159  0.75292365  1
  P  P56  1  0.16426208  0.92873656  0.24183317  1
  P  P57  1  0.19223269  0.41470359  0.57153176  1
  P  P58  1  0.33573792  0.42873656  0.25816683  1
  P  P59  1  0.16747221  0.33858983  0.93832790  1
  P  P60  1  0.33252779  0.83858983  0.56167210  1
  P  P61  1  0.69223269  0.08529641  0.07153176  1
  P  P62  1  0.30776731  0.91470359  0.92846824  1
  P  P63  1  0.66747221  0.16141017  0.43832790  1
  P  P64  1  0.83252779  0.66141017  0.06167210  1
  P  P65  1  0.66426208  0.57126344  0.74183317  1
  P  P66  1  0.80776731  0.58529641  0.42846824  1
  P  P67  1  0.83573792  0.07126344  0.75816683  1
