# generated using pymatgen
data_LiMn5(P2O7)4
_symmetry_space_group_name_H-M   'P 1'
_cell_length_a   12.62336272
_cell_length_b   9.35247474
_cell_length_c   10.98116957
_cell_angle_alpha   65.06550847
_cell_angle_beta   86.09713475
_cell_angle_gamma   72.78500244
_symmetry_Int_Tables_number   1
_chemical_formula_structural   LiMn5(P2O7)4
_chemical_formula_sum   'Li2 Mn10 P16 O56'
_cell_volume   1120.51885715
_cell_formula_units_Z   2
loop_
 _symmetry_equiv_pos_site_id
 _symmetry_equiv_pos_as_xyz
  1  'x, y, z'
loop_
 _atom_site_type_symbol
 _atom_site_label
 _atom_site_symmetry_multiplicity
 _atom_site_fract_x
 _atom_site_fract_y
 _atom_site_fract_z
 _atom_site_occupancy
  Li  Li0  1  0.25000000  0.50000000  0.50000000  1
  Li  Li1  1  0.75000000  0.50000000  0.50000000  1
  Mn  Mn2  1  0.13551750  0.09929706  0.28412638  1
  Mn  Mn3  1  0.01124825  0.84658937  0.98246556  1
  Mn  Mn4  1  0.17992970  0.49162853  0.24911707  1
  Mn  Mn5  1  0.32007030  0.50837147  0.75088293  1
  Mn  Mn6  1  0.48875175  0.15341063  0.01753444  1
  Mn  Mn7  1  0.36448250  0.90070294  0.71587362  1
  Mn  Mn8  1  0.63824768  0.10870855  0.28657472  1
  Mn  Mn9  1  0.67834243  0.50415248  0.23938247  1
  Mn  Mn10  1  0.82165757  0.49584752  0.76061753  1
  Mn  Mn11  1  0.86175232  0.89129145  0.71342528  1
  O  O12  1  0.00721370  0.07801185  0.84392317  1
  O  O13  1  0.03748386  0.26206572  0.59813904  1
  O  O14  1  0.02015692  0.53946514  0.20476940  1
  O  O15  1  0.12548166  0.10216738  0.45989427  1
  O  O16  1  0.00843017  0.73071203  0.79015294  1
  O  O17  1  0.17290854  0.14507439  0.09138890  1
  O  O18  1  0.11133752  0.45678547  0.95518854  1
  O  O19  1  0.06015361  0.92419274  0.34060860  1
  O  O20  1  0.22118712  0.05638559  0.67375464  1
  O  O21  1  0.19567615  0.33095163  0.46256147  1
  O  O22  1  0.21808811  0.32201283  0.17963999  1
  O  O23  1  0.14546891  0.65709428  0.32057913  1
  O  O24  1  0.16107299  0.53515110  0.71479587  1
  O  O25  1  0.18436246  0.69631353  0.03016078  1
  O  O26  1  0.31563754  0.30368647  0.96983922  1
  O  O27  1  0.33892701  0.46484890  0.28520413  1
  O  O28  1  0.35453109  0.34290572  0.67942087  1
  O  O29  1  0.28191189  0.67798717  0.82036001  1
  O  O30  1  0.30432385  0.66904837  0.53743853  1
  O  O31  1  0.27881288  0.94361441  0.32624536  1
  O  O32  1  0.43984639  0.07580726  0.65939140  1
  O  O33  1  0.38866248  0.54321453  0.04481146  1
  O  O34  1  0.32709146  0.85492561  0.90861110  1
  O  O35  1  0.49156983  0.26928797  0.20984706  1
  O  O36  1  0.51523188  0.12145129  0.84667090  1
  O  O37  1  0.37451834  0.89783262  0.54010573  1
  O  O38  1  0.47984308  0.46053486  0.79523060  1
  O  O39  1  0.54550627  0.27849618  0.59884680  1
  O  O40  1  0.46251614  0.73793428  0.40186096  1
  O  O41  1  0.52104227  0.52357877  0.22377734  1
  O  O42  1  0.61713699  0.12370706  0.45355206  1
  O  O43  1  0.50660889  0.73187537  0.77615413  1
  O  O44  1  0.65890312  0.15153230  0.08568173  1
  O  O45  1  0.49278630  0.92198715  0.15607683  1
  O  O46  1  0.60233524  0.46513073  0.96317622  1
  O  O47  1  0.71971924  0.04902650  0.67007313  1
  O  O48  1  0.57600512  0.92671173  0.35803252  1
  O  O49  1  0.71109447  0.30843615  0.18637338  1
  O  O50  1  0.70621558  0.33092073  0.46207116  1
  O  O51  1  0.64669027  0.67010176  0.31444934  1
  O  O52  1  0.66327155  0.52081582  0.72734142  1
  O  O53  1  0.69526811  0.68835109  0.03419942  1
  O  O54  1  0.80473189  0.31164891  0.96580058  1
  O  O55  1  0.83672845  0.47918418  0.27265858  1
  O  O56  1  0.85330973  0.32989824  0.68555066  1
  O  O57  1  0.79378442  0.66907927  0.53792884  1
  O  O58  1  0.78890553  0.69156385  0.81362662  1
  O  O59  1  0.92399488  0.07328827  0.64196748  1
  O  O60  1  0.78028076  0.95097350  0.32992687  1
  O  O61  1  0.89766476  0.53486927  0.03682378  1
  O  O62  1  0.84109688  0.84846770  0.91431827  1
  O  O63  1  0.99339111  0.26812463  0.22384587  1
  O  O64  1  0.88286301  0.87629294  0.54644794  1
  O  O65  1  0.97895773  0.47642123  0.77622266  1
  O  O66  1  0.95449373  0.72150382  0.40115320  1
  O  O67  1  0.98476812  0.87854871  0.15332910  1
  P  P68  1  0.06214917  0.55313396  0.80058432  1
  P  P69  1  0.15298271  0.18439503  0.54232471  1
  P  P70  1  0.03833689  0.80508833  0.29325559  1
  P  P71  1  0.21054927  0.29918205  0.04770741  1
  P  P72  1  0.28945073  0.70081795  0.95229259  1
  P  P73  1  0.46166311  0.19491167  0.70674441  1
  P  P74  1  0.34701729  0.81560497  0.45767529  1
  P  P75  1  0.43785083  0.44686604  0.19941568  1
  P  P76  1  0.55988352  0.55238428  0.80474631  1
  P  P77  1  0.65443733  0.19480370  0.54086706  1
  P  P78  1  0.54541738  0.82081790  0.29722539  1
  P  P79  1  0.70361902  0.30484236  0.04427629  1
  P  P80  1  0.79638098  0.69515764  0.95572371  1
  P  P81  1  0.95458262  0.17918210  0.70277461  1
  P  P82  1  0.84556267  0.80519630  0.45913294  1
  P  P83  1  0.94011648  0.44761572  0.19525369  1
