# generated using pymatgen
data_MgBi5
_symmetry_space_group_name_H-M   'P 1'
_cell_length_a   5.68905941
_cell_length_b   6.08036855
_cell_length_c   6.08036746
_cell_angle_alpha   59.94170239
_cell_angle_beta   90.29799629
_cell_angle_gamma   90.29764039
_symmetry_Int_Tables_number   1
_chemical_formula_structural   MgBi5
_chemical_formula_sum   'Mg1 Bi5'
_cell_volume   182.04031947
_cell_formula_units_Z   1
loop_
 _symmetry_equiv_pos_site_id
 _symmetry_equiv_pos_as_xyz
  1  'x, y, z'
loop_
 _atom_site_type_symbol
 _atom_site_label
 _atom_site_symmetry_multiplicity
 _atom_site_fract_x
 _atom_site_fract_y
 _atom_site_fract_z
 _atom_site_occupancy
  Mg  Mg0  1  0.50000179  0.66667410  0.33332276  1
  Bi  Bi1  1  0.49998730  0.33353035  0.00020141  1
  Bi  Bi2  1  0.00000047  0.97501362  0.02498990  1
  Bi  Bi3  1  0.00016933  0.35837510  0.33339285  1
  Bi  Bi4  1  0.99982880  0.66660955  0.64162395  1
  Bi  Bi5  1  0.50000930  0.99980027  0.66647012  1
