# generated using pymatgen
data_Li2FeP2O7
_symmetry_space_group_name_H-M   'P 1'
_cell_length_a   7.57918822
_cell_length_b   7.57918812
_cell_length_c   11.15506254
_cell_angle_alpha   89.63082571
_cell_angle_beta   90.36917432
_cell_angle_gamma   64.12046517
_symmetry_Int_Tables_number   1
_chemical_formula_structural   Li2FeP2O7
_chemical_formula_sum   'Li8 Fe4 P8 O28'
_cell_volume   576.48729907
_cell_formula_units_Z   4
loop_
 _symmetry_equiv_pos_site_id
 _symmetry_equiv_pos_as_xyz
  1  'x, y, z'
loop_
 _atom_site_type_symbol
 _atom_site_label
 _atom_site_symmetry_multiplicity
 _atom_site_fract_x
 _atom_site_fract_y
 _atom_site_fract_z
 _atom_site_occupancy
  Fe  Fe0  1  0.30615679  0.69451607  0.87993029  1
  Fe  Fe1  1  0.30548393  0.69384321  0.37993029  1
  Fe  Fe2  1  0.69451607  0.30615679  0.62006971  1
  Fe  Fe3  1  0.69384321  0.30548393  0.12006971  1
  Li  Li4  1  0.28298098  0.28661268  0.99979358  1
  Li  Li5  1  0.71338732  0.71701902  0.49979358  1
  Li  Li6  1  0.28475645  0.28475645  0.75000000  1
  Li  Li7  1  0.71291064  0.71291064  0.75000000  1
  Li  Li8  1  0.28708936  0.28708936  0.25000000  1
  Li  Li9  1  0.71524355  0.71524355  0.25000000  1
  Li  Li10  1  0.28661268  0.28298098  0.50020642  1
  Li  Li11  1  0.71701902  0.71338732  0.00020642  1
  O  O12  1  0.10108221  0.89583749  0.62625783  1
  O  O13  1  0.10416251  0.89891779  0.12625783  1
  O  O14  1  0.41908388  0.80106023  0.74348290  1
  O  O15  1  0.42223064  0.79916296  0.51545984  1
  O  O16  1  0.19885305  0.57830467  0.74503187  1
  O  O17  1  0.19893977  0.58091612  0.24348290  1
  O  O18  1  0.20083704  0.57776936  0.01545984  1
  O  O19  1  0.42169533  0.80114695  0.24503187  1
  O  O20  1  0.20502273  0.57330577  0.51690712  1
  O  O21  1  0.42669423  0.79497727  0.01690712  1
  O  O22  1  0.73171986  0.87644144  0.87401720  1
  O  O23  1  0.12355856  0.26828014  0.37401720  1
  O  O24  1  0.12526577  0.25954017  0.87429782  1
  O  O25  1  0.74045983  0.87473423  0.37429782  1
  O  O26  1  0.25954017  0.12526577  0.62570218  1
  O  O27  1  0.87473423  0.74045983  0.12570218  1
  O  O28  1  0.87644144  0.73171986  0.62598280  1
  O  O29  1  0.26828014  0.12355856  0.12598280  1
  O  O30  1  0.57330577  0.20502273  0.98309288  1
  O  O31  1  0.79497727  0.42669423  0.48309288  1
  O  O32  1  0.57830467  0.19885305  0.75496813  1
  O  O33  1  0.79916296  0.42223064  0.98454016  1
  O  O34  1  0.80106023  0.41908388  0.75651710  1
  O  O35  1  0.80114695  0.42169533  0.25496813  1
  O  O36  1  0.57776936  0.20083704  0.48454016  1
  O  O37  1  0.58091612  0.19893977  0.25651710  1
  O  O38  1  0.89583749  0.10108221  0.87374217  1
  O  O39  1  0.89891779  0.10416251  0.37374217  1
  P  P40  1  0.31054253  0.90987310  0.62794616  1
  P  P41  1  0.09012690  0.68945747  0.12794616  1
  P  P42  1  0.09096763  0.68429572  0.62871712  1
  P  P43  1  0.31570428  0.90903237  0.12871712  1
  P  P44  1  0.68429572  0.09096763  0.87128288  1
  P  P45  1  0.90903237  0.31570428  0.37128288  1
  P  P46  1  0.90987310  0.31054253  0.87205384  1
  P  P47  1  0.68945747  0.09012690  0.37205384  1
