# generated using pymatgen
data_LiCrPO4
_symmetry_space_group_name_H-M   'P 1'
_cell_length_a   5.06591267
_cell_length_b   5.06591238
_cell_length_c   16.79451270
_cell_angle_alpha   88.88760256
_cell_angle_beta   91.11239737
_cell_angle_gamma   91.41549156
_symmetry_Int_Tables_number   1
_chemical_formula_structural   LiCrPO4
_chemical_formula_sum   'Li4 Cr4 P4 O16'
_cell_volume   430.71543742
_cell_formula_units_Z   4
loop_
 _symmetry_equiv_pos_site_id
 _symmetry_equiv_pos_as_xyz
  1  'x, y, z'
loop_
 _atom_site_type_symbol
 _atom_site_label
 _atom_site_symmetry_multiplicity
 _atom_site_fract_x
 _atom_site_fract_y
 _atom_site_fract_z
 _atom_site_occupancy
  Cr  Cr0  1  0.34012090  0.83670892  0.75146141  1
  Cr  Cr1  1  0.16329108  0.65987910  0.25146141  1
  Cr  Cr2  1  0.83670892  0.34012090  0.74853859  1
  Cr  Cr3  1  0.65987910  0.16329108  0.24853859  1
  Li  Li4  1  0.55340350  0.84086303  0.94113318  1
  Li  Li5  1  0.15913697  0.44659650  0.44113318  1
  Li  Li6  1  0.84086303  0.55340350  0.55886682  1
  Li  Li7  1  0.44659650  0.15913697  0.05886682  1
  O  O8  1  0.15725741  0.52185848  0.69694269  1
  O  O9  1  0.47814152  0.84274259  0.19694269  1
  O  O10  1  0.05935431  0.25587452  0.84565519  1
  O  O11  1  0.21151244  0.42854036  0.55175508  1
  O  O12  1  0.43156054  0.61360219  0.85319918  1
  O  O13  1  0.74412548  0.94064569  0.34565519  1
  O  O14  1  0.57145964  0.78848756  0.05175508  1
  O  O15  1  0.38639781  0.56843846  0.35319918  1
  O  O16  1  0.61360219  0.43156054  0.64680082  1
  O  O17  1  0.42854036  0.21151244  0.94824492  1
  O  O18  1  0.25587452  0.05935431  0.65434481  1
  O  O19  1  0.56843846  0.38639781  0.14680082  1
  O  O20  1  0.78848756  0.57145964  0.44824492  1
  O  O21  1  0.94064569  0.74412548  0.15434481  1
  O  O22  1  0.52185848  0.15725741  0.80305731  1
  O  O23  1  0.84274259  0.47814152  0.30305731  1
  P  P24  1  0.31402248  0.35309492  0.63444094  1
  P  P25  1  0.64690508  0.68597752  0.13444094  1
  P  P26  1  0.35309492  0.31402248  0.86555906  1
  P  P27  1  0.68597752  0.64690508  0.36555906  1
