# generated using pymatgen
data_LiMn(PO3)3
_symmetry_space_group_name_H-M   'P 1'
_cell_length_a   7.46856165
_cell_length_b   7.32423317
_cell_length_c   6.85103620
_cell_angle_alpha   100.14116540
_cell_angle_beta   96.31279520
_cell_angle_gamma   84.89531276
_symmetry_Int_Tables_number   1
_chemical_formula_structural   LiMn(PO3)3
_chemical_formula_sum   'Li2 Mn2 P6 O18'
_cell_volume   365.74071988
_cell_formula_units_Z   2
loop_
 _symmetry_equiv_pos_site_id
 _symmetry_equiv_pos_as_xyz
  1  'x, y, z'
loop_
 _atom_site_type_symbol
 _atom_site_label
 _atom_site_symmetry_multiplicity
 _atom_site_fract_x
 _atom_site_fract_y
 _atom_site_fract_z
 _atom_site_occupancy
  Li  Li0  1  0.28984561  0.13463530  0.87896941  1
  Li  Li1  1  0.71015439  0.86536470  0.12102959  1
  Mn  Mn2  1  0.16864022  0.15633989  0.43095207  1
  Mn  Mn3  1  0.83135978  0.84366011  0.56904793  1
  O  O4  1  0.01276752  0.35228069  0.29226702  1
  O  O5  1  0.16664416  0.33267326  0.72743498  1
  O  O6  1  0.14785376  0.93405511  0.18125947  1
  O  O7  1  0.24114973  0.94091073  0.62642539  1
  O  O8  1  0.20684843  0.59742013  0.00624410  1
  O  O9  1  0.32807750  0.60384038  0.67715848  1
  O  O10  1  0.33264377  0.68261770  0.34506575  1
  O  O11  1  0.43000728  0.20124872  0.37692862  1
  O  O12  1  0.53799593  0.18473355  0.93004600  1
  O  O13  1  0.46200407  0.81526645  0.06995400  1
  O  O14  1  0.56999272  0.79875128  0.62307138  1
  O  O15  1  0.66735623  0.31738230  0.65493425  1
  O  O16  1  0.67192250  0.39615962  0.32284152  1
  O  O17  1  0.79315157  0.40257987  0.99375590  1
  O  O18  1  0.75885027  0.05908927  0.37357461  1
  O  O19  1  0.85214624  0.06594489  0.81874053  1
  O  O20  1  0.83335584  0.66732674  0.27256502  1
  O  O21  1  0.98723248  0.64771931  0.70773298  1
  P  P22  1  0.15812429  0.54268738  0.77073263  1
  P  P23  1  0.29244242  0.77715612  0.14644623  1
  P  P24  1  0.37350710  0.77258244  0.57514707  1
  P  P25  1  0.62649290  0.22741756  0.42485293  1
  P  P26  1  0.70755758  0.22284388  0.85355377  1
  P  P27  1  0.84187571  0.45731262  0.22926737  1
