# generated using pymatgen
data_Cr3(P2O7)2
_symmetry_space_group_name_H-M   'P 1'
_cell_length_a   7.35900356
_cell_length_b   8.01831082
_cell_length_c   9.41767465
_cell_angle_alpha   89.98955932
_cell_angle_beta   110.96398923
_cell_angle_gamma   90.00252288
_symmetry_Int_Tables_number   1
_chemical_formula_structural   Cr3(P2O7)2
_chemical_formula_sum   'Cr6 P8 O28'
_cell_volume   518.92189307
_cell_formula_units_Z   2
loop_
 _symmetry_equiv_pos_site_id
 _symmetry_equiv_pos_as_xyz
  1  'x, y, z'
loop_
 _atom_site_type_symbol
 _atom_site_label
 _atom_site_symmetry_multiplicity
 _atom_site_fract_x
 _atom_site_fract_y
 _atom_site_fract_z
 _atom_site_occupancy
  Cr  Cr0  1  0.00000000  0.00000000  0.50000000  1
  Cr  Cr1  1  0.19533314  0.63239148  0.52885947  1
  Cr  Cr2  1  0.80466686  0.36760952  0.47114053  1
  Cr  Cr3  1  0.00000000  0.50000000  0.00000000  1
  Cr  Cr4  1  0.19533139  0.86765606  0.02885213  1
  Cr  Cr5  1  0.80466861  0.13234394  0.97114787  1
  P  P6  1  0.10964902  0.20802546  0.80417508  1
  P  P7  1  0.10967363  0.29191827  0.30424474  1
  P  P8  1  0.89032637  0.70808173  0.69575526  1
  P  P9  1  0.89035098  0.79197454  0.19582492  1
  P  P10  1  0.39823026  0.96163297  0.79271575  1
  P  P11  1  0.39823971  0.53841115  0.29277155  1
  P  P12  1  0.60176029  0.46158885  0.70722845  1
  P  P13  1  0.60176974  0.03836703  0.20728425  1
  O  O14  1  0.00380178  0.70569392  0.87170677  1
  O  O15  1  0.00385272  0.79437479  0.37174717  1
  O  O16  1  0.99614728  0.20562621  0.62825283  1
  O  O17  1  0.99619822  0.29430508  0.12829323  1
  O  O18  1  0.02898085  0.07943092  0.88955928  1
  O  O19  1  0.02896256  0.42048947  0.38958132  1
  O  O20  1  0.97103744  0.57951053  0.61041868  1
  O  O21  1  0.97101915  0.92056908  0.11044072  1
  O  O22  1  0.12583296  0.37871402  0.87414410  1
  O  O23  1  0.12591944  0.12125075  0.37423528  1
  O  O24  1  0.87408056  0.87874925  0.62576472  1
  O  O25  1  0.87416704  0.62128598  0.12585590  1
  O  O26  1  0.31931066  0.14729162  0.81454206  1
  O  O27  1  0.31933569  0.35272754  0.31462577  1
  O  O28  1  0.68066431  0.64727246  0.68537423  1
  O  O29  1  0.68068934  0.85270838  0.18545794  1
  O  O30  1  0.37164915  0.84743327  0.91203559  1
  O  O31  1  0.37169242  0.65260735  0.41205843  1
  O  O32  1  0.62830758  0.34739265  0.58794157  1
  O  O33  1  0.62835085  0.15256673  0.08796441  1
  O  O34  1  0.26354618  0.90157006  0.63100636  1
  O  O35  1  0.26351311  0.59853684  0.13104671  1
  O  O36  1  0.73648689  0.40146316  0.86895329  1
  O  O37  1  0.73645382  0.09842994  0.36899364  1
  O  O38  1  0.39248801  0.49253299  0.69189280  1
  O  O39  1  0.60751382  0.99258898  0.80805751  1
  O  O40  1  0.39248618  0.00741102  0.19194249  1
  O  O41  1  0.60751199  0.50746701  0.30810720  1
