# generated using pymatgen
data_Sr2CuF6
_symmetry_space_group_name_H-M   'P 1'
_cell_length_a   5.81286043
_cell_length_b   5.81286043
_cell_length_c   16.58480261
_cell_angle_alpha   90.00000000
_cell_angle_beta   90.00000000
_cell_angle_gamma   90.00000000
_symmetry_Int_Tables_number   1
_chemical_formula_structural   Sr2CuF6
_chemical_formula_sum   'Sr8 Cu4 F24'
_cell_volume   560.38964001
_cell_formula_units_Z   4
loop_
 _symmetry_equiv_pos_site_id
 _symmetry_equiv_pos_as_xyz
  1  'x, y, z'
loop_
 _atom_site_type_symbol
 _atom_site_label
 _atom_site_symmetry_multiplicity
 _atom_site_fract_x
 _atom_site_fract_y
 _atom_site_fract_z
 _atom_site_occupancy
  Sr  Sr0  1  0.00000000  0.50000000  0.16240016  1
  Sr  Sr1  1  0.50000000  0.00000000  0.83759984  1
  Sr  Sr2  1  0.00000000  0.50000000  0.83759984  1
  Sr  Sr3  1  0.50000000  0.00000000  0.16240016  1
  Sr  Sr4  1  0.00000000  0.00000000  0.33858707  1
  Sr  Sr5  1  0.00000000  0.00000000  0.66141293  1
  Sr  Sr6  1  0.50000000  0.50000000  0.66141293  1
  Sr  Sr7  1  0.50000000  0.50000000  0.33858707  1
  Cu  Cu8  1  0.00000000  0.00000000  0.00000000  1
  Cu  Cu9  1  0.50000000  0.50000000  0.00000000  1
  Cu  Cu10  1  0.00000000  0.50000000  0.50000000  1
  Cu  Cu11  1  0.50000000  0.00000000  0.50000000  1
  F  F12  1  0.32760563  0.32803060  0.08064178  1
  F  F13  1  0.32803060  0.67239437  0.91935822  1
  F  F14  1  0.67196940  0.32760563  0.91935822  1
  F  F15  1  0.67239437  0.67196940  0.08064178  1
  F  F16  1  0.82803060  0.82760563  0.91935822  1
  F  F17  1  0.17196940  0.17239437  0.91935822  1
  F  F18  1  0.17239437  0.82803060  0.08064178  1
  F  F19  1  0.82760563  0.17196940  0.08064178  1
  F  F20  1  0.24220078  0.25085857  0.25050207  1
  F  F21  1  0.25085857  0.75779922  0.74949793  1
  F  F22  1  0.74914143  0.24220078  0.74949793  1
  F  F23  1  0.75779922  0.74914143  0.25050207  1
  F  F24  1  0.75085857  0.74220078  0.74949793  1
  F  F25  1  0.24914143  0.25779922  0.74949793  1
  F  F26  1  0.25779922  0.75085857  0.25050207  1
  F  F27  1  0.74220078  0.24914143  0.25050207  1
  F  F28  1  0.33489383  0.16694293  0.41892538  1
  F  F29  1  0.16694293  0.66510617  0.58107462  1
  F  F30  1  0.83305707  0.33489383  0.58107462  1
  F  F31  1  0.66510617  0.83305707  0.41892538  1
  F  F32  1  0.66694293  0.83489383  0.58107462  1
  F  F33  1  0.33305707  0.16510617  0.58107462  1
  F  F34  1  0.16510617  0.66694293  0.41892538  1
  F  F35  1  0.83489383  0.33305707  0.41892538  1
