# generated using pymatgen
data_LiFe(PO3)4
_symmetry_space_group_name_H-M   'P 1'
_cell_length_a   7.00978392
_cell_length_b   12.34807198
_cell_length_c   7.00978353
_cell_angle_alpha   68.75159309
_cell_angle_beta   70.50928004
_cell_angle_gamma   111.24840437
_symmetry_Int_Tables_number   1
_chemical_formula_structural   LiFe(PO3)4
_chemical_formula_sum   'Li2 Fe2 P8 O24'
_cell_volume   445.18269011
_cell_formula_units_Z   2
loop_
 _symmetry_equiv_pos_site_id
 _symmetry_equiv_pos_as_xyz
  1  'x, y, z'
loop_
 _atom_site_type_symbol
 _atom_site_label
 _atom_site_symmetry_multiplicity
 _atom_site_fract_x
 _atom_site_fract_y
 _atom_site_fract_z
 _atom_site_occupancy
  Li  Li0  1  0.91573601  0.75000000  0.91573801  1
  Li  Li1  1  0.08426399  0.25000000  0.08426299  1
  O  O2  1  0.65794063  0.59371201  0.62543786  1
  O  O3  1  0.83613636  0.10578409  0.10922655  1
  O  O4  1  0.16386264  0.89421591  0.89077345  1
  O  O5  1  0.99779687  0.85107235  0.54270637  1
  O  O6  1  0.29638382  0.64869388  0.72043435  1
  O  O7  1  0.62543786  0.90628799  0.65794063  1
  O  O8  1  0.10922555  0.39421591  0.83613736  1
  O  O9  1  0.40816155  0.90658202  0.28446132  1
  O  O10  1  0.28446132  0.59341898  0.40816155  1
  O  O11  1  0.08787049  0.46816264  0.24469638  1
  O  O12  1  0.71553968  0.40658202  0.59183745  1
  O  O13  1  0.72043535  0.85130712  0.29638382  1
  O  O14  1  0.00220213  0.14892765  0.45729263  1
  O  O15  1  0.27956665  0.14869388  0.70361618  1
  O  O16  1  0.45729263  0.35107235  0.00220313  1
  O  O17  1  0.91212951  0.53183736  0.75530262  1
  O  O18  1  0.24469838  0.03183736  0.08786949  1
  O  O19  1  0.54270737  0.64892865  0.99779687  1
  O  O20  1  0.59183845  0.09341898  0.71553868  1
  O  O21  1  0.89077345  0.60578309  0.16386264  1
  O  O22  1  0.75530262  0.96816264  0.91213051  1
  O  O23  1  0.37456214  0.09371201  0.34205837  1
  O  O24  1  0.70361518  0.35130612  0.27956665  1
  O  O25  1  0.34205837  0.40628799  0.37456214  1
  P  P26  1  0.30314810  0.03307755  0.84370718  1
  P  P27  1  0.84370718  0.46692245  0.30314810  1
  P  P28  1  0.25062652  0.97179892  0.32712768  1
  P  P29  1  0.15629282  0.53307755  0.69685190  1
  P  P30  1  0.69685290  0.96692245  0.15629282  1
  P  P31  1  0.67287232  0.47179892  0.74937348  1
  P  P32  1  0.32712668  0.52820108  0.25062752  1
  P  P33  1  0.74937348  0.02820108  0.67287332  1
  Fe  Fe34  1  0.36486184  0.25000000  0.36486184  1
  Fe  Fe35  1  0.63513816  0.75000000  0.63513916  1
