# generated using pymatgen
data_Mn3Sb
_symmetry_space_group_name_H-M   'P 1'
_cell_length_a   4.23362225
_cell_length_b   4.23369662
_cell_length_c   4.23405043
_cell_angle_alpha   60.00997723
_cell_angle_beta   60.02712557
_cell_angle_gamma   60.01335465
_symmetry_Int_Tables_number   1
_chemical_formula_structural   Mn3Sb
_chemical_formula_sum   'Mn3 Sb1'
_cell_volume   53.68320147
_cell_formula_units_Z   1
loop_
 _symmetry_equiv_pos_site_id
 _symmetry_equiv_pos_as_xyz
  1  'x, y, z'
loop_
 _atom_site_type_symbol
 _atom_site_label
 _atom_site_symmetry_multiplicity
 _atom_site_fract_x
 _atom_site_fract_y
 _atom_site_fract_z
 _atom_site_occupancy
  Mn  Mn0  1  0.00004576  0.99998863  0.00002947  1
  Mn  Mn1  1  0.49995755  0.50000806  0.49996894  1
  Mn  Mn2  1  0.24999708  0.25000273  0.25000420  1
  Sb  Sb3  1  0.74999961  0.75000057  0.74999739  1
