# generated using pymatgen
data_Bi6As9Se4S10(O4F13)5
_symmetry_space_group_name_H-M   'P 1'
_cell_length_a   10.56819814
_cell_length_b   13.82006481
_cell_length_c   15.34688914
_cell_angle_alpha   69.83926297
_cell_angle_beta   72.37141971
_cell_angle_gamma   69.84237267
_symmetry_Int_Tables_number   1
_chemical_formula_structural   Bi6As9Se4S10(O4F13)5
_chemical_formula_sum   'Bi6 As9 Se4 S10 O20 F65'
_cell_volume   1931.67119405
_cell_formula_units_Z   1
loop_
 _symmetry_equiv_pos_site_id
 _symmetry_equiv_pos_as_xyz
  1  'x, y, z'
loop_
 _atom_site_type_symbol
 _atom_site_label
 _atom_site_symmetry_multiplicity
 _atom_site_fract_x
 _atom_site_fract_y
 _atom_site_fract_z
 _atom_site_occupancy
  Bi  Bi0  1  0.54006205  0.32978475  0.57436705  1
  Bi  Bi1  1  0.81146888  0.44339829  0.31627583  1
  Bi  Bi2  1  0.18853112  0.55660171  0.68372417  1
  Bi  Bi3  1  0.45993795  0.67021525  0.42563295  1
  Bi  Bi4  1  0.39582689  0.44985630  0.31392857  1
  Bi  Bi5  1  0.60417311  0.55014370  0.68607143  1
  As  As6  1  0.71415254  0.14759034  0.37068773  1
  As  As7  1  0.20529818  0.20602310  0.33692032  1
  As  As8  1  0.07887015  0.65231708  0.15971185  1
  As  As9  1  0.58065488  0.70053291  0.11728972  1
  As  As10  1  0.00000000  0.50000000  0.50000000  1
  As  As11  1  0.41934512  0.29946709  0.88271028  1
  As  As12  1  0.28584746  0.85240966  0.62931227  1
  As  As13  1  0.79470182  0.79397690  0.66307968  1
  As  As14  1  0.92112985  0.34768292  0.84028815  1
  Se  Se15  1  0.08909130  0.99736746  0.89251410  1
  Se  Se16  1  0.13972737  0.99463727  0.03012766  1
  Se  Se17  1  0.86027263  0.00536273  0.96987234  1
  Se  Se18  1  0.91090870  0.00263254  0.10748590  1
  S  S19  1  0.70626294  0.83755007  0.39615999  1
  S  S20  1  0.10980573  0.89898705  0.33429534  1
  S  S21  1  0.03678743  0.32433802  0.08861151  1
  S  S22  1  0.96321257  0.67566198  0.91138849  1
  S  S23  1  0.89019427  0.10101295  0.66570466  1
  S  S24  1  0.56961341  0.33878014  0.07755782  1
  S  S25  1  0.50999728  0.99681380  0.83141615  1
  S  S26  1  0.43038659  0.66121986  0.92244218  1
  S  S27  1  0.49000272  0.00318620  0.16858385  1
  S  S28  1  0.29373706  0.16244993  0.60384001  1
  O  O29  1  0.06753820  0.60519027  0.85657540  1
  O  O30  1  0.36585241  0.00045995  0.87525293  1
  O  O31  1  0.09645055  0.95109383  0.23657280  1
  O  O32  1  0.39515595  0.17992864  0.63994322  1
  O  O33  1  0.50108015  0.59459633  0.85653339  1
  O  O34  1  0.60279591  0.97566787  0.89200774  1
  O  O35  1  0.75226172  0.16318835  0.65097411  1
  O  O36  1  0.60484405  0.82007136  0.36005678  1
  O  O37  1  0.97500913  0.78285498  0.88968001  1
  O  O38  1  0.49891985  0.40540367  0.14346661  1
  O  O39  1  0.18211791  0.12635927  0.67495421  1
  O  O40  1  0.39305174  0.77543839  0.88278649  1
  O  O41  1  0.81788209  0.87364073  0.32504579  1
  O  O42  1  0.63414759  0.99954005  0.12474707  1
  O  O43  1  0.93246180  0.39480973  0.14342460  1
  O  O44  1  0.60694826  0.22456161  0.11721351  1
  O  O45  1  0.02499087  0.21714502  0.11031999  1
  O  O46  1  0.90354945  0.04890617  0.76342720  1
  O  O47  1  0.24773828  0.83681165  0.34902589  1
  O  O48  1  0.39720409  0.02433213  0.10799226  1
  F  F49  1  0.91747438  0.63029763  0.44437655  1
  F  F50  1  0.06819109  0.55184260  0.56213778  1
  F  F51  1  0.18855326  0.72777243  0.07513301  1
  F  F52  1  0.42893585  0.75204719  0.67488909  1
  F  F53  1  0.22077173  0.88445027  0.73844309  1
  F  F54  1  0.57106415  0.24795281  0.32511091  1
  F  F55  1  0.26492365  0.64328349  0.53864085  1
  F  F56  1  0.63856708  0.65698864  0.01268575  1
  F  F57  1  0.41495883  0.36320746  0.46089999  1
  F  F58  1  0.92742650  0.28965906  0.75326298  1
  F  F59  1  0.97058661  0.57012836  0.24568649  1
  F  F60  1  0.61664114  0.05406436  0.41490475  1
  F  F61  1  0.43840876  0.79751884  0.07516746  1
  F  F62  1  0.12247009  0.18381309  0.45705783  1
  F  F63  1  0.87752991  0.81618691  0.54294217  1
  F  F64  1  0.80815037  0.24778834  0.32662699  1
  F  F65  1  0.28097376  0.24059734  0.21469697  1
  F  F66  1  0.35468387  0.81527021  0.51876306  1
  F  F67  1  0.19184963  0.75221166  0.67337301  1
  F  F68  1  0.27063339  0.30465624  0.35134517  1
  F  F69  1  0.52069859  0.39454814  0.83245456  1
  F  F70  1  0.31853189  0.20881658  0.93020304  1
  F  F71  1  0.07257350  0.71034094  0.24673702  1
  F  F72  1  0.63307150  0.40647551  0.64346837  1
  F  F73  1  0.35463156  0.10612215  0.36240113  1
  F  F74  1  0.27713203  0.40141981  0.83627540  1
  F  F75  1  0.68220639  0.58771188  0.35984299  1
  F  F76  1  0.14865894  0.50506033  0.40506798  1
  F  F77  1  0.85415357  0.05465532  0.41787569  1
  F  F78  1  0.02941339  0.42987164  0.75431351  1
  F  F79  1  0.58504117  0.63679254  0.53910001  1
  F  F80  1  0.73507635  0.35671651  0.46135915  1
  F  F81  1  0.22624554  0.54671718  0.19728080  1
  F  F82  1  0.90948930  0.41306300  0.92456439  1
  F  F83  1  0.52250630  0.73917239  0.22639932  1
  F  F84  1  0.56159124  0.20248116  0.92483254  1
  F  F85  1  0.38335886  0.94593564  0.58509525  1
  F  F86  1  0.77375446  0.45328282  0.80271920  1
  F  F87  1  0.31779361  0.41228812  0.64015701  1
  F  F88  1  0.36143292  0.34301136  0.98731425  1
  F  F89  1  0.06818536  0.24899513  0.87344896  1
  F  F90  1  0.64531613  0.18472979  0.48123694  1
  F  F91  1  0.86404638  0.88317915  0.68034787  1
  F  F92  1  0.81144674  0.27222757  0.92486699  1
  F  F93  1  0.85134106  0.49493967  0.59493202  1
  F  F94  1  0.61283120  0.44149987  0.29926234  1
  F  F95  1  0.47930141  0.60545186  0.16754544  1
  F  F96  1  0.09051070  0.58693700  0.07543561  1
  F  F97  1  0.72936661  0.69534376  0.64865483  1
  F  F98  1  0.05336896  0.31489749  0.30945255  1
  F  F99  1  0.64536844  0.89387785  0.63759887  1
  F  F100  1  0.93181464  0.75100487  0.12655104  1
  F  F101  1  0.08252562  0.36970237  0.55562345  1
  F  F102  1  0.77922827  0.11554973  0.26155691  1
  F  F103  1  0.93180891  0.44815740  0.43786222  1
  F  F104  1  0.94663104  0.68510251  0.69054745  1
  F  F105  1  0.72286797  0.59858019  0.16372460  1
  F  F106  1  0.71902624  0.75940266  0.78530303  1
  F  F107  1  0.14584643  0.94534468  0.58212431  1
  F  F108  1  0.38716880  0.55850013  0.70073766  1
  F  F109  1  0.50000000  0.50000000  0.50000000  1
  F  F110  1  0.47749370  0.26082761  0.77360068  1
  F  F111  1  0.13595362  0.11682085  0.31965213  1
  F  F112  1  0.68146811  0.79118342  0.06979696  1
  F  F113  1  0.36692850  0.59352449  0.35653163  1
