# generated using pymatgen
data_S
_symmetry_space_group_name_H-M   'P 1'
_cell_length_a   8.49984809
_cell_length_b   14.99678413
_cell_length_c   19.00802134
_cell_angle_alpha   90.00000000
_cell_angle_beta   102.53242266
_cell_angle_gamma   90.00000000
_symmetry_Int_Tables_number   1
_chemical_formula_structural   S
_chemical_formula_sum   S72
_cell_volume   2365.22887226
_cell_formula_units_Z   72
loop_
 _symmetry_equiv_pos_site_id
 _symmetry_equiv_pos_as_xyz
  1  'x, y, z'
loop_
 _atom_site_type_symbol
 _atom_site_label
 _atom_site_symmetry_multiplicity
 _atom_site_fract_x
 _atom_site_fract_y
 _atom_site_fract_z
 _atom_site_occupancy
  S  S0  1  0.37619070  0.02284091  0.36118655  1
  S  S1  1  0.75806370  0.47403542  0.62796661  1
  S  S2  1  0.23556271  0.75162093  0.34966826  1
  S  S3  1  0.62380930  0.97715909  0.63881345  1
  S  S4  1  0.21942287  0.32163180  0.64174941  1
  S  S5  1  0.76443729  0.25162093  0.15033174  1
  S  S6  1  0.78057713  0.82163180  0.85825059  1
  S  S7  1  0.61534269  0.87853553  0.56398004  1
  S  S8  1  0.00325198  0.47802915  0.12583121  1
  S  S9  1  0.76443729  0.24837907  0.65033174  1
  S  S10  1  0.14335873  0.26333154  0.33396206  1
  S  S11  1  0.84058203  0.41701099  0.87906192  1
  S  S12  1  0.00860993  0.79074296  0.09851829  1
  S  S13  1  0.15941797  0.91701099  0.62093808  1
  S  S14  1  0.29450070  0.64914032  0.42143707  1
  S  S15  1  0.70549930  0.14914032  0.07856293  1
  S  S16  1  0.21942287  0.17836820  0.14174941  1
  S  S17  1  0.04932884  0.67425425  0.04506802  1
  S  S18  1  0.86140304  0.50911094  0.19737714  1
  S  S19  1  0.85664127  0.76333154  0.16603794  1
  S  S20  1  0.13859696  0.49088906  0.80262286  1
  S  S21  1  0.41210023  0.73754860  0.78860430  1
  S  S22  1  0.38465731  0.12146447  0.43601996  1
  S  S23  1  0.62945455  0.71289620  0.85798927  1
  S  S24  1  0.04932884  0.82574575  0.54506802  1
  S  S25  1  0.74043501  0.58581021  0.43257625  1
  S  S26  1  0.58789977  0.23754860  0.71139570  1
  S  S27  1  0.29450070  0.85085968  0.92143707  1
  S  S28  1  0.38465731  0.37853553  0.93601996  1
  S  S29  1  0.86140304  0.99088906  0.69737714  1
  S  S30  1  0.95067116  0.32574575  0.95493198  1
  S  S31  1  0.84058203  0.08298901  0.37906192  1
  S  S32  1  0.99674802  0.52197085  0.87416879  1
  S  S33  1  0.62380930  0.52284091  0.13881345  1
  S  S34  1  0.41679274  0.50815363  0.31268420  1
  S  S35  1  0.62945455  0.78710380  0.35798927  1
  S  S36  1  0.37887891  0.25263712  0.89008476  1
  S  S37  1  0.25956499  0.41418979  0.56742375  1
  S  S38  1  0.14335873  0.23666846  0.83396206  1
  S  S39  1  0.99674802  0.97802915  0.37416879  1
  S  S40  1  0.37887891  0.24736288  0.39008476  1
  S  S41  1  0.41679274  0.99184637  0.81268420  1
  S  S42  1  0.37054545  0.21289620  0.64201073  1
  S  S43  1  0.63504778  0.47364038  0.37650263  1
  S  S44  1  0.00325198  0.02197085  0.62583121  1
  S  S45  1  0.58320726  0.49184637  0.68731580  1
  S  S46  1  0.36495222  0.97364038  0.12349737  1
  S  S47  1  0.61534269  0.62146447  0.06398004  1
  S  S48  1  0.74043501  0.91418979  0.93257625  1
  S  S49  1  0.37054545  0.28710380  0.14201073  1
  S  S50  1  0.58320726  0.00815363  0.18731580  1
  S  S51  1  0.58789977  0.26245140  0.21139570  1
  S  S52  1  0.00860993  0.70925704  0.59851829  1
  S  S53  1  0.25956499  0.08581021  0.06742375  1
  S  S54  1  0.37619070  0.47715909  0.86118655  1
  S  S55  1  0.85664127  0.73666846  0.66603794  1
  S  S56  1  0.24193630  0.97403542  0.87203339  1
  S  S57  1  0.36495222  0.52635962  0.62349737  1
  S  S58  1  0.23556271  0.74837907  0.84966826  1
  S  S59  1  0.78057713  0.67836820  0.35825059  1
  S  S60  1  0.99139007  0.20925704  0.90148171  1
  S  S61  1  0.15941797  0.58298901  0.12093808  1
  S  S62  1  0.13859696  0.00911094  0.30262286  1
  S  S63  1  0.63504778  0.02635962  0.87650263  1
  S  S64  1  0.62112109  0.74736288  0.10991524  1
  S  S65  1  0.24193630  0.52596458  0.37203339  1
  S  S66  1  0.95067116  0.17425425  0.45493198  1
  S  S67  1  0.70549930  0.35085968  0.57856293  1
  S  S68  1  0.99139007  0.29074296  0.40148171  1
  S  S69  1  0.41210023  0.76245140  0.28860430  1
  S  S70  1  0.75806370  0.02596458  0.12796661  1
  S  S71  1  0.62112109  0.75263712  0.60991524  1
