# generated using pymatgen
data_YbSeO3F
_symmetry_space_group_name_H-M   'P 1'
_cell_length_a   6.90153442
_cell_length_b   6.96499549
_cell_length_c   7.13997690
_cell_angle_alpha   90.00000000
_cell_angle_beta   96.07699996
_cell_angle_gamma   90.00000000
_symmetry_Int_Tables_number   1
_chemical_formula_structural   YbSeO3F
_chemical_formula_sum   'Yb4 Se4 O12 F4'
_cell_volume   341.28398775
_cell_formula_units_Z   4
loop_
 _symmetry_equiv_pos_site_id
 _symmetry_equiv_pos_as_xyz
  1  'x, y, z'
loop_
 _atom_site_type_symbol
 _atom_site_label
 _atom_site_symmetry_multiplicity
 _atom_site_fract_x
 _atom_site_fract_y
 _atom_site_fract_z
 _atom_site_occupancy
  Yb  Yb0  1  0.14797015  0.15065532  0.81202074  1
  Yb  Yb1  1  0.14797015  0.34934468  0.31202074  1
  Yb  Yb2  1  0.85202985  0.84934468  0.18797926  1
  Yb  Yb3  1  0.85202985  0.65065532  0.68797926  1
  Se  Se4  1  0.67659263  0.38310061  0.22734990  1
  Se  Se5  1  0.32340737  0.88310061  0.27265010  1
  Se  Se6  1  0.32340737  0.61689939  0.77265010  1
  Se  Se7  1  0.67659263  0.11689939  0.72734990  1
  O  O8  1  0.50613905  0.69074118  0.64902311  1
  O  O9  1  0.17362301  0.03341880  0.13661349  1
  O  O10  1  0.17038396  0.80198236  0.80090283  1
  O  O11  1  0.17038396  0.69801764  0.30090283  1
  O  O12  1  0.82637699  0.53341880  0.36338651  1
  O  O13  1  0.49386095  0.19074118  0.85097689  1
  O  O14  1  0.82961604  0.19801764  0.19909717  1
  O  O15  1  0.17362301  0.46658120  0.63661349  1
  O  O16  1  0.49386095  0.30925882  0.35097689  1
  O  O17  1  0.50613905  0.80925882  0.14902311  1
  O  O18  1  0.82961604  0.30198236  0.69909717  1
  O  O19  1  0.82637699  0.96658120  0.86338651  1
  F  F20  1  0.19512669  0.10214304  0.51355986  1
  F  F21  1  0.80487331  0.60214304  0.98644014  1
  F  F22  1  0.80487331  0.89785696  0.48644014  1
  F  F23  1  0.19512669  0.39785696  0.01355986  1
