# generated using pymatgen
data_YH7C4O11
_symmetry_space_group_name_H-M   'P 1'
_cell_length_a   8.81162956
_cell_length_b   8.81162956
_cell_length_c   12.81185650
_cell_angle_alpha   90.00000000
_cell_angle_beta   90.00000000
_cell_angle_gamma   90.00000000
_symmetry_Int_Tables_number   1
_chemical_formula_structural   YH7C4O11
_chemical_formula_sum   'Y4 H28 C16 O44'
_cell_volume   994.77423419
_cell_formula_units_Z   4
loop_
 _symmetry_equiv_pos_site_id
 _symmetry_equiv_pos_as_xyz
  1  'x, y, z'
loop_
 _atom_site_type_symbol
 _atom_site_label
 _atom_site_symmetry_multiplicity
 _atom_site_fract_x
 _atom_site_fract_y
 _atom_site_fract_z
 _atom_site_occupancy
  Y  Y0  1  0.25000000  0.75000000  0.70936722  1
  Y  Y1  1  0.75000000  0.25000000  0.79063278  1
  Y  Y2  1  0.75000000  0.25000000  0.29063278  1
  Y  Y3  1  0.25000000  0.75000000  0.20936722  1
  H  H4  1  0.07096962  0.17645951  0.46311882  1
  H  H5  1  0.74267114  0.55517602  0.07869906  1
  H  H6  1  0.83957750  0.25185858  0.02625298  1
  H  H7  1  0.75000000  0.75000000  0.02708726  1
  H  H8  1  0.55517602  0.75732886  0.42130094  1
  H  H9  1  0.75732886  0.94482398  0.07869906  1
  H  H10  1  0.24267114  0.05517602  0.92130094  1
  H  H11  1  0.92903038  0.82354049  0.53688118  1
  H  H12  1  0.25732886  0.44482398  0.92130094  1
  H  H13  1  0.75000000  0.75000000  0.47291274  1
  H  H14  1  0.25000000  0.25000000  0.97291274  1
  H  H15  1  0.33957750  0.75185858  0.97374702  1
  H  H16  1  0.17645951  0.42903038  0.03688118  1
  H  H17  1  0.57096962  0.67645951  0.53688118  1
  H  H18  1  0.42903038  0.32354049  0.46311882  1
  H  H19  1  0.24814142  0.83957750  0.47374702  1
  H  H20  1  0.82354049  0.57096962  0.96311882  1
  H  H21  1  0.44482398  0.24267114  0.57869906  1
  H  H22  1  0.16042250  0.74814142  0.97374702  1
  H  H23  1  0.05517602  0.25732886  0.57869906  1
  H  H24  1  0.25185858  0.66042250  0.47374702  1
  H  H25  1  0.32354049  0.07096962  0.03688118  1
  H  H26  1  0.66042250  0.24814142  0.02625298  1
  H  H27  1  0.67645951  0.92903038  0.96311882  1
  H  H28  1  0.25000000  0.25000000  0.52708726  1
  H  H29  1  0.94482398  0.74267114  0.42130094  1
  H  H30  1  0.75185858  0.16042250  0.52625298  1
  H  H31  1  0.74814142  0.33957750  0.52625298  1
  C  C32  1  0.02373372  0.45421619  0.19705446  1
  C  C33  1  0.97601402  0.53332489  0.29956916  1
  C  C34  1  0.95421619  0.97626628  0.69705446  1
  C  C35  1  0.54578381  0.52373372  0.69705446  1
  C  C36  1  0.47626628  0.04578381  0.19705446  1
  C  C37  1  0.96667511  0.97601402  0.20043084  1
  C  C38  1  0.97626628  0.54578381  0.80294554  1
  C  C39  1  0.46667511  0.47601402  0.79956916  1
  C  C40  1  0.47601402  0.03332489  0.70043084  1
  C  C41  1  0.03332489  0.02398598  0.79956916  1
  C  C42  1  0.52398598  0.96667511  0.29956916  1
  C  C43  1  0.45421619  0.47626628  0.30294554  1
  C  C44  1  0.04578381  0.02373372  0.30294554  1
  C  C45  1  0.02398598  0.46667511  0.70043084  1
  C  C46  1  0.52373372  0.95421619  0.80294554  1
  C  C47  1  0.53332489  0.52398598  0.20043084  1
  O  O48  1  0.37474737  0.97007169  0.64646163  1
  O  O49  1  0.02992831  0.87474737  0.14646163  1
  O  O50  1  0.34159873  0.54134031  0.82138049  1
  O  O51  1  0.62339403  0.69730726  0.46836882  1
  O  O52  1  0.75000000  0.25000000  0.48125090  1
  O  O53  1  0.65840127  0.45865969  0.17861951  1
  O  O54  1  0.95865969  0.34159873  0.67861951  1
  O  O55  1  0.04134031  0.65840127  0.32138049  1
  O  O56  1  0.75000000  0.25000000  0.98125090  1
  O  O57  1  0.66306908  0.45080103  0.67108942  1
  O  O58  1  0.12525263  0.52992831  0.64646163  1
  O  O59  1  0.33693092  0.54919897  0.32891058  1
  O  O60  1  0.47007169  0.62525263  0.14646163  1
  O  O61  1  0.36695335  0.98549221  0.14692519  1
  O  O62  1  0.25000000  0.75000000  0.01874910  1
  O  O63  1  0.45865969  0.84159873  0.32138049  1
  O  O64  1  0.51450779  0.36695335  0.35307481  1
  O  O65  1  0.25000000  0.75000000  0.51874910  1
  O  O66  1  0.63304665  0.01450779  0.85307481  1
  O  O67  1  0.80269274  0.62339403  0.03163118  1
  O  O68  1  0.13304665  0.51450779  0.14692519  1
  O  O69  1  0.62525263  0.02992831  0.35353837  1
  O  O70  1  0.01450779  0.86695335  0.64692519  1
  O  O71  1  0.54919897  0.16306908  0.17108942  1
  O  O72  1  0.04919897  0.66306908  0.82891058  1
  O  O73  1  0.37660597  0.30269274  0.53163118  1
  O  O74  1  0.84159873  0.04134031  0.17861951  1
  O  O75  1  0.83693092  0.04919897  0.67108942  1
  O  O76  1  0.69730726  0.87660597  0.03163118  1
  O  O77  1  0.86695335  0.48549221  0.85307481  1
  O  O78  1  0.97007169  0.12525263  0.85353837  1
  O  O79  1  0.98549221  0.13304665  0.35307481  1
  O  O80  1  0.52992831  0.37474737  0.85353837  1
  O  O81  1  0.30269274  0.12339403  0.96836882  1
  O  O82  1  0.15840127  0.95865969  0.82138049  1
  O  O83  1  0.95080103  0.33693092  0.17108942  1
  O  O84  1  0.87474737  0.47007169  0.35353837  1
  O  O85  1  0.48549221  0.63304665  0.64692519  1
  O  O86  1  0.19730726  0.37660597  0.96836882  1
  O  O87  1  0.54134031  0.15840127  0.67861951  1
  O  O88  1  0.45080103  0.83693092  0.82891058  1
  O  O89  1  0.16306908  0.95080103  0.32891058  1
  O  O90  1  0.12339403  0.19730726  0.53163118  1
  O  O91  1  0.87660597  0.80269274  0.46836882  1
