# generated using pymatgen
data_NaLi2(RuO2)6
_symmetry_space_group_name_H-M   'P 1'
_cell_length_a   2.76461895
_cell_length_b   9.57113203
_cell_length_c   9.57525325
_cell_angle_alpha   119.98014889
_cell_angle_beta   90.08366485
_cell_angle_gamma   90.06007672
_symmetry_Int_Tables_number   1
_chemical_formula_structural   NaLi2(RuO2)6
_chemical_formula_sum   'Na1 Li2 Ru6 O12'
_cell_volume   219.46483830
_cell_formula_units_Z   1
loop_
 _symmetry_equiv_pos_site_id
 _symmetry_equiv_pos_as_xyz
  1  'x, y, z'
loop_
 _atom_site_type_symbol
 _atom_site_label
 _atom_site_symmetry_multiplicity
 _atom_site_fract_x
 _atom_site_fract_y
 _atom_site_fract_z
 _atom_site_occupancy
  Na  Na0  1  0.00000000  0.00000000  0.00000000  1
  Li  Li1  1  0.74919723  0.66691969  0.33330828  1
  Li  Li2  1  0.25080277  0.33308031  0.66669172  1
  Ru  Ru3  1  0.75013480  0.35830182  0.34188386  1
  Ru  Ru4  1  0.74867186  0.65879254  0.01674260  1
  Ru  Ru5  1  0.25132814  0.34120746  0.98325740  1
  Ru  Ru6  1  0.74985615  0.98321177  0.64141968  1
  Ru  Ru7  1  0.25014385  0.01678823  0.35858032  1
  Ru  Ru8  1  0.24986520  0.64169818  0.65811614  1
  O  O9  1  0.25125259  0.54365204  0.41075686  1
  O  O10  1  0.75047702  0.41122067  0.86796841  1
  O  O11  1  0.74874741  0.45634796  0.58924314  1
  O  O12  1  0.75219427  0.13295463  0.54391530  1
  O  O13  1  0.24780573  0.86704537  0.45608470  1
  O  O14  1  0.25146805  0.10639811  0.81207758  1
  O  O15  1  0.75160568  0.29253977  0.10606977  1
  O  O16  1  0.24952298  0.58877933  0.13203159  1
  O  O17  1  0.24979665  0.18821114  0.29561605  1
  O  O18  1  0.74853195  0.89360189  0.18792242  1
  O  O19  1  0.75020335  0.81178886  0.70438395  1
  O  O20  1  0.24839432  0.70746023  0.89393023  1
