# generated using pymatgen
data_La3Co3O8
_symmetry_space_group_name_H-M   'P 1'
_cell_length_a   5.43251413
_cell_length_b   5.65517105
_cell_length_c   11.76463577
_cell_angle_alpha   90.36542106
_cell_angle_beta   90.00000000
_cell_angle_gamma   90.00000000
_symmetry_Int_Tables_number   1
_chemical_formula_structural   La3Co3O8
_chemical_formula_sum   'La6 Co6 O16'
_cell_volume   361.42339689
_cell_formula_units_Z   2
loop_
 _symmetry_equiv_pos_site_id
 _symmetry_equiv_pos_as_xyz
  1  'x, y, z'
loop_
 _atom_site_type_symbol
 _atom_site_label
 _atom_site_symmetry_multiplicity
 _atom_site_fract_x
 _atom_site_fract_y
 _atom_site_fract_z
 _atom_site_occupancy
  O  O0  1  0.00757699  0.99910798  0.30659902  1
  O  O1  1  0.50757699  0.00089202  0.69340098  1
  O  O2  1  0.49538791  0.00237709  0.30729429  1
  O  O3  1  0.99538791  0.99762291  0.69270571  1
  O  O4  1  0.24964795  0.17003465  0.49179273  1
  O  O5  1  0.74964795  0.82996535  0.50820727  1
  O  O6  1  0.00749879  0.49065235  0.35554812  1
  O  O7  1  0.50749879  0.50934765  0.64445188  1
  O  O8  1  0.49776442  0.48575687  0.35579025  1
  O  O9  1  0.99776442  0.51424313  0.64420975  1
  O  O10  1  0.23092563  0.32339191  0.85342721  1
  O  O11  1  0.73092563  0.67660809  0.14657279  1
  O  O12  1  0.16992829  0.85747119  0.99963614  1
  O  O13  1  0.66992829  0.14252881  0.00036386  1
  O  O14  1  0.74092762  0.68820588  0.84143629  1
  O  O15  1  0.24092762  0.31179412  0.15856371  1
  Co  Co16  1  0.25040724  0.24977489  0.66434111  1
  Co  Co17  1  0.75040724  0.75022511  0.33565889  1
  Co  Co18  1  0.25013991  0.24197434  0.33249630  1
  Co  Co19  1  0.75013991  0.75802566  0.66750370  1
  Co  Co20  1  0.29850411  0.18789750  0.00239831  1
  Co  Co21  1  0.79850411  0.81210250  0.99760169  1
  La  La22  1  0.24979774  0.74900817  0.49878100  1
  La  La23  1  0.74979774  0.25099183  0.50121900  1
  La  La24  1  0.25578269  0.73155721  0.18874228  1
  La  La25  1  0.75578269  0.26844279  0.81125772  1
  La  La26  1  0.25271071  0.73287497  0.80746818  1
  La  La27  1  0.75271071  0.26712503  0.19253182  1
