# generated using pymatgen
data_Al(HO)3
_symmetry_space_group_name_H-M   'P 1'
_cell_length_a   5.05972111
_cell_length_b   6.28533028
_cell_length_c   7.03810296
_cell_angle_alpha   83.38455521
_cell_angle_beta   80.88950920
_cell_angle_gamma   81.40865915
_symmetry_Int_Tables_number   1
_chemical_formula_structural   Al(HO)3
_chemical_formula_sum   'Al4 H12 O12'
_cell_volume   217.55950345
_cell_formula_units_Z   4
loop_
 _symmetry_equiv_pos_site_id
 _symmetry_equiv_pos_as_xyz
  1  'x, y, z'
loop_
 _atom_site_type_symbol
 _atom_site_label
 _atom_site_symmetry_multiplicity
 _atom_site_fract_x
 _atom_site_fract_y
 _atom_site_fract_z
 _atom_site_occupancy
  Al  Al0  1  0.01924314  0.66507671  0.33625953  1
  Al  Al1  1  0.53026057  0.83524627  0.16580309  1
  Al  Al2  1  0.98075686  0.33492329  0.66374047  1
  Al  Al3  1  0.46973943  0.16475373  0.83419691  1
  H  H4  1  0.88034664  0.92106238  0.87871376  1
  H  H5  1  0.36002576  0.52002280  0.11326085  1
  H  H6  1  0.11965336  0.07893762  0.12128624  1
  H  H7  1  0.21915765  0.26746516  0.32193341  1
  H  H8  1  0.23497748  0.97168696  0.62192052  1
  H  H9  1  0.63997424  0.47997720  0.88673915  1
  H  H10  1  0.40437845  0.69408482  0.49896325  1
  H  H11  1  0.78084235  0.73253484  0.67806659  1
  H  H12  1  0.76502252  0.02831304  0.37807948  1
  H  H13  1  0.20622024  0.54074434  0.87333366  1
  H  H14  1  0.59562155  0.30591518  0.50103675  1
  H  H15  1  0.79377976  0.45925566  0.12666634  1
  O  O16  1  0.69939119  0.19912707  0.58335481  1
  O  O17  1  0.17816146  0.37834778  0.41397499  1
  O  O18  1  0.75414832  0.57117299  0.21711460  1
  O  O19  1  0.82183854  0.62165222  0.58602501  1
  O  O20  1  0.27099710  0.66839166  0.09453287  1
  O  O21  1  0.30060881  0.80087293  0.41664519  1
  O  O22  1  0.72900290  0.33160834  0.90546713  1
  O  O23  1  0.81250905  0.93724105  0.26857626  1
  O  O24  1  0.18749095  0.06275895  0.73142374  1
  O  O25  1  0.31081992  0.10279040  0.10139461  1
  O  O26  1  0.68918008  0.89720960  0.89860539  1
  O  O27  1  0.24585168  0.42882701  0.78288540  1
