# generated using pymatgen
data_LiAl(SiO3)2
_symmetry_space_group_name_H-M   'P 1'
_cell_length_a   5.19215944
_cell_length_b   8.53678468
_cell_length_c   9.18356232
_cell_angle_alpha   90.00000000
_cell_angle_beta   102.63127640
_cell_angle_gamma   90.00000000
_symmetry_Int_Tables_number   1
_chemical_formula_structural   LiAl(SiO3)2
_chemical_formula_sum   'Li4 Al4 Si8 O24'
_cell_volume   397.20366151
_cell_formula_units_Z   4
loop_
 _symmetry_equiv_pos_site_id
 _symmetry_equiv_pos_as_xyz
  1  'x, y, z'
loop_
 _atom_site_type_symbol
 _atom_site_label
 _atom_site_symmetry_multiplicity
 _atom_site_fract_x
 _atom_site_fract_y
 _atom_site_fract_z
 _atom_site_occupancy
  Al  Al0  1  0.02747317  0.65231872  0.25032095  1
  Al  Al1  1  0.47252683  0.15231872  0.74967905  1
  Al  Al2  1  0.97252683  0.34768128  0.74967905  1
  Al  Al3  1  0.52747317  0.84768128  0.25032095  1
  Li  Li4  1  0.02756908  0.01494926  0.25491029  1
  Li  Li5  1  0.47243092  0.51494926  0.74508971  1
  Li  Li6  1  0.97243092  0.98505074  0.74508971  1
  Li  Li7  1  0.52756908  0.48505074  0.25491029  1
  Si  Si8  1  0.77087187  0.34255146  0.04595073  1
  Si  Si9  1  0.72912813  0.84255146  0.95404927  1
  Si  Si10  1  0.22912813  0.65744854  0.95404927  1
  Si  Si11  1  0.27087187  0.15744854  0.04595073  1
  Si  Si12  1  0.31904947  0.84086605  0.54969586  1
  Si  Si13  1  0.18095053  0.34086605  0.45030414  1
  Si  Si14  1  0.68095053  0.15913395  0.45030414  1
  Si  Si15  1  0.81904947  0.65913395  0.54969586  1
  O  O16  1  0.69808015  0.32973568  0.86094581  1
  O  O17  1  0.80191985  0.82973568  0.13905419  1
  O  O18  1  0.30191985  0.67026432  0.13905419  1
  O  O19  1  0.19808015  0.17026432  0.86094581  1
  O  O20  1  0.83041158  0.51296501  0.11861082  1
  O  O21  1  0.66958842  0.01296501  0.88138918  1
  O  O22  1  0.16958842  0.48703499  0.88138918  1
  O  O23  1  0.33041158  0.98703499  0.11861082  1
  O  O24  1  0.51158976  0.28259165  0.10723808  1
  O  O25  1  0.98841024  0.78259165  0.89276192  1
  O  O26  1  0.48841024  0.71740835  0.89276192  1
  O  O27  1  0.01158976  0.21740835  0.10723808  1
  O  O28  1  0.25307927  0.82885872  0.36418268  1
  O  O29  1  0.24692073  0.32885872  0.63581732  1
  O  O30  1  0.74692073  0.17114128  0.63581732  1
  O  O31  1  0.75307927  0.67114128  0.36418268  1
  O  O32  1  0.27212338  0.00587171  0.62438786  1
  O  O33  1  0.22787662  0.50587171  0.37561214  1
  O  O34  1  0.72787662  0.99412829  0.37561214  1
  O  O35  1  0.77212338  0.49412829  0.62438786  1
  O  O36  1  0.12997318  0.71064897  0.60801263  1
  O  O37  1  0.37002682  0.21064897  0.39198737  1
  O  O38  1  0.87002682  0.28935103  0.39198737  1
  O  O39  1  0.62997318  0.78935103  0.60801263  1
