# generated using pymatgen
data_LiNi(PS3)2
_symmetry_space_group_name_H-M   'P 1'
_cell_length_a   5.86511219
_cell_length_b   5.89583904
_cell_length_c   6.96370072
_cell_angle_alpha   82.41561023
_cell_angle_beta   74.61191688
_cell_angle_gamma   60.17224965
_symmetry_Int_Tables_number   1
_chemical_formula_structural   LiNi(PS3)2
_chemical_formula_sum   'Li1 Ni1 P2 S6'
_cell_volume   201.41357958
_cell_formula_units_Z   1
loop_
 _symmetry_equiv_pos_site_id
 _symmetry_equiv_pos_as_xyz
  1  'x, y, z'
loop_
 _atom_site_type_symbol
 _atom_site_label
 _atom_site_symmetry_multiplicity
 _atom_site_fract_x
 _atom_site_fract_y
 _atom_site_fract_z
 _atom_site_occupancy
  Li  Li0  1  0.66667892  0.66664215  0.00000000  1
  Ni  Ni1  1  0.33491334  0.33017332  0.00000000  1
  P  P2  1  0.05430145  0.99867174  0.83776240  1
  P  P3  1  0.94702680  0.99867174  0.16223760  1
  S  S4  1  0.39621412  0.64841871  0.76393919  1
  S  S5  1  0.10745549  0.32170578  0.77072837  1
  S  S6  1  0.57083873  0.32170578  0.22927163  1
  S  S7  1  0.95536716  0.64841871  0.23606081  1
  S  S8  1  0.24400177  0.03279603  0.23567551  1
  S  S9  1  0.72320220  0.03279603  0.76432449  1
