# generated using pymatgen
data_Pr2Nb11O30
_symmetry_space_group_name_H-M   'P 1'
_cell_length_a   6.32548034
_cell_length_b   6.32548003
_cell_length_c   32.95791035
_cell_angle_alpha   90.00000000
_cell_angle_beta   90.00000000
_cell_angle_gamma   120.00000161
_symmetry_Int_Tables_number   1
_chemical_formula_structural   Pr2Nb11O30
_chemical_formula_sum   'Pr4 Nb22 O60'
_cell_volume   1142.02942028
_cell_formula_units_Z   2
loop_
 _symmetry_equiv_pos_site_id
 _symmetry_equiv_pos_as_xyz
  1  'x, y, z'
loop_
 _atom_site_type_symbol
 _atom_site_label
 _atom_site_symmetry_multiplicity
 _atom_site_fract_x
 _atom_site_fract_y
 _atom_site_fract_z
 _atom_site_occupancy
  Pr  Pr0  1  0.33333300  0.66666700  0.90525548  1
  Pr  Pr1  1  0.33333300  0.66666700  0.59474452  1
  Pr  Pr2  1  0.66666700  0.33333300  0.40525548  1
  Pr  Pr3  1  0.66666700  0.33333300  0.09474452  1
  Nb  Nb4  1  0.63965313  0.63948777  0.19203161  1
  Nb  Nb5  1  0.63948777  0.63965313  0.69203161  1
  Nb  Nb6  1  0.36034687  0.99983464  0.69203161  1
  Nb  Nb7  1  0.99983464  0.36034687  0.30796839  1
  Nb  Nb8  1  0.35578272  0.35578272  0.00000000  1
  Nb  Nb9  1  0.00000000  0.64421728  0.00000000  1
  Nb  Nb10  1  0.36034687  0.99983464  0.80796839  1
  Nb  Nb11  1  0.00000000  0.64421728  0.50000000  1
  Nb  Nb12  1  0.63948777  0.63965313  0.80796839  1
  Nb  Nb13  1  0.64421728  0.00000000  0.50000000  1
  Nb  Nb14  1  0.99983464  0.36034687  0.19203161  1
  Nb  Nb15  1  0.00016536  0.36051223  0.80796839  1
  Nb  Nb16  1  0.66666700  0.33333300  0.90252503  1
  Nb  Nb17  1  0.63965313  0.63948777  0.30796839  1
  Nb  Nb18  1  0.36051223  0.00016536  0.19203161  1
  Nb  Nb19  1  0.33333300  0.66666700  0.09747497  1
  Nb  Nb20  1  0.35578272  0.35578272  0.50000000  1
  Nb  Nb21  1  0.36051223  0.00016536  0.30796839  1
  Nb  Nb22  1  0.33333300  0.66666700  0.40252503  1
  Nb  Nb23  1  0.66666700  0.33333300  0.59747497  1
  Nb  Nb24  1  0.00016536  0.36051223  0.69203161  1
  Nb  Nb25  1  0.64421728  0.00000000  0.00000000  1
  O  O26  1  0.36641288  0.95911274  0.75000000  1
  O  O27  1  0.56501756  0.94665225  0.44139668  1
  O  O28  1  0.24348278  0.00000000  0.00000000  1
  O  O29  1  0.05334775  0.61836531  0.44139668  1
  O  O30  1  -0.00034425  0.75238222  0.68973585  1
  O  O31  1  1.00034425  0.75272647  0.18973585  1
  O  O32  1  0.37544363  0.94901155  0.37110635  1
  O  O33  1  0.05098845  0.42643208  0.12889365  1
  O  O34  1  1.00000000  0.24348278  0.00000000  1
  O  O35  1  0.66666700  0.33333300  0.01433403  1
  O  O36  1  0.33333300  0.66666700  0.67544085  1
  O  O37  1  0.66666700  0.33333300  0.80218796  1
  O  O38  1  0.24761778  0.24727353  0.68973585  1
  O  O39  1  0.61836531  0.05334775  0.55860332  1
  O  O40  1  0.42643208  0.05098845  0.87110635  1
  O  O41  1  0.04088726  0.40730014  0.75000000  1
  O  O42  1  0.33333300  0.66666700  0.98566597  1
  O  O43  1  0.40730014  0.04088726  0.25000000  1
  O  O44  1  0.66666700  0.33333300  0.48566597  1
  O  O45  1  0.24348278  0.00000000  0.50000000  1
  O  O46  1  0.33333300  0.66666700  0.51433403  1
  O  O47  1  0.42643208  0.05098845  0.62889365  1
  O  O48  1  0.59269986  0.63358712  0.75000000  1
  O  O49  1  0.38163469  0.43498244  0.05860332  1
  O  O50  1  0.61836531  0.05334775  0.94139668  1
  O  O51  1  0.24761778  0.24727353  0.81026415  1
  O  O52  1  0.66666700  0.33333300  0.69781204  1
  O  O53  1  0.38163469  0.43498244  0.44139668  1
  O  O54  1  0.33333300  0.66666700  0.82455915  1
  O  O55  1  1.00000000  0.24348278  0.50000000  1
  O  O56  1  1.00034425  0.75272647  0.31026415  1
  O  O57  1  0.66666700  0.33333300  0.17544085  1
  O  O58  1  -0.00034425  0.75238222  0.81026415  1
  O  O59  1  0.24727353  0.24761778  0.31026415  1
  O  O60  1  0.37544363  0.94901155  0.12889365  1
  O  O61  1  0.33333300  0.66666700  0.19781204  1
  O  O62  1  0.66666700  0.33333300  0.32455915  1
  O  O63  1  0.56501756  0.94665225  0.05860332  1
  O  O64  1  0.62455637  0.57356792  0.87110635  1
  O  O65  1  0.75238222  -0.00034425  0.31026415  1
  O  O66  1  0.43498244  0.38163469  0.55860332  1
  O  O67  1  0.05334775  0.61836531  0.05860332  1
  O  O68  1  0.75272647  1.00034425  0.81026415  1
  O  O69  1  0.33333300  0.66666700  0.30218796  1
  O  O70  1  0.75238222  -0.00034425  0.18973585  1
  O  O71  1  0.57356792  0.62455637  0.37110635  1
  O  O72  1  0.94665225  0.56501756  0.94139668  1
  O  O73  1  0.94901155  0.37544363  0.87110635  1
  O  O74  1  0.94901155  0.37544363  0.62889365  1
  O  O75  1  0.63358712  0.59269986  0.25000000  1
  O  O76  1  0.94665225  0.56501756  0.55860332  1
  O  O77  1  0.75651722  0.75651722  0.50000000  1
  O  O78  1  0.57356792  0.62455637  0.12889365  1
  O  O79  1  0.24727353  0.24761778  0.18973585  1
  O  O80  1  0.05098845  0.42643208  0.37110635  1
  O  O81  1  0.75272647  1.00034425  0.68973585  1
  O  O82  1  0.43498244  0.38163469  0.94139668  1
  O  O83  1  0.62455637  0.57356792  0.62889365  1
  O  O84  1  0.95911274  0.36641288  0.25000000  1
  O  O85  1  0.75651722  0.75651722  0.00000000  1
