# generated using pymatgen
data_K2Pr4Cl9O2
_symmetry_space_group_name_H-M   'P 1'
_cell_length_a   8.47948783
_cell_length_b   9.59411556
_cell_length_c   11.49678624
_cell_angle_alpha   90.00000000
_cell_angle_beta   90.00000000
_cell_angle_gamma   104.43862995
_symmetry_Int_Tables_number   1
_chemical_formula_structural   K2Pr4Cl9O2
_chemical_formula_sum   'K4 Pr8 Cl18 O4'
_cell_volume   905.75898670
_cell_formula_units_Z   2
loop_
 _symmetry_equiv_pos_site_id
 _symmetry_equiv_pos_as_xyz
  1  'x, y, z'
loop_
 _atom_site_type_symbol
 _atom_site_label
 _atom_site_symmetry_multiplicity
 _atom_site_fract_x
 _atom_site_fract_y
 _atom_site_fract_z
 _atom_site_occupancy
  K  K0  1  0.23927671  0.44669641  0.45169217  1
  K  K1  1  0.76072329  0.55330359  0.95169217  1
  K  K2  1  0.76072329  0.55330359  0.54830783  1
  K  K3  1  0.23927671  0.44669641  0.04830783  1
  Pr  Pr4  1  0.38155260  0.16076110  0.75000000  1
  Pr  Pr5  1  0.61844740  0.83923890  0.25000000  1
  Pr  Pr6  1  0.28439439  0.95591667  0.45663431  1
  Pr  Pr7  1  0.71560561  0.04408333  0.95663431  1
  Pr  Pr8  1  0.71560561  0.04408333  0.54336569  1
  Pr  Pr9  1  0.61270710  0.21407234  0.25000000  1
  Pr  Pr10  1  0.38729290  0.78592766  0.75000000  1
  Pr  Pr11  1  0.28439439  0.95591667  0.04336569  1
  Cl  Cl12  1  0.87798141  0.30028768  0.41470581  1
  Cl  Cl13  1  0.89350688  0.87611800  0.09257519  1
  Cl  Cl14  1  0.25155230  0.13442015  0.25000000  1
  Cl  Cl15  1  0.74844770  0.86557985  0.75000000  1
  Cl  Cl16  1  0.48986266  0.27692121  0.50018444  1
  Cl  Cl17  1  0.12201859  0.69971232  0.58529419  1
  Cl  Cl18  1  0.60021708  0.52222642  0.25000000  1
  Cl  Cl19  1  0.39978292  0.47777358  0.75000000  1
  Cl  Cl20  1  0.87798141  0.30028768  0.08529419  1
  Cl  Cl21  1  0.10649312  0.12388200  0.90742481  1
  Cl  Cl22  1  0.51013734  0.72307879  0.00018444  1
  Cl  Cl23  1  0.89350688  0.87611800  0.40742481  1
  Cl  Cl24  1  0.51013734  0.72307879  0.49981556  1
  Cl  Cl25  1  0.10649312  0.12388200  0.59257519  1
  Cl  Cl26  1  0.12201859  0.69971232  0.91470581  1
  Cl  Cl27  1  0.48986266  0.27692121  0.99981556  1
  Cl  Cl28  1  0.25263545  0.75708820  0.25000000  1
  Cl  Cl29  1  0.74736455  0.24291180  0.75000000  1
  O  O30  1  0.54820901  0.01113798  0.12150869  1
  O  O31  1  0.45179099  0.98886202  0.87849131  1
  O  O32  1  0.54820901  0.01113798  0.37849131  1
  O  O33  1  0.45179099  0.98886202  0.62150869  1
