# generated using pymatgen
data_BaGe2O5
_symmetry_space_group_name_H-M   'P 1'
_cell_length_a   9.69559914
_cell_length_b   13.26971882
_cell_length_c   13.40660800
_cell_angle_alpha   90.00000000
_cell_angle_beta   94.04988454
_cell_angle_gamma   90.00000000
_symmetry_Int_Tables_number   1
_chemical_formula_structural   BaGe2O5
_chemical_formula_sum   'Ba16 Ge32 O80'
_cell_volume   1720.55859388
_cell_formula_units_Z   16
loop_
 _symmetry_equiv_pos_site_id
 _symmetry_equiv_pos_as_xyz
  1  'x, y, z'
loop_
 _atom_site_type_symbol
 _atom_site_label
 _atom_site_symmetry_multiplicity
 _atom_site_fract_x
 _atom_site_fract_y
 _atom_site_fract_z
 _atom_site_occupancy
  Ba  Ba0  1  0.12120803  0.24633981  0.36602454  1
  Ba  Ba1  1  0.61217584  0.00960389  0.13162404  1
  Ba  Ba2  1  0.38782416  0.50960389  0.36837596  1
  Ba  Ba3  1  0.61298715  0.51391124  0.13294791  1
  Ba  Ba4  1  0.13738377  0.75245438  0.38433411  1
  Ba  Ba5  1  0.87879197  0.75366019  0.63397546  1
  Ba  Ba6  1  0.86261623  0.24754562  0.61566589  1
  Ba  Ba7  1  0.38701285  0.48608876  0.86705209  1
  Ba  Ba8  1  0.86261623  0.25245438  0.11566589  1
  Ba  Ba9  1  0.61298715  0.98608876  0.63294791  1
  Ba  Ba10  1  0.38782416  0.99039611  0.86837596  1
  Ba  Ba11  1  0.61217584  0.49039611  0.63162404  1
  Ba  Ba12  1  0.12120803  0.25366019  0.86602454  1
  Ba  Ba13  1  0.13738377  0.74754562  0.88433411  1
  Ba  Ba14  1  0.87879197  0.74633981  0.13397546  1
  Ba  Ba15  1  0.38701285  0.01391124  0.36705209  1
  Ge  Ge16  1  0.98751305  0.49981573  0.76139126  1
  Ge  Ge17  1  0.25019043  0.60645132  0.61337297  1
  Ge  Ge18  1  0.75929154  0.63210164  0.87962838  1
  Ge  Ge19  1  0.24070846  0.36789836  0.12037162  1
  Ge  Ge20  1  0.75976036  0.86888473  0.90859715  1
  Ge  Ge21  1  0.52570045  0.74542912  0.51685832  1
  Ge  Ge22  1  0.24070846  0.13210164  0.62037162  1
  Ge  Ge23  1  0.74980957  0.10645132  0.88662703  1
  Ge  Ge24  1  0.26453120  0.65151837  0.10839935  1
  Ge  Ge25  1  0.75929154  0.86789836  0.37962838  1
  Ge  Ge26  1  0.51938605  0.27343518  0.23947683  1
  Ge  Ge27  1  0.26453120  0.84848163  0.60839935  1
  Ge  Ge28  1  0.47429955  0.25457088  0.48314168  1
  Ge  Ge29  1  0.73546880  0.15151837  0.39160065  1
  Ge  Ge30  1  0.00000000  0.00000000  0.00000000  1
  Ge  Ge31  1  0.01248695  0.50018427  0.23860874  1
  Ge  Ge32  1  0.48061395  0.77343518  0.26052317  1
  Ge  Ge33  1  0.47429955  0.24542912  0.98314168  1
  Ge  Ge34  1  0.73546880  0.34848163  0.89160065  1
  Ge  Ge35  1  0.01248695  0.99981573  0.73860874  1
  Ge  Ge36  1  0.24023964  0.13111527  0.09140285  1
  Ge  Ge37  1  0.98751305  0.00018427  0.26139126  1
  Ge  Ge38  1  0.00000000  0.00000000  0.50000000  1
  Ge  Ge39  1  0.00000000  0.50000000  0.50000000  1
  Ge  Ge40  1  0.51938605  0.22656482  0.73947683  1
  Ge  Ge41  1  0.75976036  0.63111527  0.40859715  1
  Ge  Ge42  1  0.52570045  0.75457088  0.01685832  1
  Ge  Ge43  1  0.48061395  0.72656482  0.76052317  1
  Ge  Ge44  1  0.24023964  0.36888473  0.59140285  1
  Ge  Ge45  1  0.00000000  0.50000000  0.00000000  1
  Ge  Ge46  1  0.74980957  0.39354868  0.38662703  1
  Ge  Ge47  1  0.25019043  0.89354868  0.11337297  1
  O  O48  1  0.67236320  0.64954232  0.51839886  1
  O  O49  1  0.32763680  0.35045768  0.48160114  1
  O  O50  1  0.17723999  0.94750501  0.98755515  1
  O  O51  1  0.61441623  0.34702858  0.98948101  1
  O  O52  1  0.58654107  0.36784369  0.44673744  1
  O  O53  1  0.48134685  0.71033927  0.37964897  1
  O  O54  1  0.33462807  0.34928497  0.00560308  1
  O  O55  1  0.89749648  0.49251336  0.12774335  1
  O  O56  1  0.31135110  0.02811966  0.16210730  1
  O  O57  1  0.63782723  0.14261937  0.27839537  1
  O  O58  1  0.32763680  0.14954232  0.98160114  1
  O  O59  1  0.78053183  0.73750714  0.33181483  1
  O  O60  1  0.93241140  0.87458763  0.96372985  1
  O  O61  1  0.58225757  0.76717601  0.65858471  1
  O  O62  1  0.05455720  0.94144073  0.15014590  1
  O  O63  1  0.17288816  0.95908783  0.57088119  1
  O  O64  1  0.41345893  0.63215631  0.55326256  1
  O  O65  1  0.17288816  0.54091217  0.07088119  1
  O  O66  1  0.83720823  0.26334507  0.41188368  1
  O  O67  1  0.21946817  0.23750714  0.16818517  1
  O  O68  1  0.84314822  0.58434003  0.76445513  1
  O  O69  1  0.82276001  0.44750501  0.51244485  1
  O  O70  1  0.41774243  0.26717601  0.84141529  1
  O  O71  1  0.16279177  0.73665493  0.58811632  1
  O  O72  1  0.68153253  0.15224791  0.75635422  1
  O  O73  1  0.17723999  0.55249499  0.48755515  1
  O  O74  1  0.31846747  0.84775209  0.24364578  1
  O  O75  1  0.15685178  0.41565997  0.23554487  1
  O  O76  1  0.06833770  0.12950967  0.53512767  1
  O  O77  1  0.84314822  0.91565997  0.26445513  1
  O  O78  1  0.06758860  0.37458763  0.53627015  1
  O  O79  1  0.67236320  0.85045768  0.01839886  1
  O  O80  1  0.61441623  0.15297142  0.48948101  1
  O  O81  1  0.68864890  0.97188034  0.83789270  1
  O  O82  1  0.36217277  0.85738063  0.72160463  1
  O  O83  1  0.93241140  0.62541237  0.46372985  1
  O  O84  1  0.51865315  0.21033927  0.12035103  1
  O  O85  1  0.21946817  0.26249286  0.66818517  1
  O  O86  1  0.82711184  0.45908783  0.92911881  1
  O  O87  1  0.10250352  0.99251336  0.37225665  1
  O  O88  1  0.94544280  0.05855927  0.84985410  1
  O  O89  1  0.31846747  0.65224791  0.74364578  1
  O  O90  1  0.06833770  0.37049033  0.03512767  1
  O  O91  1  0.66537193  0.65071503  0.99439692  1
  O  O92  1  0.41774243  0.23282399  0.34141529  1
  O  O93  1  0.16279177  0.76334507  0.08811632  1
  O  O94  1  0.89749648  0.00748664  0.62774335  1
  O  O95  1  0.31135110  0.47188034  0.66210730  1
  O  O96  1  0.15685178  0.08434003  0.73554487  1
  O  O97  1  0.05455720  0.55855927  0.65014590  1
  O  O98  1  0.51865315  0.28966073  0.62035103  1
  O  O99  1  0.10250352  0.50748664  0.87225665  1
  O  O100  1  0.78053183  0.76249286  0.83181483  1
  O  O101  1  0.33462807  0.15071503  0.50560308  1
  O  O102  1  0.58654107  0.13215631  0.94673744  1
  O  O103  1  0.68864890  0.52811966  0.33789270  1
  O  O104  1  0.48134685  0.78966073  0.87964897  1
  O  O105  1  0.38558377  0.84702858  0.51051899  1
  O  O106  1  0.38558377  0.65297142  0.01051899  1
  O  O107  1  0.63782723  0.35738063  0.77839537  1
  O  O108  1  0.06758860  0.12541237  0.03627015  1
  O  O109  1  0.68153253  0.34775209  0.25635422  1
  O  O110  1  0.36217277  0.64261937  0.22160463  1
  O  O111  1  0.94544280  0.44144073  0.34985410  1
  O  O112  1  0.94805173  0.37388245  0.74534643  1
  O  O113  1  0.93166230  0.62950967  0.96487233  1
  O  O114  1  0.82276001  0.05249499  0.01244485  1
  O  O115  1  0.41409252  0.11055239  0.69725472  1
  O  O116  1  0.58225757  0.73282399  0.15858471  1
  O  O117  1  0.58590748  0.88944761  0.30274528  1
  O  O118  1  0.58590748  0.61055239  0.80274528  1
  O  O119  1  0.05194827  0.87388245  0.75465357  1
  O  O120  1  0.93166230  0.87049033  0.46487233  1
  O  O121  1  0.82711184  0.04091217  0.42911881  1
  O  O122  1  0.41409252  0.38944761  0.19725472  1
  O  O123  1  0.94805173  0.12611755  0.24534643  1
  O  O124  1  0.83720823  0.23665493  0.91188368  1
  O  O125  1  0.05194827  0.62611755  0.25465357  1
  O  O126  1  0.66537193  0.84928497  0.49439692  1
  O  O127  1  0.41345893  0.86784369  0.05326256  1
