# generated using pymatgen
data_SbCSCl2F9
_symmetry_space_group_name_H-M   'P 1'
_cell_length_a   8.02771648
_cell_length_b   9.80778211
_cell_length_c   12.74986765
_cell_angle_alpha   90.00000000
_cell_angle_beta   100.38230570
_cell_angle_gamma   90.00000000
_symmetry_Int_Tables_number   1
_chemical_formula_structural   SbCSCl2F9
_chemical_formula_sum   'Sb4 C4 S4 Cl8 F36'
_cell_volume   987.41342774
_cell_formula_units_Z   4
loop_
 _symmetry_equiv_pos_site_id
 _symmetry_equiv_pos_as_xyz
  1  'x, y, z'
loop_
 _atom_site_type_symbol
 _atom_site_label
 _atom_site_symmetry_multiplicity
 _atom_site_fract_x
 _atom_site_fract_y
 _atom_site_fract_z
 _atom_site_occupancy
  Sb  Sb0  1  0.80302174  0.74929367  0.93345977  1
  Sb  Sb1  1  0.80302174  0.75070633  0.43345977  1
  Sb  Sb2  1  0.19697826  0.25070633  0.06654023  1
  Sb  Sb3  1  0.19697826  0.24929367  0.56654023  1
  C  C4  1  0.38018650  0.82592620  0.62699548  1
  C  C5  1  0.38018650  0.67407380  0.12699548  1
  C  C6  1  0.61981350  0.32592620  0.87300452  1
  C  C7  1  0.61981350  0.17407380  0.37300452  1
  S  S8  1  0.82474733  0.17721338  0.29994317  1
  S  S9  1  0.17525267  0.82278662  0.70005683  1
  S  S10  1  0.82474733  0.32278662  0.79994317  1
  S  S11  1  0.17525267  0.67721338  0.20005683  1
  Cl  Cl12  1  0.26238599  0.92983030  0.83022636  1
  Cl  Cl13  1  0.18505520  0.86929180  0.24770012  1
  Cl  Cl14  1  0.73761401  0.07016970  0.16977364  1
  Cl  Cl15  1  0.81494480  0.13070820  0.75229988  1
  Cl  Cl16  1  0.73761401  0.42983030  0.66977364  1
  Cl  Cl17  1  0.81494480  0.36929180  0.25229988  1
  Cl  Cl18  1  0.26238599  0.57016970  0.33022636  1
  Cl  Cl19  1  0.18505520  0.63070820  0.74770012  1
  F  F20  1  0.02748241  0.70509861  0.50862168  1
  F  F21  1  0.13993467  0.32870403  0.69345073  1
  F  F22  1  0.56711332  0.30111827  0.38113856  1
  F  F23  1  0.13993467  0.17129597  0.19345073  1
  F  F24  1  0.28338676  0.42163903  0.52921307  1
  F  F25  1  0.75599780  0.83031464  0.56190294  1
  F  F26  1  0.02748241  0.79490139  0.00862168  1
  F  F27  1  0.24400220  0.33031464  0.93809706  1
  F  F28  1  0.50181249  0.09696252  0.31599537  1
  F  F29  1  0.41758275  0.30049713  0.14132306  1
  F  F30  1  0.24400220  0.16968536  0.43809706  1
  F  F31  1  0.56711332  0.19888173  0.88113856  1
  F  F32  1  0.49818751  0.90303748  0.68400463  1
  F  F33  1  0.75599780  0.66968536  0.06190294  1
  F  F34  1  0.32466785  0.62034288  0.03139747  1
  F  F35  1  0.71661324  0.92163903  0.97078693  1
  F  F36  1  0.86006533  0.82870403  0.80654927  1
  F  F37  1  0.50181249  0.40303748  0.81599537  1
  F  F38  1  0.41758275  0.19950287  0.64132306  1
  F  F39  1  0.97251759  0.29490139  0.49137832  1
  F  F40  1  0.43288668  0.69888173  0.61886144  1
  F  F41  1  0.11133759  0.07652941  0.60714885  1
  F  F42  1  0.67533215  0.37965712  0.96860253  1
  F  F43  1  0.32466785  0.87965712  0.53139747  1
  F  F44  1  0.28338676  0.07836097  0.02921307  1
  F  F45  1  0.88866241  0.57652941  0.89285115  1
  F  F46  1  0.11133759  0.42347059  0.10714885  1
  F  F47  1  0.67533215  0.12034288  0.46860253  1
  F  F48  1  0.49818751  0.59696252  0.18400463  1
  F  F49  1  0.86006533  0.67129597  0.30654927  1
  F  F50  1  0.88866241  0.92347059  0.39285115  1
  F  F51  1  0.58241725  0.69950287  0.85867694  1
  F  F52  1  0.97251759  0.20509861  0.99137832  1
  F  F53  1  0.58241725  0.80049713  0.35867694  1
  F  F54  1  0.71661324  0.57836097  0.47078693  1
  F  F55  1  0.43288668  0.80111827  0.11886144  1
