# generated using pymatgen
data_LaGaO3
_symmetry_space_group_name_H-M   'P 1'
_cell_length_a   5.53979181
_cell_length_b   5.59392379
_cell_length_c   7.85333423
_cell_angle_alpha   90.00000000
_cell_angle_beta   90.00000000
_cell_angle_gamma   90.00000000
_symmetry_Int_Tables_number   1
_chemical_formula_structural   LaGaO3
_chemical_formula_sum   'La4 Ga4 O12'
_cell_volume   243.36833463
_cell_formula_units_Z   4
loop_
 _symmetry_equiv_pos_site_id
 _symmetry_equiv_pos_as_xyz
  1  'x, y, z'
loop_
 _atom_site_type_symbol
 _atom_site_label
 _atom_site_symmetry_multiplicity
 _atom_site_fract_x
 _atom_site_fract_y
 _atom_site_fract_z
 _atom_site_occupancy
  La  La0  1  0.99969901  0.99128785  0.75000000  1
  La  La1  1  0.50030099  0.49128785  0.25000000  1
  La  La2  1  0.00030099  0.00871215  0.25000000  1
  La  La3  1  0.49969901  0.50871215  0.75000000  1
  Ga  Ga4  1  0.00000000  0.50000000  0.50000000  1
  Ga  Ga5  1  0.50000000  0.00000000  0.50000000  1
  Ga  Ga6  1  0.50000000  0.00000000  0.00000000  1
  Ga  Ga7  1  0.00000000  0.50000000  0.00000000  1
  O  O8  1  0.24957007  0.75028837  0.95473836  1
  O  O9  1  0.24957007  0.75028837  0.54526164  1
  O  O10  1  0.74957007  0.74971163  0.95473836  1
  O  O11  1  0.75042993  0.24971163  0.04526164  1
  O  O12  1  0.25042993  0.25028837  0.04526164  1
  O  O13  1  0.50013436  0.08162783  0.75000000  1
  O  O14  1  0.99986564  0.58162783  0.25000000  1
  O  O15  1  0.49986564  0.91837217  0.25000000  1
  O  O16  1  0.75042993  0.24971163  0.45473836  1
  O  O17  1  0.74957007  0.74971163  0.54526164  1
  O  O18  1  0.25042993  0.25028837  0.45473836  1
  O  O19  1  0.00013436  0.41837217  0.75000000  1
