# generated using pymatgen
data_Ca3Mg(SiO4)2
_symmetry_space_group_name_H-M   'P 1'
_cell_length_a   5.35133455
_cell_length_b   9.46807457
_cell_length_c   13.39481205
_cell_angle_alpha   92.35690158
_cell_angle_beta   90.00000000
_cell_angle_gamma   90.00000000
_symmetry_Int_Tables_number   1
_chemical_formula_structural   Ca3Mg(SiO4)2
_chemical_formula_sum   'Ca12 Mg4 Si8 O32'
_cell_volume   678.09860075
_cell_formula_units_Z   4
loop_
 _symmetry_equiv_pos_site_id
 _symmetry_equiv_pos_as_xyz
  1  'x, y, z'
loop_
 _atom_site_type_symbol
 _atom_site_label
 _atom_site_symmetry_multiplicity
 _atom_site_fract_x
 _atom_site_fract_y
 _atom_site_fract_z
 _atom_site_occupancy
  Ca  Ca0  1  0.25907553  0.57686886  0.90230318  1
  Ca  Ca1  1  0.67658293  0.77704570  0.24353782  1
  Ca  Ca2  1  0.82341707  0.77704570  0.74353782  1
  Ca  Ca3  1  0.32341707  0.22295430  0.75646218  1
  Ca  Ca4  1  0.76834302  0.07572542  0.91934603  1
  Ca  Ca5  1  0.24092447  0.57686886  0.40230318  1
  Ca  Ca6  1  0.17658293  0.22295430  0.25646218  1
  Ca  Ca7  1  0.73165698  0.07572542  0.41934603  1
  Ca  Ca8  1  0.23165698  0.92427458  0.08065397  1
  Ca  Ca9  1  0.75907553  0.42313114  0.59769682  1
  Ca  Ca10  1  0.74092447  0.42313114  0.09769682  1
  Ca  Ca11  1  0.26834302  0.92427458  0.58065397  1
  Mg  Mg12  1  0.74256646  0.74643182  0.99566021  1
  Mg  Mg13  1  0.75743354  0.74643182  0.49566021  1
  Mg  Mg14  1  0.24256646  0.25356818  0.50433979  1
  Mg  Mg15  1  0.25743354  0.25356818  0.00433979  1
  Si  Si16  1  0.77303378  0.09400136  0.64142149  1
  Si  Si17  1  0.77180073  0.39804513  0.86756013  1
  Si  Si18  1  0.22696622  0.90599864  0.35857851  1
  Si  Si19  1  0.72696622  0.09400136  0.14142149  1
  Si  Si20  1  0.27180073  0.60195487  0.63243987  1
  Si  Si21  1  0.72819927  0.39804513  0.36756013  1
  Si  Si22  1  0.27303378  0.90599864  0.85857851  1
  Si  Si23  1  0.22819927  0.60195487  0.13243987  1
  O  O24  1  0.02943408  0.18584382  0.62780672  1
  O  O25  1  0.58456467  0.30366383  0.93750335  1
  O  O26  1  0.08456467  0.69633617  0.56249665  1
  O  O27  1  0.18577515  0.93030980  0.74468424  1
  O  O28  1  0.52943408  0.81415618  0.87219328  1
  O  O29  1  0.31422485  0.93030980  0.24468424  1
  O  O30  1  0.04359763  0.82403996  0.91701775  1
  O  O31  1  0.86147895  0.40292777  0.25864082  1
  O  O32  1  0.91543533  0.30366383  0.43750335  1
  O  O33  1  0.29707345  0.05849402  0.92348283  1
  O  O34  1  0.97056592  0.81415618  0.37219328  1
  O  O35  1  0.45640237  0.82403996  0.41701775  1
  O  O36  1  0.79707345  0.94150598  0.57651717  1
  O  O37  1  0.94900681  0.67679272  0.12580453  1
  O  O38  1  0.68577515  0.06969020  0.75531576  1
  O  O39  1  0.13852105  0.59707223  0.74135918  1
  O  O40  1  0.21065251  0.44657467  0.07306459  1
  O  O41  1  0.20292655  0.05849402  0.42348283  1
  O  O42  1  0.78934749  0.55342533  0.92693541  1
  O  O43  1  0.41543533  0.69633617  0.06249665  1
  O  O44  1  0.05099319  0.32320728  0.87419547  1
  O  O45  1  0.36147895  0.59707223  0.24135918  1
  O  O46  1  0.54359763  0.17596004  0.58298225  1
  O  O47  1  0.71065251  0.55342533  0.42693541  1
  O  O48  1  0.81422485  0.06969020  0.25531576  1
  O  O49  1  0.55099319  0.67679272  0.62580453  1
  O  O50  1  0.44900681  0.32320728  0.37419547  1
  O  O51  1  0.47056592  0.18584382  0.12780672  1
  O  O52  1  0.95640237  0.17596004  0.08298225  1
  O  O53  1  0.63852105  0.40292777  0.75864082  1
  O  O54  1  0.70292655  0.94150598  0.07651717  1
  O  O55  1  0.28934749  0.44657467  0.57306459  1
