# generated using pymatgen
data_Na3VSO3
_symmetry_space_group_name_H-M   'P 1'
_cell_length_a   6.48428516
_cell_length_b   6.48428511
_cell_length_c   6.48428476
_cell_angle_alpha   83.84708754
_cell_angle_beta   83.84708756
_cell_angle_gamma   83.84708227
_symmetry_Int_Tables_number   1
_chemical_formula_structural   Na3VSO3
_chemical_formula_sum   'Na6 V2 S2 O6'
_cell_volume   268.24005188
_cell_formula_units_Z   2
loop_
 _symmetry_equiv_pos_site_id
 _symmetry_equiv_pos_as_xyz
  1  'x, y, z'
loop_
 _atom_site_type_symbol
 _atom_site_label
 _atom_site_symmetry_multiplicity
 _atom_site_fract_x
 _atom_site_fract_y
 _atom_site_fract_z
 _atom_site_occupancy
  Na  Na0  1  0.70652491  0.09378443  0.39735977  1
  Na  Na1  1  0.59378443  0.20652491  0.89735977  1
  Na  Na2  1  0.20652491  0.89735977  0.59378443  1
  Na  Na3  1  0.39735977  0.70652491  0.09378443  1
  Na  Na4  1  0.09378443  0.39735977  0.70652491  1
  Na  Na5  1  0.89735977  0.59378443  0.20652491  1
  V  V6  1  0.68162855  0.68162855  0.68162855  1
  V  V7  1  0.18162855  0.18162855  0.18162855  1
  S  S8  1  0.49985922  0.49985922  0.49985922  1
  S  S9  1  0.99985922  0.99985922  0.99985922  1
  O  O10  1  0.53730391  0.91615500  0.72157421  1
  O  O11  1  0.72157421  0.53730391  0.91615500  1
  O  O12  1  0.91615500  0.72157421  0.53730391  1
  O  O13  1  0.22157421  0.41615500  0.03730391  1
  O  O14  1  0.41615500  0.03730391  0.22157421  1
  O  O15  1  0.03730391  0.22157421  0.41615500  1
