# generated using pymatgen
data_K4Sb2N3O9F7
_symmetry_space_group_name_H-M   'P 1'
_cell_length_a   8.75656275
_cell_length_b   9.12669211
_cell_length_c   20.29097441
_cell_angle_alpha   90.00000000
_cell_angle_beta   90.00000000
_cell_angle_gamma   90.00000000
_symmetry_Int_Tables_number   1
_chemical_formula_structural   K4Sb2N3O9F7
_chemical_formula_sum   'K16 Sb8 N12 O36 F28'
_cell_volume   1621.62326769
_cell_formula_units_Z   4
loop_
 _symmetry_equiv_pos_site_id
 _symmetry_equiv_pos_as_xyz
  1  'x, y, z'
loop_
 _atom_site_type_symbol
 _atom_site_label
 _atom_site_symmetry_multiplicity
 _atom_site_fract_x
 _atom_site_fract_y
 _atom_site_fract_z
 _atom_site_occupancy
  K  K0  1  0.67667852  0.66468199  0.99662388  1
  K  K1  1  0.81244565  0.16883371  0.67850035  1
  K  K2  1  0.82332148  0.83531801  0.49662388  1
  K  K3  1  0.17667852  0.83531801  0.00337612  1
  K  K4  1  0.32332148  0.66468199  0.50337612  1
  K  K5  1  0.31244565  0.33116629  0.32149965  1
  K  K6  1  0.82332148  0.16468199  0.99662388  1
  K  K7  1  0.31244565  0.66883371  0.82149965  1
  K  K8  1  0.81244565  0.83116629  0.17850035  1
  K  K9  1  0.18755435  0.16883371  0.82149965  1
  K  K10  1  0.18755435  0.83116629  0.32149965  1
  K  K11  1  0.68755435  0.66883371  0.67850035  1
  K  K12  1  0.68755435  0.33116629  0.17850035  1
  K  K13  1  0.17667852  0.16468199  0.50337612  1
  K  K14  1  0.32332148  0.33531801  0.00337612  1
  K  K15  1  0.67667852  0.33531801  0.49662388  1
  Sb  Sb16  1  0.38666068  0.37981681  0.65364857  1
  Sb  Sb17  1  0.11333932  0.87981681  0.65364857  1
  Sb  Sb18  1  0.61333932  0.37981681  0.84635143  1
  Sb  Sb19  1  0.61333932  0.62018319  0.34635143  1
  Sb  Sb20  1  0.38666068  0.62018319  0.15364857  1
  Sb  Sb21  1  0.88666068  0.12018319  0.34635143  1
  Sb  Sb22  1  0.88666068  0.87981681  0.84635143  1
  Sb  Sb23  1  0.11333932  0.12018319  0.15364857  1
  N  N24  1  0.47015265  0.98608538  0.91754903  1
  N  N25  1  0.47015265  0.01391462  0.41754903  1
  N  N26  1  0.97015265  0.51391462  0.08245097  1
  N  N27  1  0.00000000  0.50990774  0.75000000  1
  N  N28  1  0.02984735  0.51391462  0.41754903  1
  N  N29  1  0.50000000  0.99009226  0.25000000  1
  N  N30  1  0.02984735  0.48608538  0.91754903  1
  N  N31  1  0.52984735  0.01391462  0.08245097  1
  N  N32  1  0.50000000  0.00990774  0.75000000  1
  N  N33  1  0.52984735  0.98608538  0.58245097  1
  N  N34  1  0.97015265  0.48608538  0.58245097  1
  N  N35  1  0.00000000  0.49009226  0.25000000  1
  O  O36  1  0.03477097  0.65183119  0.42475860  1
  O  O37  1  0.37843326  0.94144497  0.76396629  1
  O  O38  1  0.08848235  0.54655490  0.60651867  1
  O  O39  1  0.00000000  0.64953546  0.75000000  1
  O  O40  1  0.58848235  0.04655490  0.89348133  1
  O  O41  1  0.53477097  0.15183119  0.07524140  1
  O  O42  1  0.87843326  0.44144497  0.73603371  1
  O  O43  1  0.35608225  0.06341957  0.93446984  1
  O  O44  1  0.85608225  0.56341957  0.56553016  1
  O  O45  1  0.91151765  0.45344510  0.39348133  1
  O  O46  1  0.96522903  0.34816881  0.57524140  1
  O  O47  1  0.12156674  0.55855503  0.26396629  1
  O  O48  1  0.08848235  0.45344510  0.10651867  1
  O  O49  1  0.64391775  0.06341957  0.56553016  1
  O  O50  1  0.14391775  0.56341957  0.93446984  1
  O  O51  1  0.12156674  0.44144497  0.76396629  1
  O  O52  1  0.96522903  0.65183119  0.07524140  1
  O  O53  1  0.53477097  0.84816881  0.57524140  1
  O  O54  1  0.37843326  0.05855503  0.26396629  1
  O  O55  1  0.62156674  0.05855503  0.23603371  1
  O  O56  1  0.87843326  0.55855503  0.23603371  1
  O  O57  1  0.91151765  0.54655490  0.89348133  1
  O  O58  1  0.46522903  0.15183119  0.42475860  1
  O  O59  1  0.50000000  0.85046454  0.25000000  1
  O  O60  1  0.85608225  0.43658043  0.06553016  1
  O  O61  1  0.41151765  0.95344510  0.10651867  1
  O  O62  1  0.03477097  0.34816881  0.92475860  1
  O  O63  1  0.64391775  0.93658043  0.06553016  1
  O  O64  1  0.50000000  0.14953546  0.75000000  1
  O  O65  1  0.58848235  0.95344510  0.39348133  1
  O  O66  1  0.35608225  0.93658043  0.43446984  1
  O  O67  1  0.62156674  0.94144497  0.73603371  1
  O  O68  1  0.14391775  0.43658043  0.43446984  1
  O  O69  1  0.00000000  0.35046454  0.25000000  1
  O  O70  1  0.46522903  0.84816881  0.92475860  1
  O  O71  1  0.41151765  0.04655490  0.60651867  1
  F  F72  1  0.89619692  0.09442368  0.85713238  1
  F  F73  1  0.37333234  0.37702720  0.55374177  1
  F  F74  1  0.37333234  0.62297280  0.05374177  1
  F  F75  1  0.89619692  0.90557632  0.35713238  1
  F  F76  1  0.00000000  0.04119911  0.25000000  1
  F  F77  1  0.39247393  0.62992097  0.36575819  1
  F  F78  1  0.87333234  0.87702720  0.94625823  1
  F  F79  1  0.00000000  0.95880089  0.75000000  1
  F  F80  1  0.10752607  0.12992097  0.36575819  1
  F  F81  1  0.62666766  0.62297280  0.44625823  1
  F  F82  1  0.39619692  0.59442368  0.64286762  1
  F  F83  1  0.62666766  0.37702720  0.94625823  1
  F  F84  1  0.60380308  0.59442368  0.85713238  1
  F  F85  1  0.89247393  0.12992097  0.13424181  1
  F  F86  1  0.39247393  0.37007903  0.86575819  1
  F  F87  1  0.87333234  0.12297280  0.44625823  1
  F  F88  1  0.39619692  0.40557632  0.14286762  1
  F  F89  1  0.10752607  0.87007903  0.86575819  1
  F  F90  1  0.60752607  0.37007903  0.63424181  1
  F  F91  1  0.89247393  0.87007903  0.63424181  1
  F  F92  1  0.10380308  0.09442368  0.64286762  1
  F  F93  1  0.60752607  0.62992097  0.13424181  1
  F  F94  1  0.12666766  0.12297280  0.05374177  1
  F  F95  1  0.10380308  0.90557632  0.14286762  1
  F  F96  1  0.50000000  0.45880089  0.75000000  1
  F  F97  1  0.50000000  0.54119911  0.25000000  1
  F  F98  1  0.60380308  0.40557632  0.35713238  1
  F  F99  1  0.12666766  0.87702720  0.55374177  1
