# generated using pymatgen
data_Cu3B4Pb2O11
_symmetry_space_group_name_H-M   'P 1'
_cell_length_a   4.78361266
_cell_length_b   6.87475152
_cell_length_c   14.90415345
_cell_angle_alpha   96.62005029
_cell_angle_beta   90.00000000
_cell_angle_gamma   90.00000000
_symmetry_Int_Tables_number   1
_chemical_formula_structural   Cu3B4Pb2O11
_chemical_formula_sum   'Cu6 B8 Pb4 O22'
_cell_volume   486.87218406
_cell_formula_units_Z   2
loop_
 _symmetry_equiv_pos_site_id
 _symmetry_equiv_pos_as_xyz
  1  'x, y, z'
loop_
 _atom_site_type_symbol
 _atom_site_label
 _atom_site_symmetry_multiplicity
 _atom_site_fract_x
 _atom_site_fract_y
 _atom_site_fract_z
 _atom_site_occupancy
  Cu  Cu0  1  0.52147822  0.65272096  0.44153528  1
  Cu  Cu1  1  0.47852178  0.34727904  0.55846472  1
  Cu  Cu2  1  0.52147822  0.84727904  0.05846472  1
  Cu  Cu3  1  0.00000000  0.00000000  0.50000000  1
  Cu  Cu4  1  0.00000000  0.50000000  0.00000000  1
  Cu  Cu5  1  0.47852178  0.15272096  0.94153528  1
  B  B6  1  0.94540657  0.63255408  0.59667412  1
  B  B7  1  0.98856964  0.20023327  0.83922073  1
  B  B8  1  0.94540657  0.86744592  0.90332588  1
  B  B9  1  0.01143036  0.70023327  0.33922073  1
  B  B10  1  0.01143036  0.79976673  0.16077927  1
  B  B11  1  0.98856964  0.29976673  0.66077927  1
  B  B12  1  0.05459343  0.36744592  0.40332588  1
  B  B13  1  0.05459343  0.13255408  0.09667412  1
  Pb  Pb14  1  0.42110420  0.98355669  0.69197557  1
  Pb  Pb15  1  0.42110420  0.51644331  0.80802443  1
  Pb  Pb16  1  0.57889580  0.48355669  0.19197557  1
  Pb  Pb17  1  0.57889580  0.01644331  0.30802443  1
  O  O18  1  0.30105568  0.74990702  0.15081328  1
  O  O19  1  0.93264380  0.31109152  0.08975641  1
  O  O20  1  0.82512891  0.68156358  0.09232357  1
  O  O21  1  0.17487109  0.31843642  0.90767643  1
  O  O22  1  0.70960193  0.57433646  0.54772212  1
  O  O23  1  0.94822567  0.48697195  0.34118368  1
  O  O24  1  0.93264380  0.18890848  0.41024359  1
  O  O25  1  0.70960193  0.92566354  0.95227788  1
  O  O26  1  0.29039807  0.07433646  0.04772212  1
  O  O27  1  0.88995320  0.75000000  0.25000000  1
  O  O28  1  0.29039807  0.42566354  0.45227788  1
  O  O29  1  0.05177433  0.51302805  0.65881632  1
  O  O30  1  0.17487109  0.18156358  0.59232357  1
  O  O31  1  0.06735620  0.81109152  0.58975641  1
  O  O32  1  0.69894432  0.24990702  0.65081328  1
  O  O33  1  0.94822567  0.01302805  0.15881632  1
  O  O34  1  0.06735620  0.68890848  0.91024359  1
  O  O35  1  0.05177433  0.98697195  0.84118368  1
  O  O36  1  0.11004680  0.25000000  0.75000000  1
  O  O37  1  0.82512891  0.81843642  0.40767643  1
  O  O38  1  0.30105568  0.75009298  0.34918672  1
  O  O39  1  0.69894432  0.25009298  0.84918672  1
