# generated using pymatgen
data_K3Hg3S2Cl5O6
_symmetry_space_group_name_H-M   'P 1'
_cell_length_a   6.13855880
_cell_length_b   12.58652963
_cell_length_c   22.75847549
_cell_angle_alpha   90.00000000
_cell_angle_beta   90.00000000
_cell_angle_gamma   90.00000000
_symmetry_Int_Tables_number   1
_chemical_formula_structural   K3Hg3S2Cl5O6
_chemical_formula_sum   'K12 Hg12 S8 Cl20 O24'
_cell_volume   1758.39155612
_cell_formula_units_Z   4
loop_
 _symmetry_equiv_pos_site_id
 _symmetry_equiv_pos_as_xyz
  1  'x, y, z'
loop_
 _atom_site_type_symbol
 _atom_site_label
 _atom_site_symmetry_multiplicity
 _atom_site_fract_x
 _atom_site_fract_y
 _atom_site_fract_z
 _atom_site_occupancy
  K  K0  1  0.75000000  0.13419491  0.48967189  1
  K  K1  1  0.25000000  0.12622848  0.99798084  1
  K  K2  1  0.25000000  0.36889478  0.13293468  1
  K  K3  1  0.25000000  0.63419491  0.01032811  1
  K  K4  1  0.25000000  0.86580509  0.51032811  1
  K  K5  1  0.75000000  0.62622848  0.50201916  1
  K  K6  1  0.75000000  0.63110522  0.86706532  1
  K  K7  1  0.25000000  0.37377152  0.49798084  1
  K  K8  1  0.75000000  0.87377152  0.00201916  1
  K  K9  1  0.75000000  0.36580509  0.98967189  1
  K  K10  1  0.25000000  0.13110522  0.63293468  1
  K  K11  1  0.75000000  0.86889478  0.36706532  1
  Hg  Hg12  1  0.75000000  0.12572623  0.81178404  1
  Hg  Hg13  1  0.25000000  0.87427377  0.18821596  1
  Hg  Hg14  1  0.75000000  0.11304496  0.19122264  1
  Hg  Hg15  1  0.75000000  0.38695504  0.69122264  1
  Hg  Hg16  1  0.25000000  0.88695504  0.80877736  1
  Hg  Hg17  1  0.25000000  0.14098457  0.31403438  1
  Hg  Hg18  1  0.25000000  0.62572623  0.68821596  1
  Hg  Hg19  1  0.25000000  0.61304496  0.30877736  1
  Hg  Hg20  1  0.75000000  0.37427377  0.31178404  1
  Hg  Hg21  1  0.75000000  0.85901543  0.68596562  1
  Hg  Hg22  1  0.75000000  0.64098457  0.18596562  1
  Hg  Hg23  1  0.25000000  0.35901543  0.81403438  1
  S  S24  1  0.25000000  0.83951885  0.91287853  1
  S  S25  1  0.25000000  0.42188280  0.91623908  1
  S  S26  1  0.75000000  0.16048115  0.08712147  1
  S  S27  1  0.25000000  0.66048115  0.41287853  1
  S  S28  1  0.25000000  0.07811720  0.41623908  1
  S  S29  1  0.75000000  0.33951885  0.58712147  1
  S  S30  1  0.75000000  0.92188280  0.58376092  1
  S  S31  1  0.75000000  0.57811720  0.08376092  1
  Cl  Cl32  1  0.75000000  0.37226275  0.41560563  1
  Cl  Cl33  1  0.25000000  0.36998191  0.30899929  1
  Cl  Cl34  1  0.75000000  0.63001809  0.69100071  1
  Cl  Cl35  1  0.25000000  0.36665462  0.70449403  1
  Cl  Cl36  1  0.25000000  0.61111250  0.20031410  1
  Cl  Cl37  1  0.25000000  0.13334538  0.20449403  1
  Cl  Cl38  1  0.25000000  0.87345838  0.29249134  1
  Cl  Cl39  1  0.25000000  0.62773725  0.58439437  1
  Cl  Cl40  1  0.75000000  0.37345838  0.20750866  1
  Cl  Cl41  1  0.75000000  0.11111250  0.29968590  1
  Cl  Cl42  1  0.25000000  0.62654162  0.79249134  1
  Cl  Cl43  1  0.75000000  0.86665462  0.79550597  1
  Cl  Cl44  1  0.25000000  0.88888750  0.70031410  1
  Cl  Cl45  1  0.75000000  0.12773725  0.91560563  1
  Cl  Cl46  1  0.75000000  0.38888750  0.79968590  1
  Cl  Cl47  1  0.75000000  0.86998191  0.19100071  1
  Cl  Cl48  1  0.75000000  0.12654162  0.70750866  1
  Cl  Cl49  1  0.25000000  0.13001809  0.80899929  1
  Cl  Cl50  1  0.25000000  0.87226275  0.08439437  1
  Cl  Cl51  1  0.75000000  0.63334538  0.29550597  1
  O  O52  1  0.25000000  0.17115604  0.45625767  1
  O  O53  1  0.95014439  0.98708103  0.57595956  1
  O  O54  1  0.94986721  0.22453101  0.07629976  1
  O  O55  1  0.45014439  0.48708103  0.92404044  1
  O  O56  1  0.95014439  0.51291897  0.07595956  1
  O  O57  1  0.05013279  0.77546899  0.92370024  1
  O  O58  1  0.55013279  0.27546899  0.57629976  1
  O  O59  1  0.75000000  0.82884396  0.54374233  1
  O  O60  1  0.75000000  0.06144782  0.05246268  1
  O  O61  1  0.25000000  0.93855218  0.94753732  1
  O  O62  1  0.44986721  0.72453101  0.42370024  1
  O  O63  1  0.25000000  0.32884396  0.95625767  1
  O  O64  1  0.54985561  0.98708103  0.57595956  1
  O  O65  1  0.04985561  0.48708103  0.92404044  1
  O  O66  1  0.25000000  0.56144782  0.44753732  1
  O  O67  1  0.55013279  0.22453101  0.07629976  1
  O  O68  1  0.44986721  0.77546899  0.92370024  1
  O  O69  1  0.45014439  0.01291897  0.42404044  1
  O  O70  1  0.94986721  0.27546899  0.57629976  1
  O  O71  1  0.75000000  0.67115604  0.04374233  1
  O  O72  1  0.04985561  0.01291897  0.42404044  1
  O  O73  1  0.05013279  0.72453101  0.42370024  1
  O  O74  1  0.54985561  0.51291897  0.07595956  1
  O  O75  1  0.75000000  0.43855218  0.55246268  1
