# generated using pymatgen
data_SbSO2F5
_symmetry_space_group_name_H-M   'P 1'
_cell_length_a   5.95643018
_cell_length_b   10.35875870
_cell_length_c   10.74275390
_cell_angle_alpha   90.00000000
_cell_angle_beta   90.00000000
_cell_angle_gamma   102.45216367
_symmetry_Int_Tables_number   1
_chemical_formula_structural   SbSO2F5
_chemical_formula_sum   'Sb4 S4 O8 F20'
_cell_volume   647.24862753
_cell_formula_units_Z   4
loop_
 _symmetry_equiv_pos_site_id
 _symmetry_equiv_pos_as_xyz
  1  'x, y, z'
loop_
 _atom_site_type_symbol
 _atom_site_label
 _atom_site_symmetry_multiplicity
 _atom_site_fract_x
 _atom_site_fract_y
 _atom_site_fract_z
 _atom_site_occupancy
  Sb  Sb0  1  0.30826903  0.23046128  0.54137559  1
  Sb  Sb1  1  0.80826903  0.73046128  0.95862441  1
  Sb  Sb2  1  0.69173097  0.76953872  0.45862441  1
  Sb  Sb3  1  0.19173097  0.26953872  0.04137559  1
  S  S4  1  0.41187505  0.93514627  0.25247508  1
  S  S5  1  0.58812495  0.06485373  0.74752492  1
  S  S6  1  0.91187505  0.43514627  0.24752492  1
  S  S7  1  0.08812495  0.56485373  0.75247508  1
  O  O8  1  0.39013503  0.95958695  0.76170910  1
  O  O9  1  0.10986497  0.54041305  0.26170910  1
  O  O10  1  0.93572376  0.32434444  0.16300462  1
  O  O11  1  0.89013503  0.45958695  0.73829090  1
  O  O12  1  0.60986497  0.04041305  0.23829090  1
  O  O13  1  0.43572376  0.82434444  0.33699538  1
  O  O14  1  0.06427624  0.67565556  0.83699538  1
  O  O15  1  0.56427624  0.17565556  0.66300462  1
  F  F16  1  0.91290616  0.84426665  0.33644893  1
  F  F17  1  0.27910531  0.05952029  0.46727243  1
  F  F18  1  0.59055106  0.78166611  0.06699082  1
  F  F19  1  0.90944894  0.71833389  0.56699082  1
  F  F20  1  0.58709384  0.65573335  0.83644893  1
  F  F21  1  0.56587887  0.29473679  0.43728431  1
  F  F22  1  0.40944894  0.21833389  0.93300918  1
  F  F23  1  0.77910531  0.55952029  0.03272757  1
  F  F24  1  0.13182188  0.10730006  0.13098092  1
  F  F25  1  0.86817812  0.89269994  0.86901908  1
  F  F26  1  0.08709384  0.15573335  0.66355107  1
  F  F27  1  0.06587887  0.79473679  0.06271569  1
  F  F28  1  0.63182188  0.60730006  0.36901908  1
  F  F29  1  0.72089469  0.94047971  0.53272757  1
  F  F30  1  0.09055106  0.28166611  0.43300918  1
  F  F31  1  0.36817812  0.39269994  0.63098092  1
  F  F32  1  0.41290616  0.34426665  0.16355107  1
  F  F33  1  0.93412113  0.20526321  0.93728431  1
  F  F34  1  0.22089469  0.44047971  0.96727243  1
  F  F35  1  0.43412113  0.70526321  0.56271569  1
