# generated using pymatgen
data_Ce2O3
_symmetry_space_group_name_H-M   'P 1'
_cell_length_a   3.70475866
_cell_length_b   7.45217597
_cell_length_c   8.98373086
_cell_angle_alpha   99.91149513
_cell_angle_beta   90.00000000
_cell_angle_gamma   104.39284438
_symmetry_Int_Tables_number   1
_chemical_formula_structural   Ce2O3
_chemical_formula_sum   'Ce6 O9'
_cell_volume   236.41920191
_cell_formula_units_Z   3
loop_
 _symmetry_equiv_pos_site_id
 _symmetry_equiv_pos_as_xyz
  1  'x, y, z'
loop_
 _atom_site_type_symbol
 _atom_site_label
 _atom_site_symmetry_multiplicity
 _atom_site_fract_x
 _atom_site_fract_y
 _atom_site_fract_z
 _atom_site_occupancy
  Ce  Ce0  1  0.36662783  0.73325566  0.51036971  1
  Ce  Ce1  1  0.31122485  0.62244970  0.86102528  1
  Ce  Ce2  1  0.63337217  0.26674434  0.48963029  1
  Ce  Ce3  1  0.03291078  0.06582155  0.81413174  1
  Ce  Ce4  1  0.96708922  0.93417845  0.18586826  1
  Ce  Ce5  1  0.68877515  0.37755030  0.13897472  1
  O  O6  1  0.79804204  0.59608408  0.37331536  1
  O  O7  1  0.12791814  0.25583628  0.28556749  1
  O  O8  1  0.52728842  0.05457685  0.65859489  1
  O  O9  1  0.20195796  0.40391592  0.62668464  1
  O  O10  1  0.17657419  0.35314838  0.97154417  1
  O  O11  1  0.82342581  0.64685162  0.02845583  1
  O  O12  1  0.47271158  0.94542315  0.34140511  1
  O  O13  1  0.50000000  0.00000000  0.00000000  1
  O  O14  1  0.87208186  0.74416372  0.71443251  1
