# generated using pymatgen
data_Ca2SiO4
_symmetry_space_group_name_H-M   'P 1'
_cell_length_a   5.59797978
_cell_length_b   9.34881471
_cell_length_c   20.53646704
_cell_angle_alpha   90.00000000
_cell_angle_beta   90.00000000
_cell_angle_gamma   90.00000000
_symmetry_Int_Tables_number   1
_chemical_formula_structural   Ca2SiO4
_chemical_formula_sum   'Ca24 Si12 O48'
_cell_volume   1074.76523555
_cell_formula_units_Z   12
loop_
 _symmetry_equiv_pos_site_id
 _symmetry_equiv_pos_as_xyz
  1  'x, y, z'
loop_
 _atom_site_type_symbol
 _atom_site_label
 _atom_site_symmetry_multiplicity
 _atom_site_fract_x
 _atom_site_fract_y
 _atom_site_fract_z
 _atom_site_occupancy
  Ca  Ca0  1  0.24056669  0.57381149  0.72092659  1
  Ca  Ca1  1  0.78193349  0.05898129  0.44263350  1
  Ca  Ca2  1  0.76505985  0.42709676  0.61015244  1
  Ca  Ca3  1  0.28193349  0.55898129  0.05736650  1
  Ca  Ca4  1  0.73994254  0.70350136  0.16385131  1
  Ca  Ca5  1  0.75909600  0.78967518  0.32941248  1
  Ca  Ca6  1  0.74056669  0.42618851  0.27907341  1
  Ca  Ca7  1  0.28997686  0.19966021  0.00406994  1
  Ca  Ca8  1  0.28193349  0.94101871  0.55736650  1
  Ca  Ca9  1  0.23994254  0.29649864  0.83614869  1
  Ca  Ca10  1  0.23994254  0.20350136  0.33614869  1
  Ca  Ca11  1  0.78997686  0.80033979  0.99593006  1
  Ca  Ca12  1  0.75909600  0.71032482  0.82941248  1
  Ca  Ca13  1  0.78193349  0.44101871  0.94263350  1
  Ca  Ca14  1  0.78997686  0.69966021  0.49593006  1
  Ca  Ca15  1  0.28997686  0.30033979  0.50406994  1
  Ca  Ca16  1  0.76505985  0.07290324  0.11015244  1
  Ca  Ca17  1  0.24056669  0.92618851  0.22092659  1
  Ca  Ca18  1  0.74056669  0.07381149  0.77907341  1
  Ca  Ca19  1  0.25909600  0.21032482  0.67058752  1
  Ca  Ca20  1  0.73994254  0.79649864  0.66385131  1
  Ca  Ca21  1  0.25909600  0.28967518  0.17058752  1
  Ca  Ca22  1  0.26505985  0.57290324  0.38984756  1
  Ca  Ca23  1  0.26505985  0.92709676  0.88984756  1
  Si  Si24  1  0.25879649  0.59244369  0.57170316  1
  Si  Si25  1  0.28649346  0.59250265  0.90401648  1
  Si  Si26  1  0.25879649  0.90755631  0.07170316  1
  Si  Si27  1  0.78649346  0.09250265  0.59598352  1
  Si  Si28  1  0.74405078  0.08021859  0.25912643  1
  Si  Si29  1  0.75879649  0.09244369  0.92829684  1
  Si  Si30  1  0.74405078  0.41978141  0.75912643  1
  Si  Si31  1  0.24405078  0.58021859  0.24087357  1
  Si  Si32  1  0.75879649  0.40755631  0.42829684  1
  Si  Si33  1  0.78649346  0.40749735  0.09598352  1
  Si  Si34  1  0.24405078  0.91978141  0.74087357  1
  Si  Si35  1  0.28649346  0.90749735  0.40401648  1
  O  O36  1  0.02588720  0.66244190  0.92337582  1
  O  O37  1  0.49729313  0.78851414  0.41952068  1
  O  O38  1  0.34072895  0.45026015  0.61432843  1
  O  O39  1  0.53817858  0.29513195  0.74988111  1
  O  O40  1  0.49655936  0.86503904  0.77515727  1
  O  O41  1  0.33524425  0.05032508  0.45089422  1
  O  O42  1  0.83524425  0.55032508  0.04910578  1
  O  O43  1  0.50473352  0.35104710  0.39471177  1
  O  O44  1  0.84072895  0.95026015  0.88567157  1
  O  O45  1  0.99729313  0.21148586  0.58047932  1
  O  O46  1  0.96706393  0.21696594  0.92365508  1
  O  O47  1  0.79727996  0.45529211  0.17197561  1
  O  O48  1  0.18985445  0.54853688  0.49703859  1
  O  O49  1  -0.00344064  0.13496096  0.22484273  1
  O  O50  1  0.18985445  0.95146312  0.99703859  1
  O  O51  1  0.46706393  0.78303406  0.07634492  1
  O  O52  1  0.49729313  0.71148586  0.91952068  1
  O  O53  1  0.79888384  0.04600508  0.33516849  1
  O  O54  1  0.00473352  0.64895290  0.60528823  1
  O  O55  1  0.99729313  0.28851414  0.08047932  1
  O  O56  1  0.66767668  0.93221577  0.21927354  1
  O  O57  1  0.52588720  0.16244190  0.57662418  1
  O  O58  1  0.00473352  0.85104710  0.10528823  1
  O  O59  1  0.16767668  0.43221577  0.28072646  1
  O  O60  1  0.79727996  0.04470789  0.67197561  1
  O  O61  1  0.66767668  0.56778423  0.71927354  1
  O  O62  1  0.46706393  0.71696594  0.57634492  1
  O  O63  1  0.16767668  0.06778423  0.78072646  1
  O  O64  1  0.03817858  0.79513195  0.75011889  1
  O  O65  1  0.29727996  0.95529211  0.32802439  1
  O  O66  1  0.68985445  0.04853688  0.00296141  1
  O  O67  1  0.79888384  0.45399492  0.83516849  1
  O  O68  1  0.29888384  0.54600508  0.16483151  1
  O  O69  1  -0.00344064  0.36503904  0.72484273  1
  O  O70  1  0.68985445  0.45146312  0.50296141  1
  O  O71  1  0.33524425  0.44967492  0.95089422  1
  O  O72  1  0.02588720  0.83755810  0.42337582  1
  O  O73  1  0.50473352  0.14895290  0.89471177  1
  O  O74  1  0.34072895  0.04973985  0.11432843  1
  O  O75  1  0.53817858  0.20486805  0.24988111  1
  O  O76  1  0.84072895  0.54973985  0.38567157  1
  O  O77  1  0.29888384  0.95399492  0.66483151  1
  O  O78  1  0.52588720  0.33755810  0.07662418  1
  O  O79  1  0.83524425  0.94967492  0.54910578  1
  O  O80  1  0.49655936  0.63496096  0.27515727  1
  O  O81  1  0.96706393  0.28303406  0.42365508  1
  O  O82  1  0.03817858  0.70486805  0.25011889  1
  O  O83  1  0.29727996  0.54470789  0.82802439  1
