# generated using pymatgen
data_TiFe2O5
_symmetry_space_group_name_H-M   'P 1'
_cell_length_a   3.80310693
_cell_length_b   9.93698816
_cell_length_c   11.31782923
_cell_angle_alpha   115.16051393
_cell_angle_beta   99.67237600
_cell_angle_gamma   89.99999642
_symmetry_Int_Tables_number   1
_chemical_formula_structural   TiFe2O5
_chemical_formula_sum   'Ti4 Fe8 O20'
_cell_volume   380.40701817
_cell_formula_units_Z   4
loop_
 _symmetry_equiv_pos_site_id
 _symmetry_equiv_pos_as_xyz
  1  'x, y, z'
loop_
 _atom_site_type_symbol
 _atom_site_label
 _atom_site_symmetry_multiplicity
 _atom_site_fract_x
 _atom_site_fract_y
 _atom_site_fract_z
 _atom_site_occupancy
  Ti  Ti0  1  0.71917878  0.85142308  0.43835757  1
  Ti  Ti1  1  0.87721983  0.06153914  0.75443966  1
  Ti  Ti2  1  0.12278017  0.93846086  0.24556034  1
  Ti  Ti3  1  0.28082122  0.14857692  0.56164243  1
  Fe  Fe4  1  0.03206537  0.17406724  0.06413074  1
  Fe  Fe5  1  0.21722611  0.36090298  0.43445122  1
  Fe  Fe6  1  0.37561973  0.56618769  0.75124045  1
  Fe  Fe7  1  0.96793463  0.82593276  0.93586926  1
  Fe  Fe8  1  0.52748298  0.66358581  0.05496596  1
  Fe  Fe9  1  0.62438027  0.43381231  0.24875955  1
  Fe  Fe10  1  0.78277389  0.63909702  0.56554878  1
  Fe  Fe11  1  0.47251702  0.33641419  0.94503404  1
  O  O12  1  0.46504960  0.77406487  0.93009819  1
  O  O13  1  0.55897569  0.51135210  0.11795138  1
  O  O14  1  0.53495040  0.22593513  0.06990181  1
  O  O15  1  0.87555356  0.63693887  0.75110612  1
  O  O16  1  0.21467783  0.90197579  0.42935666  1
  O  O17  1  0.71396993  0.40812522  0.42793986  1
  O  O18  1  0.19232111  0.13992195  0.38464223  1
  O  O19  1  0.78532217  0.09802421  0.57064334  1
  O  O20  1  0.06080656  0.01237999  0.12161413  1
  O  O21  1  0.04339727  0.73725108  0.08679454  1
  O  O22  1  0.12444644  0.36306113  0.24889388  1
  O  O23  1  0.30878407  0.34624473  0.61756713  1
  O  O24  1  0.69121593  0.65375527  0.38243287  1
  O  O25  1  0.28603007  0.59187478  0.57206014  1
  O  O26  1  0.44102431  0.48864790  0.88204862  1
  O  O27  1  0.80767889  0.86007805  0.61535877  1
  O  O28  1  0.36824779  0.11482721  0.73649659  1
  O  O29  1  0.95660273  0.26274892  0.91320546  1
  O  O30  1  0.93919244  0.98762001  0.87838587  1
  O  O31  1  0.63175221  0.88517279  0.26350341  1
