# generated using pymatgen
data_LiAsO3
_symmetry_space_group_name_H-M   'P 1'
_cell_length_a   5.35774680
_cell_length_b   7.08408279
_cell_length_c   7.08408345
_cell_angle_alpha   84.99781447
_cell_angle_beta   74.47176974
_cell_angle_gamma   74.47177353
_symmetry_Int_Tables_number   1
_chemical_formula_structural   LiAsO3
_chemical_formula_sum   'Li4 As4 O12'
_cell_volume   249.56920585
_cell_formula_units_Z   4
loop_
 _symmetry_equiv_pos_site_id
 _symmetry_equiv_pos_as_xyz
  1  'x, y, z'
loop_
 _atom_site_type_symbol
 _atom_site_label
 _atom_site_symmetry_multiplicity
 _atom_site_fract_x
 _atom_site_fract_y
 _atom_site_fract_z
 _atom_site_occupancy
  Li  Li0  1  0.75000000  0.21158409  0.78841591  1
  Li  Li1  1  0.75000000  0.88515516  0.11484484  1
  Li  Li2  1  0.25000000  0.78841591  0.21158409  1
  Li  Li3  1  0.25000000  0.11484484  0.88515516  1
  As  As4  1  0.26712043  0.61355084  0.80421097  1
  As  As5  1  0.73287957  0.38644916  0.19578903  1
  As  As6  1  0.23287957  0.19578903  0.38644916  1
  As  As7  1  0.76712043  0.80421097  0.61355084  1
  O  O8  1  0.53080546  0.66856841  0.60835855  1
  O  O9  1  0.35864272  0.03373324  0.20439862  1
  O  O10  1  0.87266516  0.87371116  0.38032465  1
  O  O11  1  0.46919454  0.33143159  0.39164145  1
  O  O12  1  0.14135728  0.79560138  0.96626676  1
  O  O13  1  0.12733484  0.12628884  0.61967535  1
  O  O14  1  0.85864272  0.20439862  0.03373324  1
  O  O15  1  0.96919454  0.39164145  0.33143159  1
  O  O16  1  0.37266516  0.38032465  0.87371116  1
  O  O17  1  0.03080546  0.60835855  0.66856841  1
  O  O18  1  0.64135728  0.96626676  0.79560138  1
  O  O19  1  0.62733484  0.61967535  0.12628884  1
