# generated using pymatgen
data_Ge23Mo13
_symmetry_space_group_name_H-M   'P 1'
_cell_length_a   6.03274332
_cell_length_b   6.03274332
_cell_length_c   64.13074339
_cell_angle_alpha   90.00000000
_cell_angle_beta   90.00000000
_cell_angle_gamma   90.00000000
_symmetry_Int_Tables_number   1
_chemical_formula_structural   Ge23Mo13
_chemical_formula_sum   'Ge92 Mo52'
_cell_volume   2333.97375965
_cell_formula_units_Z   4
loop_
 _symmetry_equiv_pos_site_id
 _symmetry_equiv_pos_as_xyz
  1  'x, y, z'
loop_
 _atom_site_type_symbol
 _atom_site_label
 _atom_site_symmetry_multiplicity
 _atom_site_fract_x
 _atom_site_fract_y
 _atom_site_fract_z
 _atom_site_occupancy
  Ge  Ge0  1  0.83591162  0.15663717  0.42359052  1
  Ge  Ge1  1  0.79393302  0.85022862  0.96612764  1
  Ge  Ge2  1  0.18910612  0.85063580  0.11825685  1
  Ge  Ge3  1  0.16902661  0.34621326  0.40281979  1
  Ge  Ge4  1  0.71599950  0.85006907  0.35972446  1
  Ge  Ge5  1  0.65067938  0.74579294  0.83704755  1
  Ge  Ge6  1  0.21599950  0.64993093  0.85972446  1
  Ge  Ge7  1  0.15049520  0.22489926  0.18563568  1
  Ge  Ge8  1  0.84932062  0.24579294  0.33704755  1
  Ge  Ge9  1  0.14929019  0.30299943  0.79207812  1
  Ge  Ge10  1  0.64993093  0.78400050  0.14027554  1
  Ge  Ge11  1  0.85063580  0.81089388  0.88174315  1
  Ge  Ge12  1  0.34621326  0.83097339  0.59718021  1
  Ge  Ge13  1  0.67457591  0.34843129  0.77078700  1
  Ge  Ge14  1  0.34932062  0.25420706  0.83704755  1
  Ge  Ge15  1  0.65049520  0.27510074  0.68563568  1
  Ge  Ge16  1  0.80299943  0.64929019  0.70792188  1
  Ge  Ge17  1  0.31856270  0.15013218  0.05551954  1
  Ge  Ge18  1  0.64977138  0.70606698  0.53387236  1
  Ge  Ge19  1  0.35070981  0.80299943  0.29207812  1
  Ge  Ge20  1  0.72489926  0.65049520  0.31436432  1
  Ge  Ge21  1  0.15663717  0.16408838  0.57640948  1
  Ge  Ge22  1  0.27510074  0.34950480  0.31436432  1
  Ge  Ge23  1  0.30299943  0.85070981  0.20792188  1
  Ge  Ge24  1  0.77510074  0.15049520  0.81436432  1
  Ge  Ge25  1  0.15067938  0.75420706  0.33704755  1
  Ge  Ge26  1  0.34963157  0.76513688  0.98859769  1
  Ge  Ge27  1  0.81856270  0.34986782  0.55551954  1
  Ge  Ge28  1  0.15036843  0.26513688  0.48859769  1
  Ge  Ge29  1  0.14993093  0.71599950  0.64027554  1
  Ge  Ge30  1  0.33591162  0.34336283  0.92359052  1
  Ge  Ge31  1  0.24579294  0.15067938  0.66295245  1
  Ge  Ge32  1  0.19700057  0.35070981  0.70792188  1
  Ge  Ge33  1  0.75420706  0.84932062  0.66295245  1
  Ge  Ge34  1  0.35022862  0.29393302  0.53387236  1
  Ge  Ge35  1  0.20606698  0.14977138  0.96612764  1
  Ge  Ge36  1  0.84950480  0.77510074  0.18563568  1
  Ge  Ge37  1  0.15156871  0.82542409  0.72921300  1
  Ge  Ge38  1  0.84012255  0.34012255  0.25000000  1
  Ge  Ge39  1  0.65156871  0.67457591  0.22921300  1
  Ge  Ge40  1  0.17457591  0.15156871  0.27078700  1
  Ge  Ge41  1  0.34986782  0.18143730  0.44448046  1
  Ge  Ge42  1  0.76513688  0.65036843  0.01140231  1
  Ge  Ge43  1  0.84336283  0.83591162  0.57640948  1
  Ge  Ge44  1  0.29393302  0.64977138  0.46612764  1
  Ge  Ge45  1  0.65036843  0.23486312  0.98859769  1
  Ge  Ge46  1  0.82542409  0.84843129  0.27078700  1
  Ge  Ge47  1  0.70606698  0.35022862  0.46612764  1
  Ge  Ge48  1  0.33097339  0.84621326  0.90281979  1
  Ge  Ge49  1  0.26513688  0.84963157  0.51140231  1
  Ge  Ge50  1  0.65378674  0.16902661  0.59718021  1
  Ge  Ge51  1  0.14936420  0.18910612  0.88174315  1
  Ge  Ge52  1  0.18143730  0.65013218  0.55551954  1
  Ge  Ge53  1  0.65663717  0.33591162  0.07640948  1
  Ge  Ge54  1  0.16408838  0.84336283  0.42359052  1
  Ge  Ge55  1  0.84963157  0.73486312  0.48859769  1
  Ge  Ge56  1  0.74579294  0.34932062  0.16295245  1
  Ge  Ge57  1  0.25420706  0.65067938  0.16295245  1
  Ge  Ge58  1  0.15013218  0.68143730  0.94448046  1
  Ge  Ge59  1  0.84843129  0.17457591  0.72921300  1
  Ge  Ge60  1  0.84621326  0.66902661  0.09718021  1
  Ge  Ge61  1  0.32542409  0.65156871  0.77078700  1
  Ge  Ge62  1  0.22489926  0.84950480  0.81436432  1
  Ge  Ge63  1  0.83097339  0.65378674  0.40281979  1
  Ge  Ge64  1  0.28400050  0.14993093  0.35972446  1
  Ge  Ge65  1  0.78400050  0.35006907  0.85972446  1
  Ge  Ge66  1  0.69700057  0.14929019  0.20792188  1
  Ge  Ge67  1  0.66408838  0.65663717  0.92359052  1
  Ge  Ge68  1  0.23486312  0.34963157  0.01140231  1
  Ge  Ge69  1  0.65987745  0.84012255  0.75000000  1
  Ge  Ge70  1  0.68910612  0.64936420  0.61825685  1
  Ge  Ge71  1  0.73486312  0.15036843  0.51140231  1
  Ge  Ge72  1  0.35063580  0.68910612  0.38174315  1
  Ge  Ge73  1  0.84986782  0.31856270  0.94448046  1
  Ge  Ge74  1  0.64936420  0.31089388  0.38174315  1
  Ge  Ge75  1  0.81089388  0.14936420  0.11825685  1
  Ge  Ge76  1  0.14977138  0.79393302  0.03387236  1
  Ge  Ge77  1  0.66902661  0.15378674  0.90281979  1
  Ge  Ge78  1  0.85070981  0.69700057  0.79207812  1
  Ge  Ge79  1  0.85006907  0.28400050  0.64027554  1
  Ge  Ge80  1  0.31089388  0.35063580  0.61825685  1
  Ge  Ge81  1  0.34950480  0.72489926  0.68563568  1
  Ge  Ge82  1  0.64929019  0.19700057  0.29207812  1
  Ge  Ge83  1  0.34012255  0.15987745  0.75000000  1
  Ge  Ge84  1  0.68143730  0.84986782  0.05551954  1
  Ge  Ge85  1  0.34336283  0.66408838  0.07640948  1
  Ge  Ge86  1  0.15987745  0.65987745  0.25000000  1
  Ge  Ge87  1  0.15378674  0.33097339  0.09718021  1
  Ge  Ge88  1  0.34843129  0.32542409  0.22921300  1
  Ge  Ge89  1  0.35006907  0.21599950  0.14027554  1
  Ge  Ge90  1  0.65013218  0.81856270  0.44448046  1
  Ge  Ge91  1  0.85022862  0.20606698  0.03387236  1
  Mo  Mo92  1  0.00000000  0.50000000  0.82662697  1
  Mo  Mo93  1  0.50000000  0.00000000  0.17337303  1
  Mo  Mo94  1  0.50000000  0.00000000  0.78690606  1
  Mo  Mo95  1  0.50000000  0.50000000  0.03988271  1
  Mo  Mo96  1  0.00000000  0.00000000  0.76776249  1
  Mo  Mo97  1  0.00000000  0.00000000  0.46011729  1
  Mo  Mo98  1  0.50000000  0.50000000  0.42247797  1
  Mo  Mo99  1  0.50000000  0.00000000  0.86660642  1
  Mo  Mo100  1  0.00000000  0.00000000  0.84668494  1
  Mo  Mo101  1  0.00000000  0.00000000  0.23223751  1
  Mo  Mo102  1  0.50000000  0.00000000  0.63339358  1
  Mo  Mo103  1  0.00000000  0.50000000  0.21309394  1
  Mo  Mo104  1  0.00000000  0.50000000  0.36660642  1
  Mo  Mo105  1  0.50000000  0.50000000  0.65331506  1
  Mo  Mo106  1  0.00000000  0.00000000  0.30666344  1
  Mo  Mo107  1  0.00000000  0.50000000  0.13339358  1
  Mo  Mo108  1  0.50000000  0.50000000  0.73223751  1
  Mo  Mo109  1  0.50000000  0.00000000  0.32662697  1
  Mo  Mo110  1  0.50000000  0.00000000  0.25000000  1
  Mo  Mo111  1  0.00000000  0.50000000  0.67337303  1
  Mo  Mo112  1  0.00000000  0.00000000  0.07752203  1
  Mo  Mo113  1  0.50000000  0.50000000  0.11374118  1
  Mo  Mo114  1  0.00000000  0.50000000  0.75000000  1
  Mo  Mo115  1  0.50000000  0.50000000  0.57752203  1
  Mo  Mo116  1  0.00000000  0.00000000  0.15331506  1
  Mo  Mo117  1  0.50000000  0.00000000  0.09503100  1
  Mo  Mo118  1  0.00000000  0.50000000  0.44071134  1
  Mo  Mo119  1  0.00000000  0.50000000  0.05928866  1
  Mo  Mo120  1  0.50000000  0.00000000  0.02000187  1
  Mo  Mo121  1  0.50000000  0.50000000  0.88625882  1
  Mo  Mo122  1  0.50000000  0.00000000  0.94071134  1
  Mo  Mo123  1  0.50000000  0.50000000  0.34668494  1
  Mo  Mo124  1  0.50000000  0.50000000  0.96011729  1
  Mo  Mo125  1  0.00000000  0.50000000  0.97999813  1
  Mo  Mo126  1  0.00000000  0.50000000  0.59503100  1
  Mo  Mo127  1  0.50000000  0.50000000  0.26776249  1
  Mo  Mo128  1  0.50000000  0.50000000  0.80666344  1
  Mo  Mo129  1  0.00000000  0.00000000  0.00000000  1
  Mo  Mo130  1  0.00000000  0.00000000  0.69333656  1
  Mo  Mo131  1  0.50000000  0.00000000  0.71309394  1
  Mo  Mo132  1  0.00000000  0.50000000  0.90496900  1
  Mo  Mo133  1  0.00000000  0.50000000  0.52000187  1
  Mo  Mo134  1  0.00000000  0.00000000  0.53988271  1
  Mo  Mo135  1  0.50000000  0.00000000  0.55928866  1
  Mo  Mo136  1  0.00000000  0.50000000  0.28690606  1
  Mo  Mo137  1  0.50000000  0.00000000  0.40496900  1
  Mo  Mo138  1  0.50000000  0.00000000  0.47999813  1
  Mo  Mo139  1  0.50000000  0.50000000  0.19333656  1
  Mo  Mo140  1  0.00000000  0.00000000  0.61374118  1
  Mo  Mo141  1  0.50000000  0.50000000  0.50000000  1
  Mo  Mo142  1  0.00000000  0.00000000  0.92247797  1
  Mo  Mo143  1  0.00000000  0.00000000  0.38625882  1
