# generated using pymatgen
data_Nd10(B3C4)3
_symmetry_space_group_name_H-M   'P 1'
_cell_length_a   8.45931620
_cell_length_b   8.45931620
_cell_length_c   25.32152822
_cell_angle_alpha   90.00000000
_cell_angle_beta   90.00000000
_cell_angle_gamma   90.00000000
_symmetry_Int_Tables_number   1
_chemical_formula_structural   Nd10(B3C4)3
_chemical_formula_sum   'Nd40 B36 C48'
_cell_volume   1812.00933354
_cell_formula_units_Z   4
loop_
 _symmetry_equiv_pos_site_id
 _symmetry_equiv_pos_as_xyz
  1  'x, y, z'
loop_
 _atom_site_type_symbol
 _atom_site_label
 _atom_site_symmetry_multiplicity
 _atom_site_fract_x
 _atom_site_fract_y
 _atom_site_fract_z
 _atom_site_occupancy
  Nd  Nd0  1  0.39646713  0.09298021  0.20969248  1
  Nd  Nd1  1  0.80484569  0.91466829  0.19624924  1
  Nd  Nd2  1  0.51450556  0.59903844  0.81051344  1
  Nd  Nd3  1  0.19835535  0.71375509  0.17837079  1
  Nd  Nd4  1  0.91466829  0.80484569  0.80375076  1
  Nd  Nd5  1  0.18315260  0.48731500  0.41714906  1
  Nd  Nd6  1  0.48731500  0.18315260  0.58285094  1
  Nd  Nd7  1  0.98731500  0.31684740  0.16714906  1
  Nd  Nd8  1  0.28624491  0.80164465  0.32162921  1
  Nd  Nd9  1  0.98549444  0.09903844  0.43948656  1
  Nd  Nd10  1  0.59903844  0.51450556  0.18948656  1
  Nd  Nd11  1  0.90096156  0.01450556  0.06051344  1
  Nd  Nd12  1  0.69515431  0.41466829  0.05375076  1
  Nd  Nd13  1  0.08533171  0.19515431  0.30375076  1
  Nd  Nd14  1  0.09903844  0.98549444  0.56051344  1
  Nd  Nd15  1  0.30484569  0.58533171  0.55375076  1
  Nd  Nd16  1  0.40701979  0.89646713  0.45969248  1
  Nd  Nd17  1  0.51268500  0.81684740  0.08285094  1
  Nd  Nd18  1  0.78624491  0.69835535  0.42837079  1
  Nd  Nd19  1  0.81684740  0.51268500  0.91714906  1
  Nd  Nd20  1  0.58533171  0.30484569  0.44624924  1
  Nd  Nd21  1  0.69835535  0.78624491  0.57162921  1
  Nd  Nd22  1  0.10353287  0.59298021  0.04030752  1
  Nd  Nd23  1  0.68315260  0.01268500  0.33285094  1
  Nd  Nd24  1  0.90701979  0.60353287  0.29030752  1
  Nd  Nd25  1  0.30164465  0.21375509  0.07162921  1
  Nd  Nd26  1  0.89646713  0.40701979  0.54030752  1
  Nd  Nd27  1  0.01268500  0.68315260  0.66714906  1
  Nd  Nd28  1  0.60353287  0.90701979  0.70969248  1
  Nd  Nd29  1  0.31684740  0.98731500  0.83285094  1
  Nd  Nd30  1  0.21375509  0.30164465  0.92837079  1
  Nd  Nd31  1  0.41466829  0.69515431  0.94624924  1
  Nd  Nd32  1  0.09298021  0.39646713  0.79030752  1
  Nd  Nd33  1  0.01450556  0.90096156  0.93948656  1
  Nd  Nd34  1  0.59298021  0.10353287  0.95969248  1
  Nd  Nd35  1  0.71375509  0.19835535  0.82162921  1
  Nd  Nd36  1  0.40096156  0.48549444  0.68948656  1
  Nd  Nd37  1  0.80164465  0.28624491  0.67837079  1
  Nd  Nd38  1  0.19515431  0.08533171  0.69624924  1
  Nd  Nd39  1  0.48549444  0.40096156  0.31051344  1
  B  B40  1  0.08910768  0.80157475  0.40763535  1
  B  B41  1  0.41089232  0.30157475  0.84236465  1
  B  B42  1  0.51101947  0.37662423  0.89246488  1
  B  B43  1  0.63576150  0.14131535  0.11647962  1
  B  B44  1  0.87662423  0.98898053  0.64246488  1
  B  B45  1  0.69842525  0.58910768  0.65763535  1
  B  B46  1  0.80157475  0.08910768  0.59236465  1
  B  B47  1  0.20329391  0.28238883  0.52476004  1
  B  B48  1  0.91777541  0.08222459  0.75000000  1
  B  B49  1  0.71761117  0.79670609  0.97523996  1
  B  B50  1  0.85868465  0.36423850  0.38352038  1
  B  B51  1  0.01101947  0.12337577  0.85753512  1
  B  B52  1  0.58222459  0.58222459  0.50000000  1
  B  B53  1  0.78238883  0.29670609  0.27476004  1
  B  B54  1  0.12337577  0.01101947  0.14246488  1
  B  B55  1  0.70329391  0.21761117  0.22523996  1
  B  B56  1  0.29670609  0.78238883  0.72523996  1
  B  B57  1  0.08222459  0.91777541  0.25000000  1
  B  B58  1  0.91089232  0.19842525  0.90763535  1
  B  B59  1  0.41777541  0.41777541  0.00000000  1
  B  B60  1  0.19842525  0.91089232  0.09236465  1
  B  B61  1  0.48898053  0.62337577  0.39246488  1
  B  B62  1  0.21761117  0.70329391  0.77476004  1
  B  B63  1  0.37662423  0.51101947  0.10753512  1
  B  B64  1  0.58910768  0.69842525  0.34236465  1
  B  B65  1  0.30157475  0.41089232  0.15763535  1
  B  B66  1  0.86423850  0.64131535  0.13352038  1
  B  B67  1  0.98898053  0.87662423  0.35753512  1
  B  B68  1  0.28238883  0.20329391  0.47523996  1
  B  B69  1  0.14131535  0.63576150  0.88352038  1
  B  B70  1  0.36423850  0.85868465  0.61647962  1
  B  B71  1  0.79670609  0.71761117  0.02476004  1
  B  B72  1  0.64131535  0.86423850  0.86647962  1
  B  B73  1  0.35868465  0.13576150  0.36647962  1
  B  B74  1  0.62337577  0.48898053  0.60753512  1
  B  B75  1  0.13576150  0.35868465  0.63352038  1
  C  C76  1  0.17983250  0.29755668  0.58174291  1
  C  C77  1  0.29755668  0.17983250  0.41825709  1
  C  C78  1  0.68987140  0.00579940  0.43541815  1
  C  C79  1  0.81012860  0.50579940  0.81458185  1
  C  C80  1  0.31012860  0.99420060  0.93541815  1
  C  C81  1  0.89383097  0.61474106  0.18955868  1
  C  C82  1  0.21580597  0.92488125  0.03358811  1
  C  C83  1  0.60616903  0.11474106  0.06044132  1
  C  C84  1  0.71580597  0.57511875  0.71641189  1
  C  C85  1  0.92488125  0.21580597  0.96641189  1
  C  C86  1  0.79755668  0.32016750  0.33174291  1
  C  C87  1  0.49420060  0.18987140  0.68541815  1
  C  C88  1  0.67983250  0.20244332  0.16825709  1
  C  C89  1  0.20244332  0.67983250  0.83174291  1
  C  C90  1  0.01081157  0.09738581  0.79937411  1
  C  C91  1  0.18987140  0.49420060  0.31458185  1
  C  C92  1  0.88525894  0.39383097  0.43955868  1
  C  C93  1  0.48918843  0.59738581  0.45062589  1
  C  C94  1  0.57511875  0.71580597  0.28358811  1
  C  C95  1  0.38525894  0.10616903  0.31044132  1
  C  C96  1  0.51081157  0.40261419  0.95062589  1
  C  C97  1  0.59738581  0.48918843  0.54937411  1
  C  C98  1  0.99420060  0.31012860  0.06458185  1
  C  C99  1  0.28831860  0.97332907  0.98806177  1
  C  C100  1  0.11474106  0.60616903  0.93955868  1
  C  C101  1  0.61474106  0.89383097  0.81044132  1
  C  C102  1  0.32016750  0.79755668  0.66825709  1
  C  C103  1  0.90261419  0.98918843  0.70062589  1
  C  C104  1  0.39383097  0.88525894  0.56044132  1
  C  C105  1  0.78831860  0.52667093  0.76193823  1
  C  C106  1  0.98918843  0.90261419  0.29937411  1
  C  C107  1  0.00579940  0.68987140  0.56458185  1
  C  C108  1  0.52667093  0.78831860  0.23806177  1
  C  C109  1  0.71168140  0.02667093  0.48806177  1
  C  C110  1  0.47332907  0.21168140  0.73806177  1
  C  C111  1  0.07511875  0.78419403  0.46641189  1
  C  C112  1  0.97332907  0.28831860  0.01193823  1
  C  C113  1  0.21168140  0.47332907  0.26193823  1
  C  C114  1  0.82016750  0.70244332  0.08174291  1
  C  C115  1  0.40261419  0.51081157  0.04937411  1
  C  C116  1  0.70244332  0.82016750  0.91825709  1
  C  C117  1  0.50579940  0.81012860  0.18541815  1
  C  C118  1  0.02667093  0.71168140  0.51193823  1
  C  C119  1  0.28419403  0.42488125  0.21641189  1
  C  C120  1  0.78419403  0.07511875  0.53358811  1
  C  C121  1  0.10616903  0.38525894  0.68955868  1
  C  C122  1  0.09738581  0.01081157  0.20062589  1
  C  C123  1  0.42488125  0.28419403  0.78358811  1
