# generated using pymatgen
data_MnH12C2(NCl2)2
_symmetry_space_group_name_H-M   'P 1'
_cell_length_a   7.28467063
_cell_length_b   7.28467063
_cell_length_c   19.69359191
_cell_angle_alpha   90.00000000
_cell_angle_beta   90.00000000
_cell_angle_gamma   90.00000000
_symmetry_Int_Tables_number   1
_chemical_formula_structural   MnH12C2(NCl2)2
_chemical_formula_sum   'Mn4 H48 C8 N8 Cl16'
_cell_volume   1045.06854146
_cell_formula_units_Z   4
loop_
 _symmetry_equiv_pos_site_id
 _symmetry_equiv_pos_as_xyz
  1  'x, y, z'
loop_
 _atom_site_type_symbol
 _atom_site_label
 _atom_site_symmetry_multiplicity
 _atom_site_fract_x
 _atom_site_fract_y
 _atom_site_fract_z
 _atom_site_occupancy
  Mn  Mn0  1  0.00000000  0.00000000  0.00000000  1
  Mn  Mn1  1  0.50000000  0.50000000  0.00000000  1
  Mn  Mn2  1  0.00000000  0.50000000  0.50000000  1
  Mn  Mn3  1  0.50000000  0.00000000  0.50000000  1
  H  H4  1  0.55551650  0.55551650  0.27903768  1
  H  H5  1  0.65527420  0.49350305  0.39383181  1
  H  H6  1  0.00649695  0.84472580  0.39383181  1
  H  H7  1  0.49350305  0.65527420  0.39383181  1
  H  H8  1  0.94448350  0.94448350  0.27903768  1
  H  H9  1  0.50027339  0.67452192  0.69584135  1
  H  H10  1  0.82547808  -0.00027339  0.69584135  1
  H  H11  1  0.50649695  0.15527420  0.10616819  1
  H  H12  1  0.43864878  0.43864878  0.41795026  1
  H  H13  1  0.34472580  0.99350305  0.10616819  1
  H  H14  1  0.17452192  1.00027339  0.30415865  1
  H  H15  1  0.56135122  0.56135122  0.58204974  1
  H  H16  1  0.93864878  0.56135122  0.08204974  1
  H  H17  1  0.99350305  0.34472580  0.10616819  1
  H  H18  1  0.65527420  0.00649695  0.89383181  1
  H  H19  1  0.32547808  0.49972661  0.30415865  1
  H  H20  1  0.84472580  0.00649695  0.39383181  1
  H  H21  1  1.00027339  0.17452192  0.30415865  1
  H  H22  1  0.15527420  0.99350305  0.60616819  1
  H  H23  1  0.06135122  0.06135122  0.41795026  1
  H  H24  1  -0.00027339  0.82547808  0.69584135  1
  H  H25  1  0.05551650  0.44448350  0.22096232  1
  H  H26  1  0.99350305  0.15527420  0.60616819  1
  H  H27  1  0.94448350  0.55551650  0.77903768  1
  H  H28  1  0.50027339  0.82547808  0.19584135  1
  H  H29  1  0.05551650  0.05551650  0.72096232  1
  H  H30  1  0.44448350  0.05551650  0.22096232  1
  H  H31  1  0.84472580  0.49350305  0.89383181  1
  H  H32  1  0.56135122  0.93864878  0.08204974  1
  H  H33  1  0.06135122  0.43864878  0.91795026  1
  H  H34  1  0.43864878  0.06135122  0.91795026  1
  H  H35  1  0.49972661  0.32547808  0.30415865  1
  H  H36  1  0.50649695  0.34472580  0.60616819  1
  H  H37  1  0.44448350  0.44448350  0.72096232  1
  H  H38  1  0.34472580  0.50649695  0.60616819  1
  H  H39  1  0.82547808  0.50027339  0.19584135  1
  H  H40  1  1.00027339  0.32547808  0.80415865  1
  H  H41  1  -0.00027339  0.67452192  0.19584135  1
  H  H42  1  0.67452192  -0.00027339  0.19584135  1
  H  H43  1  0.00649695  0.65527420  0.89383181  1
  H  H44  1  0.67452192  0.50027339  0.69584135  1
  H  H45  1  0.49350305  0.84472580  0.89383181  1
  H  H46  1  0.15527420  0.50649695  0.10616819  1
  H  H47  1  0.93864878  0.93864878  0.58204974  1
  H  H48  1  0.49972661  0.17452192  0.80415865  1
  H  H49  1  0.55551650  0.94448350  0.77903768  1
  H  H50  1  0.17452192  0.49972661  0.80415865  1
  H  H51  1  0.32547808  1.00027339  0.80415865  1
  C  C52  1  0.52882656  0.52882656  0.68723160  1
  C  C53  1  0.97117344  0.97117344  0.68723160  1
  C  C54  1  0.47117344  0.02882656  0.81276840  1
  C  C55  1  0.02882656  0.02882656  0.31276840  1
  C  C56  1  0.52882656  0.97117344  0.18723160  1
  C  C57  1  0.47117344  0.47117344  0.31276840  1
  C  C58  1  0.97117344  0.52882656  0.18723160  1
  C  C59  1  0.02882656  0.47117344  0.81276840  1
  N  N60  1  0.48338582  0.01661418  0.11564634  1
  N  N61  1  0.51661418  0.51661418  0.38435366  1
  N  N62  1  0.98338582  0.51661418  0.88435366  1
  N  N63  1  0.48338582  0.48338582  0.61564634  1
  N  N64  1  0.01661418  0.48338582  0.11564634  1
  N  N65  1  0.01661418  0.01661418  0.61564634  1
  N  N66  1  0.51661418  0.98338582  0.88435366  1
  N  N67  1  0.98338582  0.98338582  0.38435366  1
  Cl  Cl68  1  0.53606825  0.96393175  0.37487860  1
  Cl  Cl69  1  0.46393175  0.46393175  0.12512140  1
  Cl  Cl70  1  0.25000000  0.25000000  0.97734003  1
  Cl  Cl71  1  0.25000000  0.25000000  0.47734003  1
  Cl  Cl72  1  0.96393175  0.53606825  0.37487860  1
  Cl  Cl73  1  0.96393175  0.96393175  0.87487860  1
  Cl  Cl74  1  0.75000000  0.75000000  0.02265997  1
  Cl  Cl75  1  0.53606825  0.53606825  0.87487860  1
  Cl  Cl76  1  0.03606825  0.46393175  0.62512140  1
  Cl  Cl77  1  0.03606825  0.03606825  0.12512140  1
  Cl  Cl78  1  0.75000000  0.25000000  0.50000000  1
  Cl  Cl79  1  0.25000000  0.75000000  0.50000000  1
  Cl  Cl80  1  0.75000000  0.75000000  0.52265997  1
  Cl  Cl81  1  0.75000000  0.25000000  0.00000000  1
  Cl  Cl82  1  0.46393175  0.03606825  0.62512140  1
  Cl  Cl83  1  0.25000000  0.75000000  0.00000000  1
