# generated using pymatgen
data_Na3Hg2
_symmetry_space_group_name_H-M   'P 1'
_cell_length_a   7.06980682
_cell_length_b   9.06773389
_cell_length_c   9.06773389
_cell_angle_alpha   90.00000000
_cell_angle_beta   90.00000000
_cell_angle_gamma   90.00000000
_symmetry_Int_Tables_number   1
_chemical_formula_structural   Na3Hg2
_chemical_formula_sum   'Na12 Hg8'
_cell_volume   581.30636716
_cell_formula_units_Z   4
loop_
 _symmetry_equiv_pos_site_id
 _symmetry_equiv_pos_as_xyz
  1  'x, y, z'
loop_
 _atom_site_type_symbol
 _atom_site_label
 _atom_site_symmetry_multiplicity
 _atom_site_fract_x
 _atom_site_fract_y
 _atom_site_fract_z
 _atom_site_occupancy
  Na  Na0  1  0.00000000  0.64233442  0.64233442  1
  Na  Na1  1  0.00000000  0.81723299  0.18276701  1
  Na  Na2  1  0.00000000  0.35766558  0.35766558  1
  Na  Na3  1  0.50000000  0.14233442  0.85766558  1
  Na  Na4  1  0.00000000  0.50000000  0.00000000  1
  Na  Na5  1  0.50000000  0.50000000  0.00000000  1
  Na  Na6  1  0.50000000  0.68276701  0.68276701  1
  Na  Na7  1  0.00000000  0.00000000  0.50000000  1
  Na  Na8  1  0.50000000  0.85766558  0.14233442  1
  Na  Na9  1  0.50000000  0.31723299  0.31723299  1
  Na  Na10  1  0.00000000  0.18276701  0.81723299  1
  Na  Na11  1  0.50000000  0.00000000  0.50000000  1
  Hg  Hg12  1  0.78839963  0.13035060  0.13035060  1
  Hg  Hg13  1  0.71160037  0.36964940  0.63035060  1
  Hg  Hg14  1  0.21160037  0.13035060  0.13035060  1
  Hg  Hg15  1  0.28839963  0.36964940  0.63035060  1
  Hg  Hg16  1  0.21160037  0.86964940  0.86964940  1
  Hg  Hg17  1  0.28839963  0.63035060  0.36964940  1
  Hg  Hg18  1  0.71160037  0.63035060  0.36964940  1
  Hg  Hg19  1  0.78839963  0.86964940  0.86964940  1
