# generated using pymatgen
data_Nb2Te3
_symmetry_space_group_name_H-M   'P 1'
_cell_length_a   3.70333530
_cell_length_b   7.85207491
_cell_length_c   9.25485515
_cell_angle_alpha   76.58310207
_cell_angle_beta   78.46018789
_cell_angle_gamma   76.36001544
_symmetry_Int_Tables_number   1
_chemical_formula_structural   Nb2Te3
_chemical_formula_sum   'Nb4 Te6'
_cell_volume   251.36821553
_cell_formula_units_Z   2
loop_
 _symmetry_equiv_pos_site_id
 _symmetry_equiv_pos_as_xyz
  1  'x, y, z'
loop_
 _atom_site_type_symbol
 _atom_site_label
 _atom_site_symmetry_multiplicity
 _atom_site_fract_x
 _atom_site_fract_y
 _atom_site_fract_z
 _atom_site_occupancy
  Nb  Nb0  1  0.66641359  0.54845694  0.11864862  1
  Nb  Nb1  1  0.33358641  0.45154306  0.88135138  1
  Nb  Nb2  1  0.75615547  0.11379515  0.37389616  1
  Nb  Nb3  1  0.24384453  0.88620485  0.62610384  1
  Te  Te4  1  0.41114280  0.85555380  0.32240326  1
  Te  Te5  1  0.87122117  0.21391307  0.04364221  1
  Te  Te6  1  0.12281371  0.40335141  0.35083259  1
  Te  Te7  1  0.87718629  0.59664859  0.64916741  1
  Te  Te8  1  0.58885720  0.14444620  0.67759674  1
  Te  Te9  1  0.12877883  0.78608693  0.95635779  1
