# generated using pymatgen
data_PbIBr
_symmetry_space_group_name_H-M   'P 1'
_cell_length_a   4.51838908
_cell_length_b   8.95723072
_cell_length_c   10.87950155
_cell_angle_alpha   90.00000000
_cell_angle_beta   90.00000000
_cell_angle_gamma   90.00000000
_symmetry_Int_Tables_number   1
_chemical_formula_structural   PbIBr
_chemical_formula_sum   'Pb4 I4 Br4'
_cell_volume   440.31794438
_cell_formula_units_Z   4
loop_
 _symmetry_equiv_pos_site_id
 _symmetry_equiv_pos_as_xyz
  1  'x, y, z'
loop_
 _atom_site_type_symbol
 _atom_site_label
 _atom_site_symmetry_multiplicity
 _atom_site_fract_x
 _atom_site_fract_y
 _atom_site_fract_z
 _atom_site_occupancy
  Pb  Pb0  1  0.75000000  0.14913737  0.84586760  1
  Pb  Pb1  1  0.25000000  0.85086263  0.15413240  1
  Pb  Pb2  1  0.25000000  0.35086263  0.34586760  1
  Pb  Pb3  1  0.75000000  0.64913737  0.65413240  1
  I  I4  1  0.25000000  0.99857650  0.67616199  1
  I  I5  1  0.75000000  0.50142350  0.17616199  1
  I  I6  1  0.75000000  0.00142350  0.32383801  1
  I  I7  1  0.25000000  0.49857650  0.82383801  1
  Br  Br8  1  0.75000000  0.34312746  0.54950550  1
  Br  Br9  1  0.25000000  0.65687254  0.45049450  1
  Br  Br10  1  0.75000000  0.84312746  0.95049450  1
  Br  Br11  1  0.25000000  0.15687254  0.04950550  1
