# generated using pymatgen
data_Sr6FeC2N7
_symmetry_space_group_name_H-M   'P 1'
_cell_length_a   3.85971511
_cell_length_b   9.96513218
_cell_length_c   14.87956997
_cell_angle_alpha   90.00000000
_cell_angle_beta   90.00000000
_cell_angle_gamma   90.00000000
_symmetry_Int_Tables_number   1
_chemical_formula_structural   Sr6FeC2N7
_chemical_formula_sum   'Sr12 Fe2 C4 N14'
_cell_volume   572.30652012
_cell_formula_units_Z   2
loop_
 _symmetry_equiv_pos_site_id
 _symmetry_equiv_pos_as_xyz
  1  'x, y, z'
loop_
 _atom_site_type_symbol
 _atom_site_label
 _atom_site_symmetry_multiplicity
 _atom_site_fract_x
 _atom_site_fract_y
 _atom_site_fract_z
 _atom_site_occupancy
  Sr  Sr0  1  0.05571944  0.57005965  0.10972301  1
  Sr  Sr1  1  0.44297316  0.75516254  0.44316093  1
  Sr  Sr2  1  0.94428056  0.92994035  0.60972301  1
  Sr  Sr3  1  0.55702684  0.74483746  0.94316093  1
  Sr  Sr4  1  0.48912682  0.09822022  0.83371614  1
  Sr  Sr5  1  0.55702684  0.25516254  0.05683907  1
  Sr  Sr6  1  0.05571944  0.42994035  0.89027699  1
  Sr  Sr7  1  0.44297316  0.24483746  0.55683907  1
  Sr  Sr8  1  0.94428056  0.07005965  0.39027699  1
  Sr  Sr9  1  0.48912682  0.90177978  0.16628386  1
  Sr  Sr10  1  0.51087318  0.59822022  0.66628386  1
  Sr  Sr11  1  0.51087318  0.40177978  0.33371614  1
  Fe  Fe12  1  0.97887798  0.50000000  0.50000000  1
  Fe  Fe13  1  0.02112202  0.00000000  0.00000000  1
  C  C14  1  0.81946121  0.72566330  0.28075706  1
  C  C15  1  0.18053879  0.22566330  0.21924294  1
  C  C16  1  0.18053879  0.77433670  0.78075706  1
  C  C17  1  0.81946121  0.27433670  0.71924294  1
  N  N18  1  0.97491905  0.66742421  0.55510031  1
  N  N19  1  0.96933766  0.17170216  0.69170525  1
  N  N20  1  0.64247175  0.36855597  0.74857278  1
  N  N21  1  0.02508095  0.83257579  0.05510031  1
  N  N22  1  0.02508095  0.16742421  0.94489969  1
  N  N23  1  0.35752825  0.13144403  0.24857278  1
  N  N24  1  0.35752825  0.86855597  0.75142722  1
  N  N25  1  0.96933766  0.82829784  0.30829475  1
  N  N26  1  0.03066234  0.32829784  0.19170525  1
  N  N27  1  0.64247175  0.63144403  0.25142722  1
  N  N28  1  0.56408256  0.50000000  0.00000000  1
  N  N29  1  0.03066234  0.67170216  0.80829475  1
  N  N30  1  0.97491905  0.33257579  0.44489969  1
  N  N31  1  0.43591744  0.00000000  0.50000000  1
