# generated using pymatgen
data_BiBr
_symmetry_space_group_name_H-M   'P 1'
_cell_length_a   4.26812437
_cell_length_b   7.62178392
_cell_length_c   20.43124189
_cell_angle_alpha   87.50721952
_cell_angle_beta   84.01488325
_cell_angle_gamma   73.74610743
_symmetry_Int_Tables_number   1
_chemical_formula_structural   BiBr
_chemical_formula_sum   'Bi8 Br8'
_cell_volume   634.52840087
_cell_formula_units_Z   8
loop_
 _symmetry_equiv_pos_site_id
 _symmetry_equiv_pos_as_xyz
  1  'x, y, z'
loop_
 _atom_site_type_symbol
 _atom_site_label
 _atom_site_symmetry_multiplicity
 _atom_site_fract_x
 _atom_site_fract_y
 _atom_site_fract_z
 _atom_site_occupancy
  Bi  Bi0  1  0.82613621  0.35322421  0.99445645  1
  Bi  Bi1  1  0.17386379  0.64677579  0.00554355  1
  Bi  Bi2  1  0.82116371  0.85263539  0.50507453  1
  Bi  Bi3  1  0.79428595  0.26774245  0.14381731  1
  Bi  Bi4  1  0.20571405  0.73225755  0.85618269  1
  Bi  Bi5  1  0.17883629  0.14736461  0.49492547  1
  Bi  Bi6  1  0.92916476  0.78636021  0.35512318  1
  Bi  Bi7  1  0.07083524  0.21363979  0.64487682  1
  Br  Br8  1  0.85221130  0.47750111  0.81793455  1
  Br  Br9  1  0.54980530  0.51884572  0.38176720  1
  Br  Br10  1  0.55963293  0.99481536  0.88695936  1
  Br  Br11  1  0.44036707  0.00518464  0.11304064  1
  Br  Br12  1  0.45019470  0.48115428  0.61823280  1
  Br  Br13  1  0.31744933  0.04594980  0.31828054  1
  Br  Br14  1  0.68255067  0.95405020  0.68171946  1
  Br  Br15  1  0.14778870  0.52249889  0.18206545  1
