# generated using pymatgen
data_Cs3Sb2N3(O3F2)3
_symmetry_space_group_name_H-M   'P 1'
_cell_length_a   7.66033401
_cell_length_b   9.98315293
_cell_length_c   11.87084437
_cell_angle_alpha   90.30066373
_cell_angle_beta   108.82345718
_cell_angle_gamma   89.99999756
_symmetry_Int_Tables_number   1
_chemical_formula_structural   Cs3Sb2N3(O3F2)3
_chemical_formula_sum   'Cs6 Sb4 N6 O18 F12'
_cell_volume   859.24872642
_cell_formula_units_Z   2
loop_
 _symmetry_equiv_pos_site_id
 _symmetry_equiv_pos_as_xyz
  1  'x, y, z'
loop_
 _atom_site_type_symbol
 _atom_site_label
 _atom_site_symmetry_multiplicity
 _atom_site_fract_x
 _atom_site_fract_y
 _atom_site_fract_z
 _atom_site_occupancy
  Cs  Cs0  1  0.55612700  0.34045299  0.37512115  1
  Cs  Cs1  1  0.44387300  0.65954701  0.62487885  1
  Cs  Cs2  1  0.81899415  0.84045299  0.37512115  1
  Cs  Cs3  1  0.50000000  0.50000000  0.00000000  1
  Cs  Cs4  1  0.18100585  0.15954701  0.62487885  1
  Cs  Cs5  1  0.50000000  0.00000000  0.00000000  1
  Sb  Sb6  1  0.73636115  0.28280609  0.77232542  1
  Sb  Sb7  1  0.96403573  0.21719391  0.22767458  1
  Sb  Sb8  1  0.03596427  0.78280609  0.77232542  1
  Sb  Sb9  1  0.26363885  0.71719391  0.22767458  1
  N  N10  1  0.88364279  0.75000000  0.00000000  1
  N  N11  1  0.94939489  0.50465628  0.62835825  1
  N  N12  1  0.11635721  0.25000000  1.00000000  1
  N  N13  1  0.05060511  0.49534372  0.37164175  1
  N  N14  1  0.67896335  0.00465628  0.62835825  1
  N  N15  1  0.32103665  0.99534372  0.37164175  1
  O  O16  1  0.75823239  0.79057289  0.90873656  1
  O  O17  1  0.90243828  0.38085201  0.61623308  1
  O  O18  1  0.71379480  0.88085201  0.61623308  1
  O  O19  1  0.84949583  0.70942711  0.09126344  1
  O  O20  1  0.83633627  0.59315399  0.57425899  1
  O  O21  1  0.94644650  0.25000000  0.00000000  1
  O  O22  1  0.41264437  0.96272645  0.30339170  1
  O  O23  1  0.15050417  0.29057289  0.90873656  1
  O  O24  1  0.16366373  0.40684601  0.42574101  1
  O  O25  1  0.24176761  0.20942711  0.09126344  1
  O  O26  1  0.73792272  0.09315399  0.57425899  1
  O  O27  1  0.58735563  0.03727355  0.69660830  1
  O  O28  1  0.09756172  0.61914799  0.38376692  1
  O  O29  1  0.26207728  0.90684601  0.42574101  1
  O  O30  1  0.89074733  0.46272645  0.30339170  1
  O  O31  1  0.10925267  0.53727355  0.69660830  1
  O  O32  1  0.05355350  0.75000000  1.00000000  1
  O  O33  1  0.28620520  0.11914799  0.38376692  1
  F  F34  1  0.07914209  0.97430564  0.82170782  1
  F  F35  1  0.74256573  0.47430564  0.82170782  1
  F  F36  1  0.47805280  0.65877303  0.36479674  1
  F  F37  1  0.55208365  0.25004487  0.85551992  1
  F  F38  1  0.88674394  0.15877303  0.36479674  1
  F  F39  1  0.25743427  0.52569436  0.17829218  1
  F  F40  1  0.30343627  0.75004487  0.85551992  1
  F  F41  1  0.52194720  0.34122697  0.63520326  1
  F  F42  1  0.44791635  0.74995513  0.14448008  1
  F  F43  1  0.11325606  0.84122697  0.63520326  1
  F  F44  1  0.69656373  0.24995513  0.14448008  1
  F  F45  1  0.92085791  0.02569436  0.17829218  1
