# generated using pymatgen
data_K2Sn(GeO3)3
_symmetry_space_group_name_H-M   'P 1'
_cell_length_a   12.15675358
_cell_length_b   12.15675303
_cell_length_c   10.74622319
_cell_angle_alpha   90.00000000
_cell_angle_beta   90.00000000
_cell_angle_gamma   120.00000150
_symmetry_Int_Tables_number   1
_chemical_formula_structural   K2Sn(GeO3)3
_chemical_formula_sum   'K12 Sn6 Ge18 O54'
_cell_volume   1375.37678223
_cell_formula_units_Z   6
loop_
 _symmetry_equiv_pos_site_id
 _symmetry_equiv_pos_as_xyz
  1  'x, y, z'
loop_
 _atom_site_type_symbol
 _atom_site_label
 _atom_site_symmetry_multiplicity
 _atom_site_fract_x
 _atom_site_fract_y
 _atom_site_fract_z
 _atom_site_occupancy
  K  K0  1  0.34565136  0.34646936  0.99125311  1
  K  K1  1  0.99918201  0.34565136  0.00874689  1
  K  K2  1  0.99918201  0.65353064  0.50874689  1
  K  K3  1  0.65353064  0.99918201  0.99125311  1
  K  K4  1  0.00081799  0.34646936  0.49125311  1
  K  K5  1  0.65434864  0.65353064  0.00874689  1
  K  K6  1  0.34646936  0.34565136  0.50874689  1
  K  K7  1  0.00081799  0.65434864  0.99125311  1
  K  K8  1  0.34646936  0.00081799  0.00874689  1
  K  K9  1  0.65434864  0.00081799  0.50874689  1
  K  K10  1  0.34565136  0.99918201  0.49125311  1
  K  K11  1  0.65353064  0.65434864  0.49125311  1
  Sn  Sn12  1  0.33333300  0.66666700  0.49377753  1
  Sn  Sn13  1  0.66666700  0.33333300  0.50622247  1
  Sn  Sn14  1  0.66666700  0.33333300  0.00622247  1
  Sn  Sn15  1  0.33333300  0.66666700  0.99377753  1
  Sn  Sn16  1  0.00000000  0.00000000  0.50000000  1
  Sn  Sn17  1  0.00000000  0.00000000  -0.00000000  1
  Ge  Ge18  1  0.54897954  0.83175417  0.23721289  1
  Ge  Ge19  1  0.81848796  0.00000000  0.75000000  1
  Ge  Ge20  1  0.18151204  0.18151204  0.75000000  1
  Ge  Ge21  1  0.83175417  0.54897954  0.26278711  1
  Ge  Ge22  1  0.28277464  0.83175417  0.73721289  1
  Ge  Ge23  1  0.16824583  0.71722536  0.23721289  1
  Ge  Ge24  1  0.71722536  0.16824583  0.26278711  1
  Ge  Ge25  1  0.81848796  0.81848796  0.25000000  1
  Ge  Ge26  1  0.00000000  0.18151204  0.25000000  1
  Ge  Ge27  1  0.16824583  0.45102046  0.73721289  1
  Ge  Ge28  1  0.28277464  0.45102046  0.23721289  1
  Ge  Ge29  1  0.54897954  0.71722536  0.73721289  1
  Ge  Ge30  1  0.83175417  0.28277464  0.76278711  1
  Ge  Ge31  1  1.00000000  0.81848796  0.75000000  1
  Ge  Ge32  1  0.45102046  0.16824583  0.76278711  1
  Ge  Ge33  1  0.45102046  0.28277464  0.26278711  1
  Ge  Ge34  1  0.71722536  0.54897954  0.76278711  1
  Ge  Ge35  1  0.18151204  0.00000000  0.25000000  1
  O  O36  1  0.66579823  0.79014377  0.19138218  1
  O  O37  1  0.91115797  0.07037003  0.61662021  1
  O  O38  1  0.81728201  0.36806036  0.88844255  1
  O  O39  1  0.50337876  0.27366496  0.11330855  1
  O  O40  1  0.27366496  0.77028620  0.88669145  1
  O  O41  1  0.79014377  0.12434555  0.80861782  1
  O  O42  1  0.00000000  0.63342844  0.25000000  1
  O  O43  1  0.84078794  0.91115797  0.38337979  1
  O  O44  1  0.63193964  0.18271799  0.38844255  1
  O  O45  1  0.55077835  0.18271799  0.88844255  1
  O  O46  1  0.18271799  0.63193964  0.11155745  1
  O  O47  1  0.33420177  0.20985623  0.80861782  1
  O  O48  1  0.87565445  0.20985623  0.30861782  1
  O  O49  1  0.72633504  0.22971380  0.11330855  1
  O  O50  1  0.15921206  0.07037003  0.11662021  1
  O  O51  1  0.18271799  0.55077835  0.61155745  1
  O  O52  1  0.22971380  0.72633504  0.38669145  1
  O  O53  1  0.92962997  0.84078794  0.61662021  1
  O  O54  1  0.66579823  0.87565445  0.69138218  1
  O  O55  1  0.36657156  0.00000000  0.75000000  1
  O  O56  1  0.84078794  0.92962997  0.88337979  1
  O  O57  1  0.91115797  0.84078794  0.11662021  1
  O  O58  1  0.63193964  0.44922165  0.88844255  1
  O  O59  1  0.36806036  0.81728201  0.61155745  1
  O  O60  1  0.63342844  0.63342844  0.75000000  1
  O  O61  1  0.08884203  0.15921206  0.88337979  1
  O  O62  1  0.92962997  0.08884203  0.11662021  1
  O  O63  1  0.63342844  0.00000000  0.25000000  1
  O  O64  1  0.49662124  0.72633504  0.88669145  1
  O  O65  1  0.36657156  0.36657156  0.25000000  1
  O  O66  1  0.77028620  0.27366496  0.61330855  1
  O  O67  1  0.27366496  0.50337876  0.38669145  1
  O  O68  1  0.12434555  0.79014377  0.69138218  1
  O  O69  1  0.33420177  0.12434555  0.30861782  1
  O  O70  1  0.36806036  0.55077835  0.11155745  1
  O  O71  1  0.79014377  0.66579823  0.30861782  1
  O  O72  1  0.12434555  0.33420177  0.19138218  1
  O  O73  1  0.87565445  0.66579823  0.80861782  1
  O  O74  1  0.77028620  0.49662124  0.11330855  1
  O  O75  1  0.81728201  0.44922165  0.38844255  1
  O  O76  1  0.44922165  0.81728201  0.11155745  1
  O  O77  1  0.15921206  0.08884203  0.61662021  1
  O  O78  1  0.55077835  0.36806036  0.38844255  1
  O  O79  1  0.20985623  0.33420177  0.69138218  1
  O  O80  1  0.72633504  0.49662124  0.61330855  1
  O  O81  1  1.00000000  0.36657156  0.75000000  1
  O  O82  1  0.08884203  0.92962997  0.38337979  1
  O  O83  1  0.50337876  0.22971380  0.61330855  1
  O  O84  1  0.07037003  0.91115797  0.88337979  1
  O  O85  1  0.44922165  0.63193964  0.61155745  1
  O  O86  1  0.07037003  0.15921206  0.38337979  1
  O  O87  1  0.49662124  0.77028620  0.38669145  1
  O  O88  1  0.20985623  0.87565445  0.19138218  1
  O  O89  1  0.22971380  0.50337876  0.88669145  1
