# generated using pymatgen
data_Sr2CuTeO6
_symmetry_space_group_name_H-M   'P 1'
_cell_length_a   5.46712930
_cell_length_b   5.46712929
_cell_length_c   5.83564165
_cell_angle_alpha   117.93215518
_cell_angle_beta   117.93215519
_cell_angle_gamma   89.99999992
_symmetry_Int_Tables_number   1
_chemical_formula_structural   Sr2CuTeO6
_chemical_formula_sum   'Sr2 Cu1 Te1 O6'
_cell_volume   130.66178971
_cell_formula_units_Z   1
loop_
 _symmetry_equiv_pos_site_id
 _symmetry_equiv_pos_as_xyz
  1  'x, y, z'
loop_
 _atom_site_type_symbol
 _atom_site_label
 _atom_site_symmetry_multiplicity
 _atom_site_fract_x
 _atom_site_fract_y
 _atom_site_fract_z
 _atom_site_occupancy
  O  O0  1  0.69084204  0.80566702  0.00000000  1
  O  O1  1  0.19433298  0.69084204  0.00000000  1
  O  O2  1  0.80566702  0.30915796  0.00000000  1
  O  O3  1  0.30915796  0.19433298  0.00000000  1
  O  O4  1  0.27719092  0.27719092  0.55438185  1
  O  O5  1  0.72280908  0.72280908  0.44561815  1
  Cu  Cu6  1  0.00000000  0.00000000  0.00000000  1
  Sr  Sr7  1  0.25000000  0.75000000  0.50000000  1
  Sr  Sr8  1  0.75000000  0.25000000  0.50000000  1
  Te  Te9  1  0.50000000  0.50000000  0.00000000  1
