# generated using pymatgen
data_Al(HO)3
_symmetry_space_group_name_H-M   'P 1'
_cell_length_a   8.88914255
_cell_length_b   5.17021529
_cell_length_c   9.87627885
_cell_angle_alpha   90.00000000
_cell_angle_beta   95.30541726
_cell_angle_gamma   90.00000000
_symmetry_Int_Tables_number   1
_chemical_formula_structural   Al(HO)3
_chemical_formula_sum   'Al8 H24 O24'
_cell_volume   451.95720087
_cell_formula_units_Z   8
loop_
 _symmetry_equiv_pos_site_id
 _symmetry_equiv_pos_as_xyz
  1  'x, y, z'
loop_
 _atom_site_type_symbol
 _atom_site_label
 _atom_site_symmetry_multiplicity
 _atom_site_fract_x
 _atom_site_fract_y
 _atom_site_fract_z
 _atom_site_occupancy
  Al  Al0  1  0.33723872  0.01485366  0.49984173  1
  Al  Al1  1  0.82495089  0.48635479  0.00517692  1
  Al  Al2  1  0.67504911  0.98635479  0.49482308  1
  Al  Al3  1  0.16276128  0.51485366  0.00015827  1
  Al  Al4  1  0.17231628  0.50702197  0.49550701  1
  Al  Al5  1  0.66249900  0.99568552  0.00226639  1
  Al  Al6  1  0.83750100  0.49568552  0.49773361  1
  Al  Al7  1  0.32768372  0.00702197  0.00449299  1
  H  H8  1  0.42741548  0.61988185  0.61907517  1
  H  H9  1  0.91723331  0.86910669  0.12237745  1
  H  H10  1  0.58276669  0.36910669  0.37762255  1
  H  H11  1  0.07258452  0.11988185  0.88092483  1
  H  H12  1  0.93022128  0.10044139  0.60945217  1
  H  H13  1  0.41901508  0.41779648  0.10941737  1
  H  H14  1  0.08098492  0.91779648  0.39058263  1
  H  H15  1  0.56977872  0.60044139  0.89054783  1
  H  H16  1  0.04814578  0.72619858  0.67811753  1
  H  H17  1  0.51559398  0.89849665  0.20181714  1
  H  H18  1  0.98440602  0.39849665  0.29818286  1
  H  H19  1  0.45185422  0.22619858  0.82188247  1
  H  H20  1  0.55327348  0.21080965  0.67834166  1
  H  H21  1  0.03977043  0.19056655  0.12102070  1
  H  H22  1  0.46022957  0.69056655  0.37897930  1
  H  H23  1  0.94672652  0.71080965  0.82165834  1
  H  H24  1  0.20768885  0.20236355  0.70311750  1
  H  H25  1  0.70742663  0.29440347  0.20842611  1
  H  H26  1  0.79257337  0.79440347  0.29157389  1
  H  H27  1  0.29231115  0.70236355  0.79688250  1
  H  H28  1  0.70199529  0.68179949  0.70119087  1
  H  H29  1  0.20287829  0.81753192  0.20701733  1
  H  H30  1  0.29712171  0.31753192  0.29298267  1
  H  H31  1  0.79800471  0.18179949  0.79880913  1
  O  O32  1  0.32779582  0.69984114  0.60550241  1
  O  O33  1  0.81622184  0.79438945  0.11226229  1
  O  O34  1  0.68377816  0.29438945  0.38773771  1
  O  O35  1  0.17220418  0.19984114  0.89449759  1
  O  O36  1  0.83126905  0.18376921  0.60520344  1
  O  O37  1  0.32236182  0.32661497  0.10708861  1
  O  O38  1  0.17763818  0.82661497  0.39291139  1
  O  O39  1  0.66873095  0.68376921  0.89479656  1
  O  O40  1  0.01813215  0.62862640  0.59772062  1
  O  O41  1  0.50469610  0.87371344  0.10254646  1
  O  O42  1  0.99530390  0.37371344  0.39745354  1
  O  O43  1  0.48186785  0.12862640  0.90227938  1
  O  O44  1  0.52305078  0.12523059  0.59355060  1
  O  O45  1  0.01426878  0.37371708  0.10923394  1
  O  O46  1  0.48573122  0.87371708  0.39076606  1
  O  O47  1  0.97694922  0.62523059  0.90644940  1
  O  O48  1  0.21064206  0.20397523  0.60402971  1
  O  O49  1  0.70116648  0.29564833  0.10832406  1
  O  O50  1  0.79883352  0.79564833  0.39167594  1
  O  O51  1  0.28935794  0.70397523  0.89597029  1
  O  O52  1  0.70349569  0.68150246  0.60200008  1
  O  O53  1  0.18760510  0.82790248  0.10677029  1
  O  O54  1  0.31239490  0.32790248  0.39322971  1
  O  O55  1  0.79650431  0.18150246  0.89799992  1
