# generated using pymatgen
data_SiO2
_symmetry_space_group_name_H-M   'P 1'
_cell_length_a   16.13921619
_cell_length_b   9.28195245
_cell_length_c   8.63588480
_cell_angle_alpha   90.00000000
_cell_angle_beta   90.00000000
_cell_angle_gamma   90.00000000
_symmetry_Int_Tables_number   1
_chemical_formula_structural   SiO2
_chemical_formula_sum   'Si24 O48'
_cell_volume   1293.68522679
_cell_formula_units_Z   24
loop_
 _symmetry_equiv_pos_site_id
 _symmetry_equiv_pos_as_xyz
  1  'x, y, z'
loop_
 _atom_site_type_symbol
 _atom_site_label
 _atom_site_symmetry_multiplicity
 _atom_site_fract_x
 _atom_site_fract_y
 _atom_site_fract_z
 _atom_site_occupancy
  Si  Si0  1  0.16972262  0.66460920  0.43713770  1
  Si  Si1  1  0.16972262  0.33539080  0.56286230  1
  Si  Si2  1  0.83027738  0.66460920  0.06286230  1
  Si  Si3  1  0.83027738  0.33539080  0.93713770  1
  Si  Si4  1  0.83027738  0.33539080  0.56286230  1
  Si  Si5  1  0.83027738  0.66460920  0.43713770  1
  Si  Si6  1  0.16972262  0.33539080  0.93713770  1
  Si  Si7  1  0.16972262  0.66460920  0.06286230  1
  Si  Si8  1  0.66972262  0.16460920  0.43713770  1
  Si  Si9  1  0.66972262  0.83539080  0.56286230  1
  Si  Si10  1  0.33027738  0.16460920  0.06286230  1
  Si  Si11  1  0.33027738  0.83539080  0.93713770  1
  Si  Si12  1  0.33027738  0.83539080  0.56286230  1
  Si  Si13  1  0.33027738  0.16460920  0.43713770  1
  Si  Si14  1  0.66972262  0.83539080  0.93713770  1
  Si  Si15  1  0.66972262  0.16460920  0.06286230  1
  Si  Si16  1  0.00000000  0.33507833  0.43703459  1
  Si  Si17  1  0.00000000  0.66492167  0.56296541  1
  Si  Si18  1  0.00000000  0.33507833  0.06296541  1
  Si  Si19  1  0.00000000  0.66492167  0.93703459  1
  Si  Si20  1  0.50000000  0.83507833  0.43703459  1
  Si  Si21  1  0.50000000  0.16492167  0.56296541  1
  Si  Si22  1  0.50000000  0.83507833  0.06296541  1
  Si  Si23  1  0.50000000  0.16492167  0.93703459  1
  O  O24  1  0.08450638  0.74281985  0.49931852  1
  O  O25  1  0.08450638  0.25718015  0.50068148  1
  O  O26  1  0.91549362  0.74281985  0.00068148  1
  O  O27  1  0.91549362  0.25718015  0.99931852  1
  O  O28  1  0.91549362  0.25718015  0.50068148  1
  O  O29  1  0.91549362  0.74281985  0.49931852  1
  O  O30  1  0.08450638  0.25718015  0.99931852  1
  O  O31  1  0.08450638  0.74281985  0.00068148  1
  O  O32  1  0.58450638  0.24281985  0.49931852  1
  O  O33  1  0.58450638  0.75718015  0.50068148  1
  O  O34  1  0.41549362  0.24281985  0.00068148  1
  O  O35  1  0.41549362  0.75718015  0.99931852  1
  O  O36  1  0.41549362  0.75718015  0.50068148  1
  O  O37  1  0.41549362  0.24281985  0.49931852  1
  O  O38  1  0.58450638  0.75718015  0.99931852  1
  O  O39  1  0.58450638  0.24281985  0.00068148  1
  O  O40  1  0.17496704  0.50000000  0.50000000  1
  O  O41  1  0.82503296  0.50000000  0.00000000  1
  O  O42  1  0.82503296  0.50000000  0.50000000  1
  O  O43  1  0.17496704  0.50000000  0.00000000  1
  O  O44  1  0.67496704  0.00000000  0.50000000  1
  O  O45  1  0.32503296  0.00000000  0.00000000  1
  O  O46  1  0.32503296  0.00000000  0.50000000  1
  O  O47  1  0.67496704  0.00000000  0.00000000  1
  O  O48  1  0.16962480  0.66532960  0.25000000  1
  O  O49  1  0.16962480  0.33467040  0.75000000  1
  O  O50  1  0.83037520  0.66532960  0.25000000  1
  O  O51  1  0.83037520  0.33467040  0.75000000  1
  O  O52  1  0.66962480  0.16532960  0.25000000  1
  O  O53  1  0.66962480  0.83467040  0.75000000  1
  O  O54  1  0.33037520  0.16532960  0.25000000  1
  O  O55  1  0.33037520  0.83467040  0.75000000  1
  O  O56  1  0.25000000  0.75000000  0.50000000  1
  O  O57  1  0.25000000  0.25000000  0.50000000  1
  O  O58  1  0.75000000  0.75000000  0.00000000  1
  O  O59  1  0.75000000  0.25000000  0.00000000  1
  O  O60  1  0.75000000  0.25000000  0.50000000  1
  O  O61  1  0.75000000  0.75000000  0.50000000  1
  O  O62  1  0.25000000  0.25000000  0.00000000  1
  O  O63  1  0.25000000  0.75000000  0.00000000  1
  O  O64  1  0.00000000  0.33256278  0.25000000  1
  O  O65  1  0.00000000  0.66743722  0.75000000  1
  O  O66  1  0.50000000  0.83256278  0.25000000  1
  O  O67  1  0.50000000  0.16743722  0.75000000  1
  O  O68  1  0.00000000  0.50000000  0.50000000  1
  O  O69  1  0.00000000  0.50000000  0.00000000  1
  O  O70  1  0.50000000  0.00000000  0.50000000  1
  O  O71  1  0.50000000  0.00000000  0.00000000  1
