# generated using pymatgen
data_Bi8SbAuBr9
_symmetry_space_group_name_H-M   'P 1'
_cell_length_a   10.93721019
_cell_length_b   15.24017718
_cell_length_c   15.58662358
_cell_angle_alpha   90.00000000
_cell_angle_beta   90.00000000
_cell_angle_gamma   91.94362189
_symmetry_Int_Tables_number   1
_chemical_formula_structural   Bi8SbAuBr9
_chemical_formula_sum   'Bi32 Sb4 Au4 Br36'
_cell_volume   2596.56197594
_cell_formula_units_Z   4
loop_
 _symmetry_equiv_pos_site_id
 _symmetry_equiv_pos_as_xyz
  1  'x, y, z'
loop_
 _atom_site_type_symbol
 _atom_site_label
 _atom_site_symmetry_multiplicity
 _atom_site_fract_x
 _atom_site_fract_y
 _atom_site_fract_z
 _atom_site_occupancy
  Bi  Bi0  1  0.95203400  0.80027430  0.14098900  1
  Bi  Bi1  1  0.06113488  0.69481925  0.35780546  1
  Bi  Bi2  1  0.69274587  0.02214589  0.64489430  1
  Bi  Bi3  1  0.45001407  0.64306386  0.86383443  1
  Bi  Bi4  1  0.04796600  0.69972570  0.64098900  1
  Bi  Bi5  1  0.54998593  0.85693614  0.36383443  1
  Bi  Bi6  1  0.04796600  0.19972570  0.85901100  1
  Bi  Bi7  1  0.42133365  0.93519488  0.68333117  1
  Bi  Bi8  1  0.45001407  0.14306386  0.63616557  1
  Bi  Bi9  1  0.93886512  0.80518075  0.85780546  1
  Bi  Bi10  1  0.76931741  0.47321248  0.05174703  1
  Bi  Bi11  1  0.23068259  0.52678752  0.94825297  1
  Bi  Bi12  1  0.93886512  0.30518075  0.64219454  1
  Bi  Bi13  1  0.23068259  0.02678752  0.55174703  1
  Bi  Bi14  1  0.95203400  0.30027430  0.35901100  1
  Bi  Bi15  1  0.30725413  0.47785411  0.14489430  1
  Bi  Bi16  1  0.76931741  0.97321248  0.44825297  1
  Bi  Bi17  1  0.42133365  0.43519488  0.81666883  1
  Bi  Bi18  1  0.62014302  0.33014823  0.93140508  1
  Bi  Bi19  1  0.37985698  0.66985177  0.06859492  1
  Bi  Bi20  1  0.66204007  0.94483183  0.00898094  1
  Bi  Bi21  1  0.54998593  0.35693614  0.13616557  1
  Bi  Bi22  1  0.33795993  0.05516817  0.99101906  1
  Bi  Bi23  1  0.62014302  0.83014823  0.56859492  1
  Bi  Bi24  1  0.30725413  0.97785411  0.35510570  1
  Bi  Bi25  1  0.37985698  0.16985177  0.43140508  1
  Bi  Bi26  1  0.57866635  0.56480512  0.18333117  1
  Bi  Bi27  1  0.69274587  0.52214589  0.85510570  1
  Bi  Bi28  1  0.57866635  0.06480512  0.31666883  1
  Bi  Bi29  1  0.66204007  0.44483183  0.49101906  1
  Bi  Bi30  1  0.06113488  0.19481925  0.14219454  1
  Bi  Bi31  1  0.33795993  0.55516817  0.50898094  1
  Sb  Sb32  1  0.77148741  0.27111064  0.49664484  1
  Sb  Sb33  1  0.77148741  0.77111064  0.00335516  1
  Sb  Sb34  1  0.22851259  0.22888936  0.99664484  1
  Sb  Sb35  1  0.22851259  0.72888936  0.50335516  1
  Au  Au36  1  0.62306199  0.62398663  0.00640710  1
  Au  Au37  1  0.37693801  0.37601337  0.99359290  1
  Au  Au38  1  0.37693801  0.87601337  0.50640710  1
  Au  Au39  1  0.62306199  0.12398663  0.49359290  1
  Br  Br40  1  0.82585908  0.47883514  0.64519672  1
  Br  Br41  1  0.49114692  0.37265265  0.37081260  1
  Br  Br42  1  0.51514493  0.62948438  0.38740153  1
  Br  Br43  1  0.50885308  0.12734735  0.87081260  1
  Br  Br44  1  0.48485507  0.37051562  0.61259847  1
  Br  Br45  1  0.12885435  0.32248145  0.50278764  1
  Br  Br46  1  0.97937337  0.11919314  0.63658164  1
  Br  Br47  1  0.00169770  0.61933120  0.13012253  1
  Br  Br48  1  0.02062663  0.88080686  0.36341836  1
  Br  Br49  1  0.17478628  0.02396879  0.84368573  1
  Br  Br50  1  0.87114565  0.67751855  0.49721236  1
  Br  Br51  1  0.82585908  0.97883514  0.85480328  1
  Br  Br52  1  0.25850324  0.25718160  0.24909435  1
  Br  Br53  1  0.00169770  0.11933120  0.36987747  1
  Br  Br54  1  0.50885308  0.62734735  0.62918740  1
  Br  Br55  1  0.82521372  0.47603121  0.34368573  1
  Br  Br56  1  0.82521372  0.97603121  0.15631427  1
  Br  Br57  1  0.23753804  0.26402915  0.74434998  1
  Br  Br58  1  0.51514493  0.12948438  0.11259847  1
  Br  Br59  1  0.12885435  0.82248145  0.99721236  1
  Br  Br60  1  0.76246196  0.73597085  0.25565002  1
  Br  Br61  1  0.76246196  0.23597085  0.24434998  1
  Br  Br62  1  0.02062663  0.38080686  0.13658164  1
  Br  Br63  1  0.23753804  0.76402915  0.75565002  1
  Br  Br64  1  0.17478628  0.52396879  0.65631427  1
  Br  Br65  1  0.99830230  0.38066880  0.86987747  1
  Br  Br66  1  0.97937337  0.61919314  0.86341836  1
  Br  Br67  1  0.74149676  0.74281840  0.75090565  1
  Br  Br68  1  0.99830230  0.88066880  0.63012253  1
  Br  Br69  1  0.87114565  0.17751855  0.00278764  1
  Br  Br70  1  0.74149676  0.24281840  0.74909435  1
  Br  Br71  1  0.49114692  0.87265265  0.12918740  1
  Br  Br72  1  0.17414092  0.52116486  0.35480328  1
  Br  Br73  1  0.17414092  0.02116486  0.14519672  1
  Br  Br74  1  0.48485507  0.87051562  0.88740153  1
  Br  Br75  1  0.25850324  0.75718160  0.25090565  1
