# generated using pymatgen
data_CoH21C2N6Cl2O5
_symmetry_space_group_name_H-M   'P 1'
_cell_length_a   9.01981369
_cell_length_b   10.30919699
_cell_length_c   14.37749291
_cell_angle_alpha   90.00000000
_cell_angle_beta   90.00000000
_cell_angle_gamma   90.00000000
_symmetry_Int_Tables_number   1
_chemical_formula_structural   CoH21C2N6Cl2O5
_chemical_formula_sum   'Co4 H84 C8 N24 Cl8 O20'
_cell_volume   1336.92045287
_cell_formula_units_Z   4
loop_
 _symmetry_equiv_pos_site_id
 _symmetry_equiv_pos_as_xyz
  1  'x, y, z'
loop_
 _atom_site_type_symbol
 _atom_site_label
 _atom_site_symmetry_multiplicity
 _atom_site_fract_x
 _atom_site_fract_y
 _atom_site_fract_z
 _atom_site_occupancy
  Co  Co0  1  0.75142717  0.48672863  0.38168171  1
  Co  Co1  1  0.74857283  0.51327137  0.88168171  1
  Co  Co2  1  0.25142717  0.01327137  0.61831829  1
  Co  Co3  1  0.24857283  0.98672863  0.11831829  1
  H  H4  1  0.45496132  0.10548425  0.51243090  1
  H  H5  1  0.17153185  0.78182485  0.03424294  1
  H  H6  1  0.98093402  0.07451550  0.63658777  1
  H  H7  1  0.89512855  0.32388421  0.94875965  1
  H  H8  1  0.09288742  0.18943864  0.09843229  1
  H  H9  1  0.90786928  0.33731030  0.80690306  1
  H  H10  1  0.26015246  0.13250104  0.25967397  1
  H  H11  1  0.76015246  0.36749896  0.74032603  1
  H  H12  1  0.32846815  0.21817515  0.53424294  1
  H  H13  1  0.03270412  0.10716246  0.19053950  1
  H  H14  1  0.23984754  0.86749896  0.75967397  1
  H  H15  1  0.90372517  0.46692927  0.73882905  1
  H  H16  1  0.59627483  0.53307073  0.23882905  1
  H  H17  1  0.98472097  0.05964800  0.08476162  1
  H  H18  1  0.26153040  0.50773855  0.43107275  1
  H  H19  1  0.55125639  0.35526138  0.45709313  1
  H  H20  1  0.01906598  0.57451550  0.86341223  1
  H  H21  1  0.40786928  0.16268970  0.19309694  1
  H  H22  1  0.51906598  0.92548450  0.13658777  1
  H  H23  1  0.41232612  0.79003934  0.14578981  1
  H  H24  1  0.60487145  0.67611579  0.44875965  1
  H  H25  1  0.26004320  0.53554904  0.76064976  1
  H  H26  1  0.58837750  0.69284094  0.81252083  1
  H  H27  1  0.59360149  0.54992843  0.52018054  1
  H  H28  1  0.40372517  0.03307073  0.26117095  1
  H  H29  1  0.17419330  0.37756752  0.86722667  1
  H  H30  1  0.76004320  0.96445096  0.23935024  1
  H  H31  1  0.29190141  0.10532206  0.45712115  1
  H  H32  1  0.05125639  0.14473862  0.54290687  1
  H  H33  1  0.23995680  0.46445096  0.26064976  1
  H  H34  1  0.53270412  0.39283754  0.80946050  1
  H  H35  1  0.23846960  0.49226145  0.93107275  1
  H  H36  1  0.09213072  0.83731030  0.69309694  1
  H  H37  1  0.40711258  0.81056136  0.59843229  1
  H  H38  1  0.90639851  0.45007157  0.02018054  1
  H  H39  1  0.73846960  0.00773855  0.06892725  1
  H  H40  1  0.40639851  0.04992843  0.97981946  1
  H  H41  1  0.10416705  0.92909956  0.26314201  1
  H  H42  1  0.44874361  0.85526138  0.04290687  1
  H  H43  1  0.74232840  0.67451525  0.74910026  1
  H  H44  1  0.74596908  0.63947191  0.51957827  1
  H  H45  1  0.41162250  0.19284094  0.68747917  1
  H  H46  1  0.09627483  0.96692927  0.76117095  1
  H  H47  1  0.59213072  0.66268970  0.30690306  1
  H  H48  1  0.24232840  0.82548475  0.25089974  1
  H  H49  1  0.32580670  0.62243248  0.36722667  1
  H  H50  1  0.67419330  0.12243248  0.13277333  1
  H  H51  1  0.82846815  0.28182485  0.46575706  1
  H  H52  1  0.90711258  0.68943864  0.40156771  1
  H  H53  1  0.60416705  0.57090044  0.73685799  1
  H  H54  1  0.01527903  0.55964800  0.41523838  1
  H  H55  1  0.73995680  0.03554904  0.73935024  1
  H  H56  1  0.20809859  0.89467794  0.95712115  1
  H  H57  1  0.54503868  0.60548425  0.98756910  1
  H  H58  1  0.75767160  0.32548475  0.24910026  1
  H  H59  1  0.96729588  0.60716246  0.30946050  1
  H  H60  1  0.89583295  0.42909956  0.23685799  1
  H  H61  1  0.91162250  0.30715906  0.31252083  1
  H  H62  1  0.75403092  0.36052809  0.01957827  1
  H  H63  1  0.09360149  0.95007157  0.47981946  1
  H  H64  1  0.82580670  0.87756752  0.63277333  1
  H  H65  1  0.10487145  0.82388421  0.55124035  1
  H  H66  1  0.59288742  0.31056136  0.90156771  1
  H  H67  1  0.25767160  0.17451525  0.75089974  1
  H  H68  1  0.39512855  0.17611579  0.05124035  1
  H  H69  1  0.76153040  0.99226145  0.56892725  1
  H  H70  1  0.39583295  0.07090044  0.76314201  1
  H  H71  1  0.51527903  0.94035200  0.58476162  1
  H  H72  1  0.67153185  0.71817515  0.96575706  1
  H  H73  1  0.08767388  0.20996066  0.64578981  1
  H  H74  1  0.58767388  0.29003934  0.35421019  1
  H  H75  1  0.95496132  0.39451575  0.48756910  1
  H  H76  1  0.04503868  0.89451575  0.01243090  1
  H  H77  1  0.73984754  0.63250104  0.24032603  1
  H  H78  1  0.24596908  0.86052809  0.48042173  1
  H  H79  1  0.25403092  0.13947191  0.98042173  1
  H  H80  1  0.46729588  0.89283754  0.69053950  1
  H  H81  1  0.48472097  0.44035200  0.91523838  1
  H  H82  1  0.91232612  0.70996066  0.85421019  1
  H  H83  1  0.08837750  0.80715906  0.18747917  1
  H  H84  1  0.94874361  0.64473862  0.95709313  1
  H  H85  1  0.48093402  0.42548450  0.36341223  1
  H  H86  1  0.70809859  0.60532206  0.04287885  1
  H  H87  1  0.79190141  0.39467794  0.54287885  1
  C  C88  1  0.28219221  0.57017117  0.62765939  1
  C  C89  1  0.71780779  0.07017117  0.87234061  1
  C  C90  1  0.19280257  0.44386383  0.60743915  1
  C  C91  1  0.80719743  0.94386383  0.89256085  1
  C  C92  1  0.30719743  0.55613617  0.10743915  1
  C  C93  1  0.78219221  0.92982883  0.37234061  1
  C  C94  1  0.69280257  0.05613617  0.39256085  1
  C  C95  1  0.21780779  0.42982883  0.12765939  1
  N  N96  1  0.92704833  0.62241836  0.88864995  1
  N  N97  1  0.16431536  0.89927795  0.52255599  1
  N  N98  1  0.16086680  0.87448674  0.21498051  1
  N  N99  1  0.57295167  0.37758164  0.38864995  1
  N  N100  1  0.43005713  0.90265531  0.62326811  1
  N  N101  1  0.15999724  0.90982349  0.71822128  1
  N  N102  1  0.33913320  0.12551326  0.71498051  1
  N  N103  1  0.83568464  0.39927795  0.97744401  1
  N  N104  1  0.66086680  0.62551326  0.78501949  1
  N  N105  1  0.84263653  0.37865824  0.47987617  1
  N  N106  1  0.84000276  0.40982349  0.78177872  1
  N  N107  1  0.15736347  0.87865824  0.02012383  1
  N  N108  1  0.56994287  0.40265531  0.87673189  1
  N  N109  1  0.33568464  0.10072205  0.02255599  1
  N  N110  1  0.93005713  0.59734469  0.37673189  1
  N  N111  1  0.66431536  0.60072205  0.47744401  1
  N  N112  1  0.65736347  0.62134176  0.97987617  1
  N  N113  1  0.34000276  0.09017651  0.21822128  1
  N  N114  1  0.65999724  0.59017651  0.28177872  1
  N  N115  1  0.06994287  0.09734469  0.12326811  1
  N  N116  1  0.42704833  0.87758164  0.11135005  1
  N  N117  1  0.34263653  0.12134176  0.52012383  1
  N  N118  1  0.07295167  0.12241836  0.61135005  1
  N  N119  1  0.83913320  0.37448674  0.28501949  1
  Cl  Cl120  1  0.55678724  0.36909780  0.63383530  1
  Cl  Cl121  1  0.06582060  0.17292932  0.87136307  1
  Cl  Cl122  1  0.94321276  0.63090220  0.13383530  1
  Cl  Cl123  1  0.44321276  0.86909780  0.86616470  1
  Cl  Cl124  1  0.05678724  0.13090220  0.36616470  1
  Cl  Cl125  1  0.56582060  0.32707068  0.12863693  1
  Cl  Cl126  1  0.93417940  0.67292932  0.62863693  1
  Cl  Cl127  1  0.43417940  0.82707068  0.37136307  1
  O  O128  1  0.71006107  0.03210910  0.13374176  1
  O  O129  1  0.82418333  0.91453783  0.97749798  1
  O  O130  1  0.21006107  0.46789090  0.86625824  1
  O  O131  1  0.66902707  0.13982972  0.93524931  1
  O  O132  1  0.33097293  0.63982972  0.56475069  1
  O  O133  1  0.19656076  0.39869810  0.21620190  1
  O  O134  1  0.83097293  0.86017028  0.43524931  1
  O  O135  1  0.32418333  0.58546217  0.02250202  1
  O  O136  1  0.64635715  0.11788825  0.32244957  1
  O  O137  1  0.85364285  0.88211175  0.82244957  1
  O  O138  1  0.69656076  0.10130190  0.78379810  1
  O  O139  1  0.35364285  0.61788825  0.17755043  1
  O  O140  1  0.30343924  0.60130190  0.71620190  1
  O  O141  1  0.17581667  0.41453783  0.52250202  1
  O  O142  1  0.28993893  0.53210910  0.36625824  1
  O  O143  1  0.14635715  0.38211175  0.67755043  1
  O  O144  1  0.80343924  0.89869810  0.28379810  1
  O  O145  1  0.16902707  0.36017028  0.06475069  1
  O  O146  1  0.78993893  0.96789090  0.63374176  1
  O  O147  1  0.67581667  0.08546217  0.47749798  1
