# generated using pymatgen
data_TcPt
_symmetry_space_group_name_H-M   'P 1'
_cell_length_a   2.78270833
_cell_length_b   2.78270407
_cell_length_c   4.48586477
_cell_angle_alpha   89.99845307
_cell_angle_beta   90.00152080
_cell_angle_gamma   119.99379936
_symmetry_Int_Tables_number   1
_chemical_formula_structural   TcPt
_chemical_formula_sum   'Tc1 Pt1'
_cell_volume   30.08421284
_cell_formula_units_Z   1
loop_
 _symmetry_equiv_pos_site_id
 _symmetry_equiv_pos_as_xyz
  1  'x, y, z'
loop_
 _atom_site_type_symbol
 _atom_site_label
 _atom_site_symmetry_multiplicity
 _atom_site_fract_x
 _atom_site_fract_y
 _atom_site_fract_z
 _atom_site_occupancy
  Tc  Tc0  1  0.33332512  0.66667237  0.24999947  1
  Pt  Pt1  1  0.66667388  0.33332463  0.74999953  1
