# generated using pymatgen
data_Pu2Pt
_symmetry_space_group_name_H-M   'P 1'
_cell_length_a   4.63892841
_cell_length_b   7.00238152
_cell_length_c   8.97401072
_cell_angle_alpha   88.95319053
_cell_angle_beta   89.99272971
_cell_angle_gamma   90.00343604
_symmetry_Int_Tables_number   1
_chemical_formula_structural   Pu2Pt
_chemical_formula_sum   'Pu8 Pt4'
_cell_volume   291.45904056
_cell_formula_units_Z   4
loop_
 _symmetry_equiv_pos_site_id
 _symmetry_equiv_pos_as_xyz
  1  'x, y, z'
loop_
 _atom_site_type_symbol
 _atom_site_label
 _atom_site_symmetry_multiplicity
 _atom_site_fract_x
 _atom_site_fract_y
 _atom_site_fract_z
 _atom_site_occupancy
  Pu  Pu0  1  0.74992999  0.65091797  0.58113486  1
  Pu  Pu1  1  0.24996719  0.84324325  0.08077576  1
  Pu  Pu2  1  0.24993358  0.98146182  0.68170080  1
  Pu  Pu3  1  0.74994713  0.01713684  0.32206184  1
  Pu  Pu4  1  0.25014276  0.48390973  0.81672755  1
  Pu  Pu5  1  0.75002360  0.51800785  0.17820311  1
  Pu  Pu6  1  0.75008258  0.15858166  0.91918963  1
  Pu  Pu7  1  0.24997679  0.34558183  0.41817065  1
  Pt  Pt8  1  0.74987283  0.23392962  0.59925713  1
  Pt  Pt9  1  0.75012979  0.74080278  0.89919111  1
  Pt  Pt10  1  0.24999782  0.76319344  0.40214182  1
  Pt  Pt11  1  0.24999592  0.26323321  0.10144573  1
