# generated using pymatgen
data_H7NO6
_symmetry_space_group_name_H-M   'P 1'
_cell_length_a   9.77489091
_cell_length_b   15.07401435
_cell_length_c   3.53685437
_cell_angle_alpha   88.56963018
_cell_angle_beta   88.07164106
_cell_angle_gamma   90.44405089
_symmetry_Int_Tables_number   1
_chemical_formula_structural   H7NO6
_chemical_formula_sum   'H28 N4 O24'
_cell_volume   520.66766119
_cell_formula_units_Z   4
loop_
 _symmetry_equiv_pos_site_id
 _symmetry_equiv_pos_as_xyz
  1  'x, y, z'
loop_
 _atom_site_type_symbol
 _atom_site_label
 _atom_site_symmetry_multiplicity
 _atom_site_fract_x
 _atom_site_fract_y
 _atom_site_fract_z
 _atom_site_occupancy
  H  H0  1  0.49974568  0.66192926  0.89144279  1
  H  H1  1  0.55255649  0.58255377  0.19280611  1
  H  H2  1  0.05595415  0.31775265  0.29197923  1
  H  H3  1  0.90342514  0.31974968  0.65540544  1
  H  H4  1  0.09036458  0.81469094  0.82515712  1
  H  H5  1  0.94879854  0.81398269  0.21671152  1
  H  H6  1  0.50059208  0.17388707  0.62358638  1
  H  H7  1  0.44840253  0.09597975  0.33976406  1
  H  H8  1  0.46140554  0.95583459  0.18166430  1
  H  H9  1  0.58700951  0.01245771  0.00126060  1
  H  H10  1  0.01066821  0.99074987  0.32832363  1
  H  H11  1  0.91839025  0.04703315  0.61010047  1
  H  H12  1  0.98871075  0.49172110  0.17964080  1
  H  H13  1  0.08180481  0.54899708  0.88590996  1
  H  H14  1  0.41911744  0.50002579  0.51104672  1
  H  H15  1  0.54301007  0.44543146  0.33036873  1
  H  H16  1  0.29463188  0.91664490  0.57735675  1
  H  H17  1  0.15888039  0.85126231  0.18589592  1
  H  H18  1  0.34689027  0.82075186  0.48876313  1
  H  H19  1  0.32833927  0.13637169  0.66467918  1
  H  H20  1  0.16447277  0.16558816  0.97737405  1
  H  H21  1  0.13575325  0.08068990  0.72840543  1
  H  H22  1  0.82553813  0.66564064  0.54503081  1
  H  H23  1  0.86531943  0.57793539  0.78622201  1
  H  H24  1  0.67243004  0.62629192  0.85507782  1
  H  H25  1  0.65866841  0.32325748  0.97465489  1
  H  H26  1  0.68500410  0.42432379  0.87601638  1
  H  H27  1  0.84669410  0.36069406  0.27843569  1
  N  N28  1  0.74965562  0.83768311  0.32699366  1
  N  N29  1  0.75044287  0.16933229  0.80050771  1
  N  N30  1  0.25578954  0.66721681  0.68529350  1
  N  N31  1  0.25505528  0.33960444  0.18182980  1
  O  O32  1  0.64582242  0.81147717  0.49605842  1
  O  O33  1  0.86010632  0.20422920  0.89726961  1
  O  O34  1  0.14789315  0.70469762  0.58471687  1
  O  O35  1  0.35706288  0.31322176  0.01199372  1
  O  O36  1  0.86078612  0.78119924  0.34838504  1
  O  O37  1  0.64090681  0.21673526  0.79221694  1
  O  O38  1  0.36729544  0.71303357  0.69918245  1
  O  O39  1  0.14265816  0.28333746  0.18012261  1
  O  O40  1  0.76740762  0.90736694  0.14113772  1
  O  O41  1  0.74420491  0.08867906  0.71052464  1
  O  O42  1  0.25696705  0.58546255  0.77271145  1
  O  O43  1  0.24076688  0.40930761  0.35323135  1
  O  O44  1  0.57990655  0.63894622  0.03614871  1
  O  O45  1  0.92977890  0.35805919  0.43472727  1
  O  O46  1  0.07183342  0.85217915  0.04429654  1
  O  O47  1  0.41911418  0.15131858  0.48454725  1
  O  O48  1  0.49062748  0.01501038  0.08666497  1
  O  O49  1  0.01168582  0.02483806  0.55959283  1
  O  O50  1  0.98939307  0.52315134  0.93486547  1
  O  O51  1  0.51805804  0.50107923  0.45621642  1
  O  O52  1  0.31678131  0.87760649  0.36777481  1
  O  O53  1  0.20839753  0.11343967  0.86844115  1
  O  O54  1  0.78820113  0.60941166  0.65161973  1
  O  O55  1  0.68251070  0.38112631  0.08788645  1
