# generated using pymatgen
data_SrH4O3
_symmetry_space_group_name_H-M   'P 1'
_cell_length_a   3.80325883
_cell_length_b   5.78690469
_cell_length_c   7.18975280
_cell_angle_alpha   97.01945711
_cell_angle_beta   89.02859170
_cell_angle_gamma   97.93411120
_symmetry_Int_Tables_number   1
_chemical_formula_structural   SrH4O3
_chemical_formula_sum   'Sr2 H8 O6'
_cell_volume   155.55050222
_cell_formula_units_Z   2
loop_
 _symmetry_equiv_pos_site_id
 _symmetry_equiv_pos_as_xyz
  1  'x, y, z'
loop_
 _atom_site_type_symbol
 _atom_site_label
 _atom_site_symmetry_multiplicity
 _atom_site_fract_x
 _atom_site_fract_y
 _atom_site_fract_z
 _atom_site_occupancy
  Sr  Sr0  1  0.94917767  0.62065515  0.72241933  1
  Sr  Sr1  1  0.96130068  0.37049239  0.23540396  1
  H  H2  1  0.23177099  0.11472885  0.82678948  1
  H  H3  1  0.81056912  0.11069554  0.82014806  1
  H  H4  1  0.81618256  0.84271456  0.36305719  1
  H  H5  1  0.29231606  0.91550802  0.29617908  1
  H  H6  1  0.48368074  0.93586059  0.60952581  1
  H  H7  1  0.38516245  0.23990782  0.53766686  1
  H  H8  1  0.51337145  0.85411153  0.11501826  1
  H  H9  1  0.41277513  0.44617530  0.95898979  1
  O  O10  1  0.04028059  0.21674979  0.86934032  1
  O  O11  1  0.02671200  0.78794871  0.40999385  1
  O  O12  1  0.49979359  0.93054101  0.74421335  1
  O  O13  1  0.48068178  0.99634407  0.20508458  1
  O  O14  1  0.43732431  0.40077321  0.50645201  1
  O  O15  1  0.57598688  0.56519246  0.03449808  1
