# generated using pymatgen
data_Pb3O4
_symmetry_space_group_name_H-M   'P 1'
_cell_length_a   3.49728212
_cell_length_b   6.90937393
_cell_length_c   10.12499731
_cell_angle_alpha   89.95020009
_cell_angle_beta   90.07307916
_cell_angle_gamma   90.02613208
_symmetry_Int_Tables_number   1
_chemical_formula_structural   Pb3O4
_chemical_formula_sum   'Pb6 O8'
_cell_volume   244.66042121
_cell_formula_units_Z   2
loop_
 _symmetry_equiv_pos_site_id
 _symmetry_equiv_pos_as_xyz
  1  'x, y, z'
loop_
 _atom_site_type_symbol
 _atom_site_label
 _atom_site_symmetry_multiplicity
 _atom_site_fract_x
 _atom_site_fract_y
 _atom_site_fract_z
 _atom_site_occupancy
  Pb  Pb0  1  0.50157533  0.48345721  0.30722598  1
  Pb  Pb1  1  0.50107579  0.01883252  0.80675076  1
  Pb  Pb2  1  0.00042827  0.49968789  -0.00013938  1
  Pb  Pb3  1  0.49753691  0.98354881  0.19278561  1
  Pb  Pb4  1  0.49884489  0.51900501  0.69319235  1
  Pb  Pb5  1  0.99978874  0.99915186  0.50013678  1
  O  O6  1  0.50045110  0.33510357  0.08829395  1
  O  O7  1  0.50028023  0.66428187  0.91178457  1
  O  O8  1  0.49997758  0.16382589  0.58834207  1
  O  O9  1  0.49974789  0.83471574  0.41158628  1
  O  O10  1  0.99980759  0.35183645  0.80871527  1
  O  O11  1  0.99909236  0.14743680  0.30892370  1
  O  O12  1  0.00056765  0.85149694  0.69128166  1
  O  O13  1  0.00082566  0.64761941  0.19112039  1
