# generated using pymatgen
data_Al(HO)3
_symmetry_space_group_name_H-M   'P 1'
_cell_length_a   5.17301857
_cell_length_b   5.04669638
_cell_length_c   4.78538219
_cell_angle_alpha   89.41484539
_cell_angle_beta   90.28542899
_cell_angle_gamma   119.19544889
_symmetry_Int_Tables_number   1
_chemical_formula_structural   Al(HO)3
_chemical_formula_sum   'Al2 H6 O6'
_cell_volume   109.05358545
_cell_formula_units_Z   2
loop_
 _symmetry_equiv_pos_site_id
 _symmetry_equiv_pos_as_xyz
  1  'x, y, z'
loop_
 _atom_site_type_symbol
 _atom_site_label
 _atom_site_symmetry_multiplicity
 _atom_site_fract_x
 _atom_site_fract_y
 _atom_site_fract_z
 _atom_site_occupancy
  Al  Al0  1  0.32835377  0.67829760  0.00318513  1
  Al  Al1  1  0.67164623  0.34994383  0.00318513  1
  H  H2  1  0.77109226  0.98139169  0.71502910  1
  H  H3  1  0.22890774  0.21029944  0.71502910  1
  H  H4  1  1.00000000  0.58640221  0.58861675  1
  H  H5  1  0.41382966  0.00760547  0.41026635  1
  H  H6  1  0.58617034  0.59377581  0.41026635  1
  H  H7  1  0.00000000  0.19431560  0.25779180  1
  O  O8  1  0.60664357  0.00969252  0.77293011  1
  O  O9  1  0.39335643  0.40304895  0.77293011  1
  O  O10  1  1.00000000  0.64597724  0.78337083  1
  O  O11  1  0.36922693  0.01379059  0.21173736  1
  O  O12  1  0.63077307  0.64456366  0.21173736  1
  O  O13  1  0.00000000  0.38562740  0.22319653  1
