# generated using pymatgen
data_Ag2WO4
_symmetry_space_group_name_H-M   'P 1'
_cell_length_a   5.97141739
_cell_length_b   11.04043234
_cell_length_c   12.47584143
_cell_angle_alpha   90.00000000
_cell_angle_beta   90.00000000
_cell_angle_gamma   90.00000000
_symmetry_Int_Tables_number   1
_chemical_formula_structural   Ag2WO4
_chemical_formula_sum   'Ag16 W8 O32'
_cell_volume   822.49516809
_cell_formula_units_Z   8
loop_
 _symmetry_equiv_pos_site_id
 _symmetry_equiv_pos_as_xyz
  1  'x, y, z'
loop_
 _atom_site_type_symbol
 _atom_site_label
 _atom_site_symmetry_multiplicity
 _atom_site_fract_x
 _atom_site_fract_y
 _atom_site_fract_z
 _atom_site_occupancy
  Ag  Ag0  1  0.51419826  0.25932112  0.67359095  1
  Ag  Ag1  1  0.48580174  0.74067888  0.67359095  1
  Ag  Ag2  1  0.01419826  0.24067888  0.17359095  1
  Ag  Ag3  1  0.98580174  0.75932112  0.17359095  1
  Ag  Ag4  1  0.48443485  0.74357322  0.31542083  1
  Ag  Ag5  1  0.51556515  0.25642678  0.31542083  1
  Ag  Ag6  1  0.98443485  0.75642678  0.81542083  1
  Ag  Ag7  1  0.01556515  0.24357322  0.81542083  1
  Ag  Ag8  1  0.50000000  0.50000000  0.48940009  1
  Ag  Ag9  1  -0.00000000  -0.00000000  0.98940009  1
  Ag  Ag10  1  0.50000000  0.50000000  0.16906048  1
  Ag  Ag11  1  -0.00000000  -0.00000000  0.66906048  1
  Ag  Ag12  1  0.50000000  0.50000000  0.81759347  1
  Ag  Ag13  1  -0.00000000  -0.00000000  0.31759347  1
  Ag  Ag14  1  -0.00000000  0.50000000  0.00478632  1
  Ag  Ag15  1  0.50000000  -0.00000000  0.50478632  1
  W  W16  1  0.97021621  0.75351893  0.49065228  1
  W  W17  1  0.02978379  0.24648107  0.49065228  1
  W  W18  1  0.47021621  0.74648107  0.99065228  1
  W  W19  1  0.52978379  0.25351893  0.99065228  1
  W  W20  1  -0.00000000  0.50000000  0.34743272  1
  W  W21  1  0.50000000  -0.00000000  0.84743272  1
  W  W22  1  -0.00000000  0.50000000  0.63279140  1
  W  W23  1  0.50000000  -0.00000000  0.13279140  1
  O  O24  1  0.30385235  0.86390040  0.09981081  1
  O  O25  1  0.69614765  0.13609960  0.09981081  1
  O  O26  1  0.80385235  0.63609960  0.59981081  1
  O  O27  1  0.19614765  0.36390040  0.59981081  1
  O  O28  1  0.30197378  0.86479470  0.88036660  1
  O  O29  1  0.69802622  0.13520530  0.88036660  1
  O  O30  1  0.80197378  0.63520530  0.38036660  1
  O  O31  1  0.19802622  0.36479470  0.38036660  1
  O  O32  1  0.68845285  0.92001741  0.22318921  1
  O  O33  1  0.31154715  0.07998259  0.22318921  1
  O  O34  1  0.18845285  0.57998259  0.72318921  1
  O  O35  1  0.81154715  0.42001741  0.72318921  1
  O  O36  1  0.68713505  0.92066141  0.75570707  1
  O  O37  1  0.31286495  0.07933859  0.75570707  1
  O  O38  1  0.18713505  0.57933859  0.25570707  1
  O  O39  1  0.81286495  0.42066141  0.25570707  1
  O  O40  1  0.22326213  0.64783245  0.99423294  1
  O  O41  1  0.77673787  0.35216755  0.99423294  1
  O  O42  1  0.72326213  0.85216755  0.49423294  1
  O  O43  1  0.27673787  0.14783245  0.49423294  1
  O  O44  1  0.65010788  0.91271852  0.99010287  1
  O  O45  1  0.34989212  0.08728148  0.99010287  1
  O  O46  1  0.15010788  0.58728148  0.49010287  1
  O  O47  1  0.84989212  0.41271852  0.49010287  1
  O  O48  1  0.64243123  0.68523752  0.10033785  1
  O  O49  1  0.35756877  0.31476248  0.10033785  1
  O  O50  1  0.14243123  0.81476248  0.60033785  1
  O  O51  1  0.85756877  0.18523752  0.60033785  1
  O  O52  1  0.63042386  0.68781177  0.87430634  1
  O  O53  1  0.36957614  0.31218823  0.87430634  1
  O  O54  1  0.13042386  0.81218823  0.37430634  1
  O  O55  1  0.86957614  0.18781177  0.37430634  1
