# generated using pymatgen
data_Ti3H2O7
_symmetry_space_group_name_H-M   'P 1'
_cell_length_a   8.31655263
_cell_length_b   8.31655263
_cell_length_c   9.29680532
_cell_angle_alpha   78.83766593
_cell_angle_beta   101.16233407
_cell_angle_gamma   153.71351960
_symmetry_Int_Tables_number   1
_chemical_formula_structural   Ti3H2O7
_chemical_formula_sum   'Ti6 H4 O14'
_cell_volume   279.08123062
_cell_formula_units_Z   2
loop_
 _symmetry_equiv_pos_site_id
 _symmetry_equiv_pos_as_xyz
  1  'x, y, z'
loop_
 _atom_site_type_symbol
 _atom_site_label
 _atom_site_symmetry_multiplicity
 _atom_site_fract_x
 _atom_site_fract_y
 _atom_site_fract_z
 _atom_site_occupancy
  Ti  Ti0  1  0.77229810  0.22770190  0.78766379  1
  Ti  Ti1  1  0.22711863  0.77288137  0.21589221  1
  Ti  Ti2  1  0.83214013  0.16785987  0.48464595  1
  Ti  Ti3  1  0.17720628  0.82279372  0.51496953  1
  Ti  Ti4  1  0.87356983  0.12643017  0.17753366  1
  Ti  Ti5  1  0.12068037  0.87931963  0.83328941  1
  H  H6  1  0.02103325  0.97896675  0.53635923  1
  H  H7  1  0.99996141  0.00003859  0.03369086  1
  H  H8  1  0.04665502  0.95334498  0.21222456  1
  H  H9  1  0.95565891  0.04434109  0.78889816  1
  O  O10  1  0.83252958  0.16747042  0.96936794  1
  O  O11  1  0.16797167  0.83202833  0.03523574  1
  O  O12  1  0.86556974  0.13443026  0.68384961  1
  O  O13  1  0.13417898  0.86582102  0.31805958  1
  O  O14  1  0.92090609  0.07909391  0.39231834  1
  O  O15  1  0.07832645  0.92167355  0.59891524  1
  O  O16  1  0.99076171  0.00923829  0.13843570  1
  O  O17  1  0.01219090  0.98780910  0.85983021  1
  O  O18  1  0.65177389  0.34822611  0.82270214  1
  O  O19  1  0.34690992  0.65309008  0.17895587  1
  O  O20  1  0.70648524  0.29351476  0.54132782  1
  O  O21  1  0.29490267  0.70509733  0.45510521  1
  O  O22  1  0.75997290  0.24002710  0.25051473  1
  O  O23  1  0.23833932  0.76166068  0.74535352  1
