# generated using pymatgen
data_Ba(HO)2
_symmetry_space_group_name_H-M   'P 1'
_cell_length_a   9.13888913
_cell_length_b   8.26256204
_cell_length_c   7.04470116
_cell_angle_alpha   90.00000000
_cell_angle_beta   97.72643384
_cell_angle_gamma   90.00000000
_symmetry_Int_Tables_number   1
_chemical_formula_structural   Ba(HO)2
_chemical_formula_sum   'Ba8 H16 O16'
_cell_volume   527.12045710
_cell_formula_units_Z   8
loop_
 _symmetry_equiv_pos_site_id
 _symmetry_equiv_pos_as_xyz
  1  'x, y, z'
loop_
 _atom_site_type_symbol
 _atom_site_label
 _atom_site_symmetry_multiplicity
 _atom_site_fract_x
 _atom_site_fract_y
 _atom_site_fract_z
 _atom_site_occupancy
  Ba  Ba0  1  0.90443914  0.13380834  0.23648028  1
  Ba  Ba1  1  0.40443914  0.36619166  0.73648028  1
  Ba  Ba2  1  0.09556086  0.86619166  0.76351972  1
  Ba  Ba3  1  0.59556086  0.63380834  0.26351972  1
  Ba  Ba4  1  0.32884147  0.03969105  0.29463507  1
  Ba  Ba5  1  0.82884147  0.46030895  0.79463507  1
  Ba  Ba6  1  0.67115853  0.96030895  0.70536493  1
  Ba  Ba7  1  0.17115853  0.53969105  0.20536493  1
  H  H8  1  0.61661804  0.01646513  0.18942982  1
  H  H9  1  0.11661804  0.48353487  0.68942982  1
  H  H10  1  0.38338196  0.98353487  0.81057018  1
  H  H11  1  0.88338196  0.51646513  0.31057018  1
  H  H12  1  0.17608431  0.80084690  0.41525161  1
  H  H13  1  0.67608431  0.69915310  0.91525161  1
  H  H14  1  0.82391569  0.19915310  0.58474839  1
  H  H15  1  0.32391569  0.30084690  0.08474839  1
  H  H16  1  0.92477147  0.81385420  0.10526265  1
  H  H17  1  0.42477147  0.68614580  0.60526265  1
  H  H18  1  0.07522853  0.18614580  0.89473735  1
  H  H19  1  0.57522853  0.31385420  0.39473735  1
  H  H20  1  0.39795321  0.75197225  0.94799148  1
  H  H21  1  0.89795321  0.74802775  0.44799148  1
  H  H22  1  0.60204679  0.24802775  0.05200852  1
  H  H23  1  0.10204679  0.25197225  0.55200852  1
  O  O24  1  0.62307778  0.96864527  0.31740253  1
  O  O25  1  0.12307778  0.53135473  0.81740253  1
  O  O26  1  0.37692222  0.03135473  0.68259747  1
  O  O27  1  0.87692222  0.46864527  0.18259747  1
  O  O28  1  0.08498554  0.85583430  0.35695689  1
  O  O29  1  0.58498554  0.64416570  0.85695689  1
  O  O30  1  0.91501446  0.14416570  0.64304311  1
  O  O31  1  0.41501446  0.35583430  0.14304311  1
  O  O32  1  0.86526454  0.84195608  0.98400421  1
  O  O33  1  0.36526454  0.65804392  0.48400421  1
  O  O34  1  0.13473546  0.15804392  0.01599579  1
  O  O35  1  0.63473546  0.34195608  0.51599579  1
  O  O36  1  0.33472145  0.80281198  0.03315992  1
  O  O37  1  0.83472145  0.69718802  0.53315992  1
  O  O38  1  0.66527855  0.19718802  0.96684008  1
  O  O39  1  0.16527855  0.30281198  0.46684008  1
