# generated using pymatgen
data_BaNb2O6
_symmetry_space_group_name_H-M   'P 1'
_cell_length_a   3.97929837
_cell_length_b   6.23495059
_cell_length_c   10.72756591
_cell_angle_alpha   89.99977050
_cell_angle_beta   90.00025426
_cell_angle_gamma   89.99997111
_symmetry_Int_Tables_number   1
_chemical_formula_structural   BaNb2O6
_chemical_formula_sum   'Ba2 Nb4 O12'
_cell_volume   266.15872761
_cell_formula_units_Z   2
loop_
 _symmetry_equiv_pos_site_id
 _symmetry_equiv_pos_as_xyz
  1  'x, y, z'
loop_
 _atom_site_type_symbol
 _atom_site_label
 _atom_site_symmetry_multiplicity
 _atom_site_fract_x
 _atom_site_fract_y
 _atom_site_fract_z
 _atom_site_occupancy
  Ba  Ba0  1  0.99999072  0.31228101  0.75000226  1
  Ba  Ba1  1  0.00000189  0.68772243  0.25000005  1
  Nb  Nb2  1  0.50000257  0.21513508  0.07822296  1
  Nb  Nb3  1  0.49999605  0.21513288  0.42177831  1
  Nb  Nb4  1  0.50001712  0.78486524  0.57822095  1
  Nb  Nb5  1  0.49998355  0.78486867  0.92177718  1
  O  O6  1  0.99999887  0.22118224  0.41307080  1
  O  O7  1  0.50000165  0.89540472  0.39292083  1
  O  O8  1  0.50000267  0.89540488  0.10707879  1
  O  O9  1  0.00000666  0.22118139  0.08692938  1
  O  O10  1  0.49999977  0.10459673  0.60707843  1
  O  O11  1  0.99999805  0.77881525  0.58692901  1
  O  O12  1  0.00000215  0.77881631  0.91307028  1
  O  O13  1  0.50000246  0.34386771  0.24999955  1
  O  O14  1  0.50000035  0.49999928  0.00000064  1
  O  O15  1  0.50000048  0.10459319  0.89292067  1
  O  O16  1  0.49999916  0.65613364  0.74999961  1
  O  O17  1  0.49999583  0.49999935  0.50000028  1
