# generated using pymatgen
data_AlBiTeCl4
_symmetry_space_group_name_H-M   'P 1'
_cell_length_a   10.65814552
_cell_length_b   10.65818151
_cell_length_c   10.65827189
_cell_angle_alpha   107.62962073
_cell_angle_beta   107.62936324
_cell_angle_gamma   113.22094307
_symmetry_Int_Tables_number   1
_chemical_formula_structural   AlBiTeCl4
_chemical_formula_sum   'Al4 Bi4 Te4 Cl16'
_cell_volume   929.01553264
_cell_formula_units_Z   4
loop_
 _symmetry_equiv_pos_site_id
 _symmetry_equiv_pos_as_xyz
  1  'x, y, z'
loop_
 _atom_site_type_symbol
 _atom_site_label
 _atom_site_symmetry_multiplicity
 _atom_site_fract_x
 _atom_site_fract_y
 _atom_site_fract_z
 _atom_site_occupancy
  Al  Al0  1  0.01101587  0.28378604  0.87370236  1
  Al  Al1  1  0.71621865  0.58993032  0.72723524  1
  Al  Al2  1  0.86269981  0.98898632  0.27277390  1
  Al  Al3  1  0.41007427  0.13730302  0.12629525  1
  Bi  Bi4  1  0.53668914  0.93100791  0.71863087  1
  Bi  Bi5  1  0.06899453  0.78762555  0.60568022  1
  Bi  Bi6  1  0.18194673  0.46331755  0.39432332  1
  Bi  Bi7  1  0.21237648  0.81805889  0.28137135  1
  Te  Te8  1  0.26960615  0.66864692  0.70973305  1
  Te  Te9  1  0.44012818  0.73039460  0.39904285  1
  Te  Te10  1  0.95891406  0.55987557  0.29026928  1
  Te  Te11  1  0.33135253  0.04108702  0.60095827  1
  Cl  Cl12  1  0.18417510  0.92542405  0.96432733  1
  Cl  Cl13  1  0.96110246  0.21985627  0.03567320  1
  Cl  Cl14  1  0.46441007  0.44275647  0.61340404  1
  Cl  Cl15  1  0.07456008  0.03887475  0.25871782  1
  Cl  Cl16  1  0.91143964  0.21979181  0.40653835  1
  Cl  Cl17  1  0.14897866  0.53558731  0.97833249  1
  Cl  Cl18  1  0.13134956  0.19266953  0.78917060  1
  Cl  Cl19  1  0.80734492  0.59651829  0.93868180  1
  Cl  Cl20  1  0.55724727  0.17064542  0.02165843  1
  Cl  Cl21  1  0.78019776  0.18672870  0.69164145  1
  Cl  Cl22  1  0.82935326  0.85101482  0.38660887  1
  Cl  Cl23  1  0.65782787  0.86865420  0.06132534  1
  Cl  Cl24  1  0.49510905  0.08855888  0.30835368  1
  Cl  Cl25  1  0.81324101  0.50489379  0.59345251  1
  Cl  Cl26  1  0.78015465  0.81583394  0.74126729  1
  Cl  Cl27  1  0.40349224  0.34217206  0.21083083  1
