# generated using pymatgen
data_Fe2O3
_symmetry_space_group_name_H-M   'P 1'
_cell_length_a   5.21533666
_cell_length_b   8.95247353
_cell_length_c   9.59551910
_cell_angle_alpha   90.00000000
_cell_angle_beta   90.00000000
_cell_angle_gamma   90.00000000
_symmetry_Int_Tables_number   1
_chemical_formula_structural   Fe2O3
_chemical_formula_sum   'Fe16 O24'
_cell_volume   448.01635467
_cell_formula_units_Z   8
loop_
 _symmetry_equiv_pos_site_id
 _symmetry_equiv_pos_as_xyz
  1  'x, y, z'
loop_
 _atom_site_type_symbol
 _atom_site_label
 _atom_site_symmetry_multiplicity
 _atom_site_fract_x
 _atom_site_fract_y
 _atom_site_fract_z
 _atom_site_occupancy
  Fe  Fe0  1  0.68771128  0.34032702  0.87180800  1
  Fe  Fe1  1  0.31228872  0.65967298  0.37180800  1
  Fe  Fe2  1  0.18771128  0.15967298  0.87180800  1
  Fe  Fe3  1  0.81228872  0.84032702  0.37180800  1
  Fe  Fe4  1  0.67770632  0.65106879  0.06188199  1
  Fe  Fe5  1  0.17770632  0.84893121  0.06188199  1
  Fe  Fe6  1  0.82229368  0.15106879  0.56188199  1
  Fe  Fe7  1  0.32229368  0.34893121  0.56188199  1
  Fe  Fe8  1  0.69140968  0.65270658  0.64497193  1
  Fe  Fe9  1  0.80859032  0.15270658  0.14497193  1
  Fe  Fe10  1  0.30859032  0.34729342  0.14497193  1
  Fe  Fe11  1  0.19140968  0.84729342  0.64497193  1
  Fe  Fe12  1  0.17561839  0.53155442  0.85944746  1
  Fe  Fe13  1  0.67561839  0.96844558  0.85944746  1
  Fe  Fe14  1  0.82438161  0.46844558  0.35944746  1
  Fe  Fe15  1  0.32438161  0.03155442  0.35944746  1
  O  O16  1  0.83833542  0.15897851  0.76255816  1
  O  O17  1  0.33833542  0.34102149  0.76255816  1
  O  O18  1  0.16166458  0.84102149  0.26255816  1
  O  O19  1  0.66166458  0.65897851  0.26255816  1
  O  O20  1  0.65379426  0.33060424  0.23401844  1
  O  O21  1  0.34620574  0.66939576  0.73401844  1
  O  O22  1  0.15379426  0.16939576  0.23401844  1
  O  O23  1  0.84620574  0.83060424  0.73401844  1
  O  O24  1  0.15916958  0.50023867  0.26640298  1
  O  O25  1  0.34083042  0.00023867  0.76640298  1
  O  O26  1  0.65916958  0.99976133  0.26640298  1
  O  O27  1  0.84083042  0.49976133  0.76640298  1
  O  O28  1  0.98217840  0.67669118  0.49178809  1
  O  O29  1  0.01782160  0.32330882  0.99178809  1
  O  O30  1  0.48217840  0.82330882  0.49178809  1
  O  O31  1  0.51782160  0.17669118  0.99178809  1
  O  O32  1  0.47838249  0.16836639  0.49856839  1
  O  O33  1  0.02161751  0.66836639  0.99856839  1
  O  O34  1  0.97838249  0.33163361  0.49856839  1
  O  O35  1  0.52161751  0.83163361  0.99856839  1
  O  O36  1  0.02521400  0.98836606  0.49605456  1
  O  O37  1  0.97478600  0.01163394  0.99605456  1
  O  O38  1  0.52521400  0.51163394  0.49605456  1
  O  O39  1  0.47478600  0.48836606  0.99605456  1
