# generated using pymatgen
data_Eu2MgH6
_symmetry_space_group_name_H-M   'P 1'
_cell_length_a   5.65886435
_cell_length_b   5.66081400
_cell_length_c   4.21887073
_cell_angle_alpha   90.00000000
_cell_angle_beta   89.76244034
_cell_angle_gamma   120.01139690
_symmetry_Int_Tables_number   1
_chemical_formula_structural   Eu2MgH6
_chemical_formula_sum   'Eu2 Mg1 H6'
_cell_volume   117.02540506
_cell_formula_units_Z   1
loop_
 _symmetry_equiv_pos_site_id
 _symmetry_equiv_pos_as_xyz
  1  'x, y, z'
loop_
 _atom_site_type_symbol
 _atom_site_label
 _atom_site_symmetry_multiplicity
 _atom_site_fract_x
 _atom_site_fract_y
 _atom_site_fract_z
 _atom_site_occupancy
  Eu  Eu0  1  0.66263872  0.33131936  0.74080404  1
  Eu  Eu1  1  0.33736128  0.66868064  0.25919596  1
  Mg  Mg2  1  0.00000000  0.00000000  0.00000000  1
  H  H3  1  0.64261816  0.82130908  0.76040019  1
  H  H4  1  0.17946920  0.35729138  0.76000790  1
  H  H5  1  0.17946920  0.82217782  0.76000790  1
  H  H6  1  0.35738184  0.17869092  0.23959981  1
  H  H7  1  0.82053080  0.64270862  0.23999210  1
  H  H8  1  0.82053080  0.17782218  0.23999210  1
