# generated using pymatgen
data_Mo9O26
_symmetry_space_group_name_H-M   'P 1'
_cell_length_a   8.52037967
_cell_length_b   12.09150215
_cell_length_c   20.14396706
_cell_angle_alpha   95.41450301
_cell_angle_beta   92.41094475
_cell_angle_gamma   109.69235768
_symmetry_Int_Tables_number   1
_chemical_formula_structural   Mo9O26
_chemical_formula_sum   'Mo36 O104'
_cell_volume   1939.17456656
_cell_formula_units_Z   4
loop_
 _symmetry_equiv_pos_site_id
 _symmetry_equiv_pos_as_xyz
  1  'x, y, z'
loop_
 _atom_site_type_symbol
 _atom_site_label
 _atom_site_symmetry_multiplicity
 _atom_site_fract_x
 _atom_site_fract_y
 _atom_site_fract_z
 _atom_site_occupancy
  Mo  Mo0  1  0.64485259  0.19694213  0.34854009  1
  Mo  Mo1  1  0.43178596  0.01332378  0.17711540  1
  Mo  Mo2  1  0.37323011  0.99278115  0.43323645  1
  Mo  Mo3  1  0.99683513  0.35305836  0.15555233  1
  Mo  Mo4  1  0.39800530  0.51027431  0.69741971  1
  Mo  Mo5  1  0.78357742  0.17194612  0.99067637  1
  Mo  Mo6  1  0.62384523  0.69779614  0.86138346  1
  Mo  Mo7  1  0.93701010  0.92651961  0.79878405  1
  Mo  Mo8  1  0.37615477  0.30220386  0.13861654  1
  Mo  Mo9  1  0.13758307  0.80642543  0.25980289  1
  Mo  Mo10  1  0.72915491  0.93027297  0.40707896  1
  Mo  Mo11  1  0.00316487  0.64694164  0.84444767  1
  Mo  Mo12  1  0.30011261  0.56642111  0.07444038  1
  Mo  Mo13  1  0.08156988  0.38239093  0.91035170  1
  Mo  Mo14  1  0.91843012  0.61760907  0.08964830  1
  Mo  Mo15  1  0.21642258  0.82805388  0.00932363  1
  Mo  Mo16  1  0.51660034  0.75025812  0.23847600  1
  Mo  Mo17  1  0.69504606  0.72954910  0.62547376  1
  Mo  Mo18  1  0.21728280  0.54024326  0.31889199  1
  Mo  Mo19  1  0.84307127  0.88513508  0.03088069  1
  Mo  Mo20  1  0.60199470  0.48972569  0.30258029  1
  Mo  Mo21  1  0.62676989  0.00721885  0.56676355  1
  Mo  Mo22  1  0.06298990  0.07348039  0.20121595  1
  Mo  Mo23  1  0.34106858  0.62148506  0.49358068  1
  Mo  Mo24  1  0.27084509  0.06972703  0.59292104  1
  Mo  Mo25  1  0.86241693  0.19357457  0.74019711  1
  Mo  Mo26  1  0.78271720  0.45975674  0.68110801  1
  Mo  Mo27  1  0.56821404  0.98667622  0.82288460  1
  Mo  Mo28  1  0.30495394  0.27045090  0.37452624  1
  Mo  Mo29  1  0.48339966  0.24974188  0.76152400  1
  Mo  Mo30  1  0.65893142  0.37851494  0.50641932  1
  Mo  Mo31  1  0.82696214  0.67381002  0.46578704  1
  Mo  Mo32  1  0.15692873  0.11486492  0.96911931  1
  Mo  Mo33  1  0.69988739  0.43357889  0.92555962  1
  Mo  Mo34  1  0.17303786  0.32618998  0.53421296  1
  Mo  Mo35  1  0.35514741  0.80305787  0.65145991  1
  O  O36  1  0.32739797  0.42744293  0.34858760  1
  O  O37  1  0.87414527  0.04209004  0.00322979  1
  O  O38  1  0.34417999  0.14284803  0.16855761  1
  O  O39  1  0.48371444  0.60316651  0.03817305  1
  O  O40  1  0.04723014  0.22451709  0.94043422  1
  O  O41  1  0.18692817  0.68556150  0.80785061  1
  O  O42  1  0.65248359  0.35058032  0.59260545  1
  O  O43  1  0.37299161  0.94193401  0.85056873  1
  O  O44  1  0.96112792  0.77687897  0.30176771  1
  O  O45  1  0.29347996  0.20769392  0.79335354  1
  O  O46  1  0.01431674  0.00887860  0.87814400  1
  O  O47  1  0.51628556  0.39683349  0.96182695  1
  O  O48  1  0.55482990  0.33552774  0.09805949  1
  O  O49  1  0.81252305  0.52417487  0.50714104  1
  O  O50  1  0.21275581  0.98035524  0.48979592  1
  O  O51  1  0.34751641  0.64941968  0.40739455  1
  O  O52  1  0.08963864  0.73798278  0.93361607  1
  O  O53  1  0.78299079  0.52193985  0.26414073  1
  O  O54  1  0.54439369  0.62707378  0.52559984  1
  O  O55  1  0.76575389  0.80427353  0.94996965  1
  O  O56  1  0.48234476  0.89765292  0.46631131  1
  O  O57  1  0.11232943  0.95541441  0.75625119  1
  O  O58  1  0.23424611  0.19572647  0.05003035  1
  O  O59  1  0.26977420  0.41281585  0.11415660  1
  O  O60  1  0.81307183  0.31443850  0.19214939  1
  O  O61  1  0.60214057  0.84639432  0.59611830  1
  O  O62  1  0.62700839  0.05806599  0.14943127  1
  O  O63  1  0.58199541  0.12326299  0.77471480  1
  O  O64  1  0.73022580  0.58718415  0.88584340  1
  O  O65  1  0.15294772  0.75096203  0.67194252  1
  O  O66  1  0.85380988  0.74556515  0.56719062  1
  O  O67  1  0.98568326  0.99112140  0.12185600  1
  O  O68  1  0.61320948  0.34178334  0.83640218  1
  O  O69  1  0.02627859  0.71831212  0.44244841  1
  O  O70  1  0.92535538  0.00034156  0.38398541  1
  O  O71  1  0.68514606  0.57360405  0.39106224  1
  O  O72  1  0.45539884  0.38133633  0.22119339  1
  O  O73  1  0.84705228  0.24903797  0.32805748  1
  O  O74  1  0.37533796  0.93908495  0.60333789  1
  O  O75  1  0.72720054  0.28341623  0.45121385  1
  O  O76  1  0.96288548  0.49697543  0.64156492  1
  O  O77  1  0.82500764  0.03451042  0.76658653  1
  O  O78  1  0.50316695  0.38890354  0.71684903  1
  O  O79  1  0.66611278  0.85193789  0.07243856  1
  O  O80  1  0.72733059  0.08952908  0.64295792  1
  O  O81  1  0.58968884  0.12834310  0.01942045  1
  O  O82  1  0.97372141  0.28168788  0.55755159  1
  O  O83  1  0.31485394  0.42639595  0.60893776  1
  O  O84  1  0.25016802  0.19585973  0.55471103  1
  O  O85  1  0.03711452  0.50302457  0.35843508  1
  O  O86  1  0.38679052  0.65821666  0.16359782  1
  O  O87  1  0.27266941  0.91047092  0.35704208  1
  O  O88  1  0.89855024  0.76994337  0.82351723  1
  O  O89  1  0.39785943  0.15360568  0.40388170  1
  O  O90  1  0.67260203  0.57255707  0.65141240  1
  O  O91  1  0.17499236  0.96548958  0.23341347  1
  O  O92  1  0.27279946  0.71658377  0.54878615  1
  O  O93  1  0.41031116  0.87165690  0.98057955  1
  O  O94  1  0.02211954  0.50698548  0.11611742  1
  O  O95  1  0.95276986  0.77548291  0.05956578  1
  O  O96  1  0.49683305  0.61109646  0.28315097  1
  O  O97  1  0.51765524  0.10234708  0.53368869  1
  O  O98  1  0.46786678  0.88749709  0.72716808  1
  O  O99  1  0.91036136  0.26201722  0.06638393  1
  O  O100  1  0.14619012  0.25443485  0.43280938  1
  O  O101  1  0.79943499  0.30964664  0.94652336  1
  O  O102  1  0.83932319  0.53900564  0.00697127  1
  O  O103  1  0.44517010  0.66447226  0.90194051  1
  O  O104  1  0.30797614  0.92357339  0.10334024  1
  O  O105  1  0.78724419  0.01964476  0.51020408  1
  O  O106  1  0.97788046  0.49301452  0.88388258  1
  O  O107  1  0.45560631  0.37292622  0.47440016  1
  O  O108  1  0.18747695  0.47582513  0.49285896  1
  O  O109  1  0.33388722  0.14806211  0.92756144  1
  O  O110  1  0.19813123  0.18526073  0.30110255  1
  O  O111  1  0.55667757  0.32972958  0.34359359  1
  O  O112  1  0.69202386  0.07642661  0.89665976  1
  O  O113  1  0.54460116  0.61866367  0.77880661  1
  O  O114  1  0.39009412  0.15099933  0.67073500  1
  O  O115  1  0.88767057  0.04458559  0.24374881  1
  O  O116  1  0.20056501  0.69035336  0.05347664  1
  O  O117  1  0.21700921  0.47806015  0.73585927  1
  O  O118  1  0.16067681  0.46099436  0.99302873  1
  O  O119  1  0.14111734  0.45698667  0.23766355  1
  O  O120  1  0.03887208  0.22312103  0.69823229  1
  O  O121  1  0.60990588  0.84900067  0.32926500  1
  O  O122  1  0.85888266  0.54301333  0.76233645  1
  O  O123  1  0.41800459  0.87673701  0.22528520  1
  O  O124  1  0.70652004  0.79230608  0.20664646  1
  O  O125  1  0.80186877  0.81473927  0.69889745  1
  O  O126  1  0.53213322  0.11250291  0.27283192  1
  O  O127  1  0.24261394  0.69472569  0.28864454  1
  O  O128  1  0.94062738  0.27271664  0.82072695  1
  O  O129  1  0.12585473  0.95790996  0.99677021  1
  O  O130  1  0.73869906  0.58646628  0.12920940  1
  O  O131  1  0.10144976  0.23005663  0.17648277  1
  O  O132  1  0.75738606  0.30527431  0.71135546  1
  O  O133  1  0.74983198  0.80414027  0.44528897  1
  O  O134  1  0.05937262  0.72728336  0.17927305  1
  O  O135  1  0.26130094  0.41353372  0.87079060  1
  O  O136  1  0.65582001  0.85715197  0.83144239  1
  O  O137  1  0.62466204  0.06091505  0.39666211  1
  O  O138  1  0.07464462  0.99965844  0.61601459  1
  O  O139  1  0.44332243  0.67027042  0.65640641  1
