# generated using pymatgen
data_LiSbP2O7
_symmetry_space_group_name_H-M   'P 1'
_cell_length_a   9.02909022
_cell_length_b   5.13875504
_cell_length_c   13.13140191
_cell_angle_alpha   90.00000000
_cell_angle_beta   102.40076188
_cell_angle_gamma   90.00000000
_symmetry_Int_Tables_number   1
_chemical_formula_structural   LiSbP2O7
_chemical_formula_sum   'Li4 Sb4 P8 O28'
_cell_volume   595.05977436
_cell_formula_units_Z   4
loop_
 _symmetry_equiv_pos_site_id
 _symmetry_equiv_pos_as_xyz
  1  'x, y, z'
loop_
 _atom_site_type_symbol
 _atom_site_label
 _atom_site_symmetry_multiplicity
 _atom_site_fract_x
 _atom_site_fract_y
 _atom_site_fract_z
 _atom_site_occupancy
  Li  Li0  1  0.87142746  0.72623770  0.29439159  1
  Li  Li1  1  0.12857254  0.27376230  0.70560841  1
  Li  Li2  1  0.62857254  0.22623770  0.20560841  1
  Li  Li3  1  0.37142746  0.77376230  0.79439159  1
  Sb  Sb4  1  0.76247457  0.77745287  0.02903464  1
  Sb  Sb5  1  0.73752543  0.27745287  0.47096536  1
  Sb  Sb6  1  0.23752543  0.22254713  0.97096536  1
  Sb  Sb7  1  0.26247457  0.72254713  0.52903464  1
  P  P8  1  0.53838160  0.75337585  0.34099154  1
  P  P9  1  0.93942107  0.78439708  0.61732451  1
  P  P10  1  0.56057893  0.28439708  0.88267549  1
  P  P11  1  0.96161840  0.25337585  0.15900846  1
  P  P12  1  0.06057893  0.21560292  0.38267549  1
  P  P13  1  0.03838160  0.74662415  0.84099154  1
  P  P14  1  0.46161840  0.24662415  0.65900846  1
  P  P15  1  0.43942107  0.71560292  0.11732451  1
  O  O16  1  0.45694079  0.42214233  0.10674929  1
  O  O17  1  0.58958224  0.22361015  0.76709734  1
  O  O18  1  0.08958224  0.27638985  0.26709734  1
  O  O19  1  0.88540672  0.98129505  0.16531591  1
  O  O20  1  0.65883024  0.96424732  0.33463954  1
  O  O21  1  0.95924135  0.72650491  0.92948100  1
  O  O22  1  0.15883024  0.53575268  0.83463954  1
  O  O23  1  0.58902862  0.86404020  0.11554448  1
  O  O24  1  0.69720225  0.16993144  0.95910415  1
  O  O25  1  0.34116976  0.03575268  0.66536046  1
  O  O26  1  0.11459328  0.01870495  0.83468409  1
  O  O27  1  0.91097138  0.36404020  0.38445552  1
  O  O28  1  0.54075865  0.22650491  0.57051900  1
  O  O29  1  0.19720225  0.33006856  0.45910415  1
  O  O30  1  0.61459328  0.48129505  0.33468409  1
  O  O31  1  0.08902862  0.63595980  0.61554448  1
  O  O32  1  0.04305921  0.92214233  0.39325071  1
  O  O33  1  0.45924135  0.77349509  0.42948100  1
  O  O34  1  0.30279775  0.83006856  0.04089585  1
  O  O35  1  0.38540672  0.51870495  0.66531591  1
  O  O36  1  0.84116976  0.46424732  0.16536046  1
  O  O37  1  0.80279775  0.66993144  0.54089585  1
  O  O38  1  0.04075865  0.27349509  0.07051900  1
  O  O39  1  0.54305921  0.57785767  0.89325071  1
  O  O40  1  0.41041776  0.77638985  0.23290266  1
  O  O41  1  0.91041776  0.72361015  0.73290266  1
  O  O42  1  0.95694079  0.07785767  0.60674929  1
  O  O43  1  0.41097138  0.13595980  0.88445552  1
