# generated using pymatgen
data_CuAg3S2
_symmetry_space_group_name_H-M   'P 1'
_cell_length_a   8.54906479
_cell_length_b   8.54906465
_cell_length_c   8.54906489
_cell_angle_alpha   92.97003556
_cell_angle_beta   118.30032635
_cell_angle_gamma   118.30031856
_symmetry_Int_Tables_number   1
_chemical_formula_structural   CuAg3S2
_chemical_formula_sum   'Cu4 Ag12 S8'
_cell_volume   452.50822575
_cell_formula_units_Z   4
loop_
 _symmetry_equiv_pos_site_id
 _symmetry_equiv_pos_as_xyz
  1  'x, y, z'
loop_
 _atom_site_type_symbol
 _atom_site_label
 _atom_site_symmetry_multiplicity
 _atom_site_fract_x
 _atom_site_fract_y
 _atom_site_fract_z
 _atom_site_occupancy
  Cu  Cu0  1  0.25000000  0.03015518  0.78015518  1
  Cu  Cu1  1  0.25000000  0.71984482  0.46984482  1
  Cu  Cu2  1  0.75000000  0.28015518  0.53015518  1
  Cu  Cu3  1  0.75000000  0.96984482  0.21984482  1
  Ag  Ag4  1  0.12333837  0.25954383  0.57417214  1
  Ag  Ag5  1  0.37666163  0.95083377  0.13620546  1
  Ag  Ag6  1  0.81462831  0.36379454  0.24045617  1
  Ag  Ag7  1  0.87666163  0.74045617  0.42582786  1
  Ag  Ag8  1  0.18537169  0.63620546  0.75954383  1
  Ag  Ag9  1  0.68537169  0.92582786  0.54916623  1
  Ag  Ag10  1  0.00000000  0.50000000  0.00000000  1
  Ag  Ag11  1  0.62333837  0.04916623  0.86379454  1
  Ag  Ag12  1  0.31462831  0.07417214  0.45083377  1
  Ag  Ag13  1  0.00000000  0.00000000  0.00000000  1
  Ag  Ag14  1  0.50000000  0.50000000  0.50000000  1
  Ag  Ag15  1  0.50000000  0.50000000  0.00000000  1
  S  S16  1  0.01152991  0.21413866  0.22729075  1
  S  S17  1  0.98684791  0.27270925  0.78423915  1
  S  S18  1  0.01315209  0.72729075  0.21576085  1
  S  S19  1  0.48684791  0.70260876  0.71413866  1
  S  S20  1  0.51315209  0.29739124  0.28586134  1
  S  S21  1  0.51152991  0.28423915  0.79739124  1
  S  S22  1  0.48847009  0.71576085  0.20260876  1
  S  S23  1  0.98847009  0.78586134  0.77270925  1
