# generated using pymatgen
data_ZnH4(BrO)2
_symmetry_space_group_name_H-M   'P 1'
_cell_length_a   8.44863161
_cell_length_b   8.44863161
_cell_length_c   8.44863161
_cell_angle_alpha   105.75005277
_cell_angle_beta   101.32271403
_cell_angle_gamma   122.15583054
_symmetry_Int_Tables_number   1
_chemical_formula_structural   ZnH4(BrO)2
_chemical_formula_sum   'Zn3 H12 Br6 O6'
_cell_volume   446.33712453
_cell_formula_units_Z   3
loop_
 _symmetry_equiv_pos_site_id
 _symmetry_equiv_pos_as_xyz
  1  'x, y, z'
loop_
 _atom_site_type_symbol
 _atom_site_label
 _atom_site_symmetry_multiplicity
 _atom_site_fract_x
 _atom_site_fract_y
 _atom_site_fract_z
 _atom_site_occupancy
  Zn  Zn0  1  0.15555944  0.50000000  0.65555944  1
  Zn  Zn1  1  0.84444056  0.50000000  0.34444056  1
  Zn  Zn2  1  0.00000000  0.00000000  0.00000000  1
  H  H3  1  0.82302056  0.91347858  0.23561938  1
  H  H4  1  0.17697944  0.41259882  0.09045803  1
  H  H5  1  0.32214080  0.08652142  0.90954197  1
  H  H6  1  0.67785920  0.58740118  0.76438062  1
  H  H7  1  0.17697944  0.08652142  0.76438062  1
  H  H8  1  0.82302056  0.58740118  0.90954197  1
  H  H9  1  0.67785920  0.91347858  0.09045803  1
  H  H10  1  0.32214080  0.41259882  0.23561938  1
  H  H11  1  0.24987105  0.07965210  0.32952315  1
  H  H12  1  0.75012895  0.07965210  0.82978105  1
  H  H13  1  0.24987105  0.92034790  0.17021895  1
  H  H14  1  0.75012895  0.92034790  0.67047685  1
  Br  Br15  1  0.77453975  0.27453975  0.50000000  1
  Br  Br16  1  0.22546025  0.72546025  0.50000000  1
  Br  Br17  1  0.29339645  0.31089312  0.60428958  1
  Br  Br18  1  0.70660355  0.31089312  0.01749667  1
  Br  Br19  1  0.29339645  0.68910688  0.98250333  1
  Br  Br20  1  0.70660355  0.68910688  0.39571042  1
  O  O21  1  0.82294706  0.97583492  0.15288786  1
  O  O22  1  0.17705294  0.32994081  0.15288786  1
  O  O23  1  0.17705294  0.02416508  0.84711214  1
  O  O24  1  0.82294706  0.67005919  0.84711214  1
  O  O25  1  0.19830192  0.00000000  0.19830192  1
  O  O26  1  0.80169808  0.00000000  0.80169808  1
