# generated using pymatgen
data_Li2SnP2O7
_symmetry_space_group_name_H-M   'P 1'
_cell_length_a   5.37131782
_cell_length_b   7.02009489
_cell_length_c   8.94556685
_cell_angle_alpha   108.19812744
_cell_angle_beta   93.24648183
_cell_angle_gamma   110.70342711
_symmetry_Int_Tables_number   1
_chemical_formula_structural   Li2SnP2O7
_chemical_formula_sum   'Li4 Sn2 P4 O14'
_cell_volume   294.40392732
_cell_formula_units_Z   2
loop_
 _symmetry_equiv_pos_site_id
 _symmetry_equiv_pos_as_xyz
  1  'x, y, z'
loop_
 _atom_site_type_symbol
 _atom_site_label
 _atom_site_symmetry_multiplicity
 _atom_site_fract_x
 _atom_site_fract_y
 _atom_site_fract_z
 _atom_site_occupancy
  Li  Li0  1  0.89853843  0.67869702  0.99727819  1
  Li  Li1  1  0.35681450  0.61910855  0.77119059  1
  Li  Li2  1  0.64318550  0.38089145  0.22880941  1
  Li  Li3  1  0.10146157  0.32130298  0.00272181  1
  Sn  Sn4  1  0.13495596  0.12406736  0.35163607  1
  Sn  Sn5  1  0.86504404  0.87593264  0.64836393  1
  P  P6  1  0.47975689  0.84273955  0.14471305  1
  P  P7  1  0.76406388  0.38481645  0.64393522  1
  P  P8  1  0.23593612  0.61518355  0.35606478  1
  P  P9  1  0.52024311  0.15726045  0.85528695  1
  O  O10  1  0.02063804  0.35639897  0.69159175  1
  O  O11  1  0.70115834  0.36293747  0.99409854  1
  O  O12  1  0.36658981  0.02209533  0.16851286  1
  O  O13  1  0.67520899  0.34084449  0.46794628  1
  O  O14  1  0.97936196  0.64360103  0.30840825  1
  O  O15  1  0.76493000  0.60945615  0.75592331  1
  O  O16  1  0.48256400  0.79429122  0.31163707  1
  O  O17  1  0.29884166  0.63706253  0.00590146  1
  O  O18  1  0.23507000  0.39054385  0.24407669  1
  O  O19  1  0.51743600  0.20570878  0.68836293  1
  O  O20  1  0.78122805  0.92222525  0.13152317  1
  O  O21  1  0.32479101  0.65915551  0.53205372  1
  O  O22  1  0.63341019  0.97790467  0.83148714  1
  O  O23  1  0.21877195  0.07777475  0.86847683  1
