# generated using pymatgen
data_CaZn(SiO3)2
_symmetry_space_group_name_H-M   'P 1'
_cell_length_a   5.32473475
_cell_length_b   6.74657432
_cell_length_c   6.74657431
_cell_angle_alpha   84.79787081
_cell_angle_beta   78.02277288
_cell_angle_gamma   78.02277289
_symmetry_Int_Tables_number   1
_chemical_formula_structural   CaZn(SiO3)2
_chemical_formula_sum   'Ca2 Zn2 Si4 O12'
_cell_volume   231.63738655
_cell_formula_units_Z   2
loop_
 _symmetry_equiv_pos_site_id
 _symmetry_equiv_pos_as_xyz
  1  'x, y, z'
loop_
 _atom_site_type_symbol
 _atom_site_label
 _atom_site_symmetry_multiplicity
 _atom_site_fract_x
 _atom_site_fract_y
 _atom_site_fract_z
 _atom_site_occupancy
  O  O0  1  0.50285747  0.33137115  0.36634455  1
  O  O1  1  0.99714253  0.63365545  0.66862885  1
  O  O2  1  0.49714253  0.66862885  0.63365545  1
  O  O3  1  0.00285747  0.36634455  0.33137115  1
  O  O4  1  0.17662717  0.11429765  0.60821774  1
  O  O5  1  0.32337283  0.39178226  0.88570235  1
  O  O6  1  0.82337283  0.88570235  0.39178226  1
  O  O7  1  0.67662717  0.60821774  0.11429765  1
  O  O8  1  0.85613172  0.20587531  0.02688607  1
  O  O9  1  0.64386828  0.97311393  0.79412469  1
  O  O10  1  0.14386828  0.79412469  0.97311393  1
  O  O11  1  0.35613172  0.02688607  0.20587531  1
  Si  Si12  1  0.26933808  0.19409553  0.37835842  1
  Si  Si13  1  0.23066192  0.62164158  0.80590447  1
  Si  Si14  1  0.73066192  0.80590447  0.62164158  1
  Si  Si15  1  0.76933808  0.37835842  0.19409553  1
  Ca  Ca16  1  0.75000000  0.29728245  0.70271755  1
  Ca  Ca17  1  0.25000000  0.70271755  0.29728245  1
  Zn  Zn18  1  0.75000000  0.90399659  0.09600341  1
  Zn  Zn19  1  0.25000000  0.09600341  0.90399659  1
