# generated using pymatgen
data_Rb6U2W4O21
_symmetry_space_group_name_H-M   'P 1'
_cell_length_a   10.35858144
_cell_length_b   13.43510765
_cell_length_c   19.17744375
_cell_angle_alpha   97.99561461
_cell_angle_beta   96.51946620
_cell_angle_gamma   104.18682353
_symmetry_Int_Tables_number   1
_chemical_formula_structural   Rb6U2W4O21
_chemical_formula_sum   'Rb24 U8 W16 O84'
_cell_volume   2531.87346788
_cell_formula_units_Z   4
loop_
 _symmetry_equiv_pos_site_id
 _symmetry_equiv_pos_as_xyz
  1  'x, y, z'
loop_
 _atom_site_type_symbol
 _atom_site_label
 _atom_site_symmetry_multiplicity
 _atom_site_fract_x
 _atom_site_fract_y
 _atom_site_fract_z
 _atom_site_occupancy
  Rb  Rb0  1  0.70179206  0.93659884  0.65178939  1
  Rb  Rb1  1  0.19714849  0.57199406  0.47108520  1
  Rb  Rb2  1  0.90982830  0.23384833  0.04719521  1
  Rb  Rb3  1  0.44010505  0.93830413  0.89903526  1
  Rb  Rb4  1  0.35346459  0.76481141  0.69270473  1
  Rb  Rb5  1  0.26789024  0.42870547  0.00518828  1
  Rb  Rb6  1  0.52256670  0.57356505  0.26380755  1
  Rb  Rb7  1  0.29820794  0.06340116  0.34821061  1
  Rb  Rb8  1  0.47743330  0.42643495  0.73619245  1
  Rb  Rb9  1  0.19630400  0.93853235  0.14474460  1
  Rb  Rb10  1  0.04561134  0.06816515  0.59963963  1
  Rb  Rb11  1  0.55989495  0.06169587  0.10096474  1
  Rb  Rb12  1  0.80369600  0.06146765  0.85525540  1
  Rb  Rb13  1  0.40738885  0.21121064  0.54378262  1
  Rb  Rb14  1  0.80285151  0.42800594  0.52891480  1
  Rb  Rb15  1  0.64653541  0.23518859  0.30729527  1
  Rb  Rb16  1  0.04547274  0.56492741  0.76607748  1
  Rb  Rb17  1  0.14521410  0.23092634  0.80639048  1
  Rb  Rb18  1  0.73210976  0.57129453  0.99481172  1
  Rb  Rb19  1  0.95438866  0.93183485  0.40036037  1
  Rb  Rb20  1  0.09017170  0.76615167  0.95280479  1
  Rb  Rb21  1  0.59261115  0.78878936  0.45621738  1
  Rb  Rb22  1  0.85478590  0.76907366  0.19360952  1
  Rb  Rb23  1  0.95452726  0.43507259  0.23392252  1
  U  U24  1  0.77868747  0.27666465  0.70385017  1
  U  U25  1  0.22131253  0.72333535  0.29614983  1
  U  U26  1  0.74189504  0.73225803  0.79208509  1
  U  U27  1  0.56026357  0.27883355  0.90948853  1
  U  U28  1  0.94190317  0.73382508  0.60245691  1
  U  U29  1  0.43973643  0.72116645  0.09051147  1
  U  U30  1  0.25810496  0.26774197  0.20791491  1
  U  U31  1  0.05809683  0.26617492  0.39754309  1
  W  W32  1  0.22608905  0.13626465  0.99246630  1
  W  W33  1  0.43474549  0.09771936  0.72746392  1
  W  W34  1  0.27649310  0.86837760  0.51122853  1
  W  W35  1  0.56525451  0.90228064  0.27253608  1
  W  W36  1  0.77391095  0.86373535  0.00753370  1
  W  W37  1  0.44934336  0.40348405  0.40569507  1
  W  W38  1  0.72350690  0.13162240  0.48877147  1
  W  W39  1  0.86657801  0.62176299  0.38330546  1
  W  W40  1  0.05375692  0.90398428  0.76983387  1
  W  W41  1  0.94624308  0.09601572  0.23016613  1
  W  W42  1  0.13342199  0.37823701  0.61669454  1
  W  W43  1  0.38929780  0.62102455  0.87428840  1
  W  W44  1  0.10889325  0.62356748  0.11562422  1
  W  W45  1  0.55065664  0.59651595  0.59430493  1
  W  W46  1  0.61070220  0.37897545  0.12571160  1
  W  W47  1  0.89110675  0.37643252  0.88437578  1
  O  O48  1  0.44059886  0.67002750  0.56039268  1
  O  O49  1  0.55071920  0.17919861  0.67916185  1
  O  O50  1  0.52020970  0.54238828  0.42726256  1
  O  O51  1  0.71986770  0.95634135  0.33171370  1
  O  O52  1  0.40336317  0.84238009  0.06719720  1
  O  O53  1  0.29081667  0.02791051  0.01192978  1
  O  O54  1  0.95980203  0.51479830  0.90629801  1
  O  O55  1  0.84935568  0.77332586  0.69950575  1
  O  O56  1  0.33215999  0.21605261  0.93872650  1
  O  O57  1  0.72451030  0.39290491  0.68723381  1
  O  O58  1  0.10025322  0.15407622  0.43302815  1
  O  O59  1  0.09188786  0.36923234  0.52015792  1
  O  O60  1  0.71610943  0.63690909  0.56613300  1
  O  O61  1  0.77097782  0.36413377  0.95507368  1
  O  O62  1  0.04019797  0.48520170  0.09370199  1
  O  O63  1  0.55856547  0.09057721  0.43625212  1
  O  O64  1  0.70283050  0.28592111  0.14790315  1
  O  O65  1  0.59663683  0.15761991  0.93280280  1
  O  O66  1  0.28719260  0.70972860  0.17721405  1
  O  O67  1  0.77169456  0.49271059  0.34104112  1
  O  O68  1  0.89004654  0.17327239  0.30398720  1
  O  O69  1  0.71440791  0.20996071  0.57376100  1
  O  O70  1  0.10995346  0.82672761  0.69601280  1
  O  O71  1  0.44928080  0.82080139  0.32083815  1
  O  O72  1  0.21833682  0.97966850  0.49261557  1
  O  O73  1  0.58713178  0.81122553  0.19625734  1
  O  O74  1  0.41286822  0.18877447  0.80374266  1
  O  O75  1  0.47986278  0.60197957  0.11271315  1
  O  O76  1  0.77288369  0.77765756  0.92389067  1
  O  O77  1  0.44143453  0.90942279  0.56374788  1
  O  O78  1  0.19731989  0.38291434  0.20000762  1
  O  O79  1  0.50578841  0.99717987  0.75537577  1
  O  O80  1  0.33309963  0.15624391  0.21234379  1
  O  O81  1  0.96009821  0.83782573  0.83545094  1
  O  O82  1  0.05622523  0.63865922  0.20984314  1
  O  O83  1  0.98067420  0.61542521  0.62718114  1
  O  O84  1  0.70918333  0.97208949  0.98807022  1
  O  O85  1  0.57849153  0.63525439  0.69120595  1
  O  O86  1  0.00660570  0.31061509  0.92335702  1
  O  O87  1  0.28084563  0.49227965  0.84400884  1
  O  O88  1  0.15064432  0.22667414  0.30049425  1
  O  O89  1  0.42150847  0.36474561  0.30879405  1
  O  O90  1  0.71915437  0.50772035  0.15599116  1
  O  O91  1  0.99339430  0.68938491  0.07664298  1
  O  O92  1  0.47979030  0.45761172  0.57273744  1
  O  O93  1  0.55940114  0.32997250  0.43960732  1
  O  O94  1  0.46276620  0.36314828  0.17095224  1
  O  O95  1  0.44410439  0.64243334  0.97066501  1
  O  O96  1  0.28013230  0.04365865  0.66828630  1
  O  O97  1  0.90811214  0.63076766  0.47984208  1
  O  O98  1  0.05692364  0.09248178  0.94615291  1
  O  O99  1  0.03990179  0.16217427  0.16454906  1
  O  O100  1  0.77436317  0.71435127  0.36081072  1
  O  O101  1  0.29716950  0.71407889  0.85209685  1
  O  O102  1  0.94377477  0.36134078  0.79015686  1
  O  O103  1  0.80268011  0.61708566  0.79999238  1
  O  O104  1  0.49421159  0.00282013  0.24462423  1
  O  O105  1  0.89974678  0.84592378  0.56697185  1
  O  O106  1  0.28389057  0.36309091  0.43386700  1
  O  O107  1  0.94307636  0.90751822  0.05384709  1
  O  O108  1  0.52013722  0.39802043  0.88728685  1
  O  O109  1  0.22563683  0.28564873  0.63918928  1
  O  O110  1  0.28559209  0.79003929  0.42623900  1
  O  O111  1  0.55589561  0.35756666  0.02933499  1
  O  O112  1  0.78166318  0.02033150  0.50738443  1
  O  O113  1  0.17251219  0.84478052  0.28581875  1
  O  O114  1  0.22830544  0.50728941  0.65895888  1
  O  O115  1  0.22711631  0.22234244  0.07610933  1
  O  O116  1  0.21081336  0.97129356  0.82448322  1
  O  O117  1  0.02827445  0.65451521  0.35032470  1
  O  O118  1  0.53723380  0.63685172  0.82904776  1
  O  O119  1  0.66690037  0.84375609  0.78765621  1
  O  O120  1  0.66784001  0.78394739  0.06127350  1
  O  O121  1  0.22902218  0.63586623  0.04492632  1
  O  O122  1  0.84294006  0.21608928  0.44375727  1
  O  O123  1  0.01932580  0.38457479  0.37281886  1
  O  O124  1  0.98372968  0.00582763  0.74286869  1
  O  O125  1  0.82748781  0.15521948  0.71418125  1
  O  O126  1  0.78918664  0.02870644  0.17551678  1
  O  O127  1  0.15705994  0.78391072  0.55624273  1
  O  O128  1  0.97172555  0.34548479  0.64967530  1
  O  O129  1  0.27548970  0.60709509  0.31276619  1
  O  O130  1  0.01627032  0.99417237  0.25713131  1
  O  O131  1  0.71280740  0.29027140  0.82278595  1
