# generated using pymatgen
data_Cu8NO11
_symmetry_space_group_name_H-M   'P 1'
_cell_length_a   6.93508382
_cell_length_b   6.54445960
_cell_length_c   6.81514300
_cell_angle_alpha   62.71855856
_cell_angle_beta   56.82679951
_cell_angle_gamma   60.69614979
_symmetry_Int_Tables_number   1
_chemical_formula_structural   Cu8NO11
_chemical_formula_sum   'Cu8 N1 O11'
_cell_volume   217.94310952
_cell_formula_units_Z   1
loop_
 _symmetry_equiv_pos_site_id
 _symmetry_equiv_pos_as_xyz
  1  'x, y, z'
loop_
 _atom_site_type_symbol
 _atom_site_label
 _atom_site_symmetry_multiplicity
 _atom_site_fract_x
 _atom_site_fract_y
 _atom_site_fract_z
 _atom_site_occupancy
  Cu  Cu0  1  0.99840381  0.50157710  0.99844378  1
  Cu  Cu1  1  0.49946980  0.00726238  0.99272220  1
  Cu  Cu2  1  0.99269441  0.50055652  0.49944712  1
  Cu  Cu3  1  0.12073215  0.87895689  0.12102179  1
  Cu  Cu4  1  0.49872032  0.50123902  0.99882693  1
  Cu  Cu5  1  0.99879861  0.00116433  0.49874593  1
  Cu  Cu6  1  0.49842908  0.00155278  0.49842804  1
  Cu  Cu7  1  0.88511759  0.11522847  0.88479088  1
  N  N8  1  0.50460257  0.49526999  0.50473009  1
  O  O9  1  0.13870599  0.14811354  0.14641275  1
  O  O10  1  0.14465099  0.13779473  0.56706384  1
  O  O11  1  0.14614273  0.56648113  0.13947542  1
  O  O12  1  0.56729159  0.15098190  0.14478378  1
  O  O13  1  0.32730135  0.43878686  0.56122846  1
  O  O14  1  0.56134149  0.67241433  0.32758789  1
  O  O15  1  0.62988677  0.37064510  0.62934547  1
  O  O16  1  0.43323424  0.85343493  0.85199487  1
  O  O17  1  0.84937557  0.43298658  0.86227689  1
  O  O18  1  0.85208782  0.86044507  0.43348818  1
  O  O19  1  0.86301312  0.85510835  0.84918570  1
