# generated using pymatgen
data_Li3Sn2P5O16
_symmetry_space_group_name_H-M   'P 1'
_cell_length_a   18.70528193
_cell_length_b   7.52372249
_cell_length_c   5.25970059
_cell_angle_alpha   90.00000000
_cell_angle_beta   95.46426539
_cell_angle_gamma   90.00000000
_symmetry_Int_Tables_number   1
_chemical_formula_structural   Li3Sn2P5O16
_chemical_formula_sum   'Li6 Sn4 P10 O32'
_cell_volume   736.85158616
_cell_formula_units_Z   2
loop_
 _symmetry_equiv_pos_site_id
 _symmetry_equiv_pos_as_xyz
  1  'x, y, z'
loop_
 _atom_site_type_symbol
 _atom_site_label
 _atom_site_symmetry_multiplicity
 _atom_site_fract_x
 _atom_site_fract_y
 _atom_site_fract_z
 _atom_site_occupancy
  Li  Li0  1  0.54077006  0.62885022  0.20525601  1
  Li  Li1  1  0.45922994  0.37114978  0.79474399  1
  Li  Li2  1  0.04077006  0.37114978  0.20525601  1
  Li  Li3  1  0.95922994  0.62885022  0.79474399  1
  Li  Li4  1  0.25000000  0.96596958  0.50000000  1
  Li  Li5  1  0.75000000  0.03403042  0.50000000  1
  Sn  Sn6  1  0.07875642  0.85460487  0.27024177  1
  Sn  Sn7  1  0.57875642  0.14539513  0.27024177  1
  Sn  Sn8  1  0.92124358  0.14539513  0.72975823  1
  Sn  Sn9  1  0.42124358  0.85460487  0.72975823  1
  P  P10  1  0.09399003  0.15581053  0.72347887  1
  P  P11  1  0.75000000  0.24872259  0.00000000  1
  P  P12  1  0.90600997  0.84418947  0.27652113  1
  P  P13  1  0.59399003  0.84418947  0.72347887  1
  P  P14  1  0.37564729  0.52445414  0.26797344  1
  P  P15  1  0.40600997  0.15581053  0.27652113  1
  P  P16  1  0.12435271  0.52445414  0.73202656  1
  P  P17  1  0.87564729  0.47554586  0.26797344  1
  P  P18  1  0.62435271  0.47554586  0.73202656  1
  P  P19  1  0.25000000  0.75127741  0.00000000  1
  O  O20  1  0.96692252  0.79510290  0.48357850  1
  O  O21  1  0.71078832  0.14740653  0.19063856  1
  O  O22  1  0.89229328  0.42687274  0.54699750  1
  O  O23  1  0.93267743  0.85472507  0.01196504  1
  O  O24  1  0.43267743  0.14527493  0.01196504  1
  O  O25  1  0.13784450  0.99618316  0.63973227  1
  O  O26  1  0.80219129  0.38482575  0.15831540  1
  O  O27  1  0.78921168  0.14740653  0.80936144  1
  O  O28  1  0.36215550  0.99618316  0.36026773  1
  O  O29  1  0.39229328  0.57312726  0.54699750  1
  O  O30  1  0.06732257  0.14527493  0.98803496  1
  O  O31  1  0.34822630  0.32174581  0.25901202  1
  O  O32  1  0.53307748  0.79510290  0.51642150  1
  O  O33  1  0.60770672  0.42687274  0.45300250  1
  O  O34  1  0.63784450  0.00381684  0.63973227  1
  O  O35  1  0.46692252  0.20489710  0.48357850  1
  O  O36  1  0.21078832  0.85259347  0.19063856  1
  O  O37  1  0.19780871  0.61517425  0.84168460  1
  O  O38  1  0.30219129  0.61517425  0.15831540  1
  O  O39  1  0.69780871  0.38482575  0.84168460  1
  O  O40  1  0.65177370  0.67825419  0.74098798  1
  O  O41  1  0.03307748  0.20489710  0.51642150  1
  O  O42  1  0.10770672  0.57312726  0.45300250  1
  O  O43  1  0.43445915  0.55693913  0.09610849  1
  O  O44  1  0.06554085  0.55693913  0.90389151  1
  O  O45  1  0.93445915  0.44306087  0.09610849  1
  O  O46  1  0.15177370  0.32174581  0.74098798  1
  O  O47  1  0.28921168  0.85259347  0.80936144  1
  O  O48  1  0.86215550  0.00381684  0.36026773  1
  O  O49  1  0.56732257  0.85472507  0.98803496  1
  O  O50  1  0.56554085  0.44306087  0.90389151  1
  O  O51  1  0.84822630  0.67825419  0.25901202  1
