# generated using pymatgen
data_Cu4(PO4)3
_symmetry_space_group_name_H-M   'P 1'
_cell_length_a   7.39967641
_cell_length_b   7.87271764
_cell_length_c   9.55199897
_cell_angle_alpha   109.58101587
_cell_angle_beta   111.78136825
_cell_angle_gamma   92.27824167
_symmetry_Int_Tables_number   1
_chemical_formula_structural   Cu4(PO4)3
_chemical_formula_sum   'Cu8 P6 O24'
_cell_volume   478.20495603
_cell_formula_units_Z   2
loop_
 _symmetry_equiv_pos_site_id
 _symmetry_equiv_pos_as_xyz
  1  'x, y, z'
loop_
 _atom_site_type_symbol
 _atom_site_label
 _atom_site_symmetry_multiplicity
 _atom_site_fract_x
 _atom_site_fract_y
 _atom_site_fract_z
 _atom_site_occupancy
  Cu  Cu0  1  0.73569741  0.47571943  0.08178229  1
  Cu  Cu1  1  0.30271490  0.61478576  0.29448549  1
  Cu  Cu2  1  0.73740801  0.10228296  0.09827545  1
  Cu  Cu3  1  0.98531925  0.20588203  0.54210840  1
  Cu  Cu4  1  0.01468075  0.79411797  0.45789160  1
  Cu  Cu5  1  0.69728510  0.38521424  0.70551451  1
  Cu  Cu6  1  0.26259199  0.89771704  0.90172455  1
  Cu  Cu7  1  0.26430259  0.52428057  0.91821771  1
  P  P8  1  0.30238899  0.54476363  0.60767025  1
  P  P9  1  0.39227431  0.13859149  0.74473934  1
  P  P10  1  0.98047736  0.75043814  0.06132942  1
  P  P11  1  0.01952264  0.24956186  0.93867058  1
  P  P12  1  0.60772569  0.86140851  0.25526066  1
  P  P13  1  0.69761101  0.45523637  0.39232975  1
  O  O14  1  0.76203679  0.33336802  0.49690105  1
  O  O15  1  0.90466341  0.92740239  0.07591277  1
  O  O16  1  0.47647365  0.45544051  0.34816675  1
  O  O17  1  0.27072351  0.64223202  0.77012905  1
  O  O18  1  0.13705629  0.73869894  0.98440530  1
  O  O19  1  0.92739141  0.27071017  0.77048646  1
  O  O20  1  0.82893534  0.94308072  0.37982256  1
  O  O21  1  0.86294371  0.26130106  0.01559470  1
  O  O22  1  0.72927649  0.35776798  0.22987095  1
  O  O23  1  0.47004898  0.85186097  0.33935184  1
  O  O24  1  0.52995102  0.14813903  0.66064816  1
  O  O25  1  0.23796321  0.66663198  0.50309895  1
  O  O26  1  0.17106466  0.05691928  0.62017744  1
  O  O27  1  0.52352635  0.54455949  0.65183325  1
  O  O28  1  0.80942265  0.57592085  0.94870627  1
  O  O29  1  0.58498200  0.65979850  0.13670184  1
  O  O30  1  0.82792344  0.64665170  0.48529147  1
  O  O31  1  0.17207656  0.35334830  0.51470853  1
  O  O32  1  0.09533659  0.07259761  0.92408723  1
  O  O33  1  0.07260859  0.72928983  0.22951354  1
  O  O34  1  0.19057735  0.42407915  0.05129373  1
  O  O35  1  0.55175409  0.98740370  0.15455199  1
  O  O36  1  0.41501800  0.34020150  0.86329816  1
  O  O37  1  0.44824691  0.01259630  0.84544801  1
