# generated using pymatgen
data_Li2CuP
_symmetry_space_group_name_H-M   'P 1'
_cell_length_a   4.01649955
_cell_length_b   4.01649967
_cell_length_c   7.38675509
_cell_angle_alpha   90.00000928
_cell_angle_beta   90.00013940
_cell_angle_gamma   119.99971017
_symmetry_Int_Tables_number   1
_chemical_formula_structural   Li2CuP
_chemical_formula_sum   'Li4 Cu2 P2'
_cell_volume   103.20032352
_cell_formula_units_Z   2
loop_
 _symmetry_equiv_pos_site_id
 _symmetry_equiv_pos_as_xyz
  1  'x, y, z'
loop_
 _atom_site_type_symbol
 _atom_site_label
 _atom_site_symmetry_multiplicity
 _atom_site_fract_x
 _atom_site_fract_y
 _atom_site_fract_z
 _atom_site_occupancy
  Li  Li0  1  0.33333441  0.66666984  0.90545380  1
  Li  Li1  1  0.33333434  0.66666804  0.59042404  1
  Li  Li2  1  0.66666696  0.33333279  0.40962382  1
  Li  Li3  1  0.66666693  0.33333202  0.09457482  1
  Cu  Cu4  1  0.99999394  0.99999410  0.25534283  1
  Cu  Cu5  1  0.00000253  0.00000281  0.74456838  1
  P  P6  1  0.33333222  0.66666541  0.24838230  1
  P  P7  1  0.66666867  0.33333499  0.75163001  1
