# generated using pymatgen
data_Li2FeBr4
_symmetry_space_group_name_H-M   'P 1'
_cell_length_a   7.82915691
_cell_length_b   7.82915696
_cell_length_c   7.84788212
_cell_angle_alpha   59.92085497
_cell_angle_beta   59.92085478
_cell_angle_gamma   60.53433060
_symmetry_Int_Tables_number   1
_chemical_formula_structural   Li2FeBr4
_chemical_formula_sum   'Li4 Fe2 Br8'
_cell_volume   341.08747407
_cell_formula_units_Z   2
loop_
 _symmetry_equiv_pos_site_id
 _symmetry_equiv_pos_as_xyz
  1  'x, y, z'
loop_
 _atom_site_type_symbol
 _atom_site_label
 _atom_site_symmetry_multiplicity
 _atom_site_fract_x
 _atom_site_fract_y
 _atom_site_fract_z
 _atom_site_occupancy
  Li  Li0  1  0.13083119  0.13083119  0.11916881  1
  Li  Li1  1  0.00000000  0.50000000  0.50000000  1
  Li  Li2  1  0.50000000  0.00000000  0.50000000  1
  Li  Li3  1  0.86916881  0.86916881  0.88083119  1
  Fe  Fe4  1  0.50000000  0.50000000  0.00000000  1
  Fe  Fe5  1  0.50000000  0.50000000  0.50000000  1
  Br  Br6  1  0.26419606  0.26419606  0.24650684  1
  Br  Br7  1  0.26718928  0.72650889  0.25315092  1
  Br  Br8  1  0.26419606  0.26419606  0.72510104  1
  Br  Br9  1  0.72650889  0.26718928  0.25315092  1
  Br  Br10  1  0.27349111  0.73281072  0.74684908  1
  Br  Br11  1  0.73580394  0.73580394  0.27489896  1
  Br  Br12  1  0.73281072  0.27349111  0.74684908  1
  Br  Br13  1  0.73580394  0.73580394  0.75349316  1
