# generated using pymatgen
data_Ba3Na7Ti3Nb7O30
_symmetry_space_group_name_H-M   'P 1'
_cell_length_a   4.01785473
_cell_length_b   8.03527965
_cell_length_c   20.10536458
_cell_angle_alpha   89.99796850
_cell_angle_beta   90.00000000
_cell_angle_gamma   90.00000000
_symmetry_Int_Tables_number   1
_chemical_formula_structural   Ba3Na7Ti3Nb7O30
_chemical_formula_sum   'Ba3 Na7 Ti3 Nb7 O30'
_cell_volume   649.09337865
_cell_formula_units_Z   1
loop_
 _symmetry_equiv_pos_site_id
 _symmetry_equiv_pos_as_xyz
  1  'x, y, z'
loop_
 _atom_site_type_symbol
 _atom_site_label
 _atom_site_symmetry_multiplicity
 _atom_site_fract_x
 _atom_site_fract_y
 _atom_site_fract_z
 _atom_site_occupancy
  Ba  Ba0  1  0.00000000  0.49872777  0.00389788  1
  Ba  Ba1  1  0.00000000  0.49491446  0.19850978  1
  Ba  Ba2  1  0.00000000  0.00492591  0.19851536  1
  Na  Na3  1  0.00000000  0.00071751  0.00280136  1
  Na  Na4  1  0.00000000  0.49554766  0.39950321  1
  Na  Na5  1  0.00000000  0.00447024  0.39948569  1
  Na  Na6  1  0.00000000  0.49834795  0.59970845  1
  Na  Na7  1  0.00000000  0.49900670  0.79890137  1
  Na  Na8  1  0.00000000  0.00164118  0.59972306  1
  Na  Na9  1  0.00000000  0.00103216  0.79882464  1
  Ti  Ti10  1  0.50000000  0.24404395  0.09999710  1
  Ti  Ti11  1  0.50000000  0.24992872  0.30286569  1
  Ti  Ti12  1  0.50000000  0.75706977  0.09779790  1
  Nb  Nb13  1  0.50000000  0.75008542  0.30295459  1
  Nb  Nb14  1  0.50000000  0.24999510  0.49679456  1
  Nb  Nb15  1  0.50000000  0.75000010  0.70033605  1
  Nb  Nb16  1  0.50000000  0.25000359  0.69802276  1
  Nb  Nb17  1  0.50000000  0.75000723  0.50136894  1
  Nb  Nb18  1  0.50000000  0.24635795  0.89888627  1
  Nb  Nb19  1  0.50000000  0.75355515  0.89914684  1
  O  O20  1  0.50000000  0.25018542  0.99909119  1
  O  O21  1  0.50000000  0.24906536  0.19958768  1
  O  O22  1  0.50000000  0.75000296  0.99932647  1
  O  O23  1  0.50000000  0.50020788  0.09914831  1
  O  O24  1  0.50000000  0.75074001  0.20041547  1
  O  O25  1  0.50000000  0.75001431  0.40102182  1
  O  O26  1  0.50000000  0.24999820  0.40019348  1
  O  O27  1  0.50000000  0.25004140  0.60046171  1
  O  O28  1  0.50000000  0.49924412  0.30064834  1
  O  O29  1  0.50000000  0.99941201  0.09984107  1
  O  O30  1  0.50000000  0.50007994  0.50033698  1
  O  O31  1  0.50000000  0.74997373  0.60009905  1
  O  O32  1  0.50000000  0.75044828  0.79986676  1
  O  O33  1  0.50000000  0.00074308  0.30063269  1
  O  O34  1  0.50000000  0.24953159  0.80012491  1
  O  O35  1  0.50000000  0.50080267  0.70049853  1
  O  O36  1  0.50000000  -0.00007028  0.50034018  1
  O  O37  1  0.50000000  0.50085356  0.89979922  1
  O  O38  1  0.50000000  0.99920439  0.70045499  1
  O  O39  1  0.50000000  0.99917061  0.89932076  1
  O  O40  1  0.00000000  0.24875782  0.09932708  1
  O  O41  1  0.00000000  0.24991785  0.30072409  1
  O  O42  1  0.00000000  0.24999876  0.50063160  1
  O  O43  1  0.00000000  0.75113762  0.09959336  1
  O  O44  1  0.00000000  0.25002751  0.70071624  1
  O  O45  1  0.00000000  0.24980853  0.89960072  1
  O  O46  1  0.00000000  0.75004463  0.30055366  1
  O  O47  1  0.00000000  0.75001029  0.49990148  1
  O  O48  1  0.00000000  0.74997869  0.70016619  1
  O  O49  1  0.00000000  0.75029053  0.89953446  1
