# generated using pymatgen
data_Mg2Zr5O12
_symmetry_space_group_name_H-M   'P 1'
_cell_length_a   6.23634793
_cell_length_b   6.16720397
_cell_length_c   12.56214697
_cell_angle_alpha   99.51562822
_cell_angle_beta   99.34174771
_cell_angle_gamma   98.90794962
_symmetry_Int_Tables_number   1
_chemical_formula_structural   Mg2Zr5O12
_chemical_formula_sum   'Mg4 Zr10 O24'
_cell_volume   461.91658514
_cell_formula_units_Z   2
loop_
 _symmetry_equiv_pos_site_id
 _symmetry_equiv_pos_as_xyz
  1  'x, y, z'
loop_
 _atom_site_type_symbol
 _atom_site_label
 _atom_site_symmetry_multiplicity
 _atom_site_fract_x
 _atom_site_fract_y
 _atom_site_fract_z
 _atom_site_occupancy
  Mg  Mg0  1  0.13601188  0.59522313  0.65974350  1
  Mg  Mg1  1  0.32123387  0.13822925  0.29627954  1
  Mg  Mg2  1  0.67876613  0.86177075  0.20372046  1
  Mg  Mg3  1  0.86398812  0.40477687  0.84025650  1
  Zr  Zr4  1  0.00700590  0.00901877  0.49803443  1
  Zr  Zr5  1  0.39225927  0.67843946  0.93029623  1
  Zr  Zr6  1  0.14499984  0.61745112  0.16185107  1
  Zr  Zr7  1  0.99299410  0.99098123  0.00196557  1
  Zr  Zr8  1  0.30094738  0.13717795  0.80083451  1
  Zr  Zr9  1  0.38545218  0.69592089  0.42939613  1
  Zr  Zr10  1  0.69905262  0.86282205  0.69916549  1
  Zr  Zr11  1  0.60774073  0.32156054  0.56970377  1
  Zr  Zr12  1  0.61454782  0.30407911  0.07060387  1
  Zr  Zr13  1  0.85500016  0.38254888  0.33814893  1
  O  O14  1  0.06656289  0.66879247  0.96040332  1
  O  O15  1  0.08478617  0.93550621  0.66020835  1
  O  O16  1  0.05316935  0.68385399  0.44180915  1
  O  O17  1  0.18512645  0.42662900  0.79074971  1
  O  O18  1  0.10763205  0.94290990  0.15948482  1
  O  O19  1  0.31842597  0.08531822  0.96578869  1
  O  O20  1  0.18080904  0.42042364  0.29221482  1
  O  O21  1  0.44634854  0.82671276  0.79608631  1
  O  O22  1  0.41706417  0.58134062  0.59001718  1
  O  O23  1  0.32716420  0.08629854  0.47063680  1
  O  O24  1  0.41915864  0.81569784  0.28978098  1
  O  O25  1  0.58293583  0.41865938  0.90998282  1
  O  O26  1  0.41647166  0.55985511  0.08716201  1
  O  O27  1  0.55365146  0.17328724  0.70391369  1
  O  O28  1  0.68157403  0.91468178  0.53421131  1
  O  O29  1  0.58352834  0.44014489  0.41283799  1
  O  O30  1  0.58084136  0.18430216  0.21021902  1
  O  O31  1  0.81487355  0.57337100  0.70925029  1
  O  O32  1  0.67283580  0.91370146  0.02936320  1
  O  O33  1  0.91521383  0.06449379  0.83979165  1
  O  O34  1  0.81919096  0.57957636  0.20778518  1
  O  O35  1  0.93343711  0.33120753  0.53959668  1
  O  O36  1  0.89236795  0.05709010  0.34051518  1
  O  O37  1  0.94683065  0.31614601  0.05819085  1
