# generated using pymatgen
data_Sc4Ti3O12
_symmetry_space_group_name_H-M   'P 1'
_cell_length_a   6.08919941
_cell_length_b   5.92349880
_cell_length_c   12.15852077
_cell_angle_alpha   99.73031819
_cell_angle_beta   99.42346239
_cell_angle_gamma   98.60820185
_symmetry_Int_Tables_number   1
_chemical_formula_structural   Sc4Ti3O12
_chemical_formula_sum   'Sc8 Ti6 O24'
_cell_volume   419.25504004
_cell_formula_units_Z   2
loop_
 _symmetry_equiv_pos_site_id
 _symmetry_equiv_pos_as_xyz
  1  'x, y, z'
loop_
 _atom_site_type_symbol
 _atom_site_label
 _atom_site_symmetry_multiplicity
 _atom_site_fract_x
 _atom_site_fract_y
 _atom_site_fract_z
 _atom_site_occupancy
  Sc  Sc0  1  0.13680440  0.61487211  0.65677107  1
  Sc  Sc1  1  0.38557122  0.69458305  0.93243077  1
  Sc  Sc2  1  0.38406223  0.70136664  0.43390957  1
  Sc  Sc3  1  0.30898989  0.13501603  0.30211043  1
  Sc  Sc4  1  0.61442878  0.30541695  0.56756923  1
  Sc  Sc5  1  0.69101011  0.86498397  0.19788957  1
  Sc  Sc6  1  0.86319560  0.38512789  0.84322893  1
  Sc  Sc7  1  0.61593777  0.29863336  0.06609043  1
  Ti  Ti8  1  0.15291236  0.60380543  0.16246979  1
  Ti  Ti9  1  0.98531029  0.98931012  0.98976580  1
  Ti  Ti10  1  0.33917706  0.15414847  0.80605712  1
  Ti  Ti11  1  0.66082294  0.84585153  0.69394288  1
  Ti  Ti12  1  0.84708764  0.39619457  0.33753021  1
  Ti  Ti13  1  0.01468971  0.01068988  0.51023420  1
  O  O14  1  0.04698770  0.68913728  0.94616696  1
  O  O15  1  0.12588355  0.97243509  0.66032350  1
  O  O16  1  0.02917826  0.67672548  0.45176385  1
  O  O17  1  0.18290713  0.40325430  0.78983093  1
  O  O18  1  0.08947076  0.91316607  0.15474780  1
  O  O19  1  0.30713386  0.08451050  0.95531780  1
  O  O20  1  0.17395378  0.43076679  0.28651153  1
  O  O21  1  0.42462819  0.82143681  0.78583494  1
  O  O22  1  0.31345271  0.07536271  0.47248158  1
  O  O23  1  0.42142524  0.58389481  0.59065602  1
  O  O24  1  0.42386055  0.81495755  0.28859190  1
  O  O25  1  0.57857476  0.41610519  0.90934398  1
  O  O26  1  0.40761414  0.57833824  0.09048007  1
  O  O27  1  0.57537181  0.17856319  0.71416506  1
  O  O28  1  0.59238586  0.42166176  0.40951993  1
  O  O29  1  0.69286614  0.91548950  0.54468220  1
  O  O30  1  0.57613945  0.18504245  0.21140810  1
  O  O31  1  0.81709287  0.59674570  0.71016907  1
  O  O32  1  0.68654729  0.92463729  0.02751842  1
  O  O33  1  0.87411645  0.02756491  0.83967650  1
  O  O34  1  0.82604622  0.56923321  0.21348847  1
  O  O35  1  0.95301230  0.31086272  0.55383304  1
  O  O36  1  0.91052924  0.08683393  0.34525220  1
  O  O37  1  0.97082174  0.32327452  0.04823615  1
