# generated using pymatgen
data_Ba2P2O7
_symmetry_space_group_name_H-M   'P 1'
_cell_length_a   7.27467369
_cell_length_b   9.48679778
_cell_length_c   9.47418034
_cell_angle_alpha   119.95584888
_cell_angle_beta   90.00000000
_cell_angle_gamma   90.00000000
_symmetry_Int_Tables_number   1
_chemical_formula_structural   Ba2P2O7
_chemical_formula_sum   'Ba6 P6 O21'
_cell_volume   566.49813416
_cell_formula_units_Z   3
loop_
 _symmetry_equiv_pos_site_id
 _symmetry_equiv_pos_as_xyz
  1  'x, y, z'
loop_
 _atom_site_type_symbol
 _atom_site_label
 _atom_site_symmetry_multiplicity
 _atom_site_fract_x
 _atom_site_fract_y
 _atom_site_fract_z
 _atom_site_occupancy
  Ba  Ba0  1  0.50000000  0.38724631  0.38306854  1
  Ba  Ba1  1  0.50000000  0.00000535  0.61416085  1
  Ba  Ba2  1  0.50000000  0.61275515  0.99582624  1
  Ba  Ba3  1  -0.00000000  0.29237554  0.00517144  1
  Ba  Ba4  1  -0.00000000  0.70763170  0.71279916  1
  Ba  Ba5  1  -0.00000000  0.00000581  0.28614073  1
  P  P6  1  0.22155126  0.66227608  0.32464037  1
  P  P7  1  0.77844874  0.66227608  0.32464037  1
  P  P8  1  0.22154984  0.33773319  0.66237505  1
  P  P9  1  0.77845016  0.33773319  0.66237505  1
  P  P10  1  0.28332797  0.00000272  0.99166958  1
  P  P11  1  0.71667203  0.00000272  0.99166958  1
  O  O12  1  0.29666956  0.50519336  0.18189462  1
  O  O13  1  0.25767931  0.67495910  0.48956710  1
  O  O14  1  0.27838907  0.81595426  0.32076377  1
  O  O15  1  0.70333044  0.50519336  0.18189462  1
  O  O16  1  0.74232069  0.67495910  0.48956710  1
  O  O17  1  0.72161093  0.81595426  0.32076377  1
  O  O18  1  0.25768469  0.32506381  0.81462579  1
  O  O19  1  0.27838121  0.18406564  0.50483557  1
  O  O20  1  0.29667626  0.49482626  0.67670933  1
  O  O21  1  0.74231531  0.32506381  0.81462579  1
  O  O22  1  0.72161879  0.18406564  0.50483557  1
  O  O23  1  0.70332374  0.49482626  0.67670933  1
  O  O24  1  0.23682483  0.84502760  0.99758988  1
  O  O25  1  0.23683034  0.15496904  0.15255503  1
  O  O26  1  0.20115514  0.00000229  0.84232166  1
  O  O27  1  0.76317517  0.84502760  0.99758988  1
  O  O28  1  0.76316966  0.15496904  0.15255503  1
  O  O29  1  0.79884486  0.00000229  0.84232166  1
  O  O30  1  -0.00000000  0.35652649  0.64509758  1
  O  O31  1  -0.00000000  0.64350455  0.28856690  1
  O  O32  1  0.50000000  0.00000238  0.95607305  1
