# generated using pymatgen
data_Na11La7Th2Ti20O60
_symmetry_space_group_name_H-M   'P 1'
_cell_length_a   5.51521036
_cell_length_b   5.51190672
_cell_length_c   38.93627977
_cell_angle_alpha   89.94213874
_cell_angle_beta   89.98750173
_cell_angle_gamma   89.86554620
_symmetry_Int_Tables_number   1
_chemical_formula_structural   Na11La7Th2Ti20O60
_chemical_formula_sum   'Na11 La7 Th2 Ti20 O60'
_cell_volume   1183.63273394
_cell_formula_units_Z   1
loop_
 _symmetry_equiv_pos_site_id
 _symmetry_equiv_pos_as_xyz
  1  'x, y, z'
loop_
 _atom_site_type_symbol
 _atom_site_label
 _atom_site_symmetry_multiplicity
 _atom_site_fract_x
 _atom_site_fract_y
 _atom_site_fract_z
 _atom_site_occupancy
  Na  Na0  1  0.01273345  0.00814138  0.15049872  1
  Na  Na1  1  0.01412773  0.00827747  0.34770437  1
  Na  Na2  1  0.01407438  0.00595486  0.55359447  1
  Na  Na3  1  0.00610412  0.00884238  0.74873126  1
  Na  Na4  1  0.00554429  0.00822351  0.94894029  1
  Na  Na5  1  0.49603300  0.50779193  0.04905733  1
  Na  Na6  1  0.50330514  0.50952389  0.64749566  1
  Na  Na7  1  0.50419245  0.50622831  0.25338432  1
  Na  Na8  1  0.49434338  0.50879366  0.84891341  1
  Na  Na9  1  0.51325227  0.49283704  0.34547175  1
  Na  Na10  1  0.51387790  0.49602982  0.55592884  1
  La  La11  1  0.50578248  0.49372971  0.74868712  1
  La  La12  1  0.50653919  0.49398103  0.94912160  1
  La  La13  1  0.00075842  0.99483552  0.25280101  1
  La  La14  1  0.99174316  0.99380301  0.04855044  1
  La  La15  1  0.00284569  0.99427552  0.64825542  1
  La  La16  1  0.99308899  0.99909757  0.44995895  1
  La  La17  1  0.99321648  0.99376958  0.84900213  1
  Th  Th18  1  0.48728025  0.49955907  0.45009966  1
  Th  Th19  1  0.52768637  0.49436729  0.15044832  1
  Ti  Ti20  1  0.00032747  0.50834902  0.99888489  1
  Ti  Ti21  1  0.00918924  0.50634992  0.09968558  1
  Ti  Ti22  1  0.01217791  0.50438574  0.20073079  1
  Ti  Ti23  1  0.01294182  0.50244855  0.30117864  1
  Ti  Ti24  1  0.99907957  0.49467995  0.39618273  1
  Ti  Ti25  1  0.99990783  0.50937473  0.79850328  1
  Ti  Ti26  1  0.50354497  0.00367539  0.09908469  1
  Ti  Ti27  1  0.49866781  0.00482507  0.99880577  1
  Ti  Ti28  1  0.49793980  0.00011750  0.50414919  1
  Ti  Ti29  1  0.51265425  0.00448141  0.30134300  1
  Ti  Ti30  1  0.50707759  0.00034582  0.20156536  1
  Ti  Ti31  1  0.51646440  0.00398004  0.59909695  1
  Ti  Ti32  1  0.50014257  0.00961188  0.89860054  1
  Ti  Ti33  1  0.50001390  -0.00001430  0.39590033  1
  Ti  Ti34  1  0.50473995  0.00788422  0.69831395  1
  Ti  Ti35  1  0.49898067  0.00494697  0.79843784  1
  Ti  Ti36  1  0.99680600  0.49557779  0.50391042  1
  Ti  Ti37  1  0.00445634  0.50490053  0.69855223  1
  Ti  Ti38  1  0.01617661  0.50010147  0.59913899  1
  Ti  Ti39  1  0.00143202  0.50498158  0.89864787  1
  O  O40  1  0.00134404  0.42167223  0.05150192  1
  O  O41  1  0.99656080  0.42804994  0.24870080  1
  O  O42  1  0.00901684  0.43059109  0.44952147  1
  O  O43  1  0.99589853  0.42969232  0.65048741  1
  O  O44  1  0.00206857  0.42397518  0.85094129  1
  O  O45  1  0.26363857  0.26993325  0.18953072  1
  O  O46  1  0.24330272  0.24840745  0.59426291  1
  O  O47  1  0.26013651  0.25887439  0.39480169  1
  O  O48  1  0.26583999  0.27041724  0.11052732  1
  O  O49  1  0.24188537  0.24480855  0.30527357  1
  O  O50  1  0.25611054  0.25402581  0.79308171  1
  O  O51  1  0.25551394  0.25275251  0.99329163  1
  O  O52  1  0.25924607  0.25881370  0.50418080  1
  O  O53  1  0.25344661  0.25380553  0.70816321  1
  O  O54  1  0.25702170  0.25384068  0.90855349  1
  O  O55  1  0.23589114  0.76143915  0.20654997  1
  O  O56  1  0.24158293  0.75261305  0.00851929  1
  O  O57  1  0.23509067  0.76280457  0.09292899  1
  O  O58  1  0.23774681  0.75026588  0.29195407  1
  O  O59  1  0.24964274  0.74886160  0.48909116  1
  O  O60  1  0.24242841  0.75186860  0.69318292  1
  O  O61  1  0.23659811  0.75352513  0.60774109  1
  O  O62  1  0.24984577  0.74884762  0.41052103  1
  O  O63  1  0.24232838  0.75324545  0.89325929  1
  O  O64  1  0.24154133  0.75387691  0.80827035  1
  O  O65  1  0.49295131  0.90760486  0.14984167  1
  O  O66  1  0.49101490  0.92474998  0.35026986  1
  O  O67  1  0.49077581  0.92629925  0.54944711  1
  O  O68  1  0.49602192  0.92491110  0.75076857  1
  O  O69  1  0.49679621  0.92370254  0.95107455  1
  O  O70  1  0.49989994  0.06857233  0.05118103  1
  O  O71  1  0.49361944  0.06759690  0.24898509  1
  O  O72  1  0.49513173  0.06700460  0.65050743  1
  O  O73  1  0.49516047  0.08159508  0.44953102  1
  O  O74  1  0.50210943  0.06608715  0.85087235  1
  O  O75  1  0.74851946  0.24804506  0.10950701  1
  O  O76  1  0.74734016  0.24846904  0.19063146  1
  O  O77  1  0.75238117  0.23654981  0.30538174  1
  O  O78  1  0.74939161  0.24528794  0.70798130  1
  O  O79  1  0.75910234  0.23840590  0.39553517  1
  O  O80  1  0.75265904  0.23867413  0.59418770  1
  O  O81  1  0.75745935  0.23968036  0.50348646  1
  O  O82  1  0.75193765  0.24345633  0.79323606  1
  O  O83  1  0.75243870  0.24326517  0.90829490  1
  O  O84  1  0.75199802  0.24227736  0.99352023  1
  O  O85  1  0.73998145  0.74490902  0.09282283  1
  O  O86  1  0.74556224  0.74293990  0.00845520  1
  O  O87  1  0.73836030  0.74509538  0.20674411  1
  O  O88  1  0.74694704  0.74999071  0.29143800  1
  O  O89  1  0.73726354  0.73770747  0.48863752  1
  O  O90  1  0.74504749  0.74586171  0.69324113  1
  O  O91  1  0.73717000  0.73721479  0.41095009  1
  O  O92  1  0.74639118  0.75226504  0.60831757  1
  O  O93  1  0.74626640  0.74407636  0.80829466  1
  O  O94  1  0.74661901  0.74327427  0.89336806  1
  O  O95  1  0.97348905  0.57296051  0.14993578  1
  O  O96  1  0.98892469  0.57189766  0.35029349  1
  O  O97  1  0.98812516  0.57161551  0.54931219  1
  O  O98  1  0.99452199  0.56650318  0.75069540  1
  O  O99  1  0.99564585  0.56537994  0.95105905  1
