# generated using pymatgen
data_Sm5Se9
_symmetry_space_group_name_H-M   'P 1'
_cell_length_a   20.57286826
_cell_length_b   9.25827963
_cell_length_c   9.34943817
_cell_angle_alpha   67.21062345
_cell_angle_beta   64.32690233
_cell_angle_gamma   26.26773747
_symmetry_Int_Tables_number   1
_chemical_formula_structural   Sm5Se9
_chemical_formula_sum   'Sm10 Se18'
_cell_volume   710.30879372
_cell_formula_units_Z   2
loop_
 _symmetry_equiv_pos_site_id
 _symmetry_equiv_pos_as_xyz
  1  'x, y, z'
loop_
 _atom_site_type_symbol
 _atom_site_label
 _atom_site_symmetry_multiplicity
 _atom_site_fract_x
 _atom_site_fract_y
 _atom_site_fract_z
 _atom_site_occupancy
  Sm  Sm0  1  0.95515112  0.00245334  0.74111642  1
  Sm  Sm1  1  0.34484888  0.49754666  0.25888358  1
  Sm  Sm2  1  0.16469409  0.98222092  0.72088476  1
  Sm  Sm3  1  0.54606134  0.49732687  0.27472611  1
  Sm  Sm4  1  0.34400270  0.00989853  0.73892593  1
  Sm  Sm5  1  0.74281371  0.49931483  0.28609658  1
  Sm  Sm6  1  0.55718629  0.00068517  0.71390342  1
  Sm  Sm7  1  0.95599730  0.49010147  0.26107407  1
  Sm  Sm8  1  0.75393866  0.00267313  0.72527389  1
  Sm  Sm9  1  0.13530591  0.51777908  0.27911524  1
  Se  Se10  1  0.01264620  0.01626086  0.99624241  1
  Se  Se11  1  0.19485464  0.00059769  0.99791803  1
  Se  Se12  1  0.10514536  0.49940231  0.00208197  1
  Se  Se13  1  0.87858887  0.49720342  0.63076306  1
  Se  Se14  1  0.28735380  0.48373914  0.00375759  1
  Se  Se15  1  0.23211531  0.99409764  0.35970919  1
  Se  Se16  1  0.06788469  0.50590236  0.64029081  1
  Se  Se17  1  0.61257294  0.95619408  0.99964963  1
  Se  Se18  1  0.51014586  0.48356040  0.00004193  1
  Se  Se19  1  0.42141113  0.00279658  0.36923694  1
  Se  Se20  1  0.78985414  0.01643960  -0.00004193  1
  Se  Se21  1  0.27835156  0.48947490  0.62561338  1
  Se  Se22  1  0.63459067  0.98612365  0.35788172  1
  Se  Se23  1  0.68742706  0.54380592  0.00035037  1
  Se  Se24  1  0.47825527  0.48857636  0.63059943  1
  Se  Se25  1  0.82174473  0.01142364  0.36940057  1
  Se  Se26  1  0.66540933  0.51387635  0.64211828  1
  Se  Se27  1  0.02164844  0.01052510  0.37438662  1
