# generated using pymatgen
data_Sr8Ru7O24
_symmetry_space_group_name_H-M   'P 1'
_cell_length_a   5.59074351
_cell_length_b   5.59050304
_cell_length_c   67.75063052
_cell_angle_alpha   119.67378979
_cell_angle_beta   119.67549669
_cell_angle_gamma   90.00559129
_symmetry_Int_Tables_number   1
_chemical_formula_structural   Sr8Ru7O24
_chemical_formula_sum   'Sr24 Ru21 O72'
_cell_volume   1511.87067214
_cell_formula_units_Z   3
loop_
 _symmetry_equiv_pos_site_id
 _symmetry_equiv_pos_as_xyz
  1  'x, y, z'
loop_
 _atom_site_type_symbol
 _atom_site_label
 _atom_site_symmetry_multiplicity
 _atom_site_fract_x
 _atom_site_fract_y
 _atom_site_fract_z
 _atom_site_occupancy
  Sr  Sr0  1  0.27247380  0.77246362  0.96207998  1
  Sr  Sr1  1  0.23079763  0.73088997  0.87180388  1
  Sr  Sr2  1  0.77236498  0.27242131  0.96206695  1
  Sr  Sr3  1  0.27822940  0.77818782  0.79637972  1
  Sr  Sr4  1  0.73074193  0.23070139  0.87178683  1
  Sr  Sr5  1  0.25294279  0.75296515  0.70882825  1
  Sr  Sr6  1  0.77820542  0.27824930  0.79637944  1
  Sr  Sr7  1  0.25004992  0.75004453  0.62501235  1
  Sr  Sr8  1  0.75303151  0.25302477  0.70883796  1
  Sr  Sr9  1  0.25002092  0.75001797  0.54167584  1
  Sr  Sr10  1  0.75016594  0.25017118  0.62503360  1
  Sr  Sr11  1  0.24979863  0.74980266  0.45829849  1
  Sr  Sr12  1  0.75020137  0.25019734  0.54170151  1
  Sr  Sr13  1  0.24983406  0.74982882  0.37496640  1
  Sr  Sr14  1  0.74997908  0.24998203  0.45832416  1
  Sr  Sr15  1  0.24696849  0.74697523  0.29116204  1
  Sr  Sr16  1  0.74995008  0.24995547  0.37498765  1
  Sr  Sr17  1  0.22179458  0.72175070  0.20362056  1
  Sr  Sr18  1  0.74705721  0.24703485  0.29117175  1
  Sr  Sr19  1  0.26925807  0.76929861  0.12821317  1
  Sr  Sr20  1  0.72177060  0.22181218  0.20362028  1
  Sr  Sr21  1  0.22763502  0.72757869  0.03793305  1
  Sr  Sr22  1  0.76920237  0.26911003  0.12819612  1
  Sr  Sr23  1  0.72752620  0.22753638  0.03792002  1
  Ru  Ru24  1  0.00483557  0.00488089  0.91747074  1
  Ru  Ru25  1  0.49799303  0.49801418  0.91632384  1
  Ru  Ru26  1  0.00269485  0.00269171  0.75045552  1
  Ru  Ru27  1  0.50500948  0.50498046  0.83417612  1
  Ru  Ru28  1  0.00096956  0.00095435  0.66682646  1
  Ru  Ru29  1  0.50578841  0.50580034  0.75096946  1
  Ru  Ru30  1  0.99940857  0.99940462  0.58324620  1
  Ru  Ru31  1  0.50154377  0.50154016  0.66692546  1
  Ru  Ru32  1  0.00000000  0.00000000  0.50000000  1
  Ru  Ru33  1  0.49903052  0.49902443  0.58317994  1
  Ru  Ru34  1  0.00059143  0.00059538  0.41675380  1
  Ru  Ru35  1  0.50000000  0.50000000  0.50000000  1
  Ru  Ru36  1  0.99903044  0.99904565  0.33317354  1
  Ru  Ru37  1  0.50096948  0.50097557  0.41682006  1
  Ru  Ru38  1  0.99730515  0.99730829  0.24954448  1
  Ru  Ru39  1  0.49845623  0.49845984  0.33307454  1
  Ru  Ru40  1  0.49421159  0.49419966  0.24903054  1
  Ru  Ru41  1  0.99516443  0.99511911  0.08252926  1
  Ru  Ru42  1  0.49499052  0.49501954  0.16582388  1
  Ru  Ru43  1  0.00000000  0.00000000  0.00000000  1
  Ru  Ru44  1  0.50200697  0.50198582  0.08367616  1
  O  O45  1  0.23094696  0.23101146  0.95516060  1
  O  O46  1  0.19787027  0.29906543  0.91649159  1
  O  O47  1  0.29912997  0.80017052  0.91649264  1
  O  O48  1  0.26920761  0.26926172  0.87820785  1
  O  O49  1  0.75081459  0.75073813  0.95846653  1
  O  O50  1  0.23665672  0.28278994  0.83311326  1
  O  O51  1  0.69874350  0.19773000  0.91648216  1
  O  O52  1  0.28287759  0.76064806  0.83311722  1
  O  O53  1  0.80006419  0.69886045  0.91649266  1
  O  O54  1  0.24415751  0.24418420  0.79069256  1
  O  O55  1  0.74796836  0.74791924  0.87466587  1
  O  O56  1  0.19912575  0.28872923  0.74900165  1
  O  O57  1  0.71447671  0.23664301  0.83311281  1
  O  O58  1  0.28864647  0.78875563  0.74898182  1
  O  O59  1  0.76062635  0.71445380  0.83311668  1
  O  O60  1  0.24364490  0.24369029  0.70728522  1
  O  O61  1  0.73401702  0.73399905  0.78900206  1
  O  O62  1  0.20329502  0.29240372  0.66631978  1
  O  O63  1  0.69908251  0.19898737  0.74897522  1
  O  O64  1  0.29234562  0.79247880  0.66631322  1
  O  O65  1  0.78885080  0.69922893  0.74900392  1
  O  O66  1  0.24904372  0.24911536  0.62485284  1
  O  O67  1  0.74983829  0.74977881  0.70831092  1
  O  O68  1  0.20279285  0.29442155  0.58313105  1
  O  O69  1  0.70338936  0.20324943  0.66630367  1
  O  O70  1  0.29423673  0.79447577  0.58312459  1
  O  O71  1  0.79252592  0.70340841  0.66632026  1
  O  O72  1  0.24875634  0.24881001  0.54145568  1
  O  O73  1  0.74712688  0.74704328  0.62452307  1
  O  O74  1  0.20447687  0.29558277  0.49999908  1
  O  O75  1  0.70316274  0.20291809  0.58312275  1
  O  O76  1  0.29542824  0.79534960  0.50000214  1
  O  O77  1  0.79468127  0.70304199  0.58313064  1
  O  O78  1  0.25054690  0.25059932  0.45843624  1
  O  O79  1  0.74945310  0.74940068  0.54156376  1
  O  O80  1  0.20531873  0.29695801  0.41686936  1
  O  O81  1  0.70457176  0.20465040  0.49999786  1
  O  O82  1  0.29683726  0.79708191  0.41687725  1
  O  O83  1  0.79552313  0.70441723  0.50000092  1
  O  O84  1  0.25287312  0.25295672  0.37547693  1
  O  O85  1  0.75124366  0.75118999  0.45854432  1
  O  O86  1  0.20747408  0.29659159  0.33367974  1
  O  O87  1  0.70576327  0.20552423  0.41687541  1
  O  O88  1  0.29661064  0.79675057  0.33369633  1
  O  O89  1  0.79720715  0.70557845  0.41686895  1
  O  O90  1  0.25016171  0.25022119  0.29168908  1
  O  O91  1  0.75095628  0.75088464  0.37514716  1
  O  O92  1  0.21114920  0.30077107  0.25099608  1
  O  O93  1  0.70765438  0.20752120  0.33368678  1
  O  O94  1  0.30091749  0.80101263  0.25102478  1
  O  O95  1  0.79670498  0.70759628  0.33368022  1
  O  O96  1  0.26598298  0.26600095  0.21099794  1
  O  O97  1  0.75635510  0.75630971  0.29271478  1
  O  O98  1  0.23937365  0.28554620  0.16688332  1
  O  O99  1  0.71135353  0.21124437  0.25101818  1
  O  O100  1  0.28552329  0.76335699  0.16688719  1
  O  O101  1  0.80087425  0.71127077  0.25099835  1
  O  O102  1  0.25203164  0.25208076  0.12533413  1
  O  O103  1  0.75584249  0.75581580  0.20930744  1
  O  O104  1  0.19993581  0.30113955  0.08350734  1
  O  O105  1  0.71712241  0.23935194  0.16688278  1
  O  O106  1  0.30125650  0.80227000  0.08351784  1
  O  O107  1  0.76334328  0.71721006  0.16688674  1
  O  O108  1  0.24918541  0.24926187  0.04153347  1
  O  O109  1  0.73079239  0.73073828  0.12179215  1
  O  O110  1  0.21410137  0.26375662  0.99999703  1
  O  O111  1  0.70087003  0.19982948  0.08350736  1
  O  O112  1  0.26378457  0.78595781  0.00000586  1
  O  O113  1  0.80212973  0.70093457  0.08350841  1
  O  O114  1  0.76905304  0.76898854  0.04483940  1
  O  O115  1  0.73621543  0.21404219  0.99999414  1
  O  O116  1  0.78589863  0.73624338  0.00000297  1
