# generated using pymatgen
data_TmBi3
_symmetry_space_group_name_H-M   'P 1'
_cell_length_a   6.83288886
_cell_length_b   6.83296811
_cell_length_c   5.99863549
_cell_angle_alpha   90.08811231
_cell_angle_beta   89.89156264
_cell_angle_gamma   120.02771464
_symmetry_Int_Tables_number   1
_chemical_formula_structural   TmBi3
_chemical_formula_sum   'Tm2 Bi6'
_cell_volume   242.47927376
_cell_formula_units_Z   2
loop_
 _symmetry_equiv_pos_site_id
 _symmetry_equiv_pos_as_xyz
  1  'x, y, z'
loop_
 _atom_site_type_symbol
 _atom_site_label
 _atom_site_symmetry_multiplicity
 _atom_site_fract_x
 _atom_site_fract_y
 _atom_site_fract_z
 _atom_site_occupancy
  Tm  Tm0  1  0.33330095  0.66669459  0.74995409  1
  Tm  Tm1  1  0.66665278  0.33334705  0.25003426  1
  Bi  Bi2  1  0.17262272  0.34514317  0.24999384  1
  Bi  Bi3  1  0.65481079  0.82738637  0.24999088  1
  Bi  Bi4  1  0.17259688  0.82746396  0.25003301  1
  Bi  Bi5  1  0.82749872  0.65483568  0.75000676  1
  Bi  Bi6  1  0.34509136  0.17250060  0.75001425  1
  Bi  Bi7  1  0.82742781  0.17263158  0.74996890  1
