# generated using pymatgen
data_Nb8P15O56
_symmetry_space_group_name_H-M   'P 1'
_cell_length_a   16.84922453
_cell_length_b   11.95326098
_cell_length_c   11.87190326
_cell_angle_alpha   60.22418458
_cell_angle_beta   45.18745064
_cell_angle_gamma   44.81584425
_symmetry_Int_Tables_number   1
_chemical_formula_structural   Nb8P15O56
_chemical_formula_sum   'Nb8 P15 O56'
_cell_volume   1195.53624598
_cell_formula_units_Z   1
loop_
 _symmetry_equiv_pos_site_id
 _symmetry_equiv_pos_as_xyz
  1  'x, y, z'
loop_
 _atom_site_type_symbol
 _atom_site_label
 _atom_site_symmetry_multiplicity
 _atom_site_fract_x
 _atom_site_fract_y
 _atom_site_fract_z
 _atom_site_occupancy
  Nb  Nb0  1  0.01371337  0.98285423  0.99390121  1
  Nb  Nb1  1  0.00184076  0.49878173  0.49513874  1
  Nb  Nb2  1  0.49541704  0.00575858  0.00174828  1
  Nb  Nb3  1  0.49986795  0.99869174  0.50008168  1
  Nb  Nb4  1  0.49038147  0.50585484  0.99699027  1
  Nb  Nb5  1  0.49198173  0.50445221  0.51705175  1
  Nb  Nb6  1  0.99933055  0.00103132  0.49990893  1
  Nb  Nb7  1  0.00357684  0.49675521  0.00105638  1
  P  P8  1  0.08524229  0.11121384  0.60836230  1
  P  P9  1  0.19875880  0.39893805  0.10165350  1
  P  P10  1  0.19534637  0.10824924  0.89182949  1
  P  P11  1  0.30339962  0.39122972  0.39248344  1
  P  P12  1  0.19430844  0.60877538  0.61046709  1
  P  P13  1  0.30449955  0.89159615  0.10945928  1
  P  P14  1  0.58717492  0.10792653  0.60846713  1
  P  P15  1  0.69511595  0.38994777  0.10900893  1
  P  P16  1  0.41188079  0.89175657  0.39081353  1
  P  P17  1  0.69502861  0.10816608  0.89166705  1
  P  P18  1  0.80512786  0.39185267  0.38947734  1
  P  P19  1  0.69600829  0.60749598  0.60958403  1
  P  P20  1  0.80487976  0.88984562  0.10806200  1
  P  P21  1  0.80321724  0.60866210  0.89230145  1
  P  P22  1  0.91361957  0.88981034  0.39158480  1
  O  O23  1  0.24915736  0.00097962  0.00123063  1
  O  O24  1  0.03967432  0.08390855  0.55541436  1
  O  O25  1  0.11624752  0.41445758  0.06639086  1
  O  O26  1  0.03794141  0.06228211  0.77823546  1
  O  O27  1  0.09845149  0.43311341  0.28666388  1
  O  O28  1  0.31900477  0.21460999  0.08279084  1
  O  O29  1  0.03867262  0.28221922  0.58064358  1
  O  O30  1  0.24865871  0.00617122  0.49523518  1
  O  O31  1  0.24697746  0.50032324  0.00194916  1
  O  O32  1  0.09574391  0.08674188  0.94255883  1
  O  O33  1  0.17951176  0.41760049  0.44148521  1
  O  O34  1  0.37795498  0.44174332  0.22439695  1
  O  O35  1  0.32100856  0.05799698  0.71994511  1
  O  O36  1  0.39956228  0.21883538  0.42119934  1
  O  O37  1  0.12432767  0.27918138  0.91726587  1
  O  O38  1  0.24369392  0.49841614  0.50807933  1
  O  O39  1  0.75192656  0.99120752  0.99805372  1
  O  O40  1  0.37977874  0.72077545  0.08425842  1
  O  O41  1  0.09747769  0.78010710  0.58151485  1
  O  O42  1  0.11924970  0.56084713  0.78263834  1
  O  O43  1  0.17835773  0.94419803  0.28083458  1
  O  O44  1  0.62220734  0.42078743  0.05547934  1
  O  O45  1  0.54007820  0.08029570  0.55809032  1
  O  O46  1  0.39899315  0.92311321  0.05931370  1
  O  O47  1  0.32043138  0.57904552  0.55611765  1
  O  O48  1  0.53964527  0.05680983  0.78037725  1
  O  O49  1  0.60023719  0.44328408  0.27802993  1
  O  O50  1  0.82418932  0.22299611  0.07412586  1
  O  O51  1  0.54297841  0.27652429  0.57936973  1
  O  O52  1  0.75027901  0.99351605  0.50397471  1
  O  O53  1  0.74805056  0.50624300  0.99640554  1
  O  O54  1  0.17002532  0.80008190  0.91639271  1
  O  O55  1  0.45775542  0.72286936  0.41513864  1
  O  O56  1  0.41432716  0.55483492  0.69975271  1
  O  O57  1  0.45935371  0.94432070  0.21905936  1
  O  O58  1  0.59870701  0.08101042  0.93942150  1
  O  O59  1  0.68220583  0.42156298  0.43554029  1
  O  O60  1  0.38607566  0.58196127  0.94584575  1
  O  O61  1  0.45870598  0.91905253  0.44186584  1
  O  O62  1  0.82008095  0.05868032  0.71951455  1
  O  O63  1  0.88123048  0.44133934  0.21887177  1
  O  O64  1  0.62315431  0.27570823  0.92243124  1
  O  O65  1  0.90172592  0.21963668  0.41729509  1
  O  O66  1  0.75429759  0.49766402  0.49782893  1
  O  O67  1  0.59970319  0.77906033  0.57966803  1
  O  O68  1  0.88010785  0.71735487  0.08143838  1
  O  O69  1  0.62501675  0.55636333  0.77891594  1
  O  O70  1  0.67895693  0.93911522  0.27993367  1
  O  O71  1  0.82050547  0.58341906  0.55621995  1
  O  O72  1  0.89772020  0.92167145  0.05938030  1
  O  O73  1  0.67875334  0.78407883  0.92100074  1
  O  O74  1  0.96192975  0.71810578  0.41745070  1
  O  O75  1  0.90016334  0.56192378  0.71710561  1
  O  O76  1  0.95726591  0.94383407  0.22282489  1
  O  O77  1  0.95811730  0.91829129  0.44493081  1
  O  O78  1  0.88187886  0.57809342  0.93995045  1
