# generated using pymatgen
data_Zn(Bi25O38)2
_symmetry_space_group_name_H-M   'P 1'
_cell_length_a   9.03749806
_cell_length_b   8.95415029
_cell_length_c   36.17113887
_cell_angle_alpha   109.32020878
_cell_angle_beta   109.67247821
_cell_angle_gamma   109.32117213
_symmetry_Int_Tables_number   1
_chemical_formula_structural   Zn(Bi25O38)2
_chemical_formula_sum   'Zn1 Bi50 O76'
_cell_volume   2256.01799829
_cell_formula_units_Z   1
loop_
 _symmetry_equiv_pos_site_id
 _symmetry_equiv_pos_as_xyz
  1  'x, y, z'
loop_
 _atom_site_type_symbol
 _atom_site_label
 _atom_site_symmetry_multiplicity
 _atom_site_fract_x
 _atom_site_fract_y
 _atom_site_fract_z
 _atom_site_occupancy
  Zn  Zn0  1  0.99946504  0.93231613  0.75070998  1
  Bi  Bi1  1  0.15609831  0.86098809  0.92073712  1
  Bi  Bi2  1  0.15507567  0.32363217  0.94979373  1
  Bi  Bi3  1  0.20170313  0.52112326  0.83911050  1
  Bi  Bi4  1  0.15511531  0.87017186  0.67243419  1
  Bi  Bi5  1  0.30833851  0.80566913  0.78311131  1
  Bi  Bi6  1  0.52515604  0.70967076  0.96248949  1
  Bi  Bi7  1  0.30898683  0.17833471  0.86672609  1
  Bi  Bi8  1  0.15895034  0.32537669  0.70031523  1
  Bi  Bi9  1  0.20007223  0.52711686  0.58957381  1
  Bi  Bi10  1  0.69717394  0.83577378  0.87423002  1
  Bi  Bi11  1  0.48699050  0.32372921  0.79746534  1
  Bi  Bi12  1  0.14649828  0.85266739  0.41765015  1
  Bi  Bi13  1  0.29705872  0.80033385  0.53292196  1
  Bi  Bi14  1  0.64205149  0.16697331  0.96129475  1
  Bi  Bi15  1  0.53733947  0.71328828  0.71050791  1
  Bi  Bi16  1  0.31832698  0.18078219  0.61882243  1
  Bi  Bi17  1  0.82963186  0.50069939  0.92547120  1
  Bi  Bi18  1  0.15395105  0.31694700  0.45009420  1
  Bi  Bi19  1  0.86264611  0.66764040  0.79360451  1
  Bi  Bi20  1  0.70017253  0.84115503  0.62680667  1
  Bi  Bi21  1  0.20226598  0.52054347  0.33667636  1
  Bi  Bi22  1  0.50287043  0.34182731  0.54990349  1
  Bi  Bi23  1  0.17437413  0.87443842  0.17652495  1
  Bi  Bi24  1  0.30462325  0.81847195  0.28110748  1
  Bi  Bi25  1  0.80823776  0.14200181  0.82498960  1
  Bi  Bi26  1  0.64418387  0.16247275  0.71082617  1
  Bi  Bi27  1  0.51613664  0.69537878  0.45930176  1
  Bi  Bi28  1  0.29218140  0.16688290  0.36420602  1
  Bi  Bi29  1  0.82918986  0.49709145  0.67303414  1
  Bi  Bi30  1  0.15465541  0.33005289  0.20015146  1
  Bi  Bi31  1  0.86794130  0.66480954  0.53999757  1
  Bi  Bi32  1  0.68402155  0.83375460  0.37118597  1
  Bi  Bi33  1  0.19363589  0.52266300  0.09012834  1
  Bi  Bi34  1  0.99529000  0.02904278  0.49837672  1
  Bi  Bi35  1  0.49255932  0.32147601  0.29746731  1
  Bi  Bi36  1  0.30621195  0.79637794  0.03615402  1
  Bi  Bi37  1  0.80070485  0.13416659  0.57427334  1
  Bi  Bi38  1  0.63521035  0.16567169  0.45934744  1
  Bi  Bi39  1  0.53821190  0.70685682  0.20913071  1
  Bi  Bi40  1  0.82233612  0.48469111  0.42093735  1
  Bi  Bi41  1  0.32747874  0.18120972  0.12110228  1
  Bi  Bi42  1  0.86489434  0.68184178  0.29353697  1
  Bi  Bi43  1  0.71274440  0.83948727  0.13248283  1
  Bi  Bi44  1  0.49781690  0.34314486  0.04961721  1
  Bi  Bi45  1  0.82021693  0.13543677  0.32356244  1
  Bi  Bi46  1  0.65641751  0.17413604  0.21302093  1
  Bi  Bi47  1  0.83306875  0.52287832  0.17618356  1
  Bi  Bi48  1  0.86976473  0.67025017  0.04226167  1
  Bi  Bi49  1  0.79489981  0.14225088  0.07902848  1
  Bi  Bi50  1  0.00296358  0.03620528  0.00166242  1
  O  O51  1  0.99938288  0.99936862  0.90734707  1
  O  O52  1  0.11803097  0.75205241  0.84632005  1
  O  O53  1  0.26717740  0.63503551  0.97119415  1
  O  O54  1  0.23319353  0.35430562  0.90166985  1
  O  O55  1  0.38800103  0.74146472  0.90687117  1
  O  O56  1  0.35235798  0.62049017  0.81045379  1
  O  O57  1  0.11829808  0.75263228  0.59603389  1
  O  O58  1  0.26355866  0.63218102  0.71960367  1
  O  O59  1  0.36889800  0.11433740  0.93995265  1
  O  O60  1  0.37711954  0.37918532  0.84393822  1
  O  O61  1  0.00142343  0.00474299  0.65606229  1
  O  O62  1  0.00270923  0.60546369  0.50052496  1
  O  O63  1  0.22069286  0.00204432  0.74761093  1
  O  O64  1  0.23659880  0.35388685  0.65229862  1
  O  O65  1  0.61023543  0.36754782  0.93298639  1
  O  O66  1  0.77687036  0.77528934  0.94686472  1
  O  O67  1  0.01030455  0.99876403  0.55590252  1
  O  O68  1  0.39375875  0.74922494  0.65719522  1
  O  O69  1  0.64721576  0.88251266  0.81524508  1
  O  O70  1  0.73705806  0.61784262  0.84349242  1
  O  O71  1  0.35578265  0.62016662  0.56170812  1
  O  O72  1  0.11773202  0.75886336  0.34707391  1
  O  O73  1  0.61226160  0.22977268  0.83739336  1
  O  O74  1  0.26640151  0.63648711  0.47065276  1
  O  O75  1  0.37561458  0.12032151  0.69152016  1
  O  O76  1  0.37018336  0.37035964  0.59297281  1
  O  O77  1  0.00096263  0.00457542  0.41147484  1
  O  O78  1  0.00756951  0.00312159  0.16102872  1
  O  O79  1  0.21267228  0.98557144  0.49853820  1
  O  O80  1  0.23756053  0.35742970  0.40364721  1
  O  O81  1  0.88794330  0.26448389  0.91100511  1
  O  O82  1  0.61485919  0.36751294  0.68302387  1
  O  O83  1  0.76841962  0.77936954  0.69501842  1
  O  O84  1  0.99517755  0.00218564  0.31854193  1
  O  O85  1  0.76460117  0.37668407  0.77741922  1
  O  O86  1  0.38424975  0.73785968  0.40603383  1
  O  O87  1  0.64414933  0.87991290  0.56609974  1
  O  O88  1  0.62347535  0.00262035  0.74978887  1
  O  O89  1  0.73943547  0.62038736  0.59763776  1
  O  O90  1  0.36605422  0.62763859  0.31241840  1
  O  O91  1  0.12421367  0.75348173  0.09457666  1
  O  O92  1  0.26005083  0.63418616  0.21843722  1
  O  O93  1  0.62083864  0.23894059  0.58928956  1
  O  O94  1  0.36591227  0.11330733  0.44129587  1
  O  O95  1  0.00118835  0.63893439  0.75023406  1
  O  O96  1  0.35914824  0.36571269  0.34128520  1
  O  O97  1  0.28378444  0.00539935  0.25077938  1
  O  O98  1  0.89059718  0.26838254  0.66401040  1
  O  O99  1  0.24082695  0.35309119  0.15283699  1
  O  O100  1  0.61748625  0.36966326  0.43523076  1
  O  O101  1  0.77223222  0.76776723  0.44699065  1
  O  O102  1  0.00819280  0.01241256  0.80834101  1
  O  O103  1  0.01325461  0.98906314  0.05573109  1
  O  O104  1  0.75209032  0.37376639  0.52712218  1
  O  O105  1  0.39178920  0.74848183  0.15676300  1
  O  O106  1  0.64020548  0.88290234  0.31341649  1
  O  O107  1  0.63196557  0.99613406  0.49986509  1
  O  O108  1  0.74569124  0.63037140  0.34489480  1
  O  O109  1  0.33516226  0.59772441  0.05719294  1
  O  O110  1  0.62701330  0.25048544  0.34301146  1
  O  O111  1  0.38197251  0.12146607  0.19035450  1
  O  O112  1  0.35326219  0.35626281  0.08925915  1
  O  O113  1  0.21113503  0.98662740  0.99591539  1
  O  O114  1  0.88734088  0.25925198  0.41235594  1
  O  O115  1  0.61747883  0.37427716  0.18360249  1
  O  O116  1  0.72805189  0.72766238  0.18144011  1
  O  O117  1  0.75855778  0.37773739  0.27868575  1
  O  O118  1  0.62668718  0.87942766  0.06482932  1
  O  O119  1  0.64533450  0.00195748  0.24873791  1
  O  O120  1  0.73886643  0.61849914  0.09565307  1
  O  O121  1  0.60875371  0.23714991  0.08874936  1
  O  O122  1  0.00137066  0.63278849  0.25044816  1
  O  O123  1  0.88852624  0.26375087  0.15864834  1
  O  O124  1  0.75467057  0.37529483  0.02754669  1
  O  O125  1  0.62921396  0.00177627  0.99927252  1
  O  O126  1  0.99323289  0.60138337  0.99858299  1
