# generated using pymatgen
data_BaSm5Al3Si9N20O
_symmetry_space_group_name_H-M   'P 1'
_cell_length_a   9.73074184
_cell_length_b   9.56262909
_cell_length_c   6.07295306
_cell_angle_alpha   90.05348006
_cell_angle_beta   90.03816924
_cell_angle_gamma   119.96607007
_symmetry_Int_Tables_number   1
_chemical_formula_structural   BaSm5Al3Si9N20O
_chemical_formula_sum   'Ba1 Sm5 Al3 Si9 N20 O1'
_cell_volume   489.55517046
_cell_formula_units_Z   1
loop_
 _symmetry_equiv_pos_site_id
 _symmetry_equiv_pos_as_xyz
  1  'x, y, z'
loop_
 _atom_site_type_symbol
 _atom_site_label
 _atom_site_symmetry_multiplicity
 _atom_site_fract_x
 _atom_site_fract_y
 _atom_site_fract_z
 _atom_site_occupancy
  Ba  Ba0  1  0.99788939  0.00268539  0.99982795  1
  Sm  Sm1  1  0.99681933  0.75237187  0.50123392  1
  Sm  Sm2  1  0.33051725  0.66145163  0.50371441  1
  Sm  Sm3  1  0.24545501  0.24576430  0.49849420  1
  Sm  Sm4  1  0.67231069  0.33620957  0.49385410  1
  Sm  Sm5  1  0.75808768  0.00263060  0.50140512  1
  Al  Al6  1  0.28348159  0.46170194  0.01397013  1
  Al  Al7  1  0.81873553  0.53680780  0.98395871  1
  Al  Al8  1  0.71657642  0.18235791  0.98455858  1
  Si  Si9  1  0.99024872  0.38322107  0.25883958  1
  Si  Si10  1  0.18616153  0.71366440  0.01607045  1
  Si  Si11  1  0.39502896  0.00855915  0.25235964  1
  Si  Si12  1  0.52318464  0.81186640  0.01530375  1
  Si  Si13  1  0.61480443  0.60513426  0.25450990  1
  Si  Si14  1  0.60470241  0.61701380  0.74551261  1
  Si  Si15  1  0.47682069  0.28659619  0.98175756  1
  Si  Si16  1  0.38425229  0.98842511  0.74959030  1
  Si  Si17  1  0.01440274  0.39466622  0.74304110  1
  N  N18  1  0.00889732  0.51659836  0.00298232  1
  N  N19  1  0.00249058  0.49055966  0.50168701  1
  N  N20  1  0.20022840  0.85173473  0.21418715  1
  N  N21  1  0.21921498  0.79661317  0.75566473  1
  N  N22  1  0.14068537  0.33982267  0.22803143  1
  N  N23  1  0.20061417  0.41746021  0.73694049  1
  N  N24  1  0.33274378  0.66975969  0.09400490  1
  N  N25  1  0.57050511  0.77869035  0.75534037  1
  N  N26  1  0.49252047  0.48446823  0.99878847  1
  N  N27  1  0.64388676  0.79870997  0.21300837  1
  N  N28  1  0.51120347  0.51675569  0.49921512  1
  N  N29  1  0.34680662  0.14632859  0.79120150  1
  N  N30  1  0.42688549  0.20354133  0.24360854  1
  N  N31  1  0.79997967  0.66772322  0.77464181  1
  N  N32  1  0.48095363  0.99796120  0.50167138  1
  N  N33  1  0.78069611  0.58618429  0.26144766  1
  N  N34  1  0.66246818  0.33275496  0.89552115  1
  N  N35  1  0.50699682  0.99198067  0.00257467  1
  N  N36  1  0.80065338  0.22060556  0.26209851  1
  N  N37  1  0.86154530  0.20015497  0.77682181  1
  O  O38  1  0.00054510  0.00046486  0.49256056  1
