# generated using pymatgen
data_Li2Sb(PO3)5
_symmetry_space_group_name_H-M   'P 1'
_cell_length_a   5.48298963
_cell_length_b   14.08442537
_cell_length_c   9.04114396
_cell_angle_alpha   90.00000000
_cell_angle_beta   101.91433439
_cell_angle_gamma   90.00000000
_symmetry_Int_Tables_number   1
_chemical_formula_structural   Li2Sb(PO3)5
_chemical_formula_sum   'Li4 Sb2 P10 O30'
_cell_volume   683.15908638
_cell_formula_units_Z   2
loop_
 _symmetry_equiv_pos_site_id
 _symmetry_equiv_pos_as_xyz
  1  'x, y, z'
loop_
 _atom_site_type_symbol
 _atom_site_label
 _atom_site_symmetry_multiplicity
 _atom_site_fract_x
 _atom_site_fract_y
 _atom_site_fract_z
 _atom_site_occupancy
  Li  Li0  1  0.06100346  0.35789437  0.07145276  1
  Li  Li1  1  0.93899654  0.64210563  0.92854724  1
  Li  Li2  1  0.06100346  0.14210563  0.07145276  1
  Li  Li3  1  0.93899654  0.85789437  0.92854724  1
  Sb  Sb4  1  0.50000000  0.00000000  0.50000000  1
  Sb  Sb5  1  0.50000000  0.50000000  0.50000000  1
  P  P6  1  0.99251951  0.64572672  0.48037801  1
  P  P7  1  0.67476037  0.58344253  0.17846584  1
  P  P8  1  0.32523963  0.41655747  0.82153416  1
  P  P9  1  0.32523963  0.08344253  0.82153416  1
  P  P10  1  0.54322123  0.25000000  0.00637282  1
  P  P11  1  0.45677877  0.75000000  0.99362718  1
  P  P12  1  0.67476037  0.91655747  0.17846584  1
  P  P13  1  0.00748049  0.14572672  0.51962199  1
  P  P14  1  0.99251951  0.85427328  0.48037801  1
  P  P15  1  0.00748049  0.35427328  0.51962199  1
  O  O16  1  0.17279770  0.05443504  0.93190579  1
  O  O17  1  0.26685410  0.86486727  0.48330177  1
  O  O18  1  0.80482769  0.25000000  0.09956047  1
  O  O19  1  0.84338847  0.64893313  0.30925322  1
  O  O20  1  0.82720230  0.55443504  0.06809421  1
  O  O21  1  0.15661153  0.35106687  0.69074678  1
  O  O22  1  0.53697803  0.34018494  0.89342847  1
  O  O23  1  0.93784925  0.75000000  0.53701866  1
  O  O24  1  0.82720230  0.94556496  0.06809421  1
  O  O25  1  0.73314590  0.36486727  0.51669823  1
  O  O26  1  0.15661153  0.14893313  0.69074678  1
  O  O27  1  0.87365213  0.92169940  0.57528284  1
  O  O28  1  0.54454342  0.99123418  0.25456493  1
  O  O29  1  0.84338847  0.85106687  0.30925322  1
  O  O30  1  0.53697803  0.15981506  0.89342847  1
  O  O31  1  0.45545658  0.49123418  0.74543507  1
  O  O32  1  0.45545658  0.00876582  0.74543507  1
  O  O33  1  0.31327264  0.25000000  0.07279411  1
  O  O34  1  0.19517231  0.75000000  0.90043953  1
  O  O35  1  0.46302197  0.84018494  0.10657153  1
  O  O36  1  0.68672736  0.75000000  0.92720589  1
  O  O37  1  0.12634787  0.42169940  0.42471716  1
  O  O38  1  0.12634787  0.07830060  0.42471716  1
  O  O39  1  0.54454342  0.50876582  0.25456493  1
  O  O40  1  0.73314590  0.13513273  0.51669823  1
  O  O41  1  0.17279770  0.44556496  0.93190579  1
  O  O42  1  0.26685410  0.63513273  0.48330177  1
  O  O43  1  0.06215075  0.25000000  0.46298134  1
  O  O44  1  0.46302197  0.65981506  0.10657153  1
  O  O45  1  0.87365213  0.57830060  0.57528284  1
