# generated using pymatgen
data_CsCuP3H8O13
_symmetry_space_group_name_H-M   'P 1'
_cell_length_a   9.89103899
_cell_length_b   8.68741568
_cell_length_c   7.61880085
_cell_angle_alpha   105.99225633
_cell_angle_beta   90.87452353
_cell_angle_gamma   102.42343561
_symmetry_Int_Tables_number   1
_chemical_formula_structural   CsCuP3H8O13
_chemical_formula_sum   'Cs2 Cu2 P6 H16 O26'
_cell_volume   612.65259680
_cell_formula_units_Z   2
loop_
 _symmetry_equiv_pos_site_id
 _symmetry_equiv_pos_as_xyz
  1  'x, y, z'
loop_
 _atom_site_type_symbol
 _atom_site_label
 _atom_site_symmetry_multiplicity
 _atom_site_fract_x
 _atom_site_fract_y
 _atom_site_fract_z
 _atom_site_occupancy
  Cs  Cs0  1  0.67799885  0.58610690  0.28013257  1
  Cs  Cs1  1  0.32200115  0.41389310  0.71986743  1
  Cu  Cu2  1  0.50000000  0.00000000  0.50000000  1
  Cu  Cu3  1  0.00000000  0.50000000  0.00000000  1
  P  P4  1  0.75593112  0.65057056  0.80438080  1
  P  P5  1  0.24406888  0.34942944  0.19561920  1
  P  P6  1  0.21910974  0.99880581  0.00792306  1
  P  P7  1  0.78089026  0.00119419  0.99207694  1
  P  P8  1  0.05226536  0.72772189  0.72205675  1
  P  P9  1  0.94773464  0.27227811  0.27794325  1
  H  H10  1  0.52750689  0.76712689  0.65319002  1
  H  H11  1  0.47249311  0.23287311  0.34680998  1
  H  H12  1  0.42276869  0.87802502  0.75374927  1
  H  H13  1  0.57723131  0.12197498  0.24625073  1
  H  H14  1  0.25810313  0.00275874  0.38691969  1
  H  H15  1  0.74189687  0.99724126  0.61308031  1
  H  H16  1  0.24497946  0.89945481  0.52854929  1
  H  H17  1  0.75502054  0.10054519  0.47145071  1
  H  H18  1  0.03952502  0.69251643  0.32544056  1
  H  H19  1  0.96047498  0.30748357  0.67455944  1
  H  H20  1  0.06082633  0.80438579  0.19222099  1
  H  H21  1  0.93917367  0.19561421  0.80777901  1
  H  H22  1  0.63770556  0.31007342  0.81513626  1
  H  H23  1  0.36229444  0.68992658  0.18486374  1
  H  H24  1  0.45035393  0.82255388  0.10176440  1
  H  H25  1  0.54964607  0.17744612  0.89823560  1
  O  O26  1  0.77016624  0.51065328  0.87725880  1
  O  O27  1  0.22983376  0.48934672  0.12274120  1
  O  O28  1  0.62724736  0.63846973  0.68948731  1
  O  O29  1  0.37275264  0.36153027  0.31051269  1
  O  O30  1  0.78122058  0.81169258  0.98157967  1
  O  O31  1  0.21877942  0.18830742  0.01842033  1
  O  O32  1  0.88621011  0.69408905  0.68244606  1
  O  O33  1  0.11378989  0.30591095  0.31755394  1
  O  O34  1  0.82156012  0.03249503  0.81300698  1
  O  O35  1  0.17843988  0.96750497  0.18699302  1
  O  O36  1  0.64960606  0.04210212  0.06479071  1
  O  O37  1  0.35039394  0.95789788  0.93520929  1
  O  O38  1  0.91172319  0.08575664  0.14518553  1
  O  O39  1  0.08827681  0.91424336  0.85481447  1
  O  O40  1  0.88457056  0.27748831  0.45655010  1
  O  O41  1  0.11542944  0.72251169  0.54344990  1
  O  O42  1  0.09136358  0.61870503  0.82966437  1
  O  O43  1  0.90863642  0.38129497  0.17033563  1
  O  O44  1  0.54195624  0.17062979  0.36793348  1
  O  O45  1  0.45804376  0.82937021  0.63206652  1
  O  O46  1  0.29948602  0.00388130  0.50968615  1
  O  O47  1  0.70051398  0.99611870  0.49031385  1
  O  O48  1  0.00071038  0.70036172  0.20711471  1
  O  O49  1  0.99928962  0.29963828  0.79288529  1
  O  O50  1  0.45290477  0.76798343  0.19871174  1
  O  O51  1  0.54709523  0.23201657  0.80128826  1
