# generated using pymatgen
data_SrH10(SO4)2
_symmetry_space_group_name_H-M   'P 1'
_cell_length_a   11.37332661
_cell_length_b   11.37332661
_cell_length_c   10.67926156
_cell_angle_alpha   73.76047084
_cell_angle_beta   106.23952916
_cell_angle_gamma   137.81865623
_symmetry_Int_Tables_number   1
_chemical_formula_structural   SrH10(SO4)2
_chemical_formula_sum   'Sr4 H40 S8 O32'
_cell_volume   884.92802843
_cell_formula_units_Z   4
loop_
 _symmetry_equiv_pos_site_id
 _symmetry_equiv_pos_as_xyz
  1  'x, y, z'
loop_
 _atom_site_type_symbol
 _atom_site_label
 _atom_site_symmetry_multiplicity
 _atom_site_fract_x
 _atom_site_fract_y
 _atom_site_fract_z
 _atom_site_occupancy
  Sr  Sr0  1  0.89656304  0.45079670  0.68590421  1
  Sr  Sr1  1  0.45079670  0.89656304  0.81409579  1
  Sr  Sr2  1  0.10343696  0.54920330  0.31409579  1
  Sr  Sr3  1  0.54920330  0.10343696  0.18590421  1
  H  H4  1  0.25967568  0.61272418  0.64216719  1
  H  H5  1  0.61272418  0.25967568  0.85783281  1
  H  H6  1  0.74032432  0.38727582  0.35783281  1
  H  H7  1  0.38727582  0.74032432  0.14216719  1
  H  H8  1  0.21344526  0.49436280  0.77859609  1
  H  H9  1  0.49436280  0.21344526  0.72140391  1
  H  H10  1  0.78655474  0.50563720  0.22140391  1
  H  H11  1  0.50563720  0.78655474  0.27859609  1
  H  H12  1  0.54498511  0.20121387  0.50916384  1
  H  H13  1  0.20121387  0.54498511  0.99083616  1
  H  H14  1  0.45501489  0.79878613  0.49083616  1
  H  H15  1  0.79878613  0.45501489  0.00916384  1
  H  H16  1  0.59028538  0.37682735  0.45700651  1
  H  H17  1  0.37682735  0.59028538  0.04299349  1
  H  H18  1  0.40971462  0.62317265  0.54299349  1
  H  H19  1  0.62317265  0.40971462  0.95700651  1
  H  H20  1  0.11019837  0.24665674  0.92010496  1
  H  H21  1  0.24665674  0.11019837  0.57989504  1
  H  H22  1  0.88980163  0.75334326  0.07989504  1
  H  H23  1  0.75334326  0.88980163  0.42010496  1
  H  H24  1  0.09347390  0.22389417  0.77499649  1
  H  H25  1  0.22389417  0.09347390  0.72500351  1
  H  H26  1  0.90652610  0.77610583  0.22500351  1
  H  H27  1  0.77610583  0.90652610  0.27499649  1
  H  H28  1  0.89554810  0.73061019  0.55125458  1
  H  H29  1  0.73061019  0.89554810  0.94874542  1
  H  H30  1  0.10445190  0.26938981  0.44874542  1
  H  H31  1  0.26938981  0.10445190  0.05125458  1
  H  H32  1  0.88315451  0.71621004  0.69823325  1
  H  H33  1  0.71621004  0.88315451  0.80176675  1
  H  H34  1  0.11684549  0.28378996  0.30176675  1
  H  H35  1  0.28378996  0.11684549  0.19823325  1
  H  H36  1  0.40672147  0.40093961  0.87055779  1
  H  H37  1  0.40093961  0.40672147  0.62944221  1
  H  H38  1  0.59327853  0.59906039  0.12944221  1
  H  H39  1  0.59906039  0.59327853  0.37055779  1
  H  H40  1  0.57576434  0.58957045  0.90426389  1
  H  H41  1  0.58957045  0.57576434  0.59573611  1
  H  H42  1  0.42423566  0.41042955  0.09573611  1
  H  H43  1  0.41042955  0.42423566  0.40426389  1
  S  S44  1  0.03591414  0.88686471  0.88501337  1
  S  S45  1  0.88686471  0.03591414  0.61498663  1
  S  S46  1  0.96408586  0.11313529  0.11498663  1
  S  S47  1  0.11313529  0.96408586  0.38501337  1
  S  S48  1  0.13929357  0.79039992  0.94685672  1
  S  S49  1  0.79039992  0.13929357  0.55314328  1
  S  S50  1  0.86070643  0.20960008  0.05314328  1
  S  S51  1  0.20960008  0.86070643  0.44685672  1
  O  O52  1  0.04855024  0.65299292  0.05996721  1
  O  O53  1  0.65299292  0.04855024  0.44003279  1
  O  O54  1  0.95144976  0.34700708  0.94003279  1
  O  O55  1  0.34700708  0.95144976  0.55996721  1
  O  O56  1  0.33215417  0.93731456  0.98494912  1
  O  O57  1  0.93731456  0.33215417  0.51505088  1
  O  O58  1  0.66784583  0.06268544  0.01505088  1
  O  O59  1  0.06268544  0.66784583  0.48494912  1
  O  O60  1  0.11603255  0.71603424  0.83632344  1
  O  O61  1  0.71603424  0.11603255  0.66367656  1
  O  O62  1  0.88396745  0.28396576  0.16367656  1
  O  O63  1  0.28396576  0.88396745  0.33632344  1
  O  O64  1  0.21856098  0.58583915  0.72763108  1
  O  O65  1  0.58583915  0.21856098  0.77236892  1
  O  O66  1  0.78143902  0.41416085  0.27236892  1
  O  O67  1  0.41416085  0.78143902  0.22763108  1
  O  O68  1  0.64207816  0.32855887  0.48428157  1
  O  O69  1  0.32855887  0.64207816  0.01571843  1
  O  O70  1  0.35792184  0.67144113  0.51571843  1
  O  O71  1  0.67144113  0.35792184  0.98428157  1
  O  O72  1  0.17590857  0.30752792  0.84274927  1
  O  O73  1  0.30752792  0.17590857  0.65725073  1
  O  O74  1  0.82409143  0.69247208  0.15725073  1
  O  O75  1  0.69247208  0.82409143  0.34274927  1
  O  O76  1  0.82935498  0.64426455  0.62666421  1
  O  O77  1  0.64426455  0.82935498  0.87333579  1
  O  O78  1  0.17064502  0.35573545  0.37333579  1
  O  O79  1  0.35573545  0.17064502  0.12666421  1
  O  O80  1  0.53357729  0.47834065  0.89798430  1
  O  O81  1  0.47834065  0.53357729  0.60201570  1
  O  O82  1  0.46642271  0.52165935  0.10201570  1
  O  O83  1  0.52165935  0.46642271  0.39798430  1
