# generated using pymatgen
data_La5Mn6O18
_symmetry_space_group_name_H-M   'P 1'
_cell_length_a   16.49531274
_cell_length_b   14.53276313
_cell_length_c   9.48684645
_cell_angle_alpha   29.59082711
_cell_angle_beta   55.23648674
_cell_angle_gamma   41.14560622
_symmetry_Int_Tables_number   1
_chemical_formula_structural   La5Mn6O18
_chemical_formula_sum   'La10 Mn12 O36'
_cell_volume   713.40467188
_cell_formula_units_Z   2
loop_
 _symmetry_equiv_pos_site_id
 _symmetry_equiv_pos_as_xyz
  1  'x, y, z'
loop_
 _atom_site_type_symbol
 _atom_site_label
 _atom_site_symmetry_multiplicity
 _atom_site_fract_x
 _atom_site_fract_y
 _atom_site_fract_z
 _atom_site_occupancy
  La  La0  1  0.07717182  0.50708643  0.74228567  1
  La  La1  1  0.24682859  0.50291031  0.25006542  1
  La  La2  1  0.08738558  0.99577537  0.24542575  1
  La  La3  1  0.42254851  0.48613788  0.76749956  1
  La  La4  1  0.57745149  0.51386212  0.23250044  1
  La  La5  1  0.41659401  0.99268754  0.26479305  1
  La  La6  1  0.75317141  0.49708969  0.74993458  1
  La  La7  1  0.92282818  0.49291357  0.25771433  1
  La  La8  1  0.58340599  0.00731246  0.73520695  1
  La  La9  1  0.91261442  0.00422463  0.75457425  1
  Mn  Mn10  1  0.00000000  0.00000000  0.00000000  1
  Mn  Mn11  1  0.33209504  0.00065576  0.99783098  1
  Mn  Mn12  1  0.16875240  0.49359048  0.00694038  1
  Mn  Mn13  1  0.66790496  0.99934424  0.00216902  1
  Mn  Mn14  1  0.33383557  0.50245123  0.49432301  1
  Mn  Mn15  1  0.50000000  0.50000000  0.00000000  1
  Mn  Mn16  1  0.16678003  0.99940534  0.50287371  1
  Mn  Mn17  1  0.66616443  0.49754877  0.50567699  1
  Mn  Mn18  1  0.83124760  0.50640952  0.99305962  1
  Mn  Mn19  1  0.50000000  0.00000000  0.50000000  1
  Mn  Mn20  1  0.00000000  0.50000000  0.50000000  1
  Mn  Mn21  1  0.83321997  0.00059466  0.49712629  1
  O  O22  1  0.22869088  0.05809514  0.19188414  1
  O  O23  1  0.13680783  0.28961683  0.22020954  1
  O  O24  1  0.01071735  0.23880139  0.75151646  1
  O  O25  1  0.06185183  0.56174459  0.18638509  1
  O  O26  1  0.32725263  0.24689111  0.26707111  1
  O  O27  1  0.17175168  0.28842870  0.69821124  1
  O  O28  1  0.55791912  0.04567712  0.20279175  1
  O  O29  1  0.15722553  0.72002789  0.31206295  1
  O  O30  1  0.47401836  0.27590914  0.25048094  1
  O  O31  1  0.00827380  0.78241412  0.69047806  1
  O  O32  1  0.35976022  0.22064243  0.75855948  1
  O  O33  1  0.26706142  0.44499249  0.80529043  1
  O  O34  1  0.40572186  0.51994186  0.23189076  1
  O  O35  1  0.31596701  0.75541524  0.28355663  1
  O  O36  1  0.65358391  0.24136444  0.29988577  1
  O  O37  1  0.19237021  0.72616471  0.74263733  1
  O  O38  1  0.51092402  0.27199217  0.69707525  1
  O  O39  1  0.09243153  0.94750502  0.80028935  1
  O  O40  1  0.90756847  0.05249498  0.19971065  1
  O  O41  1  0.48907598  0.72800783  0.30292475  1
  O  O42  1  0.80762979  0.27383529  0.25736267  1
  O  O43  1  0.34641609  0.75863556  0.70011423  1
  O  O44  1  0.68403299  0.24458476  0.71644337  1
  O  O45  1  0.59427814  0.48005814  0.76810924  1
  O  O46  1  0.73293858  0.55500751  0.19470957  1
  O  O47  1  0.64023978  0.77935757  0.24144052  1
  O  O48  1  0.99172620  0.21758588  0.30952194  1
  O  O49  1  0.52598164  0.72409086  0.74951906  1
  O  O50  1  0.84277447  0.27997211  0.68793705  1
  O  O51  1  0.44208088  0.95432288  0.79720825  1
  O  O52  1  0.82824832  0.71157130  0.30178876  1
  O  O53  1  0.67274737  0.75310889  0.73292889  1
  O  O54  1  0.93814817  0.43825541  0.81361491  1
  O  O55  1  0.98928265  0.76119861  0.24848354  1
  O  O56  1  0.86319217  0.71038317  0.77979046  1
  O  O57  1  0.77130912  0.94190486  0.80811586  1
