# generated using pymatgen
data_LiMoO2
_symmetry_space_group_name_H-M   'P 1'
_cell_length_a   5.26482680
_cell_length_b   6.34305265
_cell_length_c   6.00176617
_cell_angle_alpha   121.88823642
_cell_angle_beta   90.00000000
_cell_angle_gamma   90.00000000
_symmetry_Int_Tables_number   1
_chemical_formula_structural   LiMoO2
_chemical_formula_sum   'Li4 Mo4 O8'
_cell_volume   170.18064754
_cell_formula_units_Z   4
loop_
 _symmetry_equiv_pos_site_id
 _symmetry_equiv_pos_as_xyz
  1  'x, y, z'
loop_
 _atom_site_type_symbol
 _atom_site_label
 _atom_site_symmetry_multiplicity
 _atom_site_fract_x
 _atom_site_fract_y
 _atom_site_fract_z
 _atom_site_occupancy
  Li  Li0  1  0.00353820  0.25167158  0.50382666  1
  Li  Li1  1  0.49646180  0.75167158  0.00382666  1
  Li  Li2  1  0.50353820  0.24832842  0.99617334  1
  Li  Li3  1  0.99646180  0.74832842  0.49617334  1
  Mo  Mo4  1  0.50158333  0.24980056  0.49961640  1
  Mo  Mo5  1  0.99841667  0.74980056  0.99961640  1
  Mo  Mo6  1  0.00158333  0.25019944  0.00038360  1
  Mo  Mo7  1  0.49841667  0.75019944  0.50038360  1
  O  O8  1  0.76711584  0.41440729  0.83032196  1
  O  O9  1  0.26639100  0.58409263  0.66981552  1
  O  O10  1  0.26711584  0.08559271  0.66967804  1
  O  O11  1  0.76639100  0.91590737  0.83018448  1
  O  O12  1  0.23360900  0.08409263  0.16981552  1
  O  O13  1  0.73288416  0.91440729  0.33032196  1
  O  O14  1  0.73360900  0.41590737  0.33018448  1
  O  O15  1  0.23288416  0.58559271  0.16967804  1
