# generated using pymatgen
data_Na13Zr7Si5P7O48
_symmetry_space_group_name_H-M   'P 1'
_cell_length_a   9.36433693
_cell_length_b   9.33247819
_cell_length_c   18.65930437
_cell_angle_alpha   59.34204950
_cell_angle_beta   59.19891457
_cell_angle_gamma   59.40950276
_symmetry_Int_Tables_number   1
_chemical_formula_structural   Na13Zr7Si5P7O48
_chemical_formula_sum   'Na13 Zr7 Si5 P7 O48'
_cell_volume   1135.12331549
_cell_formula_units_Z   1
loop_
 _symmetry_equiv_pos_site_id
 _symmetry_equiv_pos_as_xyz
  1  'x, y, z'
loop_
 _atom_site_type_symbol
 _atom_site_label
 _atom_site_symmetry_multiplicity
 _atom_site_fract_x
 _atom_site_fract_y
 _atom_site_fract_z
 _atom_site_occupancy
  Na  Na0  1  0.01769599  0.00450733  0.00437996  1
  Na  Na1  1  0.07230243  0.35213332  0.37763144  1
  Na  Na2  1  0.33806129  0.84029980  0.06863060  1
  Na  Na3  1  0.83669261  0.13187793  0.17188357  1
  Na  Na4  1  0.49035186  0.46742777  0.26665451  1
  Na  Na5  1  0.25524371  0.88792924  0.29723189  1
  Na  Na6  1  0.13082573  0.33944491  0.91685856  1
  Na  Na7  1  0.90521714  0.58897777  0.12754701  1
  Na  Na8  1  0.35702867  0.75039209  0.54261255  1
  Na  Na9  1  0.75171223  0.09072053  0.67517335  1
  Na  Na10  1  0.47449320  0.52474745  0.74750356  1
  Na  Na11  1  0.54690738  0.22748557  0.95799642  1
  Na  Na12  1  0.89231964  0.63583250  0.61952221  1
  Zr  Zr13  1  0.35138596  0.35447393  0.17446565  1
  Zr  Zr14  1  0.14718587  0.14237191  0.57257616  1
  Zr  Zr15  1  0.35338332  0.35128404  0.68180233  1
  Zr  Zr16  1  0.64758477  0.63049133  0.33701244  1
  Zr  Zr17  1  0.85171585  0.85885727  0.42358229  1
  Zr  Zr18  1  0.64886812  0.66715886  0.81405350  1
  Zr  Zr19  1  0.85398420  0.85564141  0.92308956  1
  Si  Si20  1  0.04330582  0.72923542  0.23485893  1
  Si  Si21  1  0.46156661  0.03758275  0.37112732  1
  Si  Si22  1  0.04189990  0.74188056  0.72701611  1
  Si  Si23  1  0.47133686  0.04946295  0.86653477  1
  Si  Si24  1  0.74646716  0.46742233  0.53123259  1
  P  P25  1  0.72605171  0.47715981  0.01767203  1
  P  P26  1  0.24956405  0.54213921  0.47959149  1
  P  P27  1  0.56081168  0.94101277  0.13004099  1
  P  P28  1  0.94570362  0.25530387  0.27242731  1
  P  P29  1  0.25599600  0.55625231  0.96918690  1
  P  P30  1  0.54353541  0.96204501  0.62049191  1
  P  P31  1  0.95731462  0.24707103  0.77305025  1
  O  O32  1  0.10855310  0.29755052  0.25381558  1
  O  O33  1  0.28997204  0.50344454  0.05544154  1
  O  O34  1  0.04679834  0.88759585  0.14297127  1
  O  O35  1  0.51790426  0.11439939  0.14306292  1
  O  O36  1  0.01611462  0.77175100  0.31823799  1
  O  O37  1  0.22866056  0.55530156  0.22601901  1
  O  O38  1  0.28680695  0.07977562  0.45766131  1
  O  O39  1  0.43960603  0.21305843  0.28303551  1
  O  O40  1  0.56175941  0.46210672  0.10471836  1
  O  O41  1  0.20995650  0.37847475  0.50372813  1
  O  O42  1  0.08471733  0.71131008  0.47214911  1
  O  O43  1  0.40073555  0.94916845  0.12531427  1
  O  O44  1  0.64307471  0.99411891  0.38264363  1
  O  O45  1  0.11513075  0.29267640  0.75377409  1
  O  O46  1  0.87306324  0.29993688  0.02345693  1
  O  O47  1  0.77663041  0.62611568  0.00586029  1
  O  O48  1  0.40072139  0.56984744  0.38840749  1
  O  O49  1  0.29775247  0.51379978  0.55583578  1
  O  O50  1  0.60944651  0.77075613  0.20867503  1
  O  O51  1  0.07029932  0.92001346  0.64131597  1
  O  O52  1  0.50428108  0.11490484  0.64759285  1
  O  O53  1  0.72913982  0.92880570  0.04432900  1
  O  O54  1  0.97972180  0.77395354  0.81898423  1
  O  O55  1  0.22918956  0.57934023  0.71463074  1
  O  O56  1  0.76678720  0.39248844  0.30868951  1
  O  O57  1  0.95107261  0.26929580  0.18696231  1
  O  O58  1  0.28665190  0.03947400  0.94177261  1
  O  O59  1  0.46982328  0.86187552  0.36713046  1
  O  O60  1  0.96036320  0.07112006  0.34662347  1
  O  O61  1  0.44433573  0.24229699  0.78489049  1
  O  O62  1  0.70804363  0.50341713  0.44698204  1
  O  O63  1  0.57184984  0.43641243  0.61778224  1
  O  O64  1  0.25921780  0.39632066  0.96558045  1
  O  O65  1  0.07545126  0.71097855  0.97353311  1
  O  O66  1  0.88250622  0.65938792  0.26907077  1
  O  O67  1  0.38242851  0.99242233  0.60482302  1
  O  O68  1  0.62123968  0.02152555  0.90009047  1
  O  O69  1  0.91906607  0.28734983  0.54068432  1
  O  O70  1  0.77938876  0.63717676  0.51719250  1
  O  O71  1  0.40479614  0.62104497  0.88383868  1
  O  O72  1  0.57902530  0.77950657  0.69670664  1
  O  O73  1  0.71287382  0.94973910  0.53849751  1
  O  O74  1  0.78199621  0.40765150  0.78522773  1
  O  O75  1  0.99455827  0.20795972  0.69286320  1
  O  O76  1  0.57527990  0.90292559  0.81651298  1
  O  O77  1  0.93601045  0.08487286  0.85949523  1
  O  O78  1  0.67442355  0.53863574  0.93691633  1
  O  O79  1  0.89440652  0.69424111  0.72880775  1
