# generated using pymatgen
data_LiCo2(PO3)5
_symmetry_space_group_name_H-M   'P 1'
_cell_length_a   12.84757669
_cell_length_b   8.71602070
_cell_length_c   5.27513347
_cell_angle_alpha   90.00000000
_cell_angle_beta   93.11663818
_cell_angle_gamma   90.00000000
_symmetry_Int_Tables_number   1
_chemical_formula_structural   LiCo2(PO3)5
_chemical_formula_sum   'Li2 Co4 P10 O30'
_cell_volume   589.83439564
_cell_formula_units_Z   2
loop_
 _symmetry_equiv_pos_site_id
 _symmetry_equiv_pos_as_xyz
  1  'x, y, z'
loop_
 _atom_site_type_symbol
 _atom_site_label
 _atom_site_symmetry_multiplicity
 _atom_site_fract_x
 _atom_site_fract_y
 _atom_site_fract_z
 _atom_site_occupancy
  Li  Li0  1  0.44988067  0.00078493  0.57162624  1
  Li  Li1  1  0.94988067  0.99921507  0.07162624  1
  Co  Co2  1  0.55220344  0.30115690  0.61964772  1
  Co  Co3  1  0.05220344  0.69884310  0.11964772  1
  Co  Co4  1  0.95574886  0.30318840  0.87296388  1
  Co  Co5  1  0.45574886  0.69681160  0.37296388  1
  P  P6  1  0.90928737  0.82310868  0.58153871  1
  P  P7  1  0.09054819  0.18238075  0.41336778  1
  P  P8  1  0.86108166  0.50456702  0.39824173  1
  P  P9  1  0.40928737  0.17689132  0.08153871  1
  P  P10  1  0.59054819  0.81761925  0.91336778  1
  P  P11  1  0.14187093  0.49818033  0.60523680  1
  P  P12  1  0.25033095  0.95197312  0.25128029  1
  P  P13  1  0.36108166  0.49543298  0.89824173  1
  P  P14  1  0.64187093  0.50181967  0.10523680  1
  P  P15  1  0.75033095  0.04802688  0.75128029  1
  O  O16  1  0.46546347  0.16892185  0.33887326  1
  O  O17  1  0.30931410  0.06734640  0.06049373  1
  O  O18  1  0.02811467  0.15364420  0.63886928  1
  O  O19  1  0.56164056  0.50921044  0.30494540  1
  O  O20  1  0.85599461  0.65762101  0.56442276  1
  O  O21  1  0.14532816  0.34735267  0.43375582  1
  O  O22  1  0.19059502  0.07237316  0.42930856  1
  O  O23  1  0.83299954  0.12091236  0.92566316  1
  O  O24  1  0.64532816  0.65264733  0.93375582  1
  O  O25  1  0.35599461  0.34237899  0.06442276  1
  O  O26  1  0.53581297  0.82511548  0.65335296  1
  O  O27  1  0.94294742  0.51289440  0.20263654  1
  O  O28  1  0.96546347  0.83107815  0.83887326  1
  O  O29  1  0.69059502  0.92762684  0.92930856  1
  O  O30  1  0.67370203  0.13745578  0.58796836  1
  O  O31  1  0.75199748  0.50980334  0.24857397  1
  O  O32  1  0.63930217  0.36840605  0.92734590  1
  O  O33  1  0.36181359  0.62546982  0.08151398  1
  O  O34  1  0.52811467  0.84635580  0.13886928  1
  O  O35  1  0.44294742  0.48710560  0.70263654  1
  O  O36  1  0.25199748  0.49019666  0.74857397  1
  O  O37  1  0.86181359  0.37453018  0.58151398  1
  O  O38  1  0.06164056  0.49078956  0.80494540  1
  O  O39  1  0.46842113  0.14911779  0.84737217  1
  O  O40  1  0.96842113  0.85088221  0.34737217  1
  O  O41  1  0.17370203  0.86254422  0.08796836  1
  O  O42  1  0.33299954  0.87908764  0.42566316  1
  O  O43  1  0.80931410  0.93265360  0.56049373  1
  O  O44  1  0.13930217  0.63159395  0.42734590  1
  O  O45  1  0.03581297  0.17488452  0.15335296  1
