# generated using pymatgen
data_Li2V(PO3)5
_symmetry_space_group_name_H-M   'P 1'
_cell_length_a   12.63695601
_cell_length_b   9.63395496
_cell_length_c   5.30764159
_cell_angle_alpha   90.00000000
_cell_angle_beta   94.47360949
_cell_angle_gamma   90.00000000
_symmetry_Int_Tables_number   1
_chemical_formula_structural   Li2V(PO3)5
_chemical_formula_sum   'Li4 V2 P10 O30'
_cell_volume   644.20414977
_cell_formula_units_Z   2
loop_
 _symmetry_equiv_pos_site_id
 _symmetry_equiv_pos_as_xyz
  1  'x, y, z'
loop_
 _atom_site_type_symbol
 _atom_site_label
 _atom_site_symmetry_multiplicity
 _atom_site_fract_x
 _atom_site_fract_y
 _atom_site_fract_z
 _atom_site_occupancy
  Li  Li0  1  0.93667613  0.39781754  0.87228937  1
  Li  Li1  1  0.43667613  0.60218246  0.37228937  1
  Li  Li2  1  0.57121443  0.40285627  0.62741910  1
  Li  Li3  1  0.07121443  0.59714373  0.12741910  1
  V  V4  1  0.49520525  0.99517148  0.50402365  1
  V  V5  1  0.99520525  0.00482852  0.00402365  1
  P  P6  1  0.86218972  0.52371061  0.37850828  1
  P  P7  1  0.36218972  0.47628939  0.87850828  1
  P  P8  1  0.08465382  0.18368271  0.49984325  1
  P  P9  1  0.14368269  0.48014907  0.61677334  1
  P  P10  1  0.64368269  0.51985093  0.11677334  1
  P  P11  1  0.40805818  0.17579579  0.00933543  1
  P  P12  1  0.74483208  0.98601262  0.75992374  1
  P  P13  1  0.90805818  0.82420421  0.50933543  1
  P  P14  1  0.58465382  0.81631729  -0.00015675  1
  P  P15  1  0.24483208  0.01398738  0.25992374  1
  O  O16  1  0.33660176  0.93524691  0.38689264  1
  O  O17  1  0.60612582  0.65744390  0.95316011  1
  O  O18  1  0.34900203  0.58974148  0.06327402  1
  O  O19  1  0.43539875  0.13938247  0.74631423  1
  O  O20  1  0.29065574  0.12073047  0.05619903  1
  O  O21  1  0.15204814  0.94009548  0.12700249  1
  O  O22  1  0.98715297  0.86941789  0.72389756  1
  O  O23  1  0.84900203  0.41025852  0.56327402  1
  O  O24  1  0.06883020  0.49821706  0.81959253  1
  O  O25  1  0.50620575  0.85837529  0.78226220  1
  O  O26  1  0.00620575  0.14162471  0.28226220  1
  O  O27  1  0.10612582  0.34255610  0.45316011  1
  O  O28  1  0.75246332  0.58049733  0.24675345  1
  O  O29  1  0.83660176  0.06475309  0.88689264  1
  O  O30  1  0.39661452  0.33738021  0.04203970  1
  O  O31  1  0.69987884  0.88410744  0.97219074  1
  O  O32  1  0.65882090  0.40671121  0.93349515  1
  O  O33  1  0.19987884  0.11589256  0.47219074  1
  O  O34  1  0.65204814  0.05990452  0.62700249  1
  O  O35  1  0.25246332  0.41950267  0.74675345  1
  O  O36  1  0.55121461  0.84325986  0.26227886  1
  O  O37  1  0.56883020  0.50178294  0.31959253  1
  O  O38  1  0.43687434  0.49339405  0.67553012  1
  O  O39  1  0.48715297  0.13058211  0.22389756  1
  O  O40  1  0.93539875  0.86061753  0.24631423  1
  O  O41  1  0.89661452  0.66261979  0.54203970  1
  O  O42  1  0.15882090  0.59328879  0.43349515  1
  O  O43  1  0.79065574  0.87926953  0.55619903  1
  O  O44  1  0.05121461  0.15674014  0.76227886  1
  O  O45  1  0.93687434  0.50660595  0.17553012  1
