# generated using pymatgen
data_V(PO3)4
_symmetry_space_group_name_H-M   'P 1'
_cell_length_a   7.34992974
_cell_length_b   8.37662844
_cell_length_c   9.46689474
_cell_angle_alpha   65.08762229
_cell_angle_beta   67.15306769
_cell_angle_gamma   63.95445826
_symmetry_Int_Tables_number   1
_chemical_formula_structural   V(PO3)4
_chemical_formula_sum   'V2 P8 O24'
_cell_volume   459.91607665
_cell_formula_units_Z   2
loop_
 _symmetry_equiv_pos_site_id
 _symmetry_equiv_pos_as_xyz
  1  'x, y, z'
loop_
 _atom_site_type_symbol
 _atom_site_label
 _atom_site_symmetry_multiplicity
 _atom_site_fract_x
 _atom_site_fract_y
 _atom_site_fract_z
 _atom_site_occupancy
  V  V0  1  0.14410269  0.74998691  0.25001917  1
  V  V1  1  0.85589731  0.25001309  0.74998083  1
  P  P2  1  0.70073319  0.10725291  0.16096004  1
  P  P3  1  0.96900623  0.39274941  0.33905595  1
  P  P4  1  0.30282860  0.11361076  0.14328265  1
  P  P5  1  0.29926681  0.89274709  0.83903996  1
  P  P6  1  0.55981778  0.38633263  0.35668989  1
  P  P7  1  0.44018222  0.61366737  0.64331011  1
  P  P8  1  0.69717140  0.88638924  0.85671735  1
  P  P9  1  0.03099377  0.60725059  0.66094405  1
  O  O10  1  0.01967740  0.56836289  0.28464257  1
  O  O11  1  0.23457962  0.55326524  0.71469215  1
  O  O12  1  0.86036330  0.72980831  0.77063605  1
  O  O13  1  0.13963670  0.27019169  0.22936395  1
  O  O14  1  0.25026083  0.78101036  0.01349489  1
  O  O15  1  0.04493548  0.71899692  0.48642755  1
  O  O16  1  0.50087950  0.69355676  0.46841187  1
  O  O17  1  0.39980945  0.55366053  0.26944220  1
  O  O18  1  0.66289395  0.80625846  0.03160307  1
  O  O19  1  0.74973917  0.21898964  0.98650511  1
  O  O20  1  0.76542038  0.44673476  0.28530785  1
  O  O21  1  0.33710605  0.19374154  0.96839693  1
  O  O22  1  0.49912050  0.30644324  0.53158813  1
  O  O23  1  0.22295834  0.94642839  0.23052368  1
  O  O24  1  0.12716370  0.06843184  0.78462859  1
  O  O25  1  0.49762695  0.05310379  0.21465900  1
  O  O26  1  0.36102916  0.77030973  0.72919895  1
  O  O27  1  0.95506452  0.28100308  0.51357245  1
  O  O28  1  0.50237305  0.94689621  0.78534100  1
  O  O29  1  0.60019055  0.44633947  0.73055780  1
  O  O30  1  0.87283630  0.93156816  0.21537241  1
  O  O31  1  0.98032260  0.43163711  0.71535743  1
  O  O32  1  0.63897084  0.22969027  0.27080105  1
  O  O33  1  0.77704166  0.05357161  0.76947632  1
