# generated using pymatgen
data_LiMn4P7O24
_symmetry_space_group_name_H-M   'P 1'
_cell_length_a   10.31290184
_cell_length_b   10.47742417
_cell_length_c   10.78858286
_cell_angle_alpha   111.97632693
_cell_angle_beta   109.32888010
_cell_angle_gamma   105.63535105
_symmetry_Int_Tables_number   1
_chemical_formula_structural   LiMn4P7O24
_chemical_formula_sum   'Li2 Mn8 P14 O48'
_cell_volume   911.21275438
_cell_formula_units_Z   2
loop_
 _symmetry_equiv_pos_site_id
 _symmetry_equiv_pos_as_xyz
  1  'x, y, z'
loop_
 _atom_site_type_symbol
 _atom_site_label
 _atom_site_symmetry_multiplicity
 _atom_site_fract_x
 _atom_site_fract_y
 _atom_site_fract_z
 _atom_site_occupancy
  Li  Li0  1  0.10157069  0.42208744  0.66079991  1
  Li  Li1  1  0.89842931  0.57791256  0.33920009  1
  Mn  Mn2  1  0.76094740  0.15496231  0.25783631  1
  Mn  Mn3  1  0.57292223  0.40965004  0.58595406  1
  Mn  Mn4  1  0.42707777  0.59034996  0.41404594  1
  Mn  Mn5  1  0.23905260  0.84503769  0.74216369  1
  Mn  Mn6  1  0.06323006  0.69220670  0.07399888  1
  Mn  Mn7  1  0.38236508  0.22737537  0.89140762  1
  Mn  Mn8  1  0.61763492  0.77262463  0.10859238  1
  Mn  Mn9  1  0.93676994  0.30779330  0.92600112  1
  P  P10  1  0.92795712  0.67022448  0.73341098  1
  P  P11  1  0.23966879  0.81571318  0.43455593  1
  P  P12  1  0.07204288  0.32977552  0.26658902  1
  P  P13  1  0.49372943  0.73417673  0.75691369  1
  P  P14  1  0.27285819  0.13432680  0.52392548  1
  P  P15  1  0.72714181  0.86567320  0.47607452  1
  P  P16  1  0.76033121  0.18428682  0.56544407  1
  P  P17  1  0.99921152  0.01927262  0.22639995  1
  P  P18  1  0.38030959  0.92613785  0.11316913  1
  P  P19  1  0.29853956  0.49911404  0.04621749  1
  P  P20  1  0.70146044  0.50088596  0.95378251  1
  P  P21  1  0.00078848  0.98072738  0.77360005  1
  P  P22  1  0.61969041  0.07386215  0.88683087  1
  P  P23  1  0.50627057  0.26582327  0.24308631  1
  O  O24  1  0.43243591  0.26410754  0.09673720  1
  O  O25  1  0.99051007  0.11518881  0.87370107  1
  O  O26  1  0.60604708  0.37336771  0.96737665  1
  O  O27  1  0.89879328  0.28537653  0.72793616  1
  O  O28  1  0.56756409  0.73589246  0.90326280  1
  O  O29  1  0.16188245  0.00326895  0.79593307  1
  O  O30  1  0.98281240  0.33884242  0.35516892  1
  O  O31  1  0.00373770  0.65751948  0.87185212  1
  O  O32  1  0.71864506  0.16686953  0.84460295  1
  O  O33  1  0.37184187  0.77763736  0.46291091  1
  O  O34  1  0.67717027  0.30018077  0.29790557  1
  O  O35  1  0.30519179  0.88248012  0.94780956  1
  O  O36  1  0.32282973  0.69981923  0.70209443  1
  O  O37  1  0.27957717  0.18170683  0.67599264  1
  O  O38  1  0.37317781  0.51952593  0.20509275  1
  O  O39  1  0.76141934  0.55330728  0.62533364  1
  O  O40  1  0.72042283  0.81829317  0.32400736  1
  O  O41  1  0.28135494  0.83313047  0.15539705  1
  O  O42  1  0.83778268  0.18972400  0.46534979  1
  O  O43  1  0.99626230  0.34248052  0.12814788  1
  O  O44  1  0.49485567  0.38076623  0.37373566  1
  O  O45  1  0.39395292  0.62663229  0.03262335  1
  O  O46  1  0.45350398  0.06156214  0.83002262  1
  O  O47  1  0.92785371  0.83952608  0.79319098  1
  O  O48  1  0.31001274  0.99238656  0.46799431  1
  O  O49  1  0.41078680  0.10009683  0.21661764  1
  O  O50  1  0.09561656  0.07464448  0.40536412  1
  O  O51  1  0.86752145  0.51085541  0.99753165  1
  O  O52  1  0.63550635  0.74105382  0.49285200  1
  O  O53  1  0.50514433  0.61923377  0.62626434  1
  O  O54  1  0.69480821  0.11751988  0.05219044  1
  O  O55  1  0.58921320  0.89990317  0.78338236  1
  O  O56  1  0.00948993  0.88481119  0.12629893  1
  O  O57  1  0.54649602  0.93843786  0.16997738  1
  O  O58  1  0.73182609  0.65759173  0.08172767  1
  O  O59  1  0.83811755  0.99673105  0.20406693  1
  O  O60  1  0.10120672  0.71462347  0.27206384  1
  O  O61  1  0.90438344  0.92535552  0.59463588  1
  O  O62  1  0.36449365  0.25894618  0.50714800  1
  O  O63  1  0.13247855  0.48914459  0.00246835  1
  O  O64  1  0.07214629  0.16047392  0.20680902  1
  O  O65  1  0.23858066  0.44669272  0.37466636  1
  O  O66  1  0.26817391  0.34240827  0.91827233  1
  O  O67  1  0.62682219  0.48047407  0.79490725  1
  O  O68  1  0.16221732  0.81027600  0.53465021  1
  O  O69  1  0.62815813  0.22236264  0.53708909  1
  O  O70  1  0.68998726  0.00761344  0.53200569  1
  O  O71  1  0.01718760  0.66115758  0.64483108  1
