# generated using pymatgen
data_Li6Ni5(P2O7)4
_symmetry_space_group_name_H-M   'P 1'
_cell_length_a   12.69642893
_cell_length_b   9.03962512
_cell_length_c   10.51652522
_cell_angle_alpha   65.25787563
_cell_angle_beta   87.26219170
_cell_angle_gamma   73.83872686
_symmetry_Int_Tables_number   1
_chemical_formula_structural   Li6Ni5(P2O7)4
_chemical_formula_sum   'Li12 Ni10 P16 O56'
_cell_volume   1049.59826165
_cell_formula_units_Z   2
loop_
 _symmetry_equiv_pos_site_id
 _symmetry_equiv_pos_as_xyz
  1  'x, y, z'
loop_
 _atom_site_type_symbol
 _atom_site_label
 _atom_site_symmetry_multiplicity
 _atom_site_fract_x
 _atom_site_fract_y
 _atom_site_fract_z
 _atom_site_occupancy
  Li  Li0  1  0.08842611  0.86280075  0.59783815  1
  Li  Li1  1  0.97905461  0.18405441  0.00441214  1
  Li  Li2  1  0.20391968  0.10750360  0.85360463  1
  Li  Li3  1  0.25000000  0.50000000  0.50000000  1
  Li  Li4  1  0.91429288  0.13492557  0.40402045  1
  Li  Li5  1  0.70594629  0.12178018  0.84590189  1
  Li  Li6  1  0.79405371  0.87821982  0.15409811  1
  Li  Li7  1  0.52094539  0.81594559  0.99558786  1
  Li  Li8  1  0.75000000  0.50000000  0.50000000  1
  Li  Li9  1  0.58570712  0.86507443  0.59597955  1
  Li  Li10  1  0.29608032  0.89249640  0.14639537  1
  Li  Li11  1  0.41157389  0.13719925  0.40216185  1
  Ni  Ni12  1  0.36121849  0.89841684  0.71481266  1
  Ni  Ni13  1  0.63930904  0.10246840  0.28662740  1
  Ni  Ni14  1  0.31616341  0.50745242  0.75814780  1
  Ni  Ni15  1  0.68269025  0.49806238  0.24031338  1
  Ni  Ni16  1  0.81730975  0.50193762  0.75968662  1
  Ni  Ni17  1  0.48938602  0.18953955  0.00943389  1
  Ni  Ni18  1  0.86069096  0.89753160  0.71337260  1
  Ni  Ni19  1  0.01061398  0.81046045  0.99056611  1
  Ni  Ni20  1  0.18383659  0.49254758  0.24185220  1
  Ni  Ni21  1  0.13878151  0.10158316  0.28518734  1
  P  P22  1  0.56165431  0.54411653  0.81074307  1
  P  P23  1  0.54141943  0.81991493  0.29268438  1
  P  P24  1  0.93834569  0.45588347  0.18925693  1
  P  P25  1  0.04072202  0.80943830  0.29212488  1
  P  P26  1  0.78394804  0.71176670  0.95481751  1
  P  P27  1  0.64725571  0.19851976  0.54700233  1
  P  P28  1  0.14785495  0.19393725  0.54874554  1
  P  P29  1  0.35214505  0.80606275  0.45125446  1
  P  P30  1  0.45927798  0.19056170  0.70787512  1
  P  P31  1  0.71605196  0.28823330  0.04518249  1
  P  P32  1  0.43835438  0.45015019  0.18902602  1
  P  P33  1  0.06164562  0.54984981  0.81097398  1
  P  P34  1  0.95858057  0.18008507  0.70731562  1
  P  P35  1  0.27887809  0.71761319  0.95340658  1
  P  P36  1  0.22112191  0.28238681  0.04659342  1
  P  P37  1  0.85274429  0.80148024  0.45299767  1
  O  O38  1  0.38160562  0.91059568  0.51998460  1
  O  O39  1  0.12594853  0.45238266  0.96586674  1
  O  O40  1  0.78142606  0.92165361  0.31634102  1
  O  O41  1  0.35105143  0.44767736  0.29429327  1
  O  O42  1  0.84857901  0.47138963  0.28807232  1
  O  O43  1  0.98039638  0.89699853  0.14299708  1
  O  O44  1  0.45076866  0.06081682  0.65504887  1
  O  O45  1  0.19306540  0.33593884  0.44987059  1
  O  O46  1  0.99079280  0.27149296  0.21423275  1
  O  O47  1  0.03818722  0.28453161  0.60461528  1
  O  O48  1  0.17624998  0.70151819  0.03455637  1
  O  O49  1  0.34885107  0.32082520  0.69183458  1
  O  O50  1  0.77331000  0.72112450  0.80608459  1
  O  O51  1  0.27084479  0.72218608  0.80590496  1
  O  O52  1  0.65142099  0.52861037  0.71192768  1
  O  O53  1  0.46181278  0.71546839  0.39538472  1
  O  O54  1  0.48099902  0.43951154  0.82626949  1
  O  O55  1  0.31809978  0.86724682  0.94830422  1
  O  O56  1  0.66907889  0.14169597  0.05002364  1
  O  O57  1  0.94571109  0.06465300  0.64039079  1
  O  O58  1  0.72669000  0.27887550  0.19391541  1
  O  O59  1  0.22915521  0.27781392  0.19409504  1
  O  O60  1  0.69646945  0.33659369  0.44964589  1
  O  O61  1  0.48857619  0.26968108  0.19438281  1
  O  O62  1  0.81799838  0.29431222  0.96482633  1
  O  O63  1  0.04923134  0.93918318  0.34495113  1
  O  O64  1  0.55428891  0.93534700  0.35960921  1
  O  O65  1  0.51943790  0.54545362  0.18877155  1
  O  O66  1  0.98056210  0.45454638  0.81122845  1
  O  O67  1  0.27912986  0.92187178  0.31580571  1
  O  O68  1  0.61523784  0.09705189  0.47713782  1
  O  O69  1  0.53694503  0.29340018  0.59853912  1
  O  O70  1  0.30693460  0.66406116  0.55012941  1
  O  O71  1  0.85071235  0.31317790  0.69550501  1
  O  O72  1  0.37405147  0.54761734  0.03413326  1
  O  O73  1  0.87776527  0.53803539  0.03276747  1
  O  O74  1  0.15114893  0.67917480  0.30816542  1
  O  O75  1  0.22087014  0.07812822  0.68419429  1
  O  O76  1  0.11839438  0.08940432  0.48001540  1
  O  O77  1  0.64928765  0.68682210  0.30449499  1
  O  O78  1  0.68200162  0.70568778  0.03517367  1
  O  O79  1  0.50920720  0.72850704  0.78576725  1
  O  O80  1  0.01900098  0.56048846  0.17373051  1
  O  O81  1  0.32375002  0.29848181  0.96544363  1
  O  O82  1  0.18190022  0.13275318  0.05169578  1
  O  O83  1  0.80353055  0.66340631  0.55035411  1
  O  O84  1  0.71857394  0.07834639  0.68365898  1
  O  O85  1  0.96305497  0.70659982  0.40146088  1
  O  O86  1  0.48359174  0.92432913  0.14184431  1
  O  O87  1  0.14894857  0.55232264  0.70570673  1
  O  O88  1  0.51960362  0.10300147  0.85700292  1
  O  O89  1  0.83092111  0.85830403  0.94997636  1
  O  O90  1  0.01640826  0.07567087  0.85815569  1
  O  O91  1  0.01142381  0.73031892  0.80561719  1
  O  O92  1  0.62223473  0.46196461  0.96723253  1
  O  O93  1  0.88476216  0.90294811  0.52286218  1
