# generated using pymatgen
data_K2Cu5H8(Cl4O3)2
_symmetry_space_group_name_H-M   'P 1'
_cell_length_a   11.59085268
_cell_length_b   6.70385074
_cell_length_c   11.90242280
_cell_angle_alpha   90.00000000
_cell_angle_beta   90.76807400
_cell_angle_gamma   90.00000000
_symmetry_Int_Tables_number   1
_chemical_formula_structural   K2Cu5H8(Cl4O3)2
_chemical_formula_sum   'K4 Cu10 H16 Cl16 O12'
_cell_volume   924.77498126
_cell_formula_units_Z   2
loop_
 _symmetry_equiv_pos_site_id
 _symmetry_equiv_pos_as_xyz
  1  'x, y, z'
loop_
 _atom_site_type_symbol
 _atom_site_label
 _atom_site_symmetry_multiplicity
 _atom_site_fract_x
 _atom_site_fract_y
 _atom_site_fract_z
 _atom_site_occupancy
  K  K0  1  0.91516880  0.40853996  0.17619128  1
  K  K1  1  0.08483120  0.90853996  0.32380872  1
  K  K2  1  0.08483120  0.59146004  0.82380872  1
  K  K3  1  0.91516880  0.09146004  0.67619128  1
  Cu  Cu4  1  0.50000000  0.00000000  0.50000000  1
  Cu  Cu5  1  0.50000000  0.50000000  0.00000000  1
  Cu  Cu6  1  0.71964930  0.99398426  0.30531119  1
  Cu  Cu7  1  0.28035070  0.49398426  0.19468881  1
  Cu  Cu8  1  0.28035070  0.00601574  0.69468881  1
  Cu  Cu9  1  0.71964930  0.50601574  0.80531119  1
  Cu  Cu10  1  0.48693235  0.16033033  0.23728591  1
  Cu  Cu11  1  0.51306765  0.66033033  0.26271409  1
  Cu  Cu12  1  0.51306765  0.83966967  0.76271409  1
  Cu  Cu13  1  0.48693235  0.33966967  0.73728591  1
  H  H14  1  0.61433073  0.89674437  0.13218267  1
  H  H15  1  0.38566927  0.39674437  0.36781733  1
  H  H16  1  0.38566927  0.10325563  0.86781733  1
  H  H17  1  0.61433073  0.60325563  0.63218267  1
  H  H18  1  0.61936499  0.26420377  0.40945532  1
  H  H19  1  0.38063501  0.76420377  0.09054468  1
  H  H20  1  0.38063501  0.73579623  0.59054468  1
  H  H21  1  0.61936499  0.23579623  0.90945532  1
  H  H22  1  0.87822073  0.64005424  0.46487952  1
  H  H23  1  0.12177927  0.14005424  0.03512048  1
  H  H24  1  0.12177927  0.35994576  0.53512048  1
  H  H25  1  0.87822073  0.85994576  0.96487952  1
  H  H26  1  0.96254055  0.49290836  0.41056250  1
  H  H27  1  0.03745945  0.99290836  0.08943750  1
  H  H28  1  0.03745945  0.50709164  0.58943750  1
  H  H29  1  0.96254055  0.00709164  0.91056250  1
  Cl  Cl30  1  0.36197622  0.91028768  0.36642618  1
  Cl  Cl31  1  0.63802378  0.41028768  0.13357382  1
  Cl  Cl32  1  0.63802378  0.08971232  0.63357382  1
  Cl  Cl33  1  0.36197622  0.58971232  0.86642618  1
  Cl  Cl34  1  0.37452107  0.14751796  0.08021910  1
  Cl  Cl35  1  0.62547893  0.64751796  0.41978090  1
  Cl  Cl36  1  0.62547893  0.85248204  0.91978090  1
  Cl  Cl37  1  0.37452107  0.35248204  0.58021910  1
  Cl  Cl38  1  0.85416096  0.13812879  0.41126043  1
  Cl  Cl39  1  0.14583904  0.63812879  0.08873957  1
  Cl  Cl40  1  0.14583904  0.86187121  0.58873957  1
  Cl  Cl41  1  0.85416096  0.36187121  0.91126043  1
  Cl  Cl42  1  0.83854739  0.88667285  0.17037776  1
  Cl  Cl43  1  0.16145261  0.38667285  0.32962224  1
  Cl  Cl44  1  0.16145261  0.11332715  0.82962224  1
  Cl  Cl45  1  0.83854739  0.61332715  0.67037776  1
  O  O46  1  0.58666468  0.91436804  0.20936164  1
  O  O47  1  0.41333532  0.41436804  0.29063836  1
  O  O48  1  0.41333532  0.08563196  0.79063836  1
  O  O49  1  0.58666468  0.58563196  0.70936164  1
  O  O50  1  0.58763685  0.13936647  0.37899244  1
  O  O51  1  0.41236315  0.63936647  0.12100756  1
  O  O52  1  0.41236315  0.86063353  0.62100756  1
  O  O53  1  0.58763685  0.36063353  0.87899244  1
  O  O54  1  0.93134134  0.62820668  0.40255774  1
  O  O55  1  0.06865866  0.12820668  0.09744226  1
  O  O56  1  0.06865866  0.37179332  0.59744226  1
  O  O57  1  0.93134134  0.87179332  0.90255774  1
