# generated using pymatgen
data_P3H4N5Cl4
_symmetry_space_group_name_H-M   'P 1'
_cell_length_a   8.45642317
_cell_length_b   23.62587467
_cell_length_c   11.66127017
_cell_angle_alpha   89.99999414
_cell_angle_beta   104.40956510
_cell_angle_gamma   90.00000184
_symmetry_Int_Tables_number   1
_chemical_formula_structural   P3H4N5Cl4
_chemical_formula_sum   'P24 H32 N40 Cl32'
_cell_volume   2256.51774672
_cell_formula_units_Z   8
loop_
 _symmetry_equiv_pos_site_id
 _symmetry_equiv_pos_as_xyz
  1  'x, y, z'
loop_
 _atom_site_type_symbol
 _atom_site_label
 _atom_site_symmetry_multiplicity
 _atom_site_fract_x
 _atom_site_fract_y
 _atom_site_fract_z
 _atom_site_occupancy
  P  P0  1  0.19264175  0.86293465  0.99048658  1
  P  P1  1  0.80735812  0.36293461  0.50951328  1
  P  P2  1  0.80735825  0.13706535  0.00951342  1
  P  P3  1  0.19264188  0.63706539  0.49048672  1
  P  P4  1  0.00307285  0.78122297  0.84071636  1
  P  P5  1  0.99692703  0.28122297  0.65928355  1
  P  P6  1  0.99692715  0.21877703  0.15928364  1
  P  P7  1  0.00307297  0.71877703  0.34071645  1
  P  P8  1  0.30787103  0.80851247  0.81434368  1
  P  P9  1  0.69212905  0.30851253  0.68565621  1
  P  P10  1  0.69212897  0.19148753  0.18565632  1
  P  P11  1  0.30787095  0.69148747  0.31434379  1
  P  P12  1  0.27146935  0.08165794  0.88873161  1
  P  P13  1  0.72853034  0.58165794  0.61126836  1
  P  P14  1  0.72853065  0.91834206  0.11126839  1
  P  P15  1  0.27146966  0.41834206  0.38873164  1
  P  P16  1  0.34944867  0.05288528  0.67383068  1
  P  P17  1  0.65055135  0.55288528  0.82616921  1
  P  P18  1  0.65055133  0.94711472  0.32616932  1
  P  P19  1  0.34944865  0.44711472  0.17383079  1
  P  P20  1  0.04609643  0.02650383  0.70119617  1
  P  P21  1  0.95390344  0.52650384  0.79880383  1
  P  P22  1  0.95390357  0.97349617  0.29880383  1
  P  P23  1  0.04609656  0.47349616  0.20119617  1
  H  H24  1  0.12724639  0.95503990  0.93214377  1
  H  H25  1  0.87275360  0.45503992  0.56785624  1
  H  H26  1  0.87275361  0.04496010  0.06785623  1
  H  H27  1  0.12724640  0.54496008  0.43214376  1
  H  H28  1  0.09781158  0.94010626  0.06718064  1
  H  H29  1  0.90218836  0.44010624  0.43281942  1
  H  H30  1  0.90218842  0.05989374  0.93281936  1
  H  H31  1  0.09781164  0.55989376  0.56718058  1
  H  H32  1  0.22007659  0.80861207  0.16171935  1
  H  H33  1  0.77992341  0.30861204  0.33828062  1
  H  H34  1  0.77992341  0.19138793  0.83828065  1
  H  H35  1  0.22007659  0.69138796  0.66171938  1
  H  H36  1  0.37772323  0.85834457  0.17265173  1
  H  H37  1  0.62227676  0.35834456  0.32734829  1
  H  H38  1  0.62227677  0.14165543  0.82734827  1
  H  H39  1  0.37772324  0.64165544  0.67265171  1
  H  H40  1  0.45062716  0.07725254  0.06966453  1
  H  H41  1  0.54937286  0.57725254  0.43033550  1
  H  H42  1  0.54937284  0.92274746  0.93033547  1
  H  H43  1  0.45062714  0.42274746  0.56966450  1
  H  H44  1  0.34073453  0.01474533  0.03974894  1
  H  H45  1  0.65926550  0.51474535  0.46025109  1
  H  H46  1  0.65926547  0.98525467  0.96025106  1
  H  H47  1  0.34073450  0.48525465  0.53974891  1
  H  H48  1  0.24266178  0.17686255  0.84811308  1
  H  H49  1  0.75733826  0.67686255  0.65188691  1
  H  H50  1  0.75733822  0.82313745  0.15188692  1
  H  H51  1  0.24266174  0.32313745  0.34811309  1
  H  H52  1  0.17789224  0.15969173  0.97252531  1
  H  H53  1  0.82210771  0.65969172  0.52747471  1
  H  H54  1  0.82210776  0.84030827  0.02747469  1
  H  H55  1  0.17789229  0.34030828  0.47252529  1
  N  N56  1  0.31292720  0.86024833  0.90088280  1
  N  N57  1  0.68707262  0.36024840  0.59911726  1
  N  N58  1  0.68707280  0.13975167  0.09911720  1
  N  N59  1  0.31292738  0.63975160  0.40088274  1
  N  N60  1  0.02408543  0.82652667  0.94272047  1
  N  N61  1  0.97591452  0.32652666  0.55727969  1
  N  N62  1  0.97591457  0.17347333  0.05727953  1
  N  N63  1  0.02408548  0.67347334  0.44272031  1
  N  N64  1  0.14947107  0.76860537  0.77969571  1
  N  N65  1  0.85052916  0.26860532  0.72030447  1
  N  N66  1  0.85052893  0.23139463  0.22030429  1
  N  N67  1  0.14947084  0.73139468  0.27969553  1
  N  N68  1  0.16478698  0.93119090  0.00710499  1
  N  N69  1  0.83521309  0.43119097  0.49289511  1
  N  N70  1  0.83521302  0.06880910  0.99289501  1
  N  N71  1  0.16478691  0.56880903  0.50710489  1
  N  N72  1  0.27197452  0.84056364  0.12509033  1
  N  N73  1  0.72802563  0.34056368  0.37490978  1
  N  N74  1  0.72802548  0.15943636  0.87490967  1
  N  N75  1  0.27197437  0.65943632  0.62509022  1
  N  N76  1  0.10720823  0.04326617  0.83711509  1
  N  N77  1  0.89279162  0.54326614  0.66288497  1
  N  N78  1  0.89279177  0.95673383  0.16288491  1
  N  N79  1  0.10720838  0.45673386  0.33711503  1
  N  N80  1  0.39244335  0.08256839  0.79903032  1
  N  N81  1  0.60755689  0.58256831  0.70096976  1
  N  N82  1  0.60755665  0.91743161  0.20096968  1
  N  N83  1  0.39244311  0.41743169  0.29903024  1
  N  N84  1  0.16961917  0.02971123  0.61778931  1
  N  N85  1  0.83038073  0.52971123  0.88221061  1
  N  N86  1  0.83038083  0.97028877  0.38221069  1
  N  N87  1  0.16961927  0.47028877  0.11778939  1
  N  N88  1  0.34821205  0.05693224  0.02266550  1
  N  N89  1  0.65178798  0.55693227  0.47733454  1
  N  N90  1  0.65178795  0.94306776  0.97733450  1
  N  N91  1  0.34821202  0.44306773  0.52266546  1
  N  N92  1  0.24661668  0.14887502  0.91491689  1
  N  N93  1  0.75338330  0.64887500  0.58508316  1
  N  N94  1  0.75338332  0.85112498  0.08508311  1
  N  N95  1  0.24661670  0.35112500  0.41491684  1
  Cl  Cl96  1  0.80152062  0.79926003  0.70847976  1
  Cl  Cl97  1  0.19847943  0.29926006  0.79152031  1
  Cl  Cl98  1  0.19847938  0.20073997  0.29152024  1
  Cl  Cl99  1  0.80152057  0.70073994  0.20847969  1
  Cl  Cl100  1  0.93385471  0.70601429  0.89699641  1
  Cl  Cl101  1  0.06614538  0.20601431  0.60300376  1
  Cl  Cl102  1  0.06614529  0.29398571  0.10300359  1
  Cl  Cl103  1  0.93385462  0.79398569  0.39699624  1
  Cl  Cl104  1  0.50046666  0.75564748  0.87345895  1
  Cl  Cl105  1  0.49953330  0.25564747  0.62654124  1
  Cl  Cl106  1  0.49953334  0.24435252  0.12654105  1
  Cl  Cl107  1  0.50046670  0.74435253  0.37345876  1
  Cl  Cl108  1  0.35262373  0.83822710  0.66317566  1
  Cl  Cl109  1  0.64737598  0.33822712  0.83682424  1
  Cl  Cl110  1  0.64737627  0.16177290  0.33682434  1
  Cl  Cl111  1  0.35262402  0.66177288  0.16317576  1
  Cl  Cl112  1  0.40465431  0.10709139  0.55405270  1
  Cl  Cl113  1  0.59534577  0.60709128  0.94594727  1
  Cl  Cl114  1  0.59534569  0.89290861  0.44594730  1
  Cl  Cl115  1  0.40465423  0.39290872  0.05405273  1
  Cl  Cl116  1  0.50867691  0.98906891  0.67038304  1
  Cl  Cl117  1  0.49132315  0.48906901  0.82961706  1
  Cl  Cl118  1  0.49132309  0.01093109  0.32961696  1
  Cl  Cl119  1  0.50867685  0.51093099  0.17038294  1
  Cl  Cl120  1  0.84474171  0.07131269  0.62095385  1
  Cl  Cl121  1  0.15525831  0.57131255  0.87904605  1
  Cl  Cl122  1  0.15525829  0.92868731  0.37904615  1
  Cl  Cl123  1  0.84474169  0.42868745  0.12095395  1
  Cl  Cl124  1  0.95425651  0.94704987  0.69322912  1
  Cl  Cl125  1  0.04574340  0.44704987  0.80677088  1
  Cl  Cl126  1  0.04574349  0.05295013  0.30677088  1
  Cl  Cl127  1  0.95425660  0.55295013  0.19322912  1
