# generated using pymatgen
data_Sr6Te6O17
_symmetry_space_group_name_H-M   'P 1'
_cell_length_a   14.46197475
_cell_length_b   14.46197475
_cell_length_c   28.91983140
_cell_angle_alpha   67.09600925
_cell_angle_beta   112.90399075
_cell_angle_gamma   156.27628172
_symmetry_Int_Tables_number   1
_chemical_formula_structural   Sr6Te6O17
_chemical_formula_sum   'Sr24 Te24 O68'
_cell_volume   2232.78750664
_cell_formula_units_Z   4
loop_
 _symmetry_equiv_pos_site_id
 _symmetry_equiv_pos_as_xyz
  1  'x, y, z'
loop_
 _atom_site_type_symbol
 _atom_site_label
 _atom_site_symmetry_multiplicity
 _atom_site_fract_x
 _atom_site_fract_y
 _atom_site_fract_z
 _atom_site_occupancy
  Sr  Sr0  1  0.00000000  0.50000000  0.00000000  1
  Sr  Sr1  1  0.50000000  0.00000000  0.50000000  1
  Sr  Sr2  1  0.23832682  0.23832682  0.75000000  1
  Sr  Sr3  1  0.76167318  0.76167318  0.25000000  1
  Sr  Sr4  1  0.85477772  0.73932787  0.55499509  1
  Sr  Sr5  1  0.73932787  0.85477772  0.94500491  1
  Sr  Sr6  1  0.14522228  0.26067213  0.44500491  1
  Sr  Sr7  1  0.26067213  0.14522228  0.05499509  1
  Sr  Sr8  1  0.94776199  0.54550108  0.57606563  1
  Sr  Sr9  1  0.54550108  0.94776199  0.92393437  1
  Sr  Sr10  1  0.05223801  0.45449892  0.42393437  1
  Sr  Sr11  1  0.45449892  0.05223801  0.07606563  1
  Sr  Sr12  1  0.82309620  0.68461162  0.69875286  1
  Sr  Sr13  1  0.68461162  0.82309620  0.80124714  1
  Sr  Sr14  1  0.17690380  0.31538838  0.30124714  1
  Sr  Sr15  1  0.31538838  0.17690380  0.19875286  1
  Sr  Sr16  1  0.88553244  0.59409526  0.13797892  1
  Sr  Sr17  1  0.59409526  0.88553244  0.36202108  1
  Sr  Sr18  1  0.11446756  0.40590474  0.86202108  1
  Sr  Sr19  1  0.40590474  0.11446756  0.63797892  1
  Sr  Sr20  1  0.91256921  0.58085073  0.28946162  1
  Sr  Sr21  1  0.58085073  0.91256921  0.21053838  1
  Sr  Sr22  1  0.08743079  0.41914927  0.71053838  1
  Sr  Sr23  1  0.41914927  0.08743079  0.78946162  1
  Te  Te24  1  0.95090026  0.55969195  0.70560595  1
  Te  Te25  1  0.55969195  0.95090026  0.79439405  1
  Te  Te26  1  0.04909974  0.44030805  0.29439405  1
  Te  Te27  1  0.44030805  0.04909974  0.20560595  1
  Te  Te28  1  0.01224818  0.45920930  0.13877337  1
  Te  Te29  1  0.45920930  0.01224818  0.36122663  1
  Te  Te30  1  0.98775182  0.54079070  0.86122663  1
  Te  Te31  1  0.54079070  0.98775182  0.63877337  1
  Te  Te32  1  0.71600083  0.69109227  0.11024315  1
  Te  Te33  1  0.69109227  0.71600083  0.38975685  1
  Te  Te34  1  0.28399917  0.30890773  0.88975685  1
  Te  Te35  1  0.30890773  0.28399917  0.61024315  1
  Te  Te36  1  0.08904293  0.39776388  0.57411403  1
  Te  Te37  1  0.39776388  0.08904293  0.92588597  1
  Te  Te38  1  0.91095707  0.60223612  0.42588597  1
  Te  Te39  1  0.60223612  0.91095707  0.07411403  1
  Te  Te40  1  0.85902474  0.65289819  0.00030847  1
  Te  Te41  1  0.65289819  0.85902474  0.49969153  1
  Te  Te42  1  0.14097526  0.34710181  0.99969153  1
  Te  Te43  1  0.34710181  0.14097526  0.50030847  1
  Te  Te44  1  0.13616578  0.30390350  0.17405213  1
  Te  Te45  1  0.30390350  0.13616578  0.32594787  1
  Te  Te46  1  0.86383422  0.69609650  0.82594787  1
  Te  Te47  1  0.69609650  0.86383422  0.67405213  1
  O  O48  1  0.85936844  0.55407344  0.63629154  1
  O  O49  1  0.55407344  0.85936844  0.86370846  1
  O  O50  1  0.14063156  0.44592656  0.36370846  1
  O  O51  1  0.44592656  0.14063156  0.13629154  1
  O  O52  1  0.69774023  0.38462805  0.72481071  1
  O  O53  1  0.38462805  0.69774023  0.77518929  1
  O  O54  1  0.30225977  0.61537195  0.27518929  1
  O  O55  1  0.61537195  0.30225977  0.22481071  1
  O  O56  1  0.18128429  0.85712621  0.71369188  1
  O  O57  1  0.85712621  0.18128429  0.78630812  1
  O  O58  1  0.81871571  0.14287379  0.28630812  1
  O  O59  1  0.14287379  0.81871571  0.21369188  1
  O  O60  1  0.90757688  0.45558807  0.07378342  1
  O  O61  1  0.45558807  0.90757688  0.42621658  1
  O  O62  1  0.09242312  0.54441193  0.92621658  1
  O  O63  1  0.54441193  0.09242312  0.57378342  1
  O  O64  1  0.23915152  0.74742991  0.15480450  1
  O  O65  1  0.74742991  0.23915152  0.34519550  1
  O  O66  1  0.76084848  0.25257009  0.84519550  1
  O  O67  1  0.25257009  0.76084848  0.65480450  1
  O  O68  1  0.77760458  0.26993342  0.17425210  1
  O  O69  1  0.26993342  0.77760458  0.32574790  1
  O  O70  1  0.22239542  0.73006658  0.82574790  1
  O  O71  1  0.73006658  0.22239542  0.67425210  1
  O  O72  1  0.64232871  0.59516656  0.17802853  1
  O  O73  1  0.59516656  0.64232871  0.32197147  1
  O  O74  1  0.35767129  0.40483344  0.82197147  1
  O  O75  1  0.40483344  0.35767129  0.67802853  1
  O  O76  1  0.01532784  0.89243595  0.12498734  1
  O  O77  1  0.89243595  0.01532784  0.37501266  1
  O  O78  1  0.98467216  0.10756405  0.87501266  1
  O  O79  1  0.10756405  0.98467216  0.62498734  1
  O  O80  1  0.99007371  0.37960962  0.61196391  1
  O  O81  1  0.37960962  0.99007371  0.88803609  1
  O  O82  1  0.00992629  0.62039038  0.38803609  1
  O  O83  1  0.62039038  0.00992629  0.11196391  1
  O  O84  1  0.90884441  0.29515949  0.51186379  1
  O  O85  1  0.29515949  0.90884441  0.98813621  1
  O  O86  1  0.09115559  0.70484051  0.48813621  1
  O  O87  1  0.70484051  0.09115559  0.01186379  1
  O  O88  1  0.37236895  0.71612179  0.55731157  1
  O  O89  1  0.71612179  0.37236895  0.94268843  1
  O  O90  1  0.62763105  0.28387821  0.44268843  1
  O  O91  1  0.28387821  0.62763105  0.05731157  1
  O  O92  1  0.85226854  0.78315134  0.99136465  1
  O  O93  1  0.78315134  0.85226854  0.50863535  1
  O  O94  1  0.14773146  0.21684866  0.00863535  1
  O  O95  1  0.21684866  0.14773146  0.49136465  1
  O  O96  1  0.08105840  0.82101299  0.05672272  1
  O  O97  1  0.82101299  0.08105840  0.44327728  1
  O  O98  1  0.91894160  0.17898701  0.94327728  1
  O  O99  1  0.17898701  0.91894160  0.55672272  1
  O  O100  1  0.59611521  0.36892885  0.03629467  1
  O  O101  1  0.36892885  0.59611521  0.46370533  1
  O  O102  1  0.40388479  0.63107115  0.96370533  1
  O  O103  1  0.63107115  0.40388479  0.53629467  1
  O  O104  1  0.11166894  0.14377093  0.19064963  1
  O  O105  1  0.14377093  0.11166894  0.30935037  1
  O  O106  1  0.88833106  0.85622907  0.80935037  1
  O  O107  1  0.85622907  0.88833106  0.69064963  1
  O  O108  1  0.40340451  0.56415762  0.21251278  1
  O  O109  1  0.56415762  0.40340451  0.28748722  1
  O  O110  1  0.59659549  0.43584238  0.78748722  1
  O  O111  1  0.43584238  0.59659549  0.71251278  1
  O  O112  1  0.92112083  0.11239885  0.21932111  1
  O  O113  1  0.11239885  0.92112083  0.28067889  1
  O  O114  1  0.07887917  0.88760115  0.78067889  1
  O  O115  1  0.88760115  0.07887917  0.71932111  1
