# generated using pymatgen
data_Na4CuP6(H4O11)2
_symmetry_space_group_name_H-M   'P 1'
_cell_length_a   8.01293553
_cell_length_b   8.42929368
_cell_length_c   7.18476044
_cell_angle_alpha   102.16342385
_cell_angle_beta   98.03077314
_cell_angle_gamma   84.20026772
_symmetry_Int_Tables_number   1
_chemical_formula_structural   Na4CuP6(H4O11)2
_chemical_formula_sum   'Na4 Cu1 P6 H8 O22'
_cell_volume   468.44907953
_cell_formula_units_Z   1
loop_
 _symmetry_equiv_pos_site_id
 _symmetry_equiv_pos_as_xyz
  1  'x, y, z'
loop_
 _atom_site_type_symbol
 _atom_site_label
 _atom_site_symmetry_multiplicity
 _atom_site_fract_x
 _atom_site_fract_y
 _atom_site_fract_z
 _atom_site_occupancy
  Na  Na0  1  0.42132184  0.20368249  0.64321026  1
  Na  Na1  1  0.57867816  0.79631751  0.35678974  1
  Na  Na2  1  0.31077998  0.59371987  0.89840143  1
  Na  Na3  1  0.68922002  0.40628013  0.10159857  1
  Cu  Cu4  1  0.00000000  0.00000000  0.00000000  1
  P  P5  1  0.20840099  0.83502103  0.55824462  1
  P  P6  1  0.79159901  0.16497897  0.44175538  1
  P  P7  1  0.01530893  0.29557805  0.78386580  1
  P  P8  1  0.98469107  0.70442195  0.21613420  1
  P  P9  1  0.71052135  0.49064922  0.66274582  1
  P  P10  1  0.28947865  0.50935078  0.33725418  1
  H  H11  1  0.78819185  0.81573534  0.76849967  1
  H  H12  1  0.21180815  0.18426466  0.23150033  1
  H  H13  1  0.75273134  0.99879888  0.74215445  1
  H  H14  1  0.24726866  0.00120112  0.25784555  1
  H  H15  1  0.41127687  0.18512122  0.03068155  1
  H  H16  1  0.58872313  0.81487878  0.96931845  1
  H  H17  1  0.39959722  0.88831652  0.96070069  1
  H  H18  1  0.60040278  0.11168348  0.03929931  1
  O  O19  1  0.68204636  0.07445365  0.53243981  1
  O  O20  1  0.31795364  0.92554635  0.46756019  1
  O  O21  1  0.18430940  0.89306312  0.76424521  1
  O  O22  1  0.81569060  0.10693688  0.23575479  1
  O  O23  1  0.97548986  0.18535254  0.56974697  1
  O  O24  1  0.02451014  0.81464746  0.43025303  1
  O  O25  1  0.28107523  0.64364603  0.53785041  1
  O  O26  1  0.71892477  0.35635397  0.46214959  1
  O  O27  1  0.94227064  0.22194799  0.92796585  1
  O  O28  1  0.05772936  0.77805201  0.07203415  1
  O  O29  1  0.19663585  0.33083119  0.81558000  1
  O  O30  1  0.80336415  0.66916881  0.18442000  1
  O  O31  1  0.90319862  0.46372358  0.76657384  1
  O  O32  1  0.09680138  0.53627642  0.23342616  1
  O  O33  1  0.58664623  0.44619040  0.77784895  1
  O  O34  1  0.41335377  0.55380960  0.22215105  1
  O  O35  1  0.69555173  0.65637671  0.61468931  1
  O  O36  1  0.30444827  0.34362329  0.38531069  1
  O  O37  1  0.78959673  0.93096045  0.84122277  1
  O  O38  1  0.21040327  0.06903955  0.15877723  1
  O  O39  1  0.51629274  0.18015921  0.97292283  1
  O  O40  1  0.48370726  0.81984079  0.02707717  1
