# generated using pymatgen
data_Mn3(AgO2)4
_symmetry_space_group_name_H-M   'P 1'
_cell_length_a   9.27823447
_cell_length_b   9.25524988
_cell_length_c   8.88884486
_cell_angle_alpha   90.47720538
_cell_angle_beta   90.45169383
_cell_angle_gamma   89.83637533
_symmetry_Int_Tables_number   1
_chemical_formula_structural   Mn3(AgO2)4
_chemical_formula_sum   'Mn12 Ag16 O32'
_cell_volume   763.25308467
_cell_formula_units_Z   4
loop_
 _symmetry_equiv_pos_site_id
 _symmetry_equiv_pos_as_xyz
  1  'x, y, z'
loop_
 _atom_site_type_symbol
 _atom_site_label
 _atom_site_symmetry_multiplicity
 _atom_site_fract_x
 _atom_site_fract_y
 _atom_site_fract_z
 _atom_site_occupancy
  Mn  Mn0  1  0.07558872  0.83333117  0.87399639  1
  Mn  Mn1  1  0.12136960  0.58399140  0.65803832  1
  Mn  Mn2  1  0.16739995  0.37722491  0.40834588  1
  Mn  Mn3  1  0.32675819  0.62696015  0.90925539  1
  Mn  Mn4  1  0.36995916  0.42446984  0.16170824  1
  Mn  Mn5  1  0.41377027  0.16904555  0.37227703  1
  Mn  Mn6  1  0.58261978  0.66626689  0.12233384  1
  Mn  Mn7  1  0.62823646  0.91482019  0.33425274  1
  Mn  Mn8  1  0.66837064  0.12924087  0.58131309  1
  Mn  Mn9  1  0.83447101  0.86949809  0.08079765  1
  Mn  Mn10  1  0.87820469  0.08919405  0.83136821  1
  Mn  Mn11  1  0.92123843  0.33139504  0.62074299  1
  Ag  Ag12  1  0.20240024  0.16064144  0.01032951  1
  Ag  Ag13  1  0.33548650  0.97857865  0.70113126  1
  Ag  Ag14  1  0.61602816  0.36247909  0.87963898  1
  Ag  Ag15  1  0.53014305  0.50227132  0.59206095  1
  Ag  Ag16  1  0.91384054  0.21529419  0.21030506  1
  Ag  Ag17  1  0.87125443  0.62392716  0.37449058  1
  Ag  Ag18  1  0.78262611  0.60133820  0.82264691  1
  Ag  Ag19  1  0.59006512  0.81197271  0.73454336  1
  Ag  Ag20  1  0.34518225  0.90200067  0.11919720  1
  Ag  Ag21  1  0.97818848  0.47611773  0.04732579  1
  Ag  Ag22  1  0.69183877  0.38518651  0.32675771  1
  Ag  Ag23  1  0.34062822  0.28577437  0.74932324  1
  Ag  Ag24  1  0.55574897  0.10609383  0.01236388  1
  Ag  Ag25  1  0.94901448  0.88861773  0.50948922  1
  Ag  Ag26  1  0.11022818  0.99482212  0.27139639  1
  Ag  Ag27  1  0.34716984  0.74169986  0.45364176  1
  O  O28  1  0.03606935  0.84316658  0.08757168  1
  O  O29  1  0.07834930  0.03870434  0.84521831  1
  O  O30  1  0.09609714  0.79068144  0.66287742  1
  O  O31  1  0.11237275  0.61794563  0.88179829  1
  O  O32  1  0.13286817  0.36883460  0.63059798  1
  O  O33  1  0.15098170  0.58191769  0.44844208  1
  O  O34  1  0.16894484  0.40440916  0.19778034  1
  O  O35  1  0.21238343  0.16889718  0.40147097  1
  O  O36  1  0.28301599  0.83276515  0.89495570  1
  O  O37  1  0.32642987  0.59582496  0.69803058  1
  O  O38  1  0.33999288  0.42600698  0.94943313  1
  O  O39  1  0.36575644  0.63640823  0.13241677  1
  O  O40  1  0.38256184  0.38570821  0.38626644  1
  O  O41  1  0.39774119  0.21605804  0.16018584  1
  O  O42  1  0.42332086  0.96032540  0.34428640  1
  O  O43  1  0.45920020  0.15198112  0.58353094  1
  O  O44  1  0.53389037  0.66006162  0.90828844  1
  O  O45  1  0.57609060  0.46013540  0.13288618  1
  O  O46  1  0.59520968  0.70949368  0.33445291  1
  O  O47  1  0.61912686  0.87936805  0.11178557  1
  O  O48  1  0.63233186  0.13338348  0.36107262  1
  O  O49  1  0.66257685  0.92600945  0.54528268  1
  O  O50  1  0.67414933  0.10654125  0.79373487  1
  O  O51  1  0.71292292  0.33404375  0.58426282  1
  O  O52  1  0.78855703  0.66477943  0.08835824  1
  O  O53  1  0.82944196  0.89960939  0.29469525  1
  O  O54  1  0.83860072  0.07537372  0.04098116  1
  O  O55  1  0.86465791  0.86462323  0.85966464  1
  O  O56  1  0.88254489  0.11860258  0.60989940  1
  O  O57  1  0.90611769  0.29398391  0.83204840  1
  O  O58  1  0.91928713  0.53886142  0.63728538  1
  O  O59  1  0.96275804  0.34716123  0.40462700  1
