# generated using pymatgen
data_TeP6H30(NO4)6
_symmetry_space_group_name_H-M   'P 1'
_cell_length_a   8.99543323
_cell_length_b   8.99543263
_cell_length_c   8.99543279
_cell_angle_alpha   78.48410784
_cell_angle_beta   78.48410861
_cell_angle_gamma   78.48410350
_symmetry_Int_Tables_number   1
_chemical_formula_structural   TeP6H30(NO4)6
_chemical_formula_sum   'Te1 P6 H30 N6 O24'
_cell_volume   689.13443276
_cell_formula_units_Z   1
loop_
 _symmetry_equiv_pos_site_id
 _symmetry_equiv_pos_as_xyz
  1  'x, y, z'
loop_
 _atom_site_type_symbol
 _atom_site_label
 _atom_site_symmetry_multiplicity
 _atom_site_fract_x
 _atom_site_fract_y
 _atom_site_fract_z
 _atom_site_occupancy
  Te  Te0  1  0.00000000  -0.00000000  -0.00000000  1
  P  P1  1  0.69698525  0.50905561  0.80360474  1
  P  P2  1  0.50905561  0.80360474  0.69698525  1
  P  P3  1  0.80360474  0.69698525  0.50905561  1
  P  P4  1  0.30301475  0.49094439  0.19639526  1
  P  P5  1  0.49094439  0.19639526  0.30301475  1
  P  P6  1  0.19639526  0.30301475  0.49094439  1
  H  H7  1  0.18933338  0.91628824  0.76868202  1
  H  H8  1  0.91628824  0.76868202  0.18933338  1
  H  H9  1  0.76868202  0.18933338  0.91628824  1
  H  H10  1  0.81066662  0.08371176  0.23131798  1
  H  H11  1  0.08371176  0.23131798  0.81066662  1
  H  H12  1  0.23131798  0.81066662  0.08371176  1
  H  H13  1  0.26410498  0.85218904  0.45800276  1
  H  H14  1  0.85218904  0.45800276  0.26410498  1
  H  H15  1  0.45800276  0.26410498  0.85218904  1
  H  H16  1  0.73589502  0.14781096  0.54199724  1
  H  H17  1  0.14781096  0.54199724  0.73589502  1
  H  H18  1  0.54199724  0.73589502  0.14781096  1
  H  H19  1  0.07675609  0.84942621  0.45200721  1
  H  H20  1  0.84942621  0.45200721  0.07675609  1
  H  H21  1  0.45200721  0.07675609  0.84942621  1
  H  H22  1  0.92324391  0.15057379  0.54799279  1
  H  H23  1  0.15057379  0.54799279  0.92324391  1
  H  H24  1  0.54799279  0.92324391  0.15057379  1
  H  H25  1  0.80221034  0.10286082  0.71488305  1
  H  H26  1  0.10286082  0.71488305  0.80221034  1
  H  H27  1  0.71488305  0.80221034  0.10286082  1
  H  H28  1  0.19778966  0.89713918  0.28511695  1
  H  H29  1  0.89713918  0.28511695  0.19778966  1
  H  H30  1  0.28511695  0.19778966  0.89713918  1
  H  H31  1  0.14781707  0.01901228  0.41210287  1
  H  H32  1  0.01901228  0.41210287  0.14781707  1
  H  H33  1  0.41210287  0.14781707  0.01901228  1
  H  H34  1  0.85218293  0.98098772  0.58789713  1
  H  H35  1  0.98098772  0.58789713  0.85218293  1
  H  H36  1  0.58789713  0.85218293  0.98098772  1
  N  N37  1  0.82722892  0.09745752  0.59835469  1
  N  N38  1  0.09745752  0.59835469  0.82722892  1
  N  N39  1  0.59835469  0.82722892  0.09745752  1
  N  N40  1  0.17277108  0.90254248  0.40164531  1
  N  N41  1  0.90254248  0.40164531  0.17277108  1
  N  N42  1  0.40164531  0.17277108  0.90254248  1
  O  O43  1  0.80270086  0.07460920  0.92942496  1
  O  O44  1  0.07460920  0.92942496  0.80270086  1
  O  O45  1  0.92942496  0.80270086  0.07460920  1
  O  O46  1  0.19729914  0.92539080  0.07057504  1
  O  O47  1  0.92539080  0.07057504  0.19729914  1
  O  O48  1  0.07057504  0.19729914  0.92539080  1
  O  O49  1  0.83584290  0.65805023  0.34987306  1
  O  O50  1  0.65805023  0.34987306  0.83584290  1
  O  O51  1  0.34987306  0.83584290  0.65805023  1
  O  O52  1  0.16415710  0.34194977  0.65012694  1
  O  O53  1  0.34194977  0.65012694  0.16415710  1
  O  O54  1  0.65012694  0.16415710  0.34194977  1
  O  O55  1  0.62740889  0.78916576  0.53650536  1
  O  O56  1  0.78916576  0.53650536  0.62740889  1
  O  O57  1  0.53650536  0.62740889  0.78916576  1
  O  O58  1  0.37259111  0.21083424  0.46349464  1
  O  O59  1  0.21083424  0.46349464  0.37259111  1
  O  O60  1  0.46349464  0.37259111  0.21083424  1
  O  O61  1  0.44465085  0.09187625  0.21551809  1
  O  O62  1  0.09187625  0.21551809  0.44465085  1
  O  O63  1  0.21551809  0.44465085  0.09187625  1
  O  O64  1  0.55534915  0.90812375  0.78448191  1
  O  O65  1  0.90812375  0.78448191  0.55534915  1
  O  O66  1  0.78448191  0.55534915  0.90812375  1
