# generated using pymatgen
data_Yb3Ho
_symmetry_space_group_name_H-M   'P 1'
_cell_length_a   7.49855475
_cell_length_b   7.49855553
_cell_length_c   6.04531109
_cell_angle_alpha   90.00000000
_cell_angle_beta   90.00000000
_cell_angle_gamma   120.00000234
_symmetry_Int_Tables_number   1
_chemical_formula_structural   Yb3Ho
_chemical_formula_sum   'Yb6 Ho2'
_cell_volume   294.37739295
_cell_formula_units_Z   2
loop_
 _symmetry_equiv_pos_site_id
 _symmetry_equiv_pos_as_xyz
  1  'x, y, z'
loop_
 _atom_site_type_symbol
 _atom_site_label
 _atom_site_symmetry_multiplicity
 _atom_site_fract_x
 _atom_site_fract_y
 _atom_site_fract_z
 _atom_site_occupancy
  Yb  Yb0  1  0.17074434  0.34148867  0.24999900  1
  Yb  Yb1  1  0.65851133  0.82925566  0.24999900  1
  Yb  Yb2  1  0.17074334  0.82925566  0.24999900  1
  Yb  Yb3  1  0.82925666  0.65851133  0.75000000  1
  Yb  Yb4  1  0.34148867  0.17074334  0.75000000  1
  Yb  Yb5  1  0.82925466  0.17074334  0.75000000  1
  Ho  Ho6  1  0.33333400  0.66666700  0.75000000  1
  Ho  Ho7  1  0.66666700  0.33333400  0.24999900  1
