# generated using pymatgen
data_Na2H5RuN5O12
_symmetry_space_group_name_H-M   'P 1'
_cell_length_a   9.87516376
_cell_length_b   9.87516376
_cell_length_c   7.52287600
_cell_angle_alpha   69.58645646
_cell_angle_beta   110.41354354
_cell_angle_gamma   82.88985440
_symmetry_Int_Tables_number   1
_chemical_formula_structural   Na2H5RuN5O12
_chemical_formula_sum   'Na4 H10 Ru2 N10 O24'
_cell_volume   618.70441239
_cell_formula_units_Z   2
loop_
 _symmetry_equiv_pos_site_id
 _symmetry_equiv_pos_as_xyz
  1  'x, y, z'
loop_
 _atom_site_type_symbol
 _atom_site_label
 _atom_site_symmetry_multiplicity
 _atom_site_fract_x
 _atom_site_fract_y
 _atom_site_fract_z
 _atom_site_occupancy
  Na  Na0  1  0.00000000  0.50000000  0.50000000  1
  Na  Na1  1  0.50000000  0.00000000  0.50000000  1
  Na  Na2  1  0.10866125  0.10866125  0.50000000  1
  Na  Na3  1  0.89133875  0.89133875  0.50000000  1
  H  H4  1  0.95637949  0.04362051  0.14324567  1
  H  H5  1  0.04362051  0.95637949  0.85675433  1
  H  H6  1  0.20256568  0.21650578  0.81325457  1
  H  H7  1  0.78349422  0.79743432  0.81325457  1
  H  H8  1  0.79743432  0.78349422  0.18674543  1
  H  H9  1  0.21650578  0.20256568  0.18674543  1
  H  H10  1  0.32183780  0.24332541  0.72629464  1
  H  H11  1  0.75667459  0.67816220  0.72629464  1
  H  H12  1  0.67816220  0.75667459  0.27370536  1
  H  H13  1  0.24332541  0.32183780  0.27370536  1
  Ru  Ru14  1  0.73682503  0.26317497  0.99676429  1
  Ru  Ru15  1  0.26317497  0.73682503  0.00323571  1
  N  N16  1  0.58026862  0.41973138  0.81089409  1
  N  N17  1  0.41973138  0.58026862  0.18910591  1
  N  N18  1  0.86965236  0.33170649  0.82892476  1
  N  N19  1  0.66829351  0.13034764  0.82892476  1
  N  N20  1  0.13034764  0.66829351  0.17107524  1
  N  N21  1  0.33170649  0.86965236  0.17107524  1
  N  N22  1  0.81910348  0.38745908  0.17258838  1
  N  N23  1  0.61254092  0.18089652  0.17258838  1
  N  N24  1  0.18089652  0.61254092  0.82741162  1
  N  N25  1  0.38745908  0.81910348  0.82741162  1
  O  O26  1  0.91121074  0.08878926  0.21389801  1
  O  O27  1  0.08878926  0.91121074  0.78610199  1
  O  O28  1  0.47734163  0.52265837  0.68902122  1
  O  O29  1  0.52265837  0.47734163  0.31097878  1
  O  O30  1  0.98204806  0.23821444  0.86016911  1
  O  O31  1  0.76178556  0.01795194  0.86016911  1
  O  O32  1  0.01795194  0.76178556  0.13983089  1
  O  O33  1  0.23821444  0.98204806  0.13983089  1
  O  O34  1  0.83246000  0.46548692  0.69707364  1
  O  O35  1  0.53451308  0.16754000  0.69707364  1
  O  O36  1  0.16754000  0.53451308  0.30292636  1
  O  O37  1  0.46548692  0.83246000  0.30292636  1
  O  O38  1  0.90011490  0.32166618  0.36582736  1
  O  O39  1  0.67833382  0.09988510  0.36582736  1
  O  O40  1  0.09988510  0.67833382  0.63417264  1
  O  O41  1  0.32166618  0.90011490  0.63417264  1
  O  O42  1  0.78529291  0.52695861  0.08090519  1
  O  O43  1  0.47304139  0.21470709  0.08090519  1
  O  O44  1  0.21470709  0.47304139  0.91909481  1
  O  O45  1  0.52695861  0.78529291  0.91909481  1
  O  O46  1  0.21486804  0.24816972  0.68303511  1
  O  O47  1  0.75183028  0.78513196  0.68303511  1
  O  O48  1  0.78513196  0.75183028  0.31696489  1
  O  O49  1  0.24816972  0.21486804  0.31696489  1
