# generated using pymatgen
data_NaCa5ScZn5(SiO3)12
_symmetry_space_group_name_H-M   'P 1'
_cell_length_a   15.96890783
_cell_length_b   6.72573194
_cell_length_c   6.72573204
_cell_angle_alpha   84.12975690
_cell_angle_beta   78.22223059
_cell_angle_gamma   78.22222792
_symmetry_Int_Tables_number   1
_chemical_formula_structural   NaCa5ScZn5(SiO3)12
_chemical_formula_sum   'Na1 Ca5 Sc1 Zn5 Si12 O36'
_cell_volume   690.87900449
_cell_formula_units_Z   1
loop_
 _symmetry_equiv_pos_site_id
 _symmetry_equiv_pos_as_xyz
  1  'x, y, z'
loop_
 _atom_site_type_symbol
 _atom_site_label
 _atom_site_symmetry_multiplicity
 _atom_site_fract_x
 _atom_site_fract_y
 _atom_site_fract_z
 _atom_site_occupancy
  Na  Na0  1  0.91666700  0.30122322  0.69877678  1
  Ca  Ca1  1  0.08551723  0.69684640  0.30272211  1
  Ca  Ca2  1  0.25186261  0.30068488  0.70319306  1
  Ca  Ca3  1  0.41666700  0.70105367  0.29894633  1
  Ca  Ca4  1  0.58147039  0.29680694  0.69931512  1
  Ca  Ca5  1  0.74781577  0.69727789  0.30315360  1
  Sc  Sc6  1  0.91666700  0.91558739  0.08441260  1
  Zn  Zn7  1  0.08412857  0.10615113  0.89584595  1
  Zn  Zn8  1  0.24888091  0.90588517  0.09550967  1
  Zn  Zn9  1  0.41666700  0.09121553  0.90878447  1
  Zn  Zn10  1  0.58445209  0.90449033  0.09411483  1
  Zn  Zn11  1  0.74920443  0.10415405  0.89384887  1
  Si  Si12  1  0.08714107  0.19068866  0.38278221  1
  Si  Si13  1  0.07959798  0.62203283  0.80110499  1
  Si  Si14  1  0.25444823  0.37693503  0.19738894  1
  Si  Si15  1  0.24580803  0.80869362  0.61948187  1
  Si  Si16  1  0.42177206  0.19309561  0.38080261  1
  Si  Si17  1  0.41156194  0.61919739  0.80690439  1
  Si  Si18  1  0.58752497  0.38051813  0.19130638  1
  Si  Si19  1  0.57888477  0.80261106  0.62306497  1
  Si  Si20  1  0.75373502  0.19889501  0.37796717  1
  Si  Si21  1  0.74619193  0.61721779  0.80931134  1
  Si  Si22  1  0.92201173  0.38279602  0.19886717  1
  Si  Si23  1  0.91132227  0.80113283  0.61720398  1
  O  O24  1  0.00113853  0.37056965  0.33082847  1
  O  O25  1  0.05938471  0.09775288  0.61011185  1
  O  O26  1  0.11663981  0.02831094  0.20479509  1
  O  O27  1  0.04772272  0.79132607  0.97167565  1
  O  O28  1  0.11075849  0.39293738  0.88733076  1
  O  O29  1  0.16638313  0.32829373  0.37202465  1
  O  O30  1  0.16812582  0.66975138  0.62963928  1
  O  O31  1  0.22351275  0.60810891  0.11453797  1
  O  O32  1  0.28476572  0.20577926  0.02969131  1
  O  O33  1  0.21616312  0.97337695  0.79330935  1
  O  O34  1  0.27706747  0.89062143  0.38876728  1
  O  O35  1  0.33316653  0.36759503  0.33327454  1
  O  O36  1  0.33357210  0.63151983  0.66817047  1
  O  O37  1  0.39120551  0.11124756  0.61206657  1
  O  O38  1  0.45194176  0.02643299  0.20874294  1
  O  O39  1  0.38139124  0.79125706  0.97356701  1
  O  O40  1  0.44212849  0.38793344  0.88875244  1
  O  O41  1  0.49976190  0.33182953  0.36848017  1
  O  O42  1  0.50016647  0.66672546  0.63240497  1
  O  O43  1  0.55626553  0.61123272  0.10937857  1
  O  O44  1  0.61716988  0.20669065  0.02662304  1
  O  O45  1  0.54856828  0.97030869  0.79422074  1
  O  O46  1  0.60982025  0.88546203  0.39189108  1
  O  O47  1  0.66520718  0.37036072  0.33024862  1
  O  O48  1  0.66694987  0.62797535  0.67170627  1
  O  O49  1  0.72257451  0.11266924  0.60706262  1
  O  O50  1  0.78561128  0.02832435  0.20867393  1
  O  O51  1  0.71669319  0.79520491  0.97168906  1
  O  O52  1  0.77394829  0.38988815  0.90224712  1
  O  O53  1  0.83104954  0.33741257  0.36288397  1
  O  O54  1  0.83219547  0.66917153  0.62943035  1
  O  O55  1  0.89254088  0.61740392  0.11869860  1
  O  O56  1  0.95126973  0.20763334  0.03471570  1
  O  O57  1  0.88206327  0.96528430  0.79236666  1
  O  O58  1  0.94079312  0.88130140  0.38259608  1
  O  O59  1  0.00228346  0.63711603  0.66258743  1
