# generated using pymatgen
data_MgH12(ClO5)2
_symmetry_space_group_name_H-M   'P 1'
_cell_length_a   7.46836995
_cell_length_b   7.46836995
_cell_length_c   10.16911468
_cell_angle_alpha   90.00000000
_cell_angle_beta   90.00000000
_cell_angle_gamma   90.00000000
_symmetry_Int_Tables_number   1
_chemical_formula_structural   MgH12(ClO5)2
_chemical_formula_sum   'Mg2 H24 Cl4 O20'
_cell_volume   567.19813046
_cell_formula_units_Z   2
loop_
 _symmetry_equiv_pos_site_id
 _symmetry_equiv_pos_as_xyz
  1  'x, y, z'
loop_
 _atom_site_type_symbol
 _atom_site_label
 _atom_site_symmetry_multiplicity
 _atom_site_fract_x
 _atom_site_fract_y
 _atom_site_fract_z
 _atom_site_occupancy
  Mg  Mg0  1  0.25000000  0.75000000  0.25000000  1
  Mg  Mg1  1  0.75000000  0.25000000  0.75000000  1
  H  H2  1  0.25000000  0.85821307  0.51052630  1
  H  H3  1  0.25000000  0.64178693  0.51052630  1
  H  H4  1  0.85821307  0.25000000  0.01052630  1
  H  H5  1  0.64178693  0.25000000  0.01052630  1
  H  H6  1  0.75000000  0.14178693  0.48947370  1
  H  H7  1  0.75000000  0.35821307  0.48947370  1
  H  H8  1  0.14178693  0.75000000  0.98947370  1
  H  H9  1  0.35821307  0.75000000  0.98947370  1
  H  H10  1  0.94356105  0.55504731  0.30523112  1
  H  H11  1  0.55643895  0.55504731  0.30523112  1
  H  H12  1  0.94356105  0.94495269  0.30523112  1
  H  H13  1  0.55643895  0.94495269  0.30523112  1
  H  H14  1  0.55504731  0.94356105  0.80523112  1
  H  H15  1  0.94495269  0.94356105  0.80523112  1
  H  H16  1  0.55504731  0.55643895  0.80523112  1
  H  H17  1  0.94495269  0.55643895  0.80523112  1
  H  H18  1  0.05643895  0.44495269  0.69476888  1
  H  H19  1  0.44356105  0.44495269  0.69476888  1
  H  H20  1  0.05643895  0.05504731  0.69476888  1
  H  H21  1  0.44356105  0.05504731  0.69476888  1
  H  H22  1  0.44495269  0.05643895  0.19476888  1
  H  H23  1  0.05504731  0.05643895  0.19476888  1
  H  H24  1  0.44495269  0.44356105  0.19476888  1
  H  H25  1  0.05504731  0.44356105  0.19476888  1
  Cl  Cl26  1  0.75000000  0.75000000  0.99063888  1
  Cl  Cl27  1  0.75000000  0.75000000  0.49063888  1
  Cl  Cl28  1  0.25000000  0.25000000  0.00936112  1
  Cl  Cl29  1  0.25000000  0.25000000  0.50936112  1
  O  O30  1  0.92374209  0.75000000  0.89965624  1
  O  O31  1  0.57625791  0.75000000  0.89965624  1
  O  O32  1  0.75000000  0.92374209  0.39965624  1
  O  O33  1  0.75000000  0.57625791  0.39965624  1
  O  O34  1  0.07625791  0.25000000  0.10034376  1
  O  O35  1  0.42374209  0.25000000  0.10034376  1
  O  O36  1  0.25000000  0.07625791  0.60034376  1
  O  O37  1  0.25000000  0.42374209  0.60034376  1
  O  O38  1  0.25000000  0.75000000  0.45569753  1
  O  O39  1  0.75000000  0.25000000  0.95569753  1
  O  O40  1  0.75000000  0.25000000  0.54430247  1
  O  O41  1  0.25000000  0.75000000  0.04430247  1
  O  O42  1  0.05328517  0.55328517  0.25000000  1
  O  O43  1  0.44671483  0.55328517  0.25000000  1
  O  O44  1  0.05328517  0.94671483  0.25000000  1
  O  O45  1  0.44671483  0.94671483  0.25000000  1
  O  O46  1  0.55328517  0.05328517  0.75000000  1
  O  O47  1  0.94671483  0.05328517  0.75000000  1
  O  O48  1  0.55328517  0.44671483  0.75000000  1
  O  O49  1  0.94671483  0.44671483  0.75000000  1
