# generated using pymatgen
data_Fe7O8
_symmetry_space_group_name_H-M   'P 1'
_cell_length_a   6.16343050
_cell_length_b   6.18627939
_cell_length_c   10.74315027
_cell_angle_alpha   106.37178584
_cell_angle_beta   90.07098093
_cell_angle_gamma   59.06086349
_symmetry_Int_Tables_number   1
_chemical_formula_structural   Fe7O8
_chemical_formula_sum   'Fe14 O16'
_cell_volume   331.91562087
_cell_formula_units_Z   2
loop_
 _symmetry_equiv_pos_site_id
 _symmetry_equiv_pos_as_xyz
  1  'x, y, z'
loop_
 _atom_site_type_symbol
 _atom_site_label
 _atom_site_symmetry_multiplicity
 _atom_site_fract_x
 _atom_site_fract_y
 _atom_site_fract_z
 _atom_site_occupancy
  Fe  Fe0  1  0.74943949  0.50006100  0.24997398  1
  Fe  Fe1  1  0.25035474  0.50003105  0.75021131  1
  Fe  Fe2  1  0.99682988  0.50873240  -0.00159837  1
  Fe  Fe3  1  0.50363039  0.49081571  0.50164657  1
  Fe  Fe4  1  0.24997032  0.00026988  0.24973388  1
  Fe  Fe5  1  0.74979435  0.00010153  0.75044164  1
  Fe  Fe6  1  0.74999336  -0.00010239  0.24993741  1
  Fe  Fe7  1  0.25028816  -0.00032658  0.74919689  1
  Fe  Fe8  1  0.49074179  0.00109811  -0.00002114  1
  Fe  Fe9  1  0.01024115  0.99818758  0.49981966  1
  Fe  Fe10  1  0.50459276  0.49355911  0.00177059  1
  Fe  Fe11  1  0.99518409  0.50639873  0.49810866  1
  Fe  Fe12  1  0.24987259  0.49930383  0.24951695  1
  Fe  Fe13  1  0.74973266  0.50066643  0.75062574  1
  O  O14  1  0.13368283  0.76114972  0.63235184  1
  O  O15  1  0.63096912  0.76429158  0.13119100  1
  O  O16  1  0.36611464  0.23858712  0.86806964  1
  O  O17  1  0.86906136  0.23601716  0.36869160  1
  O  O18  1  0.87332919  0.26193878  0.86617262  1
  O  O19  1  0.36811971  0.26172445  0.36599803  1
  O  O20  1  0.65240229  0.25603980  0.62973132  1
  O  O21  1  0.13883783  0.26644195  0.13089903  1
  O  O22  1  0.11306370  0.26331455  0.64215095  1
  O  O23  1  0.61339983  0.25660780  0.14144282  1
  O  O24  1  0.38658803  0.73820156  0.85871148  1
  O  O25  1  0.88628853  0.74250454  0.35793325  1
  O  O26  1  0.85085613  0.74334474  0.87022097  1
  O  O27  1  0.35820283  0.73420860  0.36917074  1
  O  O28  1  0.62634319  0.73847532  0.63375076  1
  O  O29  1  0.13207506  0.73835594  0.13415017  1
