# generated using pymatgen
data_VH20C2S2N6O13
_symmetry_space_group_name_H-M   'P 1'
_cell_length_a   7.39776057
_cell_length_b   12.48422842
_cell_length_c   19.49368120
_cell_angle_alpha   106.68559606
_cell_angle_beta   94.23130917
_cell_angle_gamma   90.07504479
_symmetry_Int_Tables_number   1
_chemical_formula_structural   VH20C2S2N6O13
_chemical_formula_sum   'V4 H80 C8 S8 N24 O52'
_cell_volume   1719.36389869
_cell_formula_units_Z   4
loop_
 _symmetry_equiv_pos_site_id
 _symmetry_equiv_pos_as_xyz
  1  'x, y, z'
loop_
 _atom_site_type_symbol
 _atom_site_label
 _atom_site_symmetry_multiplicity
 _atom_site_fract_x
 _atom_site_fract_y
 _atom_site_fract_z
 _atom_site_occupancy
  V  V0  1  0.44289146  0.60512614  0.79198496  1
  V  V1  1  0.55710854  0.39487386  0.20801504  1
  V  V2  1  0.97546518  0.10341356  0.79039513  1
  V  V3  1  0.02453482  0.89658644  0.20960487  1
  H  H4  1  0.39151192  0.38902713  0.77957872  1
  H  H5  1  0.60848808  0.61097287  0.22042128  1
  H  H6  1  0.19578958  0.42654186  0.74911101  1
  H  H7  1  0.80421042  0.57345814  0.25088899  1
  H  H8  1  0.49785608  0.79769504  0.75580975  1
  H  H9  1  0.50214392  0.20230496  0.24419025  1
  H  H10  1  0.69631049  0.75383025  0.78170234  1
  H  H11  1  0.30368951  0.24616975  0.21829766  1
  H  H12  1  0.79062113  0.54922697  0.79246646  1
  H  H13  1  0.20937887  0.45077303  0.20753354  1
  H  H14  1  0.70095113  0.48584632  0.71254806  1
  H  H15  1  0.29904887  0.51415368  0.28745194  1
  H  H16  1  0.29675175  0.51204774  0.65012637  1
  H  H17  1  0.70324825  0.48795226  0.34987363  1
  H  H18  1  0.38995558  0.62772384  0.65013633  1
  H  H19  1  0.61004442  0.37227616  0.34986367  1
  H  H20  1  0.97723478  0.12600686  0.64891114  1
  H  H21  1  0.02276522  0.87399314  0.35108886  1
  H  H22  1  0.07058402  0.01056569  0.64886341  1
  H  H23  1  0.92941598  0.98943431  0.35113659  1
  H  H24  1  0.20602792  0.92481881  0.74818961  1
  H  H25  1  0.79397208  0.07518119  0.25181039  1
  H  H26  1  0.02157638  0.88744063  0.77867528  1
  H  H27  1  0.97842362  0.11255937  0.22132472  1
  H  H28  1  0.68660073  0.98401508  0.71192442  1
  H  H29  1  0.31339927  0.01598492  0.28807558  1
  H  H30  1  0.62595969  0.04934777  0.79151048  1
  H  H31  1  0.37404031  0.95065223  0.20848952  1
  H  H32  1  0.71843878  0.25208251  0.78032078  1
  H  H33  1  0.28156122  0.74791749  0.21967922  1
  H  H34  1  0.90741051  0.29676118  0.75547169  1
  H  H35  1  0.09258949  0.70323882  0.24452831  1
  H  H36  1  0.74260241  0.53962822  0.58527002  1
  H  H37  1  0.25739759  0.46037178  0.41472998  1
  H  H38  1  0.61771885  0.65584580  0.57752200  1
  H  H39  1  0.38228115  0.34415420  0.42247800  1
  H  H40  1  0.77143897  0.82187670  0.58326653  1
  H  H41  1  0.22856103  0.17812330  0.41673347  1
  H  H42  1  0.00399662  0.81846251  0.57080845  1
  H  H43  1  0.99600338  0.18153749  0.42919155  1
  H  H44  1  0.16786251  0.66072135  0.56969100  1
  H  H45  1  0.83213749  0.33927865  0.43030900  1
  H  H46  1  0.05277914  0.53694603  0.56911644  1
  H  H47  1  0.94722086  0.46305397  0.43088356  1
  H  H48  1  0.34667582  0.44403671  0.04364812  1
  H  H49  1  0.65332418  0.55596329  0.95635188  1
  H  H50  1  0.36709262  0.57774176  0.10190405  1
  H  H51  1  0.63290738  0.42225824  0.89809595  1
  H  H52  1  0.21439423  0.41936458  0.92477459  1
  H  H53  1  0.78560577  0.58063542  0.07522541  1
  H  H54  1  0.10377601  0.53315549  0.90397822  1
  H  H55  1  0.89622399  0.46684451  0.09602178  1
  H  H56  1  0.21494430  0.72695926  0.07362775  1
  H  H57  1  0.78505570  0.27304074  0.92637225  1
  H  H58  1  0.15595956  0.71275108  0.98318024  1
  H  H59  1  0.84404044  0.28724892  0.01681976  1
  H  H60  1  0.72013632  0.15582479  0.57822230  1
  H  H61  1  0.27986368  0.84417521  0.42177770  1
  H  H62  1  0.59706114  0.03670957  0.58132519  1
  H  H63  1  0.40293886  0.96329043  0.41867481  1
  H  H64  1  0.28280311  0.03694656  0.56876496  1
  H  H65  1  0.71719689  0.96305344  0.43123504  1
  H  H66  1  0.16701931  0.15906137  0.56613591  1
  H  H67  1  0.83298069  0.84093863  0.43386409  1
  H  H68  1  0.33324231  0.31824838  0.57361641  1
  H  H69  1  0.66675769  0.68175162  0.42638359  1
  H  H70  1  0.57207035  0.31953996  0.58059273  1
  H  H71  1  0.42792965  0.68046004  0.41940727  1
  H  H72  1  0.81313537  0.06186644  0.95669023  1
  H  H73  1  0.18686463  0.93813356  0.04330977  1
  H  H74  1  0.82570262  0.92804509  0.89878522  1
  H  H75  1  0.17429738  0.07195491  0.10121478  1
  H  H76  1  0.74600512  0.08167038  0.07709634  1
  H  H77  1  0.25399488  0.91832962  0.92290366  1
  H  H78  1  0.63882496  0.96782873  0.09612407  1
  H  H79  1  0.36117504  0.03217127  0.90387593  1
  H  H80  1  0.67006713  0.78868181  0.01751733  1
  H  H81  1  0.32993287  0.21131819  0.98248267  1
  H  H82  1  0.68542305  0.77568083  0.92634733  1
  H  H83  1  0.31457695  0.22431917  0.07365267  1
  C  C84  1  0.88992748  0.66907621  0.56962458  1
  C  C85  1  0.11007252  0.33092379  0.43037542  1
  C  C86  1  0.22651168  0.56718245  0.00579016  1
  C  C87  1  0.77348832  0.43281755  0.99420984  1
  C  C88  1  0.44517224  0.16836636  0.56841012  1
  C  C89  1  0.55482776  0.83163364  0.43158988  1
  C  C90  1  0.72431478  0.93523631  0.99484881  1
  C  C91  1  0.27568522  0.06476369  0.00515119  1
  S  S92  1  0.39573761  0.85634033  0.63437689  1
  S  S93  1  0.60426239  0.14365967  0.36562311  1
  S  S94  1  0.96426936  0.35710444  0.63522146  1
  S  S95  1  0.03573064  0.64289556  0.36477854  1
  S  S96  1  0.05599525  0.71437818  0.83905381  1
  S  S97  1  0.94400475  0.28562182  0.16094619  1
  S  S98  1  0.38101502  0.21455470  0.83859667  1
  S  S99  1  0.61898498  0.78544530  0.16140333  1
  N  N100  1  0.73648270  0.61311152  0.57169409  1
  N  N101  1  0.26351730  0.38688848  0.42830591  1
  N  N102  1  0.88440017  0.77599804  0.56854612  1
  N  N103  1  0.11559983  0.22400196  0.43145388  1
  N  N104  1  0.04818381  0.61651677  0.56481524  1
  N  N105  1  0.95181619  0.38348323  0.43518476  1
  N  N106  1  0.30719590  0.52430050  0.05591721  1
  N  N107  1  0.69280410  0.47569950  0.94408279  1
  N  N108  1  0.17473875  0.50061500  0.94039076  1
  N  N109  1  0.82526125  0.49938500  0.05960924  1
  N  N110  1  0.19390483  0.67625535  0.02265982  1
  N  N111  1  0.80609517  0.32374465  0.97734018  1
  N  N112  1  0.59887248  0.11300632  0.57192385  1
  N  N113  1  0.40112752  0.88699368  0.42807615  1
  N  N114  1  0.28460825  0.11483486  0.56157729  1
  N  N115  1  0.71539175  0.88516514  0.43842271  1
  N  N116  1  0.45115481  0.27525417  0.56808748  1
  N  N117  1  0.54884519  0.72474583  0.43191252  1
  N  N118  1  0.78298961  0.97874932  0.94501415  1
  N  N119  1  0.21701039  0.02125068  0.05498585  1
  N  N120  1  0.69635216  0.00048508  0.06038203  1
  N  N121  1  0.30364784  0.99951492  0.93961797  1
  N  N122  1  0.68907779  0.82521422  0.97784028  1
  N  N123  1  0.31092221  0.17478578  0.02215972  1
  O  O124  1  0.49300716  0.63055085  0.87803557  1
  O  O125  1  0.50699284  0.36944915  0.12196443  1
  O  O126  1  0.32307283  0.45240293  0.76971160  1
  O  O127  1  0.67692717  0.54759707  0.23028840  1
  O  O128  1  0.56202144  0.74613717  0.78013513  1
  O  O129  1  0.43797856  0.25386283  0.21986487  1
  O  O130  1  0.67506755  0.51676629  0.76339131  1
  O  O131  1  0.32493245  0.48323371  0.23660869  1
  O  O132  1  0.40289951  0.56282412  0.66947643  1
  O  O133  1  0.59710049  0.43717588  0.33052357  1
  O  O134  1  0.95727048  0.12885450  0.87625110  1
  O  O135  1  0.04272952  0.87114550  0.12374890  1
  O  O136  1  0.97137661  0.06079858  0.66794342  1
  O  O137  1  0.02862339  0.93920142  0.33205658  1
  O  O138  1  0.08648887  0.95058338  0.76864165  1
  O  O139  1  0.91351113  0.04941662  0.23135835  1
  O  O140  1  0.73086500  0.01671228  0.76277552  1
  O  O141  1  0.26913500  0.98328772  0.23722448  1
  O  O142  1  0.85193773  0.24425325  0.77901809  1
  O  O143  1  0.14806227  0.75574675  0.22098191  1
  O  O144  1  0.39643160  0.73283171  0.59932598  1
  O  O145  1  0.60356840  0.26716829  0.40067402  1
  O  O146  1  0.56902806  0.90915301  0.62389338  1
  O  O147  1  0.43097194  0.09084699  0.37610662  1
  O  O148  1  0.38232109  0.87664419  0.71372614  1
  O  O149  1  0.61767891  0.12335581  0.28627386  1
  O  O150  1  0.23748630  0.90624389  0.60380738  1
  O  O151  1  0.76251370  0.09375611  0.39619262  1
  O  O152  1  0.78843561  0.41050602  0.62376218  1
  O  O153  1  0.21156439  0.58949398  0.37623782  1
  O  O154  1  0.11408484  0.40720415  0.60646054  1
  O  O155  1  0.88591516  0.59279585  0.39353946  1
  O  O156  1  0.00559133  0.37629772  0.71465729  1
  O  O157  1  0.99440867  0.62370228  0.28534271  1
  O  O158  1  0.94840690  0.23376723  0.59928693  1
  O  O159  1  0.05159310  0.76623277  0.40071307  1
  O  O160  1  0.13474191  0.78305381  0.90946577  1
  O  O161  1  0.86525809  0.21694619  0.09053423  1
  O  O162  1  0.96311278  0.61320251  0.84635549  1
  O  O163  1  0.03688722  0.38679749  0.15364451  1
  O  O164  1  0.92576195  0.78060033  0.80548850  1
  O  O165  1  0.07423805  0.21939967  0.19451150  1
  O  O166  1  0.20389930  0.68090997  0.78752173  1
  O  O167  1  0.79610070  0.31909003  0.21247827  1
  O  O168  1  0.32859532  0.28231042  0.90913735  1
  O  O169  1  0.67140468  0.71768958  0.09086265  1
  O  O170  1  0.47889681  0.11416459  0.84594358  1
  O  O171  1  0.52110319  0.88583541  0.15405642  1
  O  O172  1  0.49719870  0.28222698  0.80557215  1
  O  O173  1  0.50280130  0.71777302  0.19442785  1
  O  O174  1  0.21401107  0.17951689  0.78678840  1
  O  O175  1  0.78598893  0.82048311  0.21321160  1
