# generated using pymatgen
data_Na3BiO4
_symmetry_space_group_name_H-M   'P 1'
_cell_length_a   5.83405844
_cell_length_b   3.35388725
_cell_length_c   5.83780643
_cell_angle_alpha   89.99998866
_cell_angle_beta   71.62247667
_cell_angle_gamma   90.00000292
_symmetry_Int_Tables_number   1
_chemical_formula_structural   Na3BiO4
_chemical_formula_sum   'Na3 Bi1 O4'
_cell_volume   108.40143444
_cell_formula_units_Z   1
loop_
 _symmetry_equiv_pos_site_id
 _symmetry_equiv_pos_as_xyz
  1  'x, y, z'
loop_
 _atom_site_type_symbol
 _atom_site_label
 _atom_site_symmetry_multiplicity
 _atom_site_fract_x
 _atom_site_fract_y
 _atom_site_fract_z
 _atom_site_occupancy
  Na  Na0  1  0.50000000  0.00000000  0.50000000  1
  Na  Na1  1  0.00000000  0.50000000  0.50000000  1
  Na  Na2  1  0.00000000  0.00000000  0.00000000  1
  Bi  Bi3  1  0.50000000  0.50000000  0.00000000  1
  O  O4  1  0.72184660  1.00000000  0.77837914  1
  O  O5  1  0.28088541  0.50000000  0.78091358  1
  O  O6  1  0.27815340  0.00000000  0.22162086  1
  O  O7  1  0.71911459  0.50000000  0.21908642  1
