# generated using pymatgen
data_K2In2P2HO10
_symmetry_space_group_name_H-M   'P 1'
_cell_length_a   9.44767972
_cell_length_b   9.53041348
_cell_length_c   11.31399742
_cell_angle_alpha   90.00015105
_cell_angle_beta   89.99969136
_cell_angle_gamma   89.99996661
_symmetry_Int_Tables_number   1
_chemical_formula_structural   K2In2P2HO10
_chemical_formula_sum   'K8 In8 P8 H4 O40'
_cell_volume   1018.71565579
_cell_formula_units_Z   4
loop_
 _symmetry_equiv_pos_site_id
 _symmetry_equiv_pos_as_xyz
  1  'x, y, z'
loop_
 _atom_site_type_symbol
 _atom_site_label
 _atom_site_symmetry_multiplicity
 _atom_site_fract_x
 _atom_site_fract_y
 _atom_site_fract_z
 _atom_site_occupancy
  K  K0  1  0.98461801  0.97393548  0.40551124  1
  K  K1  1  0.51544567  0.02608891  0.90549553  1
  K  K2  1  0.48458868  0.52608173  0.59449562  1
  K  K3  1  0.01541724  0.47391964  0.09449952  1
  K  K4  1  0.25990498  0.63096397  0.33514545  1
  K  K5  1  0.24009772  0.36903161  0.83514138  1
  K  K6  1  0.75989795  0.86903096  0.66484977  1
  K  K7  1  0.74009302  0.13096338  0.16486415  1
  In  In8  1  0.85428396  0.60723730  0.37972814  1
  In  In9  1  0.64570959  0.39276023  0.87972830  1
  In  In10  1  0.35430018  0.89275780  0.62027628  1
  In  In11  1  0.14571231  0.10723421  0.12026915  1
  In  In12  1  0.60152273  0.65500692  0.12085396  1
  In  In13  1  0.89845696  0.34500844  0.62083739  1
  In  In14  1  0.10152583  0.84499140  0.87914463  1
  In  In15  1  0.39846190  0.15499830  0.37915858  1
  P  P16  1  0.06789118  0.65979270  0.62340209  1
  P  P17  1  0.43210234  0.34020216  0.12340422  1
  P  P18  1  0.56789530  0.84020693  0.37659609  1
  P  P19  1  0.93210853  0.15979564  0.87659605  1
  P  P20  1  0.92072313  0.81253293  0.13310249  1
  P  P21  1  0.57927673  0.18747278  0.63310743  1
  P  P22  1  0.42072298  0.68746420  0.86690123  1
  P  P23  1  0.07927245  0.31253013  0.36688910  1
  H  H24  1  0.66742420  0.43365686  0.26295680  1
  H  H25  1  0.83257730  0.56634365  0.76294148  1
  H  H26  1  0.16742417  0.06634333  0.73704853  1
  H  H27  1  0.33257631  0.93365853  0.23705337  1
  O  O28  1  0.97174056  0.71064629  0.51953791  1
  O  O29  1  0.52826264  0.28935004  0.01954830  1
  O  O30  1  0.47174790  0.78934578  0.48046025  1
  O  O31  1  0.02826740  0.21064307  0.98045468  1
  O  O32  1  0.50224676  0.77174819  0.26336911  1
  O  O33  1  0.99773941  0.22825832  0.76336145  1
  O  O34  1  0.00223988  0.72824904  0.73663066  1
  O  O35  1  0.49773584  0.27174120  0.23663826  1
  O  O36  1  0.42927828  0.50203530  0.13622902  1
  O  O37  1  0.07071851  0.49795884  0.63622594  1
  O  O38  1  0.92928089  0.99796047  0.86377608  1
  O  O39  1  0.57071928  0.00203874  0.36377066  1
  O  O40  1  0.75761741  0.82097012  0.12009162  1
  O  O41  1  0.74238539  0.17902498  0.62008899  1
  O  O42  1  0.25761514  0.67902617  0.87990769  1
  O  O43  1  0.24237840  0.32097583  0.37990998  1
  O  O44  1  0.72584176  0.51412704  0.24090018  1
  O  O45  1  0.77415467  0.48587596  0.74089615  1
  O  O46  1  0.22583846  0.98587013  0.75910290  1
  O  O47  1  0.27415053  0.01412550  0.25909927  1
  O  O48  1  0.75953399  0.47206771  0.50867949  1
  O  O49  1  0.74043157  0.52793697  0.00868424  1
  O  O50  1  0.25957767  0.02792891  0.49132735  1
  O  O51  1  0.24046256  0.97206182  0.99130714  1
  O  O52  1  0.49157289  0.75393249  0.97736661  1
  O  O53  1  0.00843507  0.24606688  0.47736887  1
  O  O54  1  0.99157461  0.74607080  0.02263233  1
  O  O55  1  0.50843909  0.25393931  0.52263175  1
  O  O56  1  0.96650192  0.72072911  0.24099331  1
  O  O57  1  0.53349420  0.27927842  0.74099107  1
  O  O58  1  0.46650319  0.77927115  0.75901030  1
  O  O59  1  0.03348806  0.22072718  0.25900714  1
  O  O60  1  0.02953288  0.46499445  0.34424660  1
  O  O61  1  0.47046258  0.53500626  0.84424024  1
  O  O62  1  0.52953845  0.03501196  0.65575838  1
  O  O63  1  0.97045970  0.96499508  0.15575688  1
  O  O64  1  0.72133922  0.79243132  0.40305410  1
  O  O65  1  0.77866716  0.20756841  0.90305542  1
  O  O66  1  0.22133355  0.70757256  0.59694498  1
  O  O67  1  0.27866114  0.29242809  0.09694673  1
