# generated using pymatgen
data_Ba2GeO4
_symmetry_space_group_name_H-M   'P 1'
_cell_length_a   5.68416955
_cell_length_b   12.82225664
_cell_length_c   7.85844187
_cell_angle_alpha   90.00000000
_cell_angle_beta   90.00000000
_cell_angle_gamma   90.00000000
_symmetry_Int_Tables_number   1
_chemical_formula_structural   Ba2GeO4
_chemical_formula_sum   'Ba8 Ge4 O16'
_cell_volume   572.75374018
_cell_formula_units_Z   4
loop_
 _symmetry_equiv_pos_site_id
 _symmetry_equiv_pos_as_xyz
  1  'x, y, z'
loop_
 _atom_site_type_symbol
 _atom_site_label
 _atom_site_symmetry_multiplicity
 _atom_site_fract_x
 _atom_site_fract_y
 _atom_site_fract_z
 _atom_site_occupancy
  Ba  Ba0  1  0.00000000  0.00000000  0.00000000  1
  Ba  Ba1  1  0.00000000  0.00000000  0.50000000  1
  Ba  Ba2  1  0.01429734  0.71556037  0.75000000  1
  Ba  Ba3  1  0.48570266  0.21556037  0.75000000  1
  Ba  Ba4  1  0.50000000  0.50000000  0.00000000  1
  Ba  Ba5  1  0.50000000  0.50000000  0.50000000  1
  Ba  Ba6  1  0.51429734  0.78443963  0.25000000  1
  Ba  Ba7  1  0.98570266  0.28443963  0.25000000  1
  Ge  Ge8  1  0.07084055  0.59973948  0.25000000  1
  Ge  Ge9  1  0.42915945  0.09973948  0.25000000  1
  Ge  Ge10  1  0.57084055  0.90026052  0.75000000  1
  Ge  Ge11  1  0.92915945  0.40026052  0.75000000  1
  O  O12  1  0.19098381  0.46930419  0.25000000  1
  O  O13  1  0.19649509  0.66345014  0.06776741  1
  O  O14  1  0.19649509  0.66345014  0.43223259  1
  O  O15  1  0.25779329  0.90513337  0.75000000  1
  O  O16  1  0.24220671  0.40513337  0.75000000  1
  O  O17  1  0.30350491  0.16345014  0.06776741  1
  O  O18  1  0.30350491  0.16345014  0.43223259  1
  O  O19  1  0.30901619  0.96930419  0.25000000  1
  O  O20  1  0.69098381  0.03069581  0.75000000  1
  O  O21  1  0.69649509  0.83654986  0.56776741  1
  O  O22  1  0.69649509  0.83654986  0.93223259  1
  O  O23  1  0.75779329  0.59486663  0.25000000  1
  O  O24  1  0.74220671  0.09486663  0.25000000  1
  O  O25  1  0.80350491  0.33654986  0.56776741  1
  O  O26  1  0.80350491  0.33654986  0.93223259  1
  O  O27  1  0.80901619  0.53069581  0.75000000  1
