# generated using pymatgen
data_CaB2(HO)8
_symmetry_space_group_name_H-M   'P 1'
_cell_length_a   7.81583947
_cell_length_b   5.67224644
_cell_length_c   8.46411670
_cell_angle_alpha   113.27887351
_cell_angle_beta   101.70551283
_cell_angle_gamma   108.18437227
_symmetry_Int_Tables_number   1
_chemical_formula_structural   CaB2(HO)8
_chemical_formula_sum   'Ca2 B4 H16 O16'
_cell_volume   303.74155306
_cell_formula_units_Z   2
loop_
 _symmetry_equiv_pos_site_id
 _symmetry_equiv_pos_as_xyz
  1  'x, y, z'
loop_
 _atom_site_type_symbol
 _atom_site_label
 _atom_site_symmetry_multiplicity
 _atom_site_fract_x
 _atom_site_fract_y
 _atom_site_fract_z
 _atom_site_occupancy
  Ca  Ca0  1  0.77047003  0.98519732  0.82138487  1
  Ca  Ca1  1  0.22952997  0.01480268  0.17861513  1
  B  B2  1  0.97497098  0.59717046  0.76945507  1
  B  B3  1  0.02502902  0.40282954  0.23054493  1
  B  B4  1  0.56742521  0.67788720  0.28065715  1
  B  B5  1  0.43257479  0.32211280  0.71934285  1
  H  H6  1  0.94767467  0.73480017  0.29862995  1
  H  H7  1  0.05232533  0.26519983  0.70137005  1
  H  H8  1  0.79642171  0.55353907  0.92033709  1
  H  H9  1  0.20357829  0.44646093  0.07966291  1
  H  H10  1  0.74694467  0.48735141  0.54713457  1
  H  H11  1  0.25305533  0.51264859  0.45286543  1
  H  H12  1  0.20727703  0.92250626  0.79622836  1
  H  H13  1  0.79272297  0.07749374  0.20377164  1
  H  H14  1  0.83425631  0.01017299  0.43179611  1
  H  H15  1  0.16574369  0.98982701  0.56820389  1
  H  H16  1  0.45664070  0.70576188  0.05045743  1
  H  H17  1  0.54335930  0.29423812  0.94954257  1
  H  H18  1  0.40038696  0.02160375  0.48068917  1
  H  H19  1  0.59961304  0.97839625  0.51931083  1
  H  H20  1  0.36581506  0.66780108  0.80142621  1
  H  H21  1  0.63418494  0.33219892  0.19857379  1
  O  O22  1  0.93107769  0.29183466  0.69441916  1
  O  O23  1  0.06892231  0.70816534  0.30558084  1
  O  O24  1  0.91749626  0.70140334  0.93523783  1
  O  O25  1  0.08250374  0.29859666  0.06476217  1
  O  O26  1  0.87064264  0.65348491  0.63217227  1
  O  O27  1  0.12935736  0.34651509  0.36782773  1
  O  O28  1  0.81336921  0.21822855  0.15858623  1
  O  O29  1  0.18663079  0.78177145  0.84141377  1
  O  O30  1  0.76731607  0.84994572  0.30281992  1
  O  O31  1  0.23268393  0.15005428  0.69718008  1
  O  O32  1  0.57397274  0.26921187  0.83756597  1
  O  O33  1  0.42602726  0.73078813  0.16243403  1
  O  O34  1  0.54743319  0.77038834  0.46345001  1
  O  O35  1  0.45256681  0.22961166  0.53654999  1
  O  O36  1  0.51757241  0.37072174  0.18696455  1
  O  O37  1  0.48242759  0.62927826  0.81303545  1
