# generated using pymatgen
data_Ba2La4Mn5SnO18
_symmetry_space_group_name_H-M   'P 1'
_cell_length_a   5.62074541
_cell_length_b   16.96576063
_cell_length_c   14.92071843
_cell_angle_alpha   19.19940352
_cell_angle_beta   56.08152147
_cell_angle_gamma   60.63028542
_symmetry_Int_Tables_number   1
_chemical_formula_structural   Ba2La4Mn5SnO18
_chemical_formula_sum   'Ba2 La4 Mn5 Sn1 O18'
_cell_volume   384.79314442
_cell_formula_units_Z   1
loop_
 _symmetry_equiv_pos_site_id
 _symmetry_equiv_pos_as_xyz
  1  'x, y, z'
loop_
 _atom_site_type_symbol
 _atom_site_label
 _atom_site_symmetry_multiplicity
 _atom_site_fract_x
 _atom_site_fract_y
 _atom_site_fract_z
 _atom_site_occupancy
  Ba  Ba0  1  0.75727515  0.08399928  0.74294003  1
  Ba  Ba1  1  0.74374098  0.41085726  0.76154152  1
  La  La2  1  0.25015548  0.25142287  0.24824103  1
  La  La3  1  0.26686673  0.58997703  0.23011464  1
  La  La4  1  0.23131062  0.90522643  0.27574154  1
  La  La5  1  0.74937065  0.75787830  0.74195150  1
  Mn  Mn6  1  0.99517534  0.33318597  0.00398422  1
  Mn  Mn7  1  0.00552695  0.66732175  0.99564486  1
  Mn  Mn8  1  0.50925457  0.16904241  0.49087697  1
  Mn  Mn9  1  0.50130188  0.49716712  0.50212188  1
  Mn  Mn10  1  0.48912920  0.83200802  0.50833947  1
  Sn  Sn11  1  0.99875150  0.99892250  0.00110728  1
  O  O12  1  0.26850954  0.09523306  0.23358262  1
  O  O13  1  0.31109487  0.45260571  0.18887423  1
  O  O14  1  0.79987425  0.05234814  0.27088087  1
  O  O15  1  0.25220259  0.15458574  0.67504334  1
  O  O16  1  0.75306935  0.19414991  0.30351041  1
  O  O17  1  0.22068322  0.27139571  0.73870491  1
  O  O18  1  0.29329469  0.76931108  0.22006078  1
  O  O19  1  0.81590818  0.41050844  0.22511927  1
  O  O20  1  0.23853964  0.48372265  0.69236959  1
  O  O21  1  0.76652576  0.55619470  0.26727786  1
  O  O22  1  0.18823047  0.59732878  0.76156196  1
  O  O23  1  0.66677698  0.20180292  0.82464825  1
  O  O24  1  0.82267921  0.71605928  0.25789988  1
  O  O25  1  0.25161215  0.81552708  0.68394935  1
  O  O26  1  0.73756810  0.88040970  0.29317774  1
  O  O27  1  0.23401269  0.92493514  0.74628501  1
  O  O28  1  0.68080995  0.55039868  0.81444290  1
  O  O29  1  0.70074932  0.87647435  0.80000612  1
