# generated using pymatgen
data_Ba2Sb2O7
_symmetry_space_group_name_H-M   'P 1'
_cell_length_a   7.77424797
_cell_length_b   7.77424797
_cell_length_c   7.77424797
_cell_angle_alpha   119.84927215
_cell_angle_beta   92.46730573
_cell_angle_gamma   117.33747566
_symmetry_Int_Tables_number   1
_chemical_formula_structural   Ba2Sb2O7
_chemical_formula_sum   'Ba4 Sb4 O14'
_cell_volume   338.77698797
_cell_formula_units_Z   2
loop_
 _symmetry_equiv_pos_site_id
 _symmetry_equiv_pos_as_xyz
  1  'x, y, z'
loop_
 _atom_site_type_symbol
 _atom_site_label
 _atom_site_symmetry_multiplicity
 _atom_site_fract_x
 _atom_site_fract_y
 _atom_site_fract_z
 _atom_site_occupancy
  Ba  Ba0  1  0.00000000  0.00000000  0.00000000  1
  Ba  Ba1  1  0.50000000  0.00000000  0.50000000  1
  Ba  Ba2  1  0.00000000  0.50000000  0.00000000  1
  Ba  Ba3  1  0.00000000  0.00000000  0.50000000  1
  Sb  Sb4  1  0.50000000  0.00000000  0.00000000  1
  Sb  Sb5  1  0.50000000  0.50000000  0.00000000  1
  Sb  Sb6  1  0.50000000  0.50000000  0.50000000  1
  Sb  Sb7  1  0.00000000  0.50000000  0.50000000  1
  O  O8  1  0.80579184  0.22742918  0.18167026  1
  O  O9  1  0.40455817  0.15455817  0.25000000  1
  O  O10  1  0.88056199  0.29246802  0.58809397  1
  O  O11  1  0.79562495  0.70753198  0.08809397  1
  O  O12  1  0.54575892  0.62412158  0.31832974  1
  O  O13  1  0.45424108  0.77257082  0.07836265  1
  O  O14  1  0.80579184  0.62412158  0.57836265  1
  O  O15  1  0.19420816  0.37587842  0.42163735  1
  O  O16  1  0.45424108  0.37587842  0.68167026  1
  O  O17  1  0.54575892  0.22742918  0.92163735  1
  O  O18  1  0.11943801  0.70753198  0.41190603  1
  O  O19  1  0.20437505  0.29246802  0.91190603  1
  O  O20  1  0.59544183  0.84544183  0.75000000  1
  O  O21  1  0.19420816  0.77257082  0.81832974  1
