# generated using pymatgen
data_Yb5Si3
_symmetry_space_group_name_H-M   'P 1'
_cell_length_a   6.46869644
_cell_length_b   8.80917686
_cell_length_c   8.80500256
_cell_angle_alpha   120.01568829
_cell_angle_beta   90.00000000
_cell_angle_gamma   90.00000000
_symmetry_Int_Tables_number   1
_chemical_formula_structural   Yb5Si3
_chemical_formula_sum   'Yb10 Si6'
_cell_volume   434.45374134
_cell_formula_units_Z   2
loop_
 _symmetry_equiv_pos_site_id
 _symmetry_equiv_pos_as_xyz
  1  'x, y, z'
loop_
 _atom_site_type_symbol
 _atom_site_label
 _atom_site_symmetry_multiplicity
 _atom_site_fract_x
 _atom_site_fract_y
 _atom_site_fract_z
 _atom_site_occupancy
  Yb  Yb0  1  0.50000042  0.33331821  0.66663631  1
  Yb  Yb1  1  0.50000042  0.66668189  0.33336369  1
  Yb  Yb2  1  0.00000042  0.66668179  0.33336369  1
  Yb  Yb3  1  0.00000042  0.33331811  0.66663631  1
  Yb  Yb4  1  0.75000599  0.27308545  1.00000000  1
  Yb  Yb5  1  0.74999631  0.72551854  0.72625583  1
  Yb  Yb6  1  0.74999631  0.99926271  0.27374417  1
  Yb  Yb7  1  0.25000599  0.72691455  0.00000000  1
  Yb  Yb8  1  0.24999631  0.27448146  0.27374417  1
  Yb  Yb9  1  0.24999631  0.00073729  0.72625583  1
  Si  Si10  1  0.74999953  0.61224557  0.00000000  1
  Si  Si11  1  0.75000051  0.38653129  0.38665272  1
  Si  Si12  1  0.75000051  -0.00012143  0.61334728  1
  Si  Si13  1  0.24999953  0.38775443  1.00000000  1
  Si  Si14  1  0.25000051  0.61346871  0.61334728  1
  Si  Si15  1  0.25000051  0.00012143  0.38665272  1
