# generated using pymatgen
data_SrLaMnRuO6
_symmetry_space_group_name_H-M   'P 1'
_cell_length_a   5.75514018
_cell_length_b   5.65948378
_cell_length_c   8.01138231
_cell_angle_alpha   90.13416970
_cell_angle_beta   90.00000000
_cell_angle_gamma   90.00000000
_symmetry_Int_Tables_number   1
_chemical_formula_structural   SrLaMnRuO6
_chemical_formula_sum   'Sr2 La2 Mn2 Ru2 O12'
_cell_volume   260.93899899
_cell_formula_units_Z   2
loop_
 _symmetry_equiv_pos_site_id
 _symmetry_equiv_pos_as_xyz
  1  'x, y, z'
loop_
 _atom_site_type_symbol
 _atom_site_label
 _atom_site_symmetry_multiplicity
 _atom_site_fract_x
 _atom_site_fract_y
 _atom_site_fract_z
 _atom_site_occupancy
  Sr  Sr0  1  0.96421907  0.99437365  0.25083435  1
  Sr  Sr1  1  0.53578093  0.49437365  0.75083435  1
  La  La2  1  0.45104144  0.50940983  0.25159424  1
  La  La3  1  0.04895856  0.00940983  0.75159424  1
  Mn  Mn4  1  0.99353252  0.50045368  0.50127589  1
  Mn  Mn5  1  0.50646748  0.00045368  0.00127589  1
  Ru  Ru6  1  0.99809977  0.50054376  0.00008620  1
  Ru  Ru7  1  0.50190023  0.00054376  0.50008620  1
  O  O8  1  0.02684353  0.43205495  0.24154954  1
  O  O9  1  0.22394947  0.79603734  0.45993637  1
  O  O10  1  0.20412068  0.77804503  0.03693003  1
  O  O11  1  0.27605053  0.29603734  0.95993637  1
  O  O12  1  0.29587932  0.27804503  0.53693003  1
  O  O13  1  0.47315647  0.93205495  0.74154954  1
  O  O14  1  0.51587218  0.08955586  0.25855890  1
  O  O15  1  0.69344279  0.71182593  0.45510854  1
  O  O16  1  0.70937670  0.68769998  0.04412595  1
  O  O17  1  0.80655721  0.21182593  0.95510854  1
  O  O18  1  0.79062330  0.18769998  0.54412595  1
  O  O19  1  0.98412782  0.58955586  0.75855890  1
