# generated using pymatgen
data_Li8TiS6
_symmetry_space_group_name_H-M   'P 1'
_cell_length_a   6.72055088
_cell_length_b   7.23144349
_cell_length_c   6.72055047
_cell_angle_alpha   117.68923079
_cell_angle_beta   59.99999932
_cell_angle_gamma   117.68923293
_symmetry_Int_Tables_number   1
_chemical_formula_structural   Li8TiS6
_chemical_formula_sum   'Li8 Ti1 S6'
_cell_volume   238.69123451
_cell_formula_units_Z   1
loop_
 _symmetry_equiv_pos_site_id
 _symmetry_equiv_pos_as_xyz
  1  'x, y, z'
loop_
 _atom_site_type_symbol
 _atom_site_label
 _atom_site_symmetry_multiplicity
 _atom_site_fract_x
 _atom_site_fract_y
 _atom_site_fract_z
 _atom_site_occupancy
  Li  Li0  1  0.10279679  0.35862439  0.48335607  1
  Li  Li1  1  0.51664393  0.64137561  0.22752747  1
  Li  Li2  1  0.22752747  0.64137561  0.89720321  1
  Li  Li3  1  0.34143459  0.02430377  0.34143459  1
  Li  Li4  1  0.65856541  0.97569623  0.65856541  1
  Li  Li5  1  0.77247153  0.35862439  0.10279679  1
  Li  Li6  1  0.48335607  0.35862439  0.77247153  1
  Li  Li7  1  0.89720321  0.64137561  0.51664393  1
  Ti  Ti8  1  0.00000000  0.00000000  0.00000000  1
  S  S9  1  0.23579785  0.76933016  0.62191981  1
  S  S10  1  0.37808019  0.23066984  0.08838751  1
  S  S11  1  0.08838751  0.23066984  0.76420215  1
  S  S12  1  0.91161249  0.76933016  0.23579785  1
  S  S13  1  0.62191981  0.76933016  0.91161249  1
  S  S14  1  0.76420215  0.23066984  0.37808019  1
