# generated using pymatgen
data_Lu(BiO2)3
_symmetry_space_group_name_H-M   'P 1'
_cell_length_a   6.96675954
_cell_length_b   6.96675976
_cell_length_c   6.96675940
_cell_angle_alpha   93.17896788
_cell_angle_beta   93.17896913
_cell_angle_gamma   93.17896371
_symmetry_Int_Tables_number   1
_chemical_formula_structural   Lu(BiO2)3
_chemical_formula_sum   'Lu2 Bi6 O12'
_cell_volume   336.51548557
_cell_formula_units_Z   2
loop_
 _symmetry_equiv_pos_site_id
 _symmetry_equiv_pos_as_xyz
  1  'x, y, z'
loop_
 _atom_site_type_symbol
 _atom_site_label
 _atom_site_symmetry_multiplicity
 _atom_site_fract_x
 _atom_site_fract_y
 _atom_site_fract_z
 _atom_site_occupancy
  Lu  Lu0  1  0.00000000  0.00000000  0.00000000  1
  Lu  Lu1  1  0.50000000  0.50000000  0.50000000  1
  Bi  Bi2  1  0.07149274  0.55410719  0.25063654  1
  Bi  Bi3  1  0.25063654  0.07149274  0.55410719  1
  Bi  Bi4  1  0.44589281  0.74936346  0.92850726  1
  Bi  Bi5  1  0.55410719  0.25063654  0.07149274  1
  Bi  Bi6  1  0.74936346  0.92850726  0.44589281  1
  Bi  Bi7  1  0.92850726  0.44589281  0.74936346  1
  O  O8  1  0.06656567  0.69558076  0.92839724  1
  O  O9  1  0.07160276  0.93343433  0.30441924  1
  O  O10  1  0.19395445  0.40249294  0.52848340  1
  O  O11  1  0.30441924  0.07160276  0.93343433  1
  O  O12  1  0.40249294  0.52848340  0.19395445  1
  O  O13  1  0.47151660  0.80604555  0.59750706  1
  O  O14  1  0.52848340  0.19395445  0.40249294  1
  O  O15  1  0.59750706  0.47151660  0.80604555  1
  O  O16  1  0.69558076  0.92839724  0.06656567  1
  O  O17  1  0.80604555  0.59750706  0.47151660  1
  O  O18  1  0.92839724  0.06656567  0.69558076  1
  O  O19  1  0.93343433  0.30441924  0.07160276  1
