# generated using pymatgen
data_LiAgF4
_symmetry_space_group_name_H-M   'P 1'
_cell_length_a   5.96790898
_cell_length_b   8.44367109
_cell_length_c   7.03082819
_cell_angle_alpha   90.00000000
_cell_angle_beta   105.71167161
_cell_angle_gamma   90.00000000
_symmetry_Int_Tables_number   1
_chemical_formula_structural   LiAgF4
_chemical_formula_sum   'Li4 Ag4 F16'
_cell_volume   341.05337769
_cell_formula_units_Z   4
loop_
 _symmetry_equiv_pos_site_id
 _symmetry_equiv_pos_as_xyz
  1  'x, y, z'
loop_
 _atom_site_type_symbol
 _atom_site_label
 _atom_site_symmetry_multiplicity
 _atom_site_fract_x
 _atom_site_fract_y
 _atom_site_fract_z
 _atom_site_occupancy
  Li  Li0  1  0.20900876  0.50322231  0.84799050  1
  Li  Li1  1  0.29099124  0.00322231  0.65200950  1
  Li  Li2  1  0.70900876  0.99677769  0.34799050  1
  Li  Li3  1  0.79099124  0.49677769  0.15200950  1
  Ag  Ag4  1  0.13937428  0.16360657  0.11171028  1
  Ag  Ag5  1  0.36062572  0.66360657  0.38828972  1
  Ag  Ag6  1  0.63937428  0.33639343  0.61171028  1
  Ag  Ag7  1  0.86062572  0.83639343  0.88828972  1
  F  F8  1  0.02464978  0.98911712  0.75902852  1
  F  F9  1  0.13789047  0.69770564  0.97274358  1
  F  F10  1  0.09790646  0.51642971  0.32400615  1
  F  F11  1  0.29936626  0.29690129  0.96332995  1
  F  F12  1  0.20063374  0.79690129  0.53667005  1
  F  F13  1  0.36210953  0.19770564  0.52725642  1
  F  F14  1  0.47535022  0.48911712  0.74097148  1
  F  F15  1  0.59790646  0.98357029  0.82400615  1
  F  F16  1  0.40209354  0.01642971  0.17599385  1
  F  F17  1  0.52464978  0.51088288  0.25902852  1
  F  F18  1  0.63789047  0.80229436  0.47274358  1
  F  F19  1  0.79936626  0.20309871  0.46332995  1
  F  F20  1  0.70063374  0.70309871  0.03667005  1
  F  F21  1  0.90209354  0.48357029  0.67599385  1
  F  F22  1  0.86210953  0.30229436  0.02725642  1
  F  F23  1  0.97535022  0.01088288  0.24097148  1
