# generated using pymatgen
data_SmAsO4
_symmetry_space_group_name_H-M   'P 1'
_cell_length_a   6.94055448
_cell_length_b   7.11763662
_cell_length_c   6.71668095
_cell_angle_alpha   90.00000000
_cell_angle_beta   105.26405795
_cell_angle_gamma   90.00000000
_symmetry_Int_Tables_number   1
_chemical_formula_structural   SmAsO4
_chemical_formula_sum   'Sm4 As4 O16'
_cell_volume   320.10114158
_cell_formula_units_Z   4
loop_
 _symmetry_equiv_pos_site_id
 _symmetry_equiv_pos_as_xyz
  1  'x, y, z'
loop_
 _atom_site_type_symbol
 _atom_site_label
 _atom_site_symmetry_multiplicity
 _atom_site_fract_x
 _atom_site_fract_y
 _atom_site_fract_z
 _atom_site_occupancy
  Sm  Sm0  1  0.21707965  0.14983417  0.40612837  1
  Sm  Sm1  1  0.28292035  0.64983417  0.09387163  1
  Sm  Sm2  1  0.71707965  0.35016583  0.90612837  1
  Sm  Sm3  1  0.78292035  0.85016583  0.59387163  1
  As  As4  1  0.19768070  0.16222645  0.88749951  1
  As  As5  1  0.30231930  0.66222645  0.61250049  1
  As  As6  1  0.69768070  0.33777355  0.38749951  1
  As  As7  1  0.80231930  0.83777355  0.11250049  1
  O  O8  1  0.01732598  0.10632805  0.66538826  1
  O  O9  1  0.11541356  0.71413393  0.72741549  1
  O  O10  1  0.10540671  0.34562205  0.00143585  1
  O  O11  1  0.25244361  0.49467753  0.42146772  1
  O  O12  1  0.38458644  0.21413393  0.77258451  1
  O  O13  1  0.24755639  0.99467753  0.07853228  1
  O  O14  1  0.39459329  0.84562205  0.49856415  1
  O  O15  1  0.48267402  0.60632805  0.83461174  1
  O  O16  1  0.51732598  0.39367195  0.16538826  1
  O  O17  1  0.60540671  0.15437795  0.50143585  1
  O  O18  1  0.75244361  0.00532247  0.92146772  1
  O  O19  1  0.61541356  0.78586607  0.22741549  1
  O  O20  1  0.74755639  0.50532247  0.57853228  1
  O  O21  1  0.89459329  0.65437795  0.99856415  1
  O  O22  1  0.88458644  0.28586607  0.27258451  1
  O  O23  1  0.98267402  0.89367195  0.33461174  1
