# generated using pymatgen
data_Li2TlPCO7
_symmetry_space_group_name_H-M   'P 1'
_cell_length_a   9.00212747
_cell_length_b   6.71180521
_cell_length_c   5.08010842
_cell_angle_alpha   90.00000000
_cell_angle_beta   87.22308079
_cell_angle_gamma   90.00000000
_symmetry_Int_Tables_number   1
_chemical_formula_structural   Li2TlPCO7
_chemical_formula_sum   'Li4 Tl2 P2 C2 O14'
_cell_volume   306.58239070
_cell_formula_units_Z   2
loop_
 _symmetry_equiv_pos_site_id
 _symmetry_equiv_pos_as_xyz
  1  'x, y, z'
loop_
 _atom_site_type_symbol
 _atom_site_label
 _atom_site_symmetry_multiplicity
 _atom_site_fract_x
 _atom_site_fract_y
 _atom_site_fract_z
 _atom_site_occupancy
  Li  Li0  1  0.20289751  0.00428636  0.20620478  1
  Li  Li1  1  0.20289751  0.49571364  0.20620478  1
  Li  Li2  1  0.79710249  0.50428636  0.79379522  1
  Li  Li3  1  0.79710249  0.99571364  0.79379522  1
  Tl  Tl4  1  0.36578451  0.75000000  0.75314236  1
  Tl  Tl5  1  0.63421549  0.25000000  0.24685764  1
  P  P6  1  0.40986653  0.25000000  0.73607863  1
  P  P7  1  0.59013347  0.75000000  0.26392137  1
  C  C8  1  0.05987746  0.75000000  0.74012396  1
  C  C9  1  0.94012254  0.25000000  0.25987604  1
  O  O10  1  0.07985779  0.25000000  0.29088709  1
  O  O11  1  0.11787389  0.75000000  0.97104641  1
  O  O12  1  0.15470350  0.75000000  0.52976606  1
  O  O13  1  0.32627298  0.06784662  0.85592574  1
  O  O14  1  0.32627298  0.43215338  0.85592574  1
  O  O15  1  0.42227214  0.75000000  0.20162332  1
  O  O16  1  0.40509284  0.25000000  0.42660920  1
  O  O17  1  0.59490716  0.75000000  0.57339080  1
  O  O18  1  0.57772786  0.25000000  0.79837668  1
  O  O19  1  0.67372702  0.56784662  0.14407426  1
  O  O20  1  0.67372702  0.93215338  0.14407426  1
  O  O21  1  0.84529650  0.25000000  0.47023394  1
  O  O22  1  0.88212611  0.25000000  0.02895359  1
  O  O23  1  0.92014221  0.75000000  0.70911291  1
