# generated using pymatgen
data_Hf3N2O3
_symmetry_space_group_name_H-M   'P 1'
_cell_length_a   4.00393368
_cell_length_b   5.67718264
_cell_length_c   10.64915229
_cell_angle_alpha   90.51601935
_cell_angle_beta   90.01136823
_cell_angle_gamma   110.89810917
_symmetry_Int_Tables_number   1
_chemical_formula_structural   Hf3N2O3
_chemical_formula_sum   'Hf6 N4 O6'
_cell_volume   226.13182418
_cell_formula_units_Z   2
loop_
 _symmetry_equiv_pos_site_id
 _symmetry_equiv_pos_as_xyz
  1  'x, y, z'
loop_
 _atom_site_type_symbol
 _atom_site_label
 _atom_site_symmetry_multiplicity
 _atom_site_fract_x
 _atom_site_fract_y
 _atom_site_fract_z
 _atom_site_occupancy
  Hf  Hf0  1  0.18308212  0.36745305  0.24874203  1
  Hf  Hf1  1  0.14254304  0.28865302  0.94181133  1
  Hf  Hf2  1  0.13539825  0.27173972  0.55546591  1
  Hf  Hf3  1  0.80781246  0.61439275  0.74961202  1
  Hf  Hf4  1  0.85629939  0.71325906  0.05501542  1
  Hf  Hf5  1  0.86461864  0.72488105  0.44030969  1
  N  N6  1  0.29857194  0.59860140  0.07899642  1
  N  N7  1  0.04459128  0.09196802  0.38484123  1
  N  N8  1  0.70410194  0.40749201  0.57476911  1
  N  N9  1  0.69972647  0.40148381  0.92000524  1
  O  O10  1  0.31129913  0.61973356  0.41907926  1
  O  O11  1  0.24682776  0.49378346  0.75188185  1
  O  O12  1  0.04842139  0.09000856  0.11288575  1
  O  O13  1  0.75400067  0.50828135  0.25737319  1
  O  O14  1  0.94977095  0.91127412  0.88470899  1
  O  O15  1  0.95627555  0.91365605  0.62015858  1
