# generated using pymatgen
data_LiTa3O8
_symmetry_space_group_name_H-M   'P 1'
_cell_length_a   3.91094843
_cell_length_b   8.98583872
_cell_length_c   17.16204233
_cell_angle_alpha   90.00000000
_cell_angle_beta   90.00000000
_cell_angle_gamma   90.01378385
_symmetry_Int_Tables_number   1
_chemical_formula_structural   LiTa3O8
_chemical_formula_sum   'Li4 Ta12 O32'
_cell_volume   603.12824134
_cell_formula_units_Z   4
loop_
 _symmetry_equiv_pos_site_id
 _symmetry_equiv_pos_as_xyz
  1  'x, y, z'
loop_
 _atom_site_type_symbol
 _atom_site_label
 _atom_site_symmetry_multiplicity
 _atom_site_fract_x
 _atom_site_fract_y
 _atom_site_fract_z
 _atom_site_occupancy
  Li  Li0  1  0.49476685  0.06558848  0.38644519  1
  Li  Li1  1  0.50523315  0.93441152  0.61355481  1
  Li  Li2  1  0.49476685  0.06558848  0.11355481  1
  Li  Li3  1  0.50523315  0.93441152  0.88644519  1
  Ta  Ta4  1  0.99785911  0.80797289  0.44066694  1
  Ta  Ta5  1  0.00214089  0.19202711  0.55933306  1
  Ta  Ta6  1  0.99785911  0.80797289  0.05933306  1
  Ta  Ta7  1  0.00214089  0.19202711  0.94066694  1
  Ta  Ta8  1  0.00352087  0.68790201  0.25000000  1
  Ta  Ta9  1  0.99647913  0.31209799  0.75000000  1
  Ta  Ta10  1  0.00296661  0.39695149  0.36754949  1
  Ta  Ta11  1  0.99703339  0.60304851  0.63245051  1
  Ta  Ta12  1  0.00296661  0.39695149  0.13245051  1
  Ta  Ta13  1  0.99703339  0.60304851  0.86754949  1
  Ta  Ta14  1  0.99569363  0.05409275  0.25000000  1
  Ta  Ta15  1  0.00430637  0.94590725  0.75000000  1
  O  O16  1  0.99969271  0.17891803  0.34182959  1
  O  O17  1  0.00030729  0.82108197  0.65817041  1
  O  O18  1  0.99969271  0.17891803  0.15817041  1
  O  O19  1  0.00030729  0.82108197  0.84182959  1
  O  O20  1  0.99838344  0.45403617  0.25000000  1
  O  O21  1  0.00161656  0.54596383  0.75000000  1
  O  O22  1  0.49879441  0.84256609  0.43329469  1
  O  O23  1  0.50120559  0.15743391  0.56670531  1
  O  O24  1  0.49879441  0.84256609  0.06670531  1
  O  O25  1  0.50120559  0.15743391  0.93329469  1
  O  O26  1  0.49866905  0.69308184  0.25000000  1
  O  O27  1  0.50133095  0.30691816  0.75000000  1
  O  O28  1  0.99730359  0.62074878  0.36913581  1
  O  O29  1  0.00269641  0.37925122  0.63086419  1
  O  O30  1  0.99730359  0.62074878  0.13086419  1
  O  O31  1  0.00269641  0.37925122  0.86913581  1
  O  O32  1  0.49936098  0.39346815  0.36787499  1
  O  O33  1  0.50063902  0.60653185  0.63212501  1
  O  O34  1  0.49936098  0.39346815  0.13212501  1
  O  O35  1  0.50063902  0.60653185  0.86787499  1
  O  O36  1  0.49785932  0.05996302  0.25000000  1
  O  O37  1  0.50214068  0.94003698  0.75000000  1
  O  O38  1  0.99975095  0.87752841  0.32363822  1
  O  O39  1  0.00024905  0.12247159  0.67636178  1
  O  O40  1  0.99975095  0.87752841  0.17636178  1
  O  O41  1  0.00024905  0.12247159  0.82363822  1
  O  O42  1  0.99955385  0.33047325  0.47706622  1
  O  O43  1  0.00044615  0.66952675  0.52293378  1
  O  O44  1  0.99955385  0.33047325  0.02293378  1
  O  O45  1  0.00044615  0.66952675  0.97706622  1
  O  O46  1  -0.00000000  0.00000000  0.50000000  1
  O  O47  1  -0.00000000  0.00000000  0.00000000  1
