# generated using pymatgen
data_Ba3(BrO)2
_symmetry_space_group_name_H-M   'P 1'
_cell_length_a   11.05707274
_cell_length_b   13.79738250
_cell_length_c   6.47916734
_cell_angle_alpha   90.00000000
_cell_angle_beta   90.00000000
_cell_angle_gamma   90.00000000
_symmetry_Int_Tables_number   1
_chemical_formula_structural   Ba3(BrO)2
_chemical_formula_sum   'Ba12 Br8 O8'
_cell_volume   988.45309977
_cell_formula_units_Z   4
loop_
 _symmetry_equiv_pos_site_id
 _symmetry_equiv_pos_as_xyz
  1  'x, y, z'
loop_
 _atom_site_type_symbol
 _atom_site_label
 _atom_site_symmetry_multiplicity
 _atom_site_fract_x
 _atom_site_fract_y
 _atom_site_fract_z
 _atom_site_occupancy
  Ba  Ba0  1  0.07130860  0.06430351  0.75000000  1
  Ba  Ba1  1  0.12238385  0.79163447  0.75000000  1
  Ba  Ba2  1  0.21978740  0.45373702  0.25000000  1
  Ba  Ba3  1  0.28021260  0.95373702  0.25000000  1
  Ba  Ba4  1  0.37761615  0.29163447  0.75000000  1
  Ba  Ba5  1  0.42869140  0.56430351  0.75000000  1
  Ba  Ba6  1  0.57130860  0.43569649  0.25000000  1
  Ba  Ba7  1  0.62238385  0.70836553  0.25000000  1
  Ba  Ba8  1  0.71978740  0.04626298  0.75000000  1
  Ba  Ba9  1  0.78021260  0.54626298  0.75000000  1
  Ba  Ba10  1  0.87761615  0.20836553  0.25000000  1
  Ba  Ba11  1  0.92869140  0.93569649  0.25000000  1
  Br  Br12  1  0.10660460  0.54305563  0.75000000  1
  Br  Br13  1  0.18194333  0.20467642  0.25000000  1
  Br  Br14  1  0.31805667  0.70467642  0.25000000  1
  Br  Br15  1  0.39339540  0.04305563  0.75000000  1
  Br  Br16  1  0.60660460  0.95694437  0.25000000  1
  Br  Br17  1  0.68194333  0.29532358  0.75000000  1
  Br  Br18  1  0.81805667  0.79532358  0.75000000  1
  Br  Br19  1  0.89339540  0.45694437  0.25000000  1
  O  O20  1  0.11452174  0.92119746  0.00213689  1
  O  O21  1  0.11452174  0.92119746  0.49786311  1
  O  O22  1  0.38547826  0.42119746  0.00213689  1
  O  O23  1  0.38547826  0.42119746  0.49786311  1
  O  O24  1  0.61452174  0.57880254  0.99786311  1
  O  O25  1  0.61452174  0.57880254  0.50213689  1
  O  O26  1  0.88547826  0.07880254  0.99786311  1
  O  O27  1  0.88547826  0.07880254  0.50213689  1
