# generated using pymatgen
data_Li3SbS3
_symmetry_space_group_name_H-M   'P 1'
_cell_length_a   7.69386712
_cell_length_b   7.69386739
_cell_length_c   7.69386696
_cell_angle_alpha   55.26599561
_cell_angle_beta   55.26600319
_cell_angle_gamma   55.26599627
_symmetry_Int_Tables_number   1
_chemical_formula_structural   Li3SbS3
_chemical_formula_sum   'Li6 Sb2 S6'
_cell_volume   286.61380829
_cell_formula_units_Z   2
loop_
 _symmetry_equiv_pos_site_id
 _symmetry_equiv_pos_as_xyz
  1  'x, y, z'
loop_
 _atom_site_type_symbol
 _atom_site_label
 _atom_site_symmetry_multiplicity
 _atom_site_fract_x
 _atom_site_fract_y
 _atom_site_fract_z
 _atom_site_occupancy
  Li  Li0  1  0.09196704  0.36615142  0.68691285  1
  Li  Li1  1  0.31308715  0.90803296  0.63384858  1
  Li  Li2  1  0.36615142  0.68691285  0.09196704  1
  Li  Li3  1  0.63384858  0.31308715  0.90803296  1
  Li  Li4  1  0.68691285  0.09196704  0.36615142  1
  Li  Li5  1  0.90803296  0.63384858  0.31308715  1
  Sb  Sb6  1  0.18153993  0.18153993  0.18153993  1
  Sb  Sb7  1  0.81846007  0.81846007  0.81846007  1
  S  S8  1  0.03594748  0.76899270  0.43350499  1
  S  S9  1  0.23100730  0.56649501  0.96405252  1
  S  S10  1  0.43350499  0.03594748  0.76899270  1
  S  S11  1  0.56649501  0.96405252  0.23100730  1
  S  S12  1  0.76899270  0.43350499  0.03594748  1
  S  S13  1  0.96405252  0.23100730  0.56649501  1
