# generated using pymatgen
data_AgBrO4
_symmetry_space_group_name_H-M   'P 1'
_cell_length_a   5.84442236
_cell_length_b   8.66993505
_cell_length_c   7.41683437
_cell_angle_alpha   90.00000000
_cell_angle_beta   92.89244248
_cell_angle_gamma   90.00000000
_symmetry_Int_Tables_number   1
_chemical_formula_structural   AgBrO4
_chemical_formula_sum   'Ag4 Br4 O16'
_cell_volume   375.33786928
_cell_formula_units_Z   4
loop_
 _symmetry_equiv_pos_site_id
 _symmetry_equiv_pos_as_xyz
  1  'x, y, z'
loop_
 _atom_site_type_symbol
 _atom_site_label
 _atom_site_symmetry_multiplicity
 _atom_site_fract_x
 _atom_site_fract_y
 _atom_site_fract_z
 _atom_site_occupancy
  Ag  Ag0  1  0.24971014  0.53343752  0.33522178  1
  Ag  Ag1  1  0.25028986  0.03343752  0.16477822  1
  Ag  Ag2  1  0.74971014  0.96656248  0.83522178  1
  Ag  Ag3  1  0.75028986  0.46656248  0.66477822  1
  Br  Br4  1  0.24455620  0.68624488  0.84033935  1
  Br  Br5  1  0.25544380  0.18624488  0.65966065  1
  Br  Br6  1  0.74455620  0.81375512  0.34033935  1
  Br  Br7  1  0.75544380  0.31375512  0.15966065  1
  O  O8  1  0.01039820  0.77623283  0.28276573  1
  O  O9  1  0.09331720  0.62180744  0.65701238  1
  O  O10  1  0.11672551  0.84937399  0.90540939  1
  O  O11  1  0.25349468  0.05519495  0.49761350  1
  O  O12  1  0.24650532  0.55519495  0.00238650  1
  O  O13  1  0.38327449  0.34937399  0.59459061  1
  O  O14  1  0.40668280  0.12180744  0.84298762  1
  O  O15  1  0.51039820  0.72376717  0.78276573  1
  O  O16  1  0.48960180  0.27623283  0.21723427  1
  O  O17  1  0.59331720  0.87819256  0.15701238  1
  O  O18  1  0.61672551  0.65062601  0.40540939  1
  O  O19  1  0.75349468  0.44480505  0.99761350  1
  O  O20  1  0.74650532  0.94480505  0.50238650  1
  O  O21  1  0.88327449  0.15062601  0.09459061  1
  O  O22  1  0.90668280  0.37819256  0.34298762  1
  O  O23  1  0.98960180  0.22376717  0.71723427  1
