# generated using pymatgen
data_BaMgO2
_symmetry_space_group_name_H-M   'P 1'
_cell_length_a   5.97535980
_cell_length_b   5.97552211
_cell_length_c   6.83851010
_cell_angle_alpha   90.00442426
_cell_angle_beta   89.99632326
_cell_angle_gamma   120.00140369
_symmetry_Int_Tables_number   1
_chemical_formula_structural   BaMgO2
_chemical_formula_sum   'Ba3 Mg3 O6'
_cell_volume   211.45886580
_cell_formula_units_Z   3
loop_
 _symmetry_equiv_pos_site_id
 _symmetry_equiv_pos_as_xyz
  1  'x, y, z'
loop_
 _atom_site_type_symbol
 _atom_site_label
 _atom_site_symmetry_multiplicity
 _atom_site_fract_x
 _atom_site_fract_y
 _atom_site_fract_z
 _atom_site_occupancy
  Ba  Ba0  1  0.99991720  0.65361420  0.16669017  1
  Ba  Ba1  1  0.34636529  0.34631330  0.49997830  1
  Ba  Ba2  1  0.65362180  0.99992835  0.83333320  1
  Mg  Mg3  1  -0.00003534  0.57475232  0.66668810  1
  Mg  Mg4  1  0.42519861  0.42520699  0.99999792  1
  Mg  Mg5  1  0.57475562  -0.00005444  0.33333024  1
  O  O6  1  0.29762360  0.86903558  0.54013561  1
  O  O7  1  0.13098476  0.42845861  0.87335118  1
  O  O8  1  0.57159593  0.70251952  0.20685620  1
  O  O9  1  0.42844343  0.13100535  0.12667825  1
  O  O10  1  0.70251301  0.57159437  0.79314572  1
  O  O11  1  0.86901710  0.29762785  0.45988113  1
