# generated using pymatgen
data_In5Sb3
_symmetry_space_group_name_H-M   'P 1'
_cell_length_a   8.17422255
_cell_length_b   8.17422255
_cell_length_c   8.93640925
_cell_angle_alpha   117.21656042
_cell_angle_beta   117.21656042
_cell_angle_gamma   90.00000000
_symmetry_Int_Tables_number   1
_chemical_formula_structural   In5Sb3
_chemical_formula_sum   'In10 Sb6'
_cell_volume   455.39461771
_cell_formula_units_Z   2
loop_
 _symmetry_equiv_pos_site_id
 _symmetry_equiv_pos_as_xyz
  1  'x, y, z'
loop_
 _atom_site_type_symbol
 _atom_site_label
 _atom_site_symmetry_multiplicity
 _atom_site_fract_x
 _atom_site_fract_y
 _atom_site_fract_z
 _atom_site_occupancy
  In  In0  1  0.50000000  0.50000000  -0.00000000  1
  In  In1  1  -0.00000000  -0.00000000  0.00000000  1
  In  In2  1  0.00754351  0.81037658  0.31792009  1
  In  In3  1  0.31037658  0.50754351  0.31792009  1
  In  In4  1  0.81037658  0.31037658  0.31792009  1
  In  In5  1  0.50754351  0.00754351  0.31792009  1
  In  In6  1  0.99245649  0.18962342  0.68207991  1
  In  In7  1  0.68962342  0.49245649  0.68207991  1
  In  In8  1  0.18962342  0.68962342  0.68207991  1
  In  In9  1  0.49245649  0.99245649  0.68207991  1
  Sb  Sb10  1  0.75000000  0.75000000  0.50000000  1
  Sb  Sb11  1  0.25000000  0.25000000  0.50000000  1
  Sb  Sb12  1  0.64876678  0.85123322  -0.00000000  1
  Sb  Sb13  1  0.35123322  0.14876678  0.00000000  1
  Sb  Sb14  1  0.85123322  0.35123322  -0.00000000  1
  Sb  Sb15  1  0.14876678  0.64876678  0.00000000  1
