# generated using pymatgen
data_Cs3LaO3
_symmetry_space_group_name_H-M   'P 1'
_cell_length_a   7.80062795
_cell_length_b   7.80062795
_cell_length_c   7.83448545
_cell_angle_alpha   85.28075882
_cell_angle_beta   94.71924118
_cell_angle_gamma   63.54426526
_symmetry_Int_Tables_number   1
_chemical_formula_structural   Cs3LaO3
_chemical_formula_sum   'Cs6 La2 O6'
_cell_volume   421.56112651
_cell_formula_units_Z   2
loop_
 _symmetry_equiv_pos_site_id
 _symmetry_equiv_pos_as_xyz
  1  'x, y, z'
loop_
 _atom_site_type_symbol
 _atom_site_label
 _atom_site_symmetry_multiplicity
 _atom_site_fract_x
 _atom_site_fract_y
 _atom_site_fract_z
 _atom_site_occupancy
  Cs  Cs0  1  0.35439835  0.64560165  0.64852915  1
  Cs  Cs1  1  0.21228396  0.21228396  0.50000000  1
  Cs  Cs2  1  0.78771604  0.78771604  0.50000000  1
  Cs  Cs3  1  0.25802474  0.25802474  0.00000000  1
  Cs  Cs4  1  0.74197526  0.74197526  0.00000000  1
  Cs  Cs5  1  0.64560165  0.35439835  0.35147085  1
  La  La6  1  0.18130820  0.81869180  0.15370462  1
  La  La7  1  0.81869180  0.18130820  0.84629538  1
  O  O8  1  0.10196755  0.89803245  0.85331346  1
  O  O9  1  0.45314381  0.82583226  0.26878423  1
  O  O10  1  0.17416774  0.54685619  0.26878423  1
  O  O11  1  0.54685619  0.17416774  0.73121577  1
  O  O12  1  0.82583226  0.45314381  0.73121577  1
  O  O13  1  0.89803245  0.10196755  0.14668654  1
