# generated using pymatgen
data_NdSeO
_symmetry_space_group_name_H-M   'P 1'
_cell_length_a   7.37698172
_cell_length_b   7.37698172
_cell_length_c   5.99863588
_cell_angle_alpha   90.00000000
_cell_angle_beta   90.00000000
_cell_angle_gamma   131.99489527
_symmetry_Int_Tables_number   1
_chemical_formula_structural   NdSeO
_chemical_formula_sum   'Nd4 Se4 O4'
_cell_volume   242.61531372
_cell_formula_units_Z   4
loop_
 _symmetry_equiv_pos_site_id
 _symmetry_equiv_pos_as_xyz
  1  'x, y, z'
loop_
 _atom_site_type_symbol
 _atom_site_label
 _atom_site_symmetry_multiplicity
 _atom_site_fract_x
 _atom_site_fract_y
 _atom_site_fract_z
 _atom_site_occupancy
  Nd  Nd0  1  0.16750071  0.83249929  0.50000000  1
  Nd  Nd1  1  0.33249929  0.66750071  0.00000000  1
  Nd  Nd2  1  0.66750071  0.33249929  0.00000000  1
  Nd  Nd3  1  0.83249929  0.16750071  0.50000000  1
  Se  Se4  1  0.35654942  0.35654942  0.35622636  1
  Se  Se5  1  0.85654942  0.85654942  0.14377364  1
  Se  Se6  1  0.64345058  0.64345058  0.64377364  1
  Se  Se7  1  0.14345058  0.14345058  0.85622636  1
  O  O8  1  0.49470192  0.99470192  0.25000000  1
  O  O9  1  0.00529808  0.50529808  0.75000000  1
  O  O10  1  0.50529808  0.00529808  0.75000000  1
  O  O11  1  0.99470192  0.49470192  0.25000000  1
