# generated using pymatgen
data_HgTe(HO)7
_symmetry_space_group_name_H-M   'P 1'
_cell_length_a   6.01055466
_cell_length_b   6.97083981
_cell_length_c   8.67770552
_cell_angle_alpha   91.70999427
_cell_angle_beta   104.65501951
_cell_angle_gamma   91.04044773
_symmetry_Int_Tables_number   1
_chemical_formula_structural   HgTe(HO)7
_chemical_formula_sum   'Hg2 Te2 H14 O14'
_cell_volume   351.47432833
_cell_formula_units_Z   2
loop_
 _symmetry_equiv_pos_site_id
 _symmetry_equiv_pos_as_xyz
  1  'x, y, z'
loop_
 _atom_site_type_symbol
 _atom_site_label
 _atom_site_symmetry_multiplicity
 _atom_site_fract_x
 _atom_site_fract_y
 _atom_site_fract_z
 _atom_site_occupancy
  Hg  Hg0  1  0.31454492  0.05538800  0.40453679  1
  Hg  Hg1  1  0.68545508  0.94461200  0.59546321  1
  Te  Te2  1  0.00000000  0.50000000  0.50000000  1
  Te  Te3  1  0.00000000  0.00000000  0.00000000  1
  H  H4  1  0.12277511  0.70523944  0.74671724  1
  H  H5  1  0.09084076  0.24421724  0.70197555  1
  H  H6  1  0.20549077  0.32090801  0.99730009  1
  H  H7  1  0.25798214  0.48159957  0.30904209  1
  H  H8  1  0.49254493  0.53713194  0.81758222  1
  H  H9  1  0.56685069  0.03828472  0.90865560  1
  H  H10  1  0.33842407  0.62810520  0.10512448  1
  H  H11  1  0.66157593  0.37189480  0.89487552  1
  H  H12  1  0.43314931  0.96171528  0.09134440  1
  H  H13  1  0.50745507  0.46286806  0.18241778  1
  H  H14  1  0.74201786  0.51840043  0.69095791  1
  H  H15  1  0.79450923  0.67909199  0.00269991  1
  H  H16  1  0.90915924  0.75578276  0.29802445  1
  H  H17  1  0.87722489  0.29476056  0.25328276  1
  O  O18  1  0.14540262  0.21448669  0.91469057  1
  O  O19  1  0.03561062  0.23820712  0.58327828  1
  O  O20  1  0.20689922  0.60326689  0.69981655  1
  O  O21  1  0.04094488  0.13303380  0.19987716  1
  O  O22  1  0.26952939  0.45088993  0.42336955  1
  O  O23  1  0.30384744  0.87019395  0.07195892  1
  O  O24  1  0.34366933  0.49115748  0.13542357  1
  O  O25  1  0.65633067  0.50884252  0.86457643  1
  O  O26  1  0.69615256  0.12980605  0.92804108  1
  O  O27  1  0.73047061  0.54911007  0.57663045  1
  O  O28  1  0.95905512  0.86696620  0.80012284  1
  O  O29  1  0.79310078  0.39673311  0.30018345  1
  O  O30  1  0.96438938  0.76179288  0.41672172  1
  O  O31  1  0.85459738  0.78551331  0.08530943  1
