# generated using pymatgen
data_La2Ti3O9
_symmetry_space_group_name_H-M   'P 1'
_cell_length_a   8.71067396
_cell_length_b   5.50920913
_cell_length_c   8.77490772
_cell_angle_alpha   108.29364248
_cell_angle_beta   66.59633669
_cell_angle_gamma   108.43549781
_symmetry_Int_Tables_number   1
_chemical_formula_structural   La2Ti3O9
_chemical_formula_sum   'La4 Ti6 O18'
_cell_volume   357.94641963
_cell_formula_units_Z   2
loop_
 _symmetry_equiv_pos_site_id
 _symmetry_equiv_pos_as_xyz
  1  'x, y, z'
loop_
 _atom_site_type_symbol
 _atom_site_label
 _atom_site_symmetry_multiplicity
 _atom_site_fract_x
 _atom_site_fract_y
 _atom_site_fract_z
 _atom_site_occupancy
  La  La0  1  0.00000000  0.00000000  0.00000000  1
  La  La1  1  0.66684344  0.33343744  0.99922861  1
  La  La2  1  0.50000000  0.50000000  0.50000000  1
  La  La3  1  0.33315656  0.66656256  0.00077139  1
  Ti  Ti4  1  0.41886329  0.08212552  0.74541383  1
  Ti  Ti5  1  0.23783772  0.25169544  0.26528059  1
  Ti  Ti6  1  0.07946606  0.40972296  0.73938596  1
  Ti  Ti7  1  0.92053394  0.59027704  0.26061404  1
  Ti  Ti8  1  0.76216228  0.74830456  0.73471941  1
  Ti  Ti9  1  0.58113671  0.91787448  0.25458617  1
  O  O10  1  0.50000000  0.00000000  0.50000000  1
  O  O11  1  0.33692074  0.16823886  0.99872394  1
  O  O12  1  0.19048807  0.34714624  0.50115715  1
  O  O13  1  0.25180539  0.26883893  0.76441731  1
  O  O14  1  0.42715495  0.09424639  0.23781723  1
  O  O15  1  0.00000000  0.50000000  0.00000000  1
  O  O16  1  0.09184646  0.40709245  0.22458900  1
  O  O17  1  0.90790082  0.09094275  0.77620453  1
  O  O18  1  0.74964411  0.25067172  0.23407421  1
  O  O19  1  0.57334978  0.42827083  0.76345860  1
  O  O20  1  0.42665022  0.57172917  0.23654140  1
  O  O21  1  0.25035589  0.74932828  0.76592579  1
  O  O22  1  0.09209918  0.90905725  0.22379547  1
  O  O23  1  0.80951193  0.65285376  0.49884285  1
  O  O24  1  0.66307926  0.83176114  0.00127606  1
  O  O25  1  0.90815354  0.59290755  0.77541100  1
  O  O26  1  0.74819461  0.73116107  0.23558269  1
  O  O27  1  0.57284505  0.90575361  0.76218277  1
