# generated using pymatgen
data_Ti5Nb2O14
_symmetry_space_group_name_H-M   'P 1'
_cell_length_a   4.73160819
_cell_length_b   4.73160819
_cell_length_c   21.06625444
_cell_angle_alpha   90.00000000
_cell_angle_beta   90.00000000
_cell_angle_gamma   89.43463746
_symmetry_Int_Tables_number   1
_chemical_formula_structural   Ti5Nb2O14
_chemical_formula_sum   'Ti10 Nb4 O28'
_cell_volume   471.61078845
_cell_formula_units_Z   2
loop_
 _symmetry_equiv_pos_site_id
 _symmetry_equiv_pos_as_xyz
  1  'x, y, z'
loop_
 _atom_site_type_symbol
 _atom_site_label
 _atom_site_symmetry_multiplicity
 _atom_site_fract_x
 _atom_site_fract_y
 _atom_site_fract_z
 _atom_site_occupancy
  Ti  Ti0  1  0.00000000  0.00000000  0.28742938  1
  Ti  Ti1  1  0.00000000  0.00000000  0.14175152  1
  Ti  Ti2  1  0.00000000  0.00000000  0.00264391  1
  Ti  Ti3  1  0.00000000  0.00000000  0.42685662  1
  Ti  Ti4  1  0.00000000  0.00000000  0.57253448  1
  Ti  Ti5  1  0.00000000  0.00000000  0.71164209  1
  Ti  Ti6  1  0.00000000  0.00000000  0.85714300  1
  Ti  Ti7  1  0.50000000  0.50000000  0.35714300  1
  Ti  Ti8  1  0.50000000  0.50000000  0.07266614  1
  Ti  Ti9  1  0.50000000  0.50000000  0.64161886  1
  Nb  Nb10  1  0.50000000  0.50000000  0.49975965  1
  Nb  Nb11  1  0.50000000  0.50000000  0.78326320  1
  Nb  Nb12  1  0.50000000  0.50000000  0.21452535  1
  Nb  Nb13  1  0.50000000  0.50000000  0.93102180  1
  O  O14  1  0.19491759  0.80508241  0.35714300  1
  O  O15  1  0.19530015  0.80469985  0.07134172  1
  O  O16  1  0.19308403  0.80691597  0.21429860  1
  O  O17  1  0.19308403  0.80691597  0.49998740  1
  O  O18  1  0.19530015  0.80469985  0.64294328  1
  O  O19  1  0.19366364  0.80633636  0.78583342  1
  O  O20  1  0.19366364  0.80633636  0.92845158  1
  O  O21  1  0.30064137  0.30064137  0.00111455  1
  O  O22  1  0.30138128  0.30138128  0.14195521  1
  O  O23  1  0.30190324  0.30190324  0.42754267  1
  O  O24  1  0.30138128  0.30138128  0.57233079  1
  O  O25  1  0.30064137  0.30064137  0.71317145  1
  O  O26  1  0.30190324  0.30190324  0.28674233  1
  O  O27  1  0.29930737  0.29930737  0.85714300  1
  O  O28  1  0.69935863  0.69935863  0.00111455  1
  O  O29  1  0.69861872  0.69861872  0.14195521  1
  O  O30  1  0.69809676  0.69809676  0.28674233  1
  O  O31  1  0.69809676  0.69809676  0.42754267  1
  O  O32  1  0.69935863  0.69935863  0.71317145  1
  O  O33  1  0.70069263  0.70069263  0.85714300  1
  O  O34  1  0.69861872  0.69861872  0.57233079  1
  O  O35  1  0.80469985  0.19530015  0.07134172  1
  O  O36  1  0.80691597  0.19308403  0.21429860  1
  O  O37  1  0.80508241  0.19491759  0.35714300  1
  O  O38  1  0.80691597  0.19308403  0.49998740  1
  O  O39  1  0.80469985  0.19530015  0.64294328  1
  O  O40  1  0.80633636  0.19366364  0.78583342  1
  O  O41  1  0.80633636  0.19366364  0.92845158  1
