# generated using pymatgen
data_Li2Nb4ZnO12
_symmetry_space_group_name_H-M   'P 1'
_cell_length_a   11.89757066
_cell_length_b   7.71807078
_cell_length_c   7.69029221
_cell_angle_alpha   93.72579229
_cell_angle_beta   92.51589577
_cell_angle_gamma   104.99620151
_symmetry_Int_Tables_number   1
_chemical_formula_structural   Li2Nb4ZnO12
_chemical_formula_sum   'Li6 Nb12 Zn3 O36'
_cell_volume   679.32777219
_cell_formula_units_Z   3
loop_
 _symmetry_equiv_pos_site_id
 _symmetry_equiv_pos_as_xyz
  1  'x, y, z'
loop_
 _atom_site_type_symbol
 _atom_site_label
 _atom_site_symmetry_multiplicity
 _atom_site_fract_x
 _atom_site_fract_y
 _atom_site_fract_z
 _atom_site_occupancy
  Li  Li0  1  0.47640139  0.95631643  0.78087067  1
  Li  Li1  1  0.81313540  0.61945239  0.78168956  1
  Li  Li2  1  0.81670234  0.13228780  0.28183273  1
  Li  Li3  1  0.14926378  0.79712673  0.78419202  1
  Li  Li4  1  0.48077622  0.46306051  0.78278987  1
  Li  Li5  1  0.14576899  0.29273942  0.78160416  1
  Nb  Nb6  1  0.67007607  0.84346762  0.51188031  1
  Nb  Nb7  1  0.66893830  0.82932986  0.99526492  1
  Nb  Nb8  1  0.33075975  0.66638192  0.49673530  1
  Nb  Nb9  1  0.66350513  0.34058554  0.50055754  1
  Nb  Nb10  1  0.33495127  0.66227247  0.99570484  1
  Nb  Nb11  1  0.66904825  0.32263996  0.99460847  1
  Nb  Nb12  1  0.00218682  0.50372773  0.50608656  1
  Nb  Nb13  1  0.33457338  0.17077632  0.50481256  1
  Nb  Nb14  1  0.00490887  0.49907314  0.99986382  1
  Nb  Nb15  1  0.33683956  0.16504000  0.00263703  1
  Nb  Nb16  1  -0.00003974  -0.00221744  0.49689038  1
  Nb  Nb17  1  0.99579597  0.99357093  0.99049191  1
  Zn  Zn18  1  0.48318713  0.95679450  0.27609885  1
  Zn  Zn19  1  0.81144494  0.62606041  0.27288334  1
  Zn  Zn20  1  0.14576707  0.28977737  0.27427209  1
  O  O21  1  0.96383070  0.74763712  0.41515611  1
  O  O22  1  0.84053465  0.87051793  0.91889187  1
  O  O23  1  0.72286430  0.81519780  0.23237120  1
  O  O24  1  0.63488329  0.89984740  0.73966333  1
  O  O25  1  0.97168569  0.56824989  0.73547957  1
  O  O26  1  0.51097203  0.84366891  0.04055966  1
  O  O27  1  0.84609123  0.50913582  0.04115680  1
  O  O28  1  0.38421063  0.96073227  0.54246771  1
  O  O29  1  0.72101959  0.62974617  0.54108301  1
  O  O30  1  0.51328894  0.74042209  0.42516614  1
  O  O31  1  0.84529996  0.38648988  0.42016935  1
  O  O32  1  0.30766563  0.92157389  0.91382421  1
  O  O33  1  0.63674465  0.58568152  0.91901699  1
  O  O34  1  0.98330880  0.25835372  0.92121685  1
  O  O35  1  0.31839535  0.73274186  0.23375390  1
  O  O36  1  0.65426471  0.40682966  0.23281682  1
  O  O37  1  0.97620260  0.07206387  0.23052919  1
  O  O38  1  0.05530161  0.98883473  0.73233542  1
  O  O39  1  0.39091945  0.65658867  0.73108788  1
  O  O40  1  0.71855291  0.33579347  0.73464300  1
  O  O41  1  0.05132119  0.79312858  0.02470047  1
  O  O42  1  0.38345341  0.45381867  0.02255636  1
  O  O43  1  0.71933182  0.12219751  0.04950563  1
  O  O44  1  0.17710379  0.66969227  0.54853147  1
  O  O45  1  0.50809048  0.33632033  0.54623493  1
  O  O46  1  0.84353898  0.00330512  0.52236450  1
  O  O47  1  0.29859992  0.41776937  0.41544425  1
  O  O48  1  0.63773253  0.08974640  0.41387357  1
  O  O49  1  0.17662068  0.55234150  0.91626821  1
  O  O50  1  0.51063720  0.21205412  0.91929510  1
  O  O51  1  0.05573229  0.47581088  0.23554723  1
  O  O52  1  0.38995202  0.13903357  0.23497469  1
  O  O53  1  0.30488582  0.23217216  0.73564414  1
  O  O54  1  0.17994043  0.17432549  0.04457666  1
  O  O55  1  0.05233111  0.29347936  0.54241260  1
  O  O56  1  0.17559073  0.06808140  0.42129526  1
