# generated using pymatgen
data_Li5AgF8
_symmetry_space_group_name_H-M   'P 1'
_cell_length_a   5.97218873
_cell_length_b   6.11142122
_cell_length_c   5.97218873
_cell_angle_alpha   119.24918132
_cell_angle_beta   120.00000100
_cell_angle_gamma   90.00000227
_symmetry_Int_Tables_number   1
_chemical_formula_structural   Li5AgF8
_chemical_formula_sum   'Li5 Ag1 F8'
_cell_volume   155.85860340
_cell_formula_units_Z   1
loop_
 _symmetry_equiv_pos_site_id
 _symmetry_equiv_pos_as_xyz
  1  'x, y, z'
loop_
 _atom_site_type_symbol
 _atom_site_label
 _atom_site_symmetry_multiplicity
 _atom_site_fract_x
 _atom_site_fract_y
 _atom_site_fract_z
 _atom_site_occupancy
  Li  Li0  1  0.14104186  0.42312659  0.28208473  1
  Li  Li1  1  0.50000000  0.00000000  0.00000000  1
  Li  Li2  1  0.00000000  0.00000000  0.50000000  1
  Li  Li3  1  0.85895814  0.57687341  0.71791527  1
  Li  Li4  1  0.50000000  0.00000000  0.50000000  1
  Ag  Ag5  1  0.50000000  0.50000000  0.00000000  1
  F  F6  1  0.25769876  0.75103471  0.00436724  1
  F  F7  1  0.26615231  0.79845693  0.53230462  1
  F  F8  1  0.74666847  0.75103471  0.00436724  1
  F  F9  1  0.74666847  0.75103471  0.49333595  1
  F  F10  1  0.25333153  0.24896529  0.50666405  1
  F  F11  1  0.25333153  0.24896529  0.99563276  1
  F  F12  1  0.73384769  0.20154307  0.46769538  1
  F  F13  1  0.74230124  0.24896529  0.99563276  1
