# generated using pymatgen
data_LiCuO2
_symmetry_space_group_name_H-M   'P 1'
_cell_length_a   6.58691776
_cell_length_b   7.79196098
_cell_length_c   7.92809347
_cell_angle_alpha   66.06330944
_cell_angle_beta   81.64451421
_cell_angle_gamma   82.98311923
_symmetry_Int_Tables_number   1
_chemical_formula_structural   LiCuO2
_chemical_formula_sum   'Li8 Cu8 O16'
_cell_volume   367.06540355
_cell_formula_units_Z   8
loop_
 _symmetry_equiv_pos_site_id
 _symmetry_equiv_pos_as_xyz
  1  'x, y, z'
loop_
 _atom_site_type_symbol
 _atom_site_label
 _atom_site_symmetry_multiplicity
 _atom_site_fract_x
 _atom_site_fract_y
 _atom_site_fract_z
 _atom_site_occupancy
  Li  Li0  1  0.58654087  0.84709614  0.31502992  1
  Li  Li1  1  0.83578372  0.58247456  0.53245745  1
  Li  Li2  1  0.91362053  0.61929847  0.83554203  1
  Li  Li3  1  0.67402431  0.90189096  0.95579192  1
  Li  Li4  1  0.32597569  0.09810904  0.04420808  1
  Li  Li5  1  0.08637947  0.38070153  0.16445797  1
  Li  Li6  1  0.16421628  0.41752544  0.46754255  1
  Li  Li7  1  0.41345913  0.15290386  0.68497008  1
  Cu  Cu8  1  0.36518472  0.67183340  0.07969870  1
  Cu  Cu9  1  0.87579641  0.08337335  0.17422199  1
  Cu  Cu10  1  0.62389664  0.42136635  0.32195246  1
  Cu  Cu11  1  0.12472482  0.83765955  0.42650579  1
  Cu  Cu12  1  0.87527518  0.16234045  0.57349421  1
  Cu  Cu13  1  0.37610336  0.57863365  0.67804754  1
  Cu  Cu14  1  0.12420359  0.91662665  0.82577801  1
  Cu  Cu15  1  0.63481528  0.32816660  0.92030130  1
  O  O16  1  0.88366365  0.83340650  0.33498053  1
  O  O17  1  0.87440843  0.91492522  0.74962361  1
  O  O18  1  0.86507426  0.33803172  0.02430727  1
  O  O19  1  0.60308155  0.67670485  0.17386122  1
  O  O20  1  0.88350119  0.40925929  0.39888352  1
  O  O21  1  0.37055550  0.82575269  0.51435957  1
  O  O22  1  0.63872663  0.57031499  0.74541023  1
  O  O23  1  0.36853627  0.92277770  0.91523518  1
  O  O24  1  0.63146373  0.07722230  0.08476482  1
  O  O25  1  0.36127337  0.42968501  0.25458977  1
  O  O26  1  0.62944450  0.17424731  0.48564043  1
  O  O27  1  0.11649881  0.59074071  0.60111648  1
  O  O28  1  0.39691845  0.32329515  0.82613878  1
  O  O29  1  0.13492574  0.66196828  0.97569273  1
  O  O30  1  0.12559157  0.08507478  0.25037639  1
  O  O31  1  0.11633635  0.16659350  0.66501947  1
