# generated using pymatgen
data_Zn(H4N5)2
_symmetry_space_group_name_H-M   'P 1'
_cell_length_a   4.24746079
_cell_length_b   6.58137349
_cell_length_c   7.25877437
_cell_angle_alpha   69.39146186
_cell_angle_beta   88.86311002
_cell_angle_gamma   89.02889436
_symmetry_Int_Tables_number   1
_chemical_formula_structural   Zn(H4N5)2
_chemical_formula_sum   'Zn1 H8 N10'
_cell_volume   189.87956637
_cell_formula_units_Z   1
loop_
 _symmetry_equiv_pos_site_id
 _symmetry_equiv_pos_as_xyz
  1  'x, y, z'
loop_
 _atom_site_type_symbol
 _atom_site_label
 _atom_site_symmetry_multiplicity
 _atom_site_fract_x
 _atom_site_fract_y
 _atom_site_fract_z
 _atom_site_occupancy
  Zn  Zn0  1  0.50000000  0.50000000  0.50000000  1
  H  H1  1  0.94165287  0.17736482  0.58804752  1
  H  H2  1  0.05834713  0.82263518  0.41195248  1
  H  H3  1  0.75675852  0.15637607  0.79753329  1
  H  H4  1  0.24324148  0.84362393  0.20246671  1
  H  H5  1  0.95268506  0.52219720  0.22604347  1
  H  H6  1  0.04731494  0.47780280  0.77395653  1
  H  H7  1  0.76261050  0.75909574  0.15227445  1
  H  H8  1  0.23738950  0.24090426  0.84772555  1
  N  N9  1  0.35780199  0.27675119  0.36142136  1
  N  N10  1  0.64219801  0.72324881  0.63857864  1
  N  N11  1  0.49279330  0.22495422  0.23821001  1
  N  N12  1  0.50720670  0.77504578  0.76178999  1
  N  N13  1  0.61895612  0.17049842  0.11706071  1
  N  N14  1  0.38104388  0.82950158  0.88293929  1
  N  N15  1  0.86005204  0.26349966  0.67284962  1
  N  N16  1  0.13994796  0.73650034  0.32715038  1
  N  N17  1  0.86774994  0.64443432  0.27083763  1
  N  N18  1  0.13225006  0.35556568  0.72916237  1
