# generated using pymatgen
data_Dy5Bi11O24
_symmetry_space_group_name_H-M   'P 1'
_cell_length_a   9.55717528
_cell_length_b   9.55553869
_cell_length_c   15.63476104
_cell_angle_alpha   90.01262764
_cell_angle_beta   90.02208628
_cell_angle_gamma   109.48224834
_symmetry_Int_Tables_number   1
_chemical_formula_structural   Dy5Bi11O24
_chemical_formula_sum   'Dy10 Bi22 O48'
_cell_volume   1346.07757396
_cell_formula_units_Z   2
loop_
 _symmetry_equiv_pos_site_id
 _symmetry_equiv_pos_as_xyz
  1  'x, y, z'
loop_
 _atom_site_type_symbol
 _atom_site_label
 _atom_site_symmetry_multiplicity
 _atom_site_fract_x
 _atom_site_fract_y
 _atom_site_fract_z
 _atom_site_occupancy
  Dy  Dy0  1  0.85599177  0.14381043  0.10757423  1
  Dy  Dy1  1  0.99871937  0.49660870  0.00121254  1
  Dy  Dy2  1  0.59338527  0.34157309  0.12506256  1
  Dy  Dy3  1  0.74982601  0.75141560  0.24837720  1
  Dy  Dy4  1  0.50190030  0.00044197  0.49945214  1
  Dy  Dy5  1  0.24874494  0.24891598  0.24752277  1
  Dy  Dy6  1  0.24981767  0.25161724  0.75080078  1
  Dy  Dy7  1  0.99861766  0.49825975  0.50020391  1
  Dy  Dy8  1  0.50081638  0.00253885  0.00225771  1
  Dy  Dy9  1  0.74919535  0.74904711  0.74994638  1
  Bi  Bi10  1  0.90784181  0.15730387  0.37313429  1
  Bi  Bi11  1  0.48678702  0.01935917  0.26377387  1
  Bi  Bi12  1  0.73580673  0.76701506  0.01860759  1
  Bi  Bi13  1  0.89067428  0.10862907  0.64123888  1
  Bi  Bi14  1  0.39301836  0.60778974  0.14083459  1
  Bi  Bi15  1  0.64005201  0.36010237  0.38905932  1
  Bi  Bi16  1  0.01272024  0.47968324  0.23192236  1
  Bi  Bi17  1  0.76593190  0.73452728  0.48316088  1
  Bi  Bi18  1  0.59280079  0.34310886  0.62510541  1
  Bi  Bi19  1  0.09110073  0.84266748  0.12564021  1
  Bi  Bi20  1  0.40475682  0.65646442  0.37443008  1
  Bi  Bi21  1  0.90620684  0.15475232  0.87730449  1
  Bi  Bi22  1  0.23455621  0.26468028  0.51508426  1
  Bi  Bi23  1  0.98481958  0.51508950  0.76688752  1
  Bi  Bi24  1  0.60926725  0.39108599  0.86078860  1
  Bi  Bi25  1  0.11047261  0.88982588  0.35906599  1
  Bi  Bi26  1  0.35860541  0.64078629  0.60899773  1
  Bi  Bi27  1  0.51531896  0.98511356  0.73516191  1
  Bi  Bi28  1  0.26717380  0.23440294  0.98632867  1
  Bi  Bi29  1  0.40849764  0.65769166  0.87601801  1
  Bi  Bi30  1  0.09423980  0.84401778  0.62509666  1
  Bi  Bi31  1  0.14127528  0.85970007  0.89124748  1
  O  O32  1  0.84285919  0.38526383  0.11297104  1
  O  O33  1  0.60685109  0.10006863  0.13324082  1
  O  O34  1  0.52876428  0.25307858  0.98909217  1
  O  O35  1  0.50255602  0.28056728  0.26103504  1
  O  O36  1  0.34664057  0.34590982  0.11696018  1
  O  O37  1  0.65179789  0.10533761  0.38406159  1
  O  O38  1  0.64784320  0.59354856  0.13472289  1
  O  O39  1  0.74494916  0.01742301  0.98266436  1
  O  O40  1  0.90085779  0.41468938  0.36739876  1
  O  O41  1  0.96794330  0.24731297  0.51577802  1
  O  O42  1  0.47205784  0.75475386  0.02003229  1
  O  O43  1  0.86709637  0.91154333  0.13927721  1
  O  O44  1  0.65672183  0.12191875  0.60997791  1
  O  O45  1  0.00026967  0.22088127  0.22610301  1
  O  O46  1  0.15507644  0.62027862  0.10998047  1
  O  O47  1  0.16603350  0.15254861  0.38037556  1
  O  O48  1  0.45885156  0.22403350  0.49249390  1
  O  O49  1  0.25704985  0.48986518  0.27240090  1
  O  O50  1  0.75621406  0.48741458  0.52287271  1
  O  O51  1  0.25797129  0.99033421  0.02445270  1
  O  O52  1  0.85335691  0.90109575  0.36544935  1
  O  O53  1  0.52306643  0.78983687  0.24149355  1
  O  O54  1  0.62730096  0.59551305  0.35826315  1
  O  O55  1  0.03104822  0.74725645  0.48257496  1
  O  O56  1  0.34541749  0.87896047  0.39028916  1
  O  O57  1  0.84427332  0.37528818  0.89103933  1
  O  O58  1  0.83498304  0.84860240  0.61668592  1
  O  O59  1  0.54102527  0.77418020  0.50470167  1
  O  O60  1  0.73696038  0.50592512  0.72743840  1
  O  O61  1  0.24094919  0.00656758  0.22547843  1
  O  O62  1  0.14770037  0.10053504  0.63506462  1
  O  O63  1  0.24121236  0.50950380  0.47625157  1
  O  O64  1  0.47451117  0.21038175  0.75730349  1
  O  O65  1  0.97450819  0.71124829  0.25533449  1
  O  O66  1  0.37086240  0.40628759  0.63983798  1
  O  O67  1  0.49891630  0.71905474  0.73350498  1
  O  O68  1  0.66474407  0.65161533  0.88246811  1
  O  O69  1  0.75849148  0.99091763  0.77438187  1
  O  O70  1  0.35055458  0.89800453  0.61475942  1
  O  O71  1  0.35483286  0.40236880  0.86609310  1
  O  O72  1  0.09841498  0.58468024  0.63336637  1
  O  O73  1  0.02479193  0.29165771  0.74497994  1
  O  O74  1  0.12946737  0.09382029  0.85948152  1
  O  O75  1  0.99877712  0.78188641  0.76729701  1
  O  O76  1  0.03318021  0.26744317  0.01056779  1
  O  O77  1  0.15070492  0.60153902  0.88504889  1
  O  O78  1  0.40401889  0.91822376  0.86925251  1
  O  O79  1  0.95858788  0.72280668  0.99440089  1
