# generated using pymatgen
data_LiTi(SiO3)2
_symmetry_space_group_name_H-M   'P 1'
_cell_length_a   18.60902400
_cell_length_b   8.73561736
_cell_length_c   5.22787371
_cell_angle_alpha   90.00000000
_cell_angle_beta   90.00000000
_cell_angle_gamma   90.00000000
_symmetry_Int_Tables_number   1
_chemical_formula_structural   LiTi(SiO3)2
_chemical_formula_sum   'Li8 Ti8 Si16 O48'
_cell_volume   849.85001506
_cell_formula_units_Z   8
loop_
 _symmetry_equiv_pos_site_id
 _symmetry_equiv_pos_as_xyz
  1  'x, y, z'
loop_
 _atom_site_type_symbol
 _atom_site_label
 _atom_site_symmetry_multiplicity
 _atom_site_fract_x
 _atom_site_fract_y
 _atom_site_fract_z
 _atom_site_occupancy
  Li  Li0  1  0.12232536  0.98341151  0.36640571  1
  Li  Li1  1  0.12232536  0.51658849  0.86640571  1
  Li  Li2  1  0.37767464  0.01658849  0.86640571  1
  Li  Li3  1  0.37767464  0.48341151  0.36640571  1
  Li  Li4  1  0.62232536  0.51658849  0.63359429  1
  Li  Li5  1  0.62232536  0.98341151  0.13359429  1
  Li  Li6  1  0.87767464  0.01658849  0.63359429  1
  Li  Li7  1  0.87767464  0.48341151  0.13359429  1
  Ti  Ti8  1  0.12457237  0.33990851  0.37218844  1
  Ti  Ti9  1  0.12457237  0.16009149  0.87218844  1
  Ti  Ti10  1  0.37542763  0.66009149  0.87218844  1
  Ti  Ti11  1  0.37542763  0.83990851  0.37218844  1
  Ti  Ti12  1  0.62457237  0.16009149  0.62781156  1
  Ti  Ti13  1  0.62457237  0.33990851  0.12781156  1
  Ti  Ti14  1  0.87542763  0.66009149  0.62781156  1
  Ti  Ti15  1  0.87542763  0.83990851  0.12781156  1
  Si  Si16  1  0.02824338  0.66145225  0.29228081  1
  Si  Si17  1  0.02824338  0.83854775  0.79228081  1
  Si  Si18  1  0.22513103  0.65684985  0.54856674  1
  Si  Si19  1  0.22513103  0.84315015  0.04856674  1
  Si  Si20  1  0.27486897  0.15684985  0.54856674  1
  Si  Si21  1  0.27486897  0.34315015  0.04856674  1
  Si  Si22  1  0.47175662  0.16145225  0.29228081  1
  Si  Si23  1  0.47175662  0.33854775  0.79228081  1
  Si  Si24  1  0.52824338  0.66145225  0.20771919  1
  Si  Si25  1  0.52824338  0.83854775  0.70771919  1
  Si  Si26  1  0.72513103  0.65684985  0.95143326  1
  Si  Si27  1  0.72513103  0.84315015  0.45143326  1
  Si  Si28  1  0.77486897  0.15684985  0.95143326  1
  Si  Si29  1  0.77486897  0.34315015  0.45143326  1
  Si  Si30  1  0.97175662  0.16145225  0.20771919  1
  Si  Si31  1  0.97175662  0.33854775  0.70771919  1
  O  O32  1  0.05354797  0.70225783  0.58957410  1
  O  O33  1  0.05354797  0.79774217  0.08957410  1
  O  O34  1  0.06092182  0.16294604  0.20819530  1
  O  O35  1  0.06092182  0.33705396  0.70819530  1
  O  O36  1  0.06694394  0.50474134  0.20322711  1
  O  O37  1  0.06694394  0.99525866  0.70322711  1
  O  O38  1  0.18610355  0.15982705  0.53853694  1
  O  O39  1  0.18610355  0.34017295  0.03853694  1
  O  O40  1  0.18885159  0.01069059  0.03977027  1
  O  O41  1  0.18885159  0.48930941  0.53977027  1
  O  O42  1  0.19574003  0.77102352  0.32159839  1
  O  O43  1  0.19574003  0.72897648  0.82159839  1
  O  O44  1  0.30425997  0.22897648  0.82159839  1
  O  O45  1  0.30425997  0.27102352  0.32159839  1
  O  O46  1  0.31114841  0.51069059  0.03977027  1
  O  O47  1  0.31114841  0.98930941  0.53977027  1
  O  O48  1  0.31389645  0.65982705  0.53853694  1
  O  O49  1  0.31389645  0.84017295  0.03853694  1
  O  O50  1  0.43305606  0.00474134  0.20322711  1
  O  O51  1  0.43305606  0.49525866  0.70322711  1
  O  O52  1  0.43907818  0.66294604  0.20819530  1
  O  O53  1  0.43907818  0.83705396  0.70819530  1
  O  O54  1  0.44645203  0.20225783  0.58957410  1
  O  O55  1  0.44645203  0.29774217  0.08957410  1
  O  O56  1  0.55354797  0.70225783  0.91042590  1
  O  O57  1  0.55354797  0.79774217  0.41042590  1
  O  O58  1  0.56092182  0.16294604  0.29180470  1
  O  O59  1  0.56092182  0.33705396  0.79180470  1
  O  O60  1  0.56694394  0.50474134  0.29677289  1
  O  O61  1  0.56694394  0.99525866  0.79677289  1
  O  O62  1  0.68610355  0.15982705  0.96146306  1
  O  O63  1  0.68610355  0.34017295  0.46146306  1
  O  O64  1  0.68885159  0.01069059  0.46022973  1
  O  O65  1  0.68885159  0.48930941  0.96022973  1
  O  O66  1  0.69574003  0.72897648  0.67840161  1
  O  O67  1  0.69574003  0.77102352  0.17840161  1
  O  O68  1  0.80425997  0.22897648  0.67840161  1
  O  O69  1  0.80425997  0.27102352  0.17840161  1
  O  O70  1  0.81114841  0.51069059  0.46022973  1
  O  O71  1  0.81114841  0.98930941  0.96022973  1
  O  O72  1  0.81389645  0.65982705  0.96146306  1
  O  O73  1  0.81389645  0.84017295  0.46146306  1
  O  O74  1  0.93305606  0.00474134  0.29677289  1
  O  O75  1  0.93305606  0.49525866  0.79677289  1
  O  O76  1  0.93907818  0.66294604  0.29180470  1
  O  O77  1  0.93907818  0.83705396  0.79180470  1
  O  O78  1  0.94645203  0.20225783  0.91042590  1
  O  O79  1  0.94645203  0.29774217  0.41042590  1
