# generated using pymatgen
data_LiSi6Bi9O26
_symmetry_space_group_name_H-M   'P 1'
_cell_length_a   9.70813114
_cell_length_b   9.70806276
_cell_length_c   7.08245143
_cell_angle_alpha   89.99873966
_cell_angle_beta   90.00117563
_cell_angle_gamma   120.00136492
_symmetry_Int_Tables_number   1
_chemical_formula_structural   LiSi6Bi9O26
_chemical_formula_sum   'Li1 Si6 Bi9 O26'
_cell_volume   578.06473063
_cell_formula_units_Z   1
loop_
 _symmetry_equiv_pos_site_id
 _symmetry_equiv_pos_as_xyz
  1  'x, y, z'
loop_
 _atom_site_type_symbol
 _atom_site_label
 _atom_site_symmetry_multiplicity
 _atom_site_fract_x
 _atom_site_fract_y
 _atom_site_fract_z
 _atom_site_occupancy
  Li  Li0  1  0.33330458  0.66669557  0.51887893  1
  Si  Si1  1  0.03027022  0.62255170  0.25238610  1
  Si  Si2  1  0.59228673  0.96972996  0.25238836  1
  Si  Si3  1  0.37742948  0.40771994  0.25237574  1
  Si  Si4  1  0.62373405  0.60194065  0.74832257  1
  Si  Si5  1  0.39806257  0.02180332  0.74833978  1
  Si  Si6  1  0.97818716  0.37625071  0.74835117  1
  Bi  Bi7  1  0.98821458  0.76029138  0.73330577  1
  Bi  Bi8  1  0.33333005  0.66666907  0.97738109  1
  Bi  Bi9  1  0.23971326  0.22793036  0.73329443  1
  Bi  Bi10  1  0.22447360  0.98150524  0.23666276  1
  Bi  Bi11  1  0.77205866  0.01178144  0.73329871  1
  Bi  Bi12  1  0.75703503  0.77553336  0.23664900  1
  Bi  Bi13  1  0.66662960  0.33333576  0.00169028  1
  Bi  Bi14  1  0.66667077  0.33333693  0.48900703  1
  Bi  Bi15  1  0.01847996  0.24295202  0.23665335  1
  O  O16  1  0.06586986  0.75439923  0.42179801  1
  O  O17  1  0.09825816  0.74412711  0.06681518  1
  O  O18  1  0.12772863  0.52701489  0.26521924  1
  O  O19  1  0.32397876  0.83062219  0.74172649  1
  O  O20  1  0.16937747  0.49337038  0.74171954  1
  O  O21  1  0.39927730  0.87226369  0.26524728  1
  O  O22  1  0.00000467  0.00000096  0.18785827  1
  O  O23  1  0.00000347  0.99999835  0.69182312  1
  O  O24  1  0.25584969  0.35413843  0.06681272  1
  O  O25  1  0.24559467  0.31144181  0.42178295  1
  O  O26  1  0.50663509  0.67600826  0.74169930  1
  O  O27  1  0.47298383  0.60072839  0.26519593  1
  O  O28  1  0.64585976  0.90174632  0.06681248  1
  O  O29  1  0.68854823  0.93414018  0.42178397  1
  O  O30  1  0.32905200  0.08151256  0.92665846  1
  O  O31  1  0.35342706  0.10047886  0.56606919  1
  O  O32  1  0.52782176  0.40469290  0.75950917  1
  O  O33  1  0.50290147  0.33902402  0.24436954  1
  O  O34  1  0.75244914  0.67094228  0.92665555  1
  O  O35  1  0.74706347  0.64658226  0.56606602  1
  O  O36  1  0.59530266  0.12313049  0.75953697  1
  O  O37  1  0.83609621  0.49707603  0.24438735  1
  O  O38  1  0.66097027  0.16389948  0.24438239  1
  O  O39  1  0.87686921  0.47216831  0.75954814  1
  O  O40  1  0.89950473  0.25294340  0.56608092  1
  O  O41  1  0.91849513  0.24752082  0.92665776  1
