# generated using pymatgen
data_LiSi2BiO6
_symmetry_space_group_name_H-M   'P 1'
_cell_length_a   6.88179767
_cell_length_b   6.88179767
_cell_length_c   5.29160276
_cell_angle_alpha   78.64584094
_cell_angle_beta   101.35415906
_cell_angle_gamma   94.06482598
_symmetry_Int_Tables_number   1
_chemical_formula_structural   LiSi2BiO6
_chemical_formula_sum   'Li2 Si4 Bi2 O12'
_cell_volume   240.75795398
_cell_formula_units_Z   2
loop_
 _symmetry_equiv_pos_site_id
 _symmetry_equiv_pos_as_xyz
  1  'x, y, z'
loop_
 _atom_site_type_symbol
 _atom_site_label
 _atom_site_symmetry_multiplicity
 _atom_site_fract_x
 _atom_site_fract_y
 _atom_site_fract_z
 _atom_site_occupancy
  Li  Li0  1  0.08908434  0.08908434  0.75000000  1
  Li  Li1  1  0.91091566  0.91091566  0.25000000  1
  Si  Si2  1  0.19320259  0.62450876  0.73159392  1
  Si  Si3  1  0.37549124  0.80679741  0.23159392  1
  Si  Si4  1  0.62450876  0.19320259  0.76840608  1
  Si  Si5  1  0.80679741  0.37549124  0.26840608  1
  Bi  Bi6  1  0.72781069  0.72781069  0.75000000  1
  Bi  Bi7  1  0.27218931  0.27218931  0.25000000  1
  O  O8  1  0.02205837  0.79165111  0.64558379  1
  O  O9  1  0.20834889  0.97794163  0.14558379  1
  O  O10  1  0.11718426  0.39863317  0.82062534  1
  O  O11  1  0.31759485  0.63949356  0.48695789  1
  O  O12  1  0.60136683  0.88281574  0.32062534  1
  O  O13  1  0.36050644  0.68240515  0.98695789  1
  O  O14  1  0.63949356  0.31759485  0.01304211  1
  O  O15  1  0.39863317  0.11718426  0.67937466  1
  O  O16  1  0.68240515  0.36050644  0.51304211  1
  O  O17  1  0.88281574  0.60136683  0.17937466  1
  O  O18  1  0.79165111  0.02205837  0.85441621  1
  O  O19  1  0.97794163  0.20834889  0.35441621  1
