# generated using pymatgen
data_LiFeSiO4
_symmetry_space_group_name_H-M   'P 1'
_cell_length_a   7.28954300
_cell_length_b   7.28954300
_cell_length_c   7.28954300
_cell_angle_alpha   90.00000000
_cell_angle_beta   90.00000000
_cell_angle_gamma   90.00000000
_symmetry_Int_Tables_number   1
_chemical_formula_structural   LiFeSiO4
_chemical_formula_sum   'Li4 Fe4 Si4 O16'
_cell_volume   387.34763301
_cell_formula_units_Z   4
loop_
 _symmetry_equiv_pos_site_id
 _symmetry_equiv_pos_as_xyz
  1  'x, y, z'
loop_
 _atom_site_type_symbol
 _atom_site_label
 _atom_site_symmetry_multiplicity
 _atom_site_fract_x
 _atom_site_fract_y
 _atom_site_fract_z
 _atom_site_occupancy
  Li  Li0  1  0.25703714  0.74296286  0.24296286  1
  Li  Li1  1  0.24296286  0.25703714  0.74296286  1
  Li  Li2  1  0.75703714  0.75703714  0.75703714  1
  Li  Li3  1  0.74296286  0.24296286  0.25703714  1
  Fe  Fe4  1  0.19577583  0.69577583  0.80422417  1
  Fe  Fe5  1  0.30422417  0.30422417  0.30422417  1
  Fe  Fe6  1  0.69577583  0.80422417  0.19577583  1
  Fe  Fe7  1  0.80422417  0.19577583  0.69577583  1
  Si  Si8  1  0.03110361  0.03110361  0.03110361  1
  Si  Si9  1  0.96889639  0.53110361  0.46889639  1
  Si  Si10  1  0.46889639  0.96889639  0.53110361  1
  Si  Si11  1  0.53110361  0.46889639  0.96889639  1
  O  O12  1  0.97893125  0.61932705  0.67781227  1
  O  O13  1  0.15904072  0.15904072  0.15904072  1
  O  O14  1  0.17781227  0.52106875  0.38067295  1
  O  O15  1  0.11932705  0.82218773  0.02106875  1
  O  O16  1  0.38067295  0.17781227  0.52106875  1
  O  O17  1  0.32218773  0.47893125  0.88067295  1
  O  O18  1  0.34095928  0.84095928  0.65904072  1
  O  O19  1  0.52106875  0.38067295  0.17781227  1
  O  O20  1  0.47893125  0.88067295  0.32218773  1
  O  O21  1  0.65904072  0.34095928  0.84095928  1
  O  O22  1  0.67781227  0.97893125  0.61932705  1
  O  O23  1  0.61932705  0.67781227  0.97893125  1
  O  O24  1  0.88067295  0.32218773  0.47893125  1
  O  O25  1  0.82218773  0.02106875  0.11932705  1
  O  O26  1  0.84095928  0.65904072  0.34095928  1
  O  O27  1  0.02106875  0.11932705  0.82218773  1
