# generated using pymatgen
data_Li3V(Si2O5)3
_symmetry_space_group_name_H-M   'P 1'
_cell_length_a   9.90784617
_cell_length_b   7.90621053
_cell_length_c   15.00292042
_cell_angle_alpha   89.95395027
_cell_angle_beta   89.88372675
_cell_angle_gamma   90.10089635
_symmetry_Int_Tables_number   1
_chemical_formula_structural   Li3V(Si2O5)3
_chemical_formula_sum   'Li12 V4 Si24 O60'
_cell_volume   1175.22690686
_cell_formula_units_Z   4
loop_
 _symmetry_equiv_pos_site_id
 _symmetry_equiv_pos_as_xyz
  1  'x, y, z'
loop_
 _atom_site_type_symbol
 _atom_site_label
 _atom_site_symmetry_multiplicity
 _atom_site_fract_x
 _atom_site_fract_y
 _atom_site_fract_z
 _atom_site_occupancy
  Li  Li0  1  0.92192188  0.25272986  0.06358357  1
  Li  Li1  1  0.58057816  0.25080631  0.56565486  1
  Li  Li2  1  0.49756700  0.00389134  0.24342313  1
  Li  Li3  1  0.49825387  0.49959397  0.24213785  1
  Li  Li4  1  0.50100589  0.00261490  0.75679484  1
  Li  Li5  1  0.49977243  0.49908728  0.75907799  1
  Li  Li6  1  0.41919580  0.74883748  0.43553805  1
  Li  Li7  1  0.08075517  0.74885382  0.93677162  1
  Li  Li8  1  0.99767490  0.00154926  0.25700339  1
  Li  Li9  1  0.99897246  0.50059475  0.25615180  1
  Li  Li10  1  0.00402569  0.49653982  0.73994603  1
  Li  Li11  1  0.00174603  0.99940320  0.74311501  1
  V  V12  1  0.74740495  0.25073959  0.25094262  1
  V  V13  1  0.75323430  0.25080275  0.75162279  1
  V  V14  1  0.25229698  0.74879121  0.74885131  1
  V  V15  1  0.24686714  0.75314310  0.24947108  1
  Si  Si16  1  0.97220076  0.74997586  0.40174783  1
  Si  Si17  1  0.97284371  0.74896702  0.59866168  1
  Si  Si18  1  0.79319749  0.55987217  0.09870960  1
  Si  Si19  1  0.79341838  0.94071167  0.09866046  1
  Si  Si20  1  0.79609023  0.94244510  0.89979530  1
  Si  Si21  1  0.79667627  0.55868877  0.89938501  1
  Si  Si22  1  0.70511583  0.94342122  0.40076670  1
  Si  Si23  1  0.70483699  0.56181046  0.60036116  1
  Si  Si24  1  0.70491368  0.55895776  0.40065242  1
  Si  Si25  1  0.70757082  0.94145411  0.59979166  1
  Si  Si26  1  0.52620368  0.74979328  0.09826077  1
  Si  Si27  1  0.52919264  0.74772286  0.90087443  1
  Si  Si28  1  0.47264015  0.24815565  0.90124519  1
  Si  Si29  1  0.46959944  0.25013503  0.09747268  1
  Si  Si30  1  0.29340356  0.43934537  0.40027779  1
  Si  Si31  1  0.29487355  0.05752004  0.59916867  1
  Si  Si32  1  0.29298325  0.06001870  0.40061185  1
  Si  Si33  1  0.29618315  0.44154943  0.59931772  1
  Si  Si34  1  0.20189384  0.05827308  0.09903378  1
  Si  Si35  1  0.20650039  0.43851180  0.89984075  1
  Si  Si36  1  0.20572206  0.05886507  0.90027036  1
  Si  Si37  1  0.20267597  0.44344443  0.09949023  1
  Si  Si38  1  0.02861806  0.25032929  0.59773950  1
  Si  Si39  1  0.02681811  0.25078215  0.40147439  1
  O  O40  1  0.95501052  0.25058802  0.50001280  1
  O  O41  1  0.93035039  0.25009190  0.31696276  1
  O  O42  1  0.93292915  0.25261194  0.68285294  1
  O  O43  1  0.86870224  0.58690981  0.39477408  1
  O  O44  1  0.86895088  0.91406322  0.39653359  1
  O  O45  1  0.86896199  0.58577396  0.60588961  1
  O  O46  1  0.87132025  0.91574924  0.60541602  1
  O  O47  1  0.86240374  0.74991319  0.10710814  1
  O  O48  1  0.87039190  0.75078930  0.89787828  1
  O  O49  1  0.84756081  0.07302125  0.17123374  1
  O  O50  1  0.84888633  0.42541876  0.16978944  1
  O  O51  1  0.84532884  0.06061702  0.82019109  1
  O  O52  1  0.84642980  0.44051236  0.81964701  1
  O  O53  1  0.83618089  0.47960560  -0.00072662  1
  O  O54  1  0.83601654  0.02120809  -0.00040968  1
  O  O55  1  0.66486854  0.48067438  0.50022761  1
  O  O56  1  0.66327967  0.02145221  0.50039893  1
  O  O57  1  0.65049924  0.07656620  0.67011074  1
  O  O58  1  0.65548453  0.06003629  0.32017681  1
  O  O59  1  0.65568510  0.44019687  0.32049761  1
  O  O60  1  0.65018207  0.42691648  0.67159785  1
  O  O61  1  0.63192541  0.75048200  0.39872552  1
  O  O62  1  0.63704556  0.75249489  0.60818257  1
  O  O63  1  0.62969805  0.91487600  0.10374434  1
  O  O64  1  0.62922877  0.58491060  0.10655119  1
  O  O65  1  0.63252718  0.91305015  0.89619077  1
  O  O66  1  0.63350015  0.58456293  0.89426015  1
  O  O67  1  0.56445024  0.24899095  0.18296115  1
  O  O68  1  0.56933089  0.24863813  0.81664900  1
  O  O69  1  0.54418151  0.24803299  -0.00007071  1
  O  O70  1  0.45656393  0.74651814  -0.00064148  1
  O  O71  1  0.42748377  0.75028726  0.18241755  1
  O  O72  1  0.43223326  0.74668345  0.81674326  1
  O  O73  1  0.36977248  0.08286285  0.89416546  1
  O  O74  1  0.37096922  0.41383621  0.89557785  1
  O  O75  1  0.36574532  0.08502251  0.10262940  1
  O  O76  1  0.36633656  0.41502008  0.10297649  1
  O  O77  1  0.36881927  0.24938518  0.59957078  1
  O  O78  1  0.36129066  0.24904708  0.39144684  1
  O  O79  1  0.34677728  0.55956766  0.67894384  1
  O  O80  1  0.34321945  0.94076934  0.67949931  1
  O  O81  1  0.34901924  0.57417810  0.32909412  1
  O  O82  1  0.34854531  0.92815051  0.32891927  1
  O  O83  1  0.33464308  0.97895911  0.49951604  1
  O  O84  1  0.33635810  0.51944673  0.49949187  1
  O  O85  1  0.16250215  0.97954425  0.99919948  1
  O  O86  1  0.16362279  0.51902903  -0.00136803  1
  O  O87  1  0.15255190  0.56188680  0.17900552  1
  O  O88  1  0.15056496  0.94114416  0.17908322  1
  O  O89  1  0.15185427  0.57068731  0.82780579  1
  O  O90  1  0.14900314  0.92488730  0.82931535  1
  O  O91  1  0.12978464  0.25040659  0.10090037  1
  O  O92  1  0.13833233  0.24845651  0.89054557  1
  O  O93  1  0.13252863  0.41487288  0.60297211  1
  O  O94  1  0.12916005  0.41739027  0.39436705  1
  O  O95  1  0.12884534  0.08554130  0.39519653  1
  O  O96  1  0.13118133  0.08529424  0.60373718  1
  O  O97  1  0.06966117  0.75200798  0.31759339  1
  O  O98  1  0.07046964  0.75071943  0.68218680  1
  O  O99  1  0.04461287  0.74936911  0.50005844  1
