# generated using pymatgen
data_LiNbVO4
_symmetry_space_group_name_H-M   'P 1'
_cell_length_a   6.16184712
_cell_length_b   6.16184712
_cell_length_c   8.76874094
_cell_angle_alpha   90.00000000
_cell_angle_beta   90.00000000
_cell_angle_gamma   90.00000000
_symmetry_Int_Tables_number   1
_chemical_formula_structural   LiNbVO4
_chemical_formula_sum   'Li4 Nb4 V4 O16'
_cell_volume   332.93471215
_cell_formula_units_Z   4
loop_
 _symmetry_equiv_pos_site_id
 _symmetry_equiv_pos_as_xyz
  1  'x, y, z'
loop_
 _atom_site_type_symbol
 _atom_site_label
 _atom_site_symmetry_multiplicity
 _atom_site_fract_x
 _atom_site_fract_y
 _atom_site_fract_z
 _atom_site_occupancy
  Li  Li0  1  0.00000000  0.23036727  0.00000000  1
  Li  Li1  1  0.00000000  0.76963273  0.50000000  1
  Li  Li2  1  0.23036727  0.00000000  0.25000000  1
  Li  Li3  1  0.76963273  0.00000000  0.75000000  1
  Nb  Nb4  1  0.25367633  0.25367633  0.62500000  1
  Nb  Nb5  1  0.25367633  0.74632367  0.87500000  1
  Nb  Nb6  1  0.74632367  0.25367633  0.37500000  1
  Nb  Nb7  1  0.74632367  0.74632367  0.12500000  1
  V  V8  1  0.24171459  0.50000000  0.25000000  1
  V  V9  1  0.50000000  0.24171459  0.00000000  1
  V  V10  1  0.50000000  0.75828541  0.50000000  1
  V  V11  1  0.75828541  0.50000000  0.75000000  1
  O  O12  1  0.99839728  0.25489119  0.25477577  1
  O  O13  1  0.99839728  0.74510881  0.24522423  1
  O  O14  1  0.25489119  0.99839728  0.99522423  1
  O  O15  1  0.25489119  0.00160272  0.50477577  1
  O  O16  1  0.25693524  0.49830702  0.00459613  1
  O  O17  1  0.25693524  0.50169298  0.49540387  1
  O  O18  1  0.49830702  0.25693524  0.24540387  1
  O  O19  1  0.49830702  0.74306476  0.25459613  1
  O  O20  1  0.50169298  0.25693524  0.75459613  1
  O  O21  1  0.50169298  0.74306476  0.74540387  1
  O  O22  1  0.74306476  0.50169298  0.50459613  1
  O  O23  1  0.74306476  0.49830702  0.99540387  1
  O  O24  1  0.74510881  0.99839728  0.00477577  1
  O  O25  1  0.74510881  0.00160272  0.49522423  1
  O  O26  1  0.00160272  0.25489119  0.74522423  1
  O  O27  1  0.00160272  0.74510881  0.75477577  1
