# generated using pymatgen
data_Li2CrSiO4
_symmetry_space_group_name_H-M   'P 1'
_cell_length_a   5.11346928
_cell_length_b   5.11259131
_cell_length_c   11.68301661
_cell_angle_alpha   89.99678694
_cell_angle_beta   89.99559919
_cell_angle_gamma   119.99622246
_symmetry_Int_Tables_number   1
_chemical_formula_structural   Li2CrSiO4
_chemical_formula_sum   'Li6 Cr3 Si3 O12'
_cell_volume   264.52022314
_cell_formula_units_Z   3
loop_
 _symmetry_equiv_pos_site_id
 _symmetry_equiv_pos_as_xyz
  1  'x, y, z'
loop_
 _atom_site_type_symbol
 _atom_site_label
 _atom_site_symmetry_multiplicity
 _atom_site_fract_x
 _atom_site_fract_y
 _atom_site_fract_z
 _atom_site_occupancy
  Li  Li0  1  0.33523352  0.89877737  0.58572257  1
  Li  Li1  1  0.10127379  0.43642133  0.91903510  1
  Li  Li2  1  0.56354074  0.66478780  0.25236622  1
  Li  Li3  1  0.43639609  0.10116195  0.08092463  1
  Li  Li4  1  0.66482841  0.56353149  0.74760936  1
  Li  Li5  1  0.89882753  0.33526763  0.41432561  1
  Cr  Cr6  1  0.99982724  0.44965622  0.16669862  1
  Cr  Cr7  1  0.55036670  0.55038255  0.50003002  1
  Cr  Cr8  1  0.44955869  0.99979117  0.83330820  1
  Si  Si9  1  0.00016959  0.20047936  0.66664140  1
  Si  Si10  1  0.20037552  0.00009827  0.33326401  1
  Si  Si11  1  0.79959783  0.79952938  0.00007780  1
  O  O12  1  0.12945547  0.84377561  0.95876641  1
  O  O13  1  0.12496880  0.44430834  0.56034572  1
  O  O14  1  0.31933476  0.87507893  0.22700448  1
  O  O15  1  0.15613624  0.28547782  0.29230723  1
  O  O16  1  0.28552711  0.15621127  0.70773673  1
  O  O17  1  0.71443358  0.87057829  0.62561379  1
  O  O18  1  0.55548222  0.68055895  0.89344400  1
  O  O19  1  0.68062701  0.55580951  0.10625432  1
  O  O20  1  0.44452768  0.12510766  0.43984307  1
  O  O21  1  0.87059799  0.71440634  0.37453676  1
  O  O22  1  0.84389884  0.12939722  0.04101660  1
  O  O23  1  0.87501663  0.31940555  0.77309235  1
