# generated using pymatgen
data_Na4Ti5O12
_symmetry_space_group_name_H-M   'P 1'
_cell_length_a   6.19476595
_cell_length_b   6.19609809
_cell_length_c   14.26914930
_cell_angle_alpha   100.61185024
_cell_angle_beta   104.55503661
_cell_angle_gamma   89.82748210
_symmetry_Int_Tables_number   1
_chemical_formula_structural   Na4Ti5O12
_chemical_formula_sum   'Na8 Ti10 O24'
_cell_volume   520.51499540
_cell_formula_units_Z   2
loop_
 _symmetry_equiv_pos_site_id
 _symmetry_equiv_pos_as_xyz
  1  'x, y, z'
loop_
 _atom_site_type_symbol
 _atom_site_label
 _atom_site_symmetry_multiplicity
 _atom_site_fract_x
 _atom_site_fract_y
 _atom_site_fract_z
 _atom_site_occupancy
  Na  Na0  1  0.01958713  0.00478542  0.00331242  1
  Na  Na1  1  0.29163102  0.54169806  0.08330211  1
  Na  Na2  1  0.56361352  0.07852858  0.16333758  1
  Na  Na3  1  0.65066350  0.65063874  0.33338143  1
  Na  Na4  1  0.24831691  0.73349661  0.50327501  1
  Na  Na5  1  0.79167448  0.54165158  0.58333152  1
  Na  Na6  1  0.33502370  0.34986425  0.66339197  1
  Na  Na7  1  0.93267570  0.43262400  0.83327585  1
  Ti  Ti8  1  0.79160834  0.54171174  0.08336114  1
  Ti  Ti9  1  0.09679974  0.37888182  0.24666306  1
  Ti  Ti10  1  0.11033048  0.88034623  0.24842708  1
  Ti  Ti11  1  0.46554935  0.18349223  0.42000303  1
  Ti  Ti12  1  0.96519801  0.19511258  0.41826279  1
  Ti  Ti13  1  0.79173528  0.04165544  0.58334519  1
  Ti  Ti14  1  0.11786305  0.89975382  0.74669371  1
  Ti  Ti15  1  0.61821717  0.88828845  0.74837758  1
  Ti  Ti16  1  0.47296349  0.20294159  0.91823440  1
  Ti  Ti17  1  0.48664758  0.70430914  0.91997213  1
  O  O18  1  0.56171597  0.30248178  0.05592622  1
  O  O19  1  0.55745046  0.75819479  0.05693875  1
  O  O20  1  0.02162074  0.78091169  0.11074242  1
  O  O21  1  0.02588539  0.32517402  0.10971015  1
  O  O22  1  0.86334215  0.59266520  0.23063033  1
  O  O23  1  0.29184992  0.61851833  0.26357344  1
  O  O24  1  0.31738010  0.11352769  0.25993351  1
  O  O25  1  0.90035536  0.11425064  0.26562373  1
  O  O26  1  0.18237654  0.96811656  0.40107272  1
  O  O27  1  0.18684896  0.39069579  0.40672357  1
  O  O28  1  0.68850187  0.36164631  0.40311480  1
  O  O29  1  0.69556542  0.96618672  0.43602111  1
  O  O30  1  0.00362703  0.24410591  0.55598620  1
  O  O31  1  0.54884901  0.24955373  0.55693996  1
  O  O32  1  0.03452723  0.83373553  0.60975868  1
  O  O33  1  0.57971559  0.83914709  0.61069712  1
  O  O34  1  0.88770873  0.11709195  0.73064732  1
  O  O35  1  0.89485275  0.72169488  0.76358116  1
  O  O36  1  0.39646869  0.69267818  0.75996962  1
  O  O37  1  0.40093827  0.11523333  0.76559105  1
  O  O38  1  0.26588529  0.96987612  0.90671937  1
  O  O39  1  0.68297175  0.96914740  0.90104131  1
  O  O40  1  0.29147951  0.46483179  0.90309203  1
  O  O41  1  0.71998780  0.49075429  0.93601647  1
