# generated using pymatgen
data_Li3Fe(Si2O5)3
_symmetry_space_group_name_H-M   'P 1'
_cell_length_a   9.86328217
_cell_length_b   7.97666109
_cell_length_c   14.97597961
_cell_angle_alpha   90.00000000
_cell_angle_beta   90.00000000
_cell_angle_gamma   90.00000000
_symmetry_Int_Tables_number   1
_chemical_formula_structural   Li3Fe(Si2O5)3
_chemical_formula_sum   'Li12 Fe4 Si24 O60'
_cell_volume   1178.25105695
_cell_formula_units_Z   4
loop_
 _symmetry_equiv_pos_site_id
 _symmetry_equiv_pos_as_xyz
  1  'x, y, z'
loop_
 _atom_site_type_symbol
 _atom_site_label
 _atom_site_symmetry_multiplicity
 _atom_site_fract_x
 _atom_site_fract_y
 _atom_site_fract_z
 _atom_site_occupancy
  Li  Li0  1  0.91541355  0.25000000  0.06373873  1
  Li  Li1  1  0.58458645  0.25000000  0.56373873  1
  Li  Li2  1  0.49807729  0.99945726  0.24386791  1
  Li  Li3  1  0.49807729  0.50054274  0.24386791  1
  Li  Li4  1  0.50192271  0.00054274  0.75613209  1
  Li  Li5  1  0.50192271  0.49945726  0.75613209  1
  Li  Li6  1  0.41541355  0.75000000  0.43626127  1
  Li  Li7  1  0.08458645  0.75000000  0.93626127  1
  Li  Li8  1  0.99807729  0.00054274  0.25613209  1
  Li  Li9  1  0.99807729  0.49945726  0.25613209  1
  Li  Li10  1  0.00192271  0.99945726  0.74386791  1
  Li  Li11  1  0.00192271  0.50054274  0.74386791  1
  Fe  Fe12  1  0.74607495  0.25000000  0.25191458  1
  Fe  Fe13  1  0.75392505  0.25000000  0.75191458  1
  Fe  Fe14  1  0.24607495  0.75000000  0.24808542  1
  Fe  Fe15  1  0.25392505  0.75000000  0.74808542  1
  Si  Si16  1  0.97355283  0.75000000  0.40167099  1
  Si  Si17  1  0.97529913  0.75000000  0.59934601  1
  Si  Si18  1  0.79208261  0.56122991  0.10050798  1
  Si  Si19  1  0.79208261  0.93877009  0.10050798  1
  Si  Si20  1  0.79416421  0.94063201  0.89969801  1
  Si  Si21  1  0.79416421  0.55936799  0.89969801  1
  Si  Si22  1  0.70583579  0.94063201  0.39969801  1
  Si  Si23  1  0.70583579  0.55936799  0.39969801  1
  Si  Si24  1  0.70791739  0.56122991  0.60050798  1
  Si  Si25  1  0.70791739  0.93877009  0.60050798  1
  Si  Si26  1  0.52470087  0.75000000  0.09934601  1
  Si  Si27  1  0.52644717  0.75000000  0.90167099  1
  Si  Si28  1  0.47529913  0.25000000  0.90065399  1
  Si  Si29  1  0.47355283  0.25000000  0.09832901  1
  Si  Si30  1  0.29208261  0.43877009  0.39949202  1
  Si  Si31  1  0.29208261  0.06122991  0.39949202  1
  Si  Si32  1  0.29416421  0.05936799  0.60030199  1
  Si  Si33  1  0.29416421  0.44063201  0.60030199  1
  Si  Si34  1  0.20583579  0.05936799  0.10030199  1
  Si  Si35  1  0.20791739  0.43877009  0.89949202  1
  Si  Si36  1  0.20791739  0.06122991  0.89949202  1
  Si  Si37  1  0.20583579  0.44063201  0.10030199  1
  Si  Si38  1  0.02644717  0.25000000  0.59832901  1
  Si  Si39  1  0.02470087  0.25000000  0.40065399  1
  O  O40  1  0.95489624  0.25000000  0.49976734  1
  O  O41  1  0.92147196  0.25000000  0.31834092  1
  O  O42  1  0.92475443  0.25000000  0.68132999  1
  O  O43  1  0.87050826  0.58747119  0.39330811  1
  O  O44  1  0.87050826  0.91252881  0.39330811  1
  O  O45  1  0.87301548  0.58610626  0.60827485  1
  O  O46  1  0.87301548  0.91389374  0.60827485  1
  O  O47  1  0.85987454  0.75000000  0.10932633  1
  O  O48  1  0.86697313  0.75000000  0.89786000  1
  O  O49  1  0.85045378  0.07361155  0.17002120  1
  O  O50  1  0.85045378  0.42638845  0.17002120  1
  O  O51  1  0.84520585  0.05930440  0.82071248  1
  O  O52  1  0.84520585  0.44069560  0.82071248  1
  O  O53  1  0.83141046  0.48308900  0.00020066  1
  O  O54  1  0.83141046  0.01691100  0.00020066  1
  O  O55  1  0.66858954  0.48308900  0.50020066  1
  O  O56  1  0.66858954  0.01691100  0.50020066  1
  O  O57  1  0.64954622  0.07361155  0.67002120  1
  O  O58  1  0.65479415  0.05930440  0.32071248  1
  O  O59  1  0.65479415  0.44069560  0.32071248  1
  O  O60  1  0.64954622  0.42638845  0.67002120  1
  O  O61  1  0.63302687  0.75000000  0.39786000  1
  O  O62  1  0.64012546  0.75000000  0.60932633  1
  O  O63  1  0.62698452  0.91389374  0.10827485  1
  O  O64  1  0.62698452  0.58610626  0.10827485  1
  O  O65  1  0.62949174  0.58747119  0.89330811  1
  O  O66  1  0.62949174  0.91252881  0.89330811  1
  O  O67  1  0.57524557  0.25000000  0.18132999  1
  O  O68  1  0.57852804  0.25000000  0.81834092  1
  O  O69  1  0.54510376  0.25000000  0.99976734  1
  O  O70  1  0.45489624  0.75000000  0.00023266  1
  O  O71  1  0.42147196  0.75000000  0.18165908  1
  O  O72  1  0.42475443  0.75000000  0.81867001  1
  O  O73  1  0.37301548  0.08610626  0.89172515  1
  O  O74  1  0.37301548  0.41389374  0.89172515  1
  O  O75  1  0.37050826  0.08747119  0.10669189  1
  O  O76  1  0.37050826  0.41252881  0.10669189  1
  O  O77  1  0.36697313  0.25000000  0.60214000  1
  O  O78  1  0.35987454  0.25000000  0.39067367  1
  O  O79  1  0.34520585  0.55930440  0.67928752  1
  O  O80  1  0.34520585  0.94069560  0.67928752  1
  O  O81  1  0.35045378  0.57361155  0.32997880  1
  O  O82  1  0.35045378  0.92638845  0.32997880  1
  O  O83  1  0.33141046  0.98308900  0.49979934  1
  O  O84  1  0.33141046  0.51691100  0.49979934  1
  O  O85  1  0.16858954  0.98308900  0.99979934  1
  O  O86  1  0.16858954  0.51691100  0.99979934  1
  O  O87  1  0.15479415  0.55930440  0.17928752  1
  O  O88  1  0.15479415  0.94069560  0.17928752  1
  O  O89  1  0.14954622  0.57361155  0.82997880  1
  O  O90  1  0.14954622  0.92638845  0.82997880  1
  O  O91  1  0.13302687  0.25000000  0.10214000  1
  O  O92  1  0.14012546  0.25000000  0.89067367  1
  O  O93  1  0.12949174  0.41252881  0.60669189  1
  O  O94  1  0.12698452  0.41389374  0.39172515  1
  O  O95  1  0.12698452  0.08610626  0.39172515  1
  O  O96  1  0.12949174  0.08747119  0.60669189  1
  O  O97  1  0.07524557  0.75000000  0.31867001  1
  O  O98  1  0.07852804  0.75000000  0.68165908  1
  O  O99  1  0.04510376  0.75000000  0.50023266  1
