# generated using pymatgen
data_Na3BiO3
_symmetry_space_group_name_H-M   'P 1'
_cell_length_a   10.35410983
_cell_length_b   11.33847462
_cell_length_c   10.34101086
_cell_angle_alpha   113.44722696
_cell_angle_beta   89.07426940
_cell_angle_gamma   108.59932858
_symmetry_Int_Tables_number   1
_chemical_formula_structural   Na3BiO3
_chemical_formula_sum   'Na24 Bi8 O24'
_cell_volume   1047.01723479
_cell_formula_units_Z   8
loop_
 _symmetry_equiv_pos_site_id
 _symmetry_equiv_pos_as_xyz
  1  'x, y, z'
loop_
 _atom_site_type_symbol
 _atom_site_label
 _atom_site_symmetry_multiplicity
 _atom_site_fract_x
 _atom_site_fract_y
 _atom_site_fract_z
 _atom_site_occupancy
  Na  Na0  1  0.08017226  0.91351922  0.48859842  1
  Na  Na1  1  0.07730105  0.52769066  0.35182358  1
  Na  Na2  1  0.09038913  0.48722698  0.89962527  1
  Na  Na3  1  0.15323303  0.35898734  0.60996014  1
  Na  Na4  1  0.29664029  0.77386224  0.43535028  1
  Na  Na5  1  0.33036524  0.58538041  0.13640690  1
  Na  Na6  1  0.34911451  0.65985723  0.89411735  1
  Na  Na7  1  0.49548984  0.94198768  0.27152082  1
  Na  Na8  1  0.40925721  0.61591236  0.57225762  1
  Na  Na9  1  0.51872560  0.89154153  0.87470912  1
  Na  Na10  1  0.32781768  0.15847384  0.51326464  1
  Na  Na11  1  0.53668950  0.55466978  0.27770030  1
  Na  Na12  1  0.46331050  0.44533022  0.72229970  1
  Na  Na13  1  0.67218232  0.84152616  0.48673536  1
  Na  Na14  1  0.48127440  0.10845847  0.12529088  1
  Na  Na15  1  0.59074279  0.38408764  0.42774238  1
  Na  Na16  1  0.50451016  0.05801232  0.72847918  1
  Na  Na17  1  0.65088549  0.34014277  0.10588265  1
  Na  Na18  1  0.66963476  0.41461959  0.86359310  1
  Na  Na19  1  0.70335971  0.22613776  0.56464972  1
  Na  Na20  1  0.84676697  0.64101266  0.39003986  1
  Na  Na21  1  0.90961087  0.51277302  0.10037473  1
  Na  Na22  1  0.92269895  0.47230934  0.64817642  1
  Na  Na23  1  0.91982774  0.08648078  0.51140158  1
  Bi  Bi24  1  0.17749555  0.84595416  0.15286671  1
  Bi  Bi25  1  0.16579379  0.78305383  0.73415626  1
  Bi  Bi26  1  0.27034777  0.32082138  0.28986517  1
  Bi  Bi27  1  0.26504467  0.23491196  0.83592162  1
  Bi  Bi28  1  0.73495533  0.76508804  0.16407838  1
  Bi  Bi29  1  0.72965223  0.67917862  0.71013483  1
  Bi  Bi30  1  0.83420621  0.21694617  0.26584374  1
  Bi  Bi31  1  0.82250445  0.15404584  0.84713329  1
  O  O32  1  0.06645384  0.72135675  0.52925670  1
  O  O33  1  0.13655384  0.64551085  0.13412179  1
  O  O34  1  0.14917701  0.59192593  0.73604436  1
  O  O35  1  0.27903574  0.93811245  0.36086789  1
  O  O36  1  0.36066397  0.87596970  0.05530666  1
  O  O37  1  0.13435496  0.15059910  0.64327356  1
  O  O38  1  0.36498742  0.83354691  0.67535429  1
  O  O39  1  0.29849664  0.52643842  0.33113456  1
  O  O40  1  0.29156344  0.44082206  0.88626828  1
  O  O41  1  0.34906940  0.36353872  0.49557642  1
  O  O42  1  0.55107270  0.75831136  0.25830920  1
  O  O43  1  0.54580468  0.68216225  0.79371757  1
  O  O44  1  0.45419532  0.31783775  0.20628243  1
  O  O45  1  0.44892730  0.24168864  0.74169080  1
  O  O46  1  0.65093060  0.63646128  0.50442358  1
  O  O47  1  0.70843656  0.55917794  0.11373172  1
  O  O48  1  0.70150336  0.47356158  0.66886544  1
  O  O49  1  0.63501258  0.16645309  0.32464571  1
  O  O50  1  0.86564504  0.84940090  0.35672644  1
  O  O51  1  0.63933603  0.12403030  0.94469334  1
  O  O52  1  0.72096426  0.06188755  0.63913211  1
  O  O53  1  0.85082299  0.40807407  0.26395564  1
  O  O54  1  0.86344616  0.35448915  0.86587821  1
  O  O55  1  0.93354616  0.27864325  0.47074330  1
