# generated using pymatgen
data_Li2AgF5
_symmetry_space_group_name_H-M   'P 1'
_cell_length_a   5.29125634
_cell_length_b   5.78040556
_cell_length_c   8.02446562
_cell_angle_alpha   110.44752487
_cell_angle_beta   89.96606305
_cell_angle_gamma   62.77994700
_symmetry_Int_Tables_number   1
_chemical_formula_structural   Li2AgF5
_chemical_formula_sum   'Li4 Ag2 F10'
_cell_volume   200.67702206
_cell_formula_units_Z   2
loop_
 _symmetry_equiv_pos_site_id
 _symmetry_equiv_pos_as_xyz
  1  'x, y, z'
loop_
 _atom_site_type_symbol
 _atom_site_label
 _atom_site_symmetry_multiplicity
 _atom_site_fract_x
 _atom_site_fract_y
 _atom_site_fract_z
 _atom_site_occupancy
  Li  Li0  1  0.64373082  0.73422415  0.26270363  1
  Li  Li1  1  0.62145123  0.73463141  0.76152807  1
  Li  Li2  1  0.37852662  0.26537152  0.23847279  1
  Li  Li3  1  0.35625028  0.26577740  0.73731669  1
  Ag  Ag4  1  0.00039023  0.00019468  -0.00009059  1
  Ag  Ag5  1  0.00003035  0.00000135  0.50002044  1
  F  F6  1  0.77893637  0.81968250  0.04214029  1
  F  F7  1  0.97663408  0.36973059  0.65710129  1
  F  F8  1  0.65406470  0.36950073  0.15788604  1
  F  F9  1  0.40115200  0.81957675  0.54192738  1
  F  F10  1  0.27360557  0.99950113  0.25003976  1
  F  F11  1  0.72640622  0.00047785  0.74994760  1
  F  F12  1  0.59879910  0.18043050  0.45807003  1
  F  F13  1  0.34584607  0.63054416  0.84214702  1
  F  F14  1  0.02335410  0.63026566  0.34289386  1
  F  F15  1  0.22082125  0.18008861  0.95789670  1
