# generated using pymatgen
data_Li4Ti2V3O10
_symmetry_space_group_name_H-M   'P 1'
_cell_length_a   7.84511906
_cell_length_b   6.72627807
_cell_length_c   7.94786147
_cell_angle_alpha   114.52268052
_cell_angle_beta   84.02564476
_cell_angle_gamma   89.12276121
_symmetry_Int_Tables_number   1
_chemical_formula_structural   Li4Ti2V3O10
_chemical_formula_sum   'Li8 Ti4 V6 O20'
_cell_volume   378.69890813
_cell_formula_units_Z   2
loop_
 _symmetry_equiv_pos_site_id
 _symmetry_equiv_pos_as_xyz
  1  'x, y, z'
loop_
 _atom_site_type_symbol
 _atom_site_label
 _atom_site_symmetry_multiplicity
 _atom_site_fract_x
 _atom_site_fract_y
 _atom_site_fract_z
 _atom_site_occupancy
  Li  Li0  1  0.04639651  0.34568691  0.77842796  1
  Li  Li1  1  0.15586626  0.06129973  0.40616798  1
  Li  Li2  1  0.99380092  0.49986298  0.49014778  1
  Li  Li3  1  0.50619908  0.00013702  0.50985222  1
  Li  Li4  1  0.34413374  0.43870027  0.59383202  1
  Li  Li5  1  0.45360349  0.15431309  0.22157204  1
  Li  Li6  1  0.66453586  0.57084164  0.40428880  1
  Li  Li7  1  0.83546414  0.92915836  0.59571120  1
  Ti  Ti8  1  0.28955716  0.59842889  0.30926343  1
  Ti  Ti9  1  0.21044284  0.90157111  0.69073657  1
  Ti  Ti10  1  0.80887572  0.08428944  0.31278601  1
  Ti  Ti11  1  0.69112428  0.41571056  0.68721399  1
  V  V12  1  0.09798294  0.22109292  0.09987022  1
  V  V13  1  0.40201706  0.27890708  0.90012978  1
  V  V14  1  0.25000000  0.75000000  0.00000000  1
  V  V15  1  0.75000000  0.25000000  0.00000000  1
  V  V16  1  0.60570179  0.71044036  0.09655085  1
  V  V17  1  0.89429821  0.78955964  0.90344915  1
  O  O18  1  0.30903098  0.01540362  0.94058557  1
  O  O19  1  0.27050070  0.15707315  0.66025257  1
  O  O20  1  0.22949930  0.34292685  0.33974743  1
  O  O21  1  0.13258884  0.64792781  0.76426002  1
  O  O22  1  0.19096902  0.48459638  0.05941443  1
  O  O23  1  0.09625530  0.77884125  0.46724917  1
  O  O24  1  0.63751897  0.15748951  0.76157525  1
  O  O25  1  0.02866347  0.94498491  0.14787501  1
  O  O26  1  0.47133653  0.55501509  0.85212499  1
  O  O27  1  0.59083570  0.27740061  0.46212103  1
  O  O28  1  0.40374470  0.72115875  0.53275083  1
  O  O29  1  0.52652235  0.43536758  0.14632035  1
  O  O30  1  0.97347765  0.06463242  0.85367965  1
  O  O31  1  0.36741116  0.85207219  0.23573998  1
  O  O32  1  0.90916430  0.22259939  0.53787897  1
  O  O33  1  0.81546081  0.50981383  0.92636601  1
  O  O34  1  0.86248103  0.34251049  0.23842475  1
  O  O35  1  0.77857504  0.65473303  0.65575982  1
  O  O36  1  0.72142496  0.84526697  0.34424018  1
  O  O37  1  0.68453919  0.99018617  0.07363399  1
