# generated using pymatgen
data_Li11V16O32
_symmetry_space_group_name_H-M   'P 1'
_cell_length_a   8.51546769
_cell_length_b   10.44478035
_cell_length_c   8.47793348
_cell_angle_alpha   65.50148103
_cell_angle_beta   91.29810441
_cell_angle_gamma   114.51681761
_symmetry_Int_Tables_number   1
_chemical_formula_structural   Li11V16O32
_chemical_formula_sum   'Li11 V16 O32'
_cell_volume   614.04535199
_cell_formula_units_Z   1
loop_
 _symmetry_equiv_pos_site_id
 _symmetry_equiv_pos_as_xyz
  1  'x, y, z'
loop_
 _atom_site_type_symbol
 _atom_site_label
 _atom_site_symmetry_multiplicity
 _atom_site_fract_x
 _atom_site_fract_y
 _atom_site_fract_z
 _atom_site_occupancy
  Li  Li0  1  0.91203021  0.28611341  0.32457228  1
  Li  Li1  1  0.93579764  0.61920570  0.80694765  1
  Li  Li2  1  0.66757185  0.11262762  0.57396498  1
  Li  Li3  1  0.84691946  0.81946571  0.89900121  1
  Li  Li4  1  0.56626835  0.38116011  0.67747004  1
  Li  Li5  1  0.60763602  0.74067768  0.13682283  1
  Li  Li6  1  0.26005576  0.17024682  0.97486635  1
  Li  Li7  1  0.26479355  0.50929762  0.25368676  1
  Li  Li8  1  0.11758916  0.26369669  0.12462930  1
  Li  Li9  1  0.37037998  0.74298759  0.38241652  1
  Li  Li10  1  0.27200051  0.95766136  0.32113902  1
  V  V11  1  0.74220452  0.99676526  0.25408775  1
  V  V12  1  0.99257753  0.50345103  0.50748386  1
  V  V13  1  0.86396634  0.24255926  0.86751239  1
  V  V14  1  0.74656424  0.49969111  0.25057370  1
  V  V15  1  0.62384990  0.25011782  0.12045231  1
  V  V16  1  0.87839057  0.75605090  0.37156191  1
  V  V17  1  0.49812310  0.99701815  0.99155983  1
  V  V18  1  0.62411116  0.75343553  0.62379880  1
  V  V19  1  0.25197190  0.99868397  0.74294446  1
  V  V20  1  0.50227305  0.49817539  0.99061671  1
  V  V21  1  0.37892733  0.25490431  0.37462736  1
  V  V22  1  0.24922827  0.50031432  0.74742293  1
  V  V23  1  0.12458496  0.25439743  0.62081344  1
  V  V24  1  0.36625518  0.74484248  0.86856560  1
  V  V25  1  0.00068773  0.00504536  0.50086466  1
  V  V26  1  0.12093546  0.74532583  0.12169140  1
  O  O27  1  0.88867603  0.26442030  0.61955015  1
  O  O28  1  0.71981778  0.99516597  0.01477654  1
  O  O29  1  0.99226658  0.50717072  0.26739652  1
  O  O30  1  0.85843122  0.22350812  0.12344631  1
  O  O31  1  0.86987667  0.73701635  0.14325232  1
  O  O32  1  0.51288672  0.00720214  0.23039129  1
  O  O33  1  0.77253856  0.51912089  0.48653619  1
  O  O34  1  0.62053502  0.23040560  0.88995770  1
  O  O35  1  0.87045550  0.77120109  0.60632115  1
  O  O36  1  0.98447585  0.99817863  0.27384441  1
  O  O37  1  0.72512413  0.48693096  0.00728490  1
  O  O38  1  0.62985767  0.26252875  0.35064606  1
  O  O39  1  0.50383013  0.49420859  0.23111528  1
  O  O40  1  0.38208231  0.26122607  0.12797125  1
  O  O41  1  0.75813985  0.99776758  0.48695012  1
  O  O42  1  0.64057049  0.77650230  0.36341135  1
  O  O43  1  0.50253833  0.51229267  0.75787529  1
  O  O44  1  0.35361646  0.23881766  0.62200453  1
  O  O45  1  0.60121653  0.73025508  0.88145877  1
  O  O46  1  0.23933830  0.01939976  0.49462169  1
  O  O47  1  0.26935169  0.50166174  0.98830552  1
  O  O48  1  0.12587938  0.24538731  0.37966747  1
  O  O49  1  0.38253341  0.73543647  0.63376353  1
  O  O50  1  0.01309656  0.01304436  0.71878831  1
  O  O51  1  0.48023195  0.98385296  0.76912595  1
  O  O52  1  0.22565724  0.49467366  0.50886405  1
  O  O53  1  0.11329032  0.26412484  0.86167419  1
  O  O54  1  0.37114316  0.75559426  0.10987497  1
  O  O55  1  0.13336313  0.76047079  0.87785009  1
  O  O56  1  0.99556305  0.48657409  0.73607367  1
  O  O57  1  0.26642852  0.98545084  0.99875660  1
  O  O58  1  0.11487874  0.73950998  0.36490278  1
