# generated using pymatgen
data_Li6Mn5O10
_symmetry_space_group_name_H-M   'P 1'
_cell_length_a   7.93435567
_cell_length_b   5.74419011
_cell_length_c   5.17595164
_cell_angle_alpha   92.80716056
_cell_angle_beta   90.95942268
_cell_angle_gamma   68.79450217
_symmetry_Int_Tables_number   1
_chemical_formula_structural   Li6Mn5O10
_chemical_formula_sum   'Li6 Mn5 O10'
_cell_volume   219.66435669
_cell_formula_units_Z   1
loop_
 _symmetry_equiv_pos_site_id
 _symmetry_equiv_pos_as_xyz
  1  'x, y, z'
loop_
 _atom_site_type_symbol
 _atom_site_label
 _atom_site_symmetry_multiplicity
 _atom_site_fract_x
 _atom_site_fract_y
 _atom_site_fract_z
 _atom_site_occupancy
  Li  Li0  1  0.18410850  0.08374099  0.60096555  1
  Li  Li1  1  0.42906075  0.12211218  0.40046414  1
  Li  Li2  1  0.20478997  0.68366809  0.41383955  1
  Li  Li3  1  0.81557325  0.26970335  0.60103592  1
  Li  Li4  1  0.56894789  0.55226795  0.40184952  1
  Li  Li5  1  0.79457679  0.88941861  0.41530210  1
  Mn  Mn6  1  0.99994167  0.02041147  0.03110769  1
  Mn  Mn7  1  0.19653951  0.43095284  0.96709281  1
  Mn  Mn8  1  0.59252755  0.21209371  0.97941790  1
  Mn  Mn9  1  0.40818678  0.80446312  0.97897874  1
  Mn  Mn10  1  0.80380350  0.62646226  0.96894866  1
  O  O11  1  0.00012414  0.34867927  0.79724258  1
  O  O12  1  0.23898683  0.99568705  0.24741882  1
  O  O13  1  0.38685136  0.16682744  0.77454050  1
  O  O14  1  0.00009791  0.66409610  0.18759911  1
  O  O15  1  0.21671247  0.76563234  0.77170323  1
  O  O16  1  0.39324986  0.43221747  0.20313804  1
  O  O17  1  0.61382021  0.55373303  0.77509257  1
  O  O18  1  0.76069486  0.23615149  0.24807109  1
  O  O19  1  0.60668556  0.82593343  0.20408538  1
  O  O20  1  0.78471264  0.98240280  0.77283412  1
