# generated using pymatgen
data_LiMn6O12
_symmetry_space_group_name_H-M   'P 1'
_cell_length_a   6.69534172
_cell_length_b   6.68946128
_cell_length_c   15.37706454
_cell_angle_alpha   82.68686172
_cell_angle_beta   97.33748210
_cell_angle_gamma   97.92265814
_symmetry_Int_Tables_number   1
_chemical_formula_structural   LiMn6O12
_chemical_formula_sum   'Li3 Mn18 O36'
_cell_volume   672.32097460
_cell_formula_units_Z   3
loop_
 _symmetry_equiv_pos_site_id
 _symmetry_equiv_pos_as_xyz
  1  'x, y, z'
loop_
 _atom_site_type_symbol
 _atom_site_label
 _atom_site_symmetry_multiplicity
 _atom_site_fract_x
 _atom_site_fract_y
 _atom_site_fract_z
 _atom_site_occupancy
  Li  Li0  1  0.74717778  0.24881099  0.08492640  1
  Li  Li1  1  0.74907712  0.24824369  0.74902129  1
  Li  Li2  1  0.08833918  0.58845676  0.41458758  1
  Mn  Mn3  1  0.98992506  0.01283162  0.33265435  1
  Mn  Mn4  1  0.00653585  0.99263020  0.66742573  1
  Mn  Mn5  1  0.83968160  0.82618419  0.16725156  1
  Mn  Mn6  1  0.83386307  0.83547439  0.50011647  1
  Mn  Mn7  1  0.83940401  0.82538843  0.83413900  1
  Mn  Mn8  1  0.65997455  0.67380308  0.33203636  1
  Mn  Mn9  1  0.66194815  0.66975559  0.66641651  1
  Mn  Mn10  1  0.49338249  0.50673637  0.16599710  1
  Mn  Mn11  1  0.65766066  0.67621266  0.99807078  1
  Mn  Mn12  1  0.51370675  0.48927769  0.50076853  1
  Mn  Mn13  1  0.49577745  0.50390191  0.83274648  1
  Mn  Mn14  1  0.33702925  0.33235015  0.33339675  1
  Mn  Mn15  1  0.32715037  0.33809239  0.66649063  1
  Mn  Mn16  1  0.16943511  0.16253778  0.16684899  1
  Mn  Mn17  1  0.32459064  0.34061151  0.99902955  1
  Mn  Mn18  1  0.17490623  0.15803758  0.50194521  1
  Mn  Mn19  1  0.17437604  0.15932891  0.83468403  1
  Mn  Mn20  1  0.00216227  0.99751156  0.00024394  1
  O  O21  1  0.89734898  0.10447226  0.19677050  1
  O  O22  1  0.92725929  0.73230523  0.29326651  1
  O  O23  1  0.90868757  0.09513174  0.54757547  1
  O  O24  1  0.92724122  0.73261424  0.62260234  1
  O  O25  1  0.90318596  0.09369383  0.87585892  1
  O  O26  1  0.75441216  0.56225119  0.11777307  1
  O  O27  1  0.92694715  0.73465667  0.95625205  1
  O  O28  1  0.77924232  0.57748984  0.44931246  1
  O  O29  1  0.73919741  0.94119366  0.04319479  1
  O  O30  1  0.75997167  0.56204070  0.78774845  1
  O  O31  1  0.73056786  0.93517721  0.38027868  1
  O  O32  1  0.59633201  0.40760145  0.28584493  1
  O  O33  1  0.74296529  0.93541516  0.71377768  1
  O  O34  1  0.60149851  0.39588260  0.63673742  1
  O  O35  1  0.57112071  0.76785489  0.20984880  1
  O  O36  1  0.43499887  0.24361586  0.11898535  1
  O  O37  1  0.59192853  0.40432234  0.95692914  1
  O  O38  1  0.57100324  0.75533022  0.54560983  1
  O  O39  1  0.43620379  0.22957342  0.45377341  1
  O  O40  1  0.39450119  0.60415204  0.04353497  1
  O  O41  1  0.57048557  0.76722948  0.87542210  1
  O  O42  1  0.43909396  0.24085537  0.78737395  1
  O  O43  1  0.39256599  0.59830370  0.37078514  1
  O  O44  1  0.25611482  0.07023831  0.28751122  1
  O  O45  1  0.39742991  0.60204047  0.71226939  1
  O  O46  1  0.23397400  0.42736633  0.21141167  1
  O  O47  1  0.26893047  0.06966837  0.62449896  1
  O  O48  1  0.26568725  0.07227400  0.95718807  1
  O  O49  1  0.23405590  0.42415928  0.54398955  1
  O  O50  1  0.06190402  0.26157788  0.04542554  1
  O  O51  1  0.10192220  0.89883053  0.12006104  1
  O  O52  1  0.23343170  0.42864433  0.87669015  1
  O  O53  1  0.07907798  0.27779923  0.38457826  1
  O  O54  1  0.10004655  0.89156199  0.46345386  1
  O  O55  1  0.06317408  0.25589261  0.71423775  1
  O  O56  1  0.10282325  0.89517310  0.78987433  1
