# generated using pymatgen
data_Li6(NiO2)11
_symmetry_space_group_name_H-M   'P 1'
_cell_length_a   7.46183775
_cell_length_b   7.70542774
_cell_length_c   7.64020914
_cell_angle_alpha   84.90396624
_cell_angle_beta   65.89183222
_cell_angle_gamma   69.31476065
_symmetry_Int_Tables_number   1
_chemical_formula_structural   Li6(NiO2)11
_chemical_formula_sum   'Li6 Ni11 O22'
_cell_volume   374.32970823
_cell_formula_units_Z   1
loop_
 _symmetry_equiv_pos_site_id
 _symmetry_equiv_pos_as_xyz
  1  'x, y, z'
loop_
 _atom_site_type_symbol
 _atom_site_label
 _atom_site_symmetry_multiplicity
 _atom_site_fract_x
 _atom_site_fract_y
 _atom_site_fract_z
 _atom_site_occupancy
  Li  Li0  1  0.18072989  0.54365347  0.45670365  1
  Li  Li1  1  0.36473028  0.10691456  0.89359209  1
  Li  Li2  1  0.54762205  0.63066526  0.36088750  1
  Li  Li3  1  0.63828358  0.90916338  0.09156598  1
  Li  Li4  1  0.81560006  0.43837737  0.56162674  1
  Li  Li5  1  0.99907985  0.00298976  0.00308920  1
  Ni  Ni6  1  0.22562748  0.18121934  0.31871471  1
  Ni  Ni7  1  0.31484869  0.45729433  0.04901954  1
  Ni  Ni8  1  0.05078275  0.63223925  0.85975833  1
  Ni  Ni9  1  0.49970485  0.00143584  0.50080533  1
  Ni  Ni10  1  0.13673411  0.91236432  0.59280176  1
  Ni  Ni11  1  0.58896343  0.27199379  0.22565753  1
  Ni  Ni12  1  0.41224610  0.72830367  0.77186009  1
  Ni  Ni13  1  0.86493735  0.08493421  0.40560673  1
  Ni  Ni14  1  0.94841745  0.36718143  0.14188265  1
  Ni  Ni15  1  0.68155948  0.54452453  0.95433790  1
  Ni  Ni16  1  0.77486239  0.81702883  0.68088244  1
  O  O17  1  0.10642302  0.12183285  0.16583679  1
  O  O18  1  0.07005211  0.42567716  0.29479968  1
  O  O19  1  0.17959743  0.71119207  0.98873451  1
  O  O20  1  0.01452048  0.82446475  0.46572225  1
  O  O21  1  0.45520967  0.19745804  0.09565120  1
  O  O22  1  0.35390951  0.26227289  0.44554128  1
  O  O23  1  0.18125663  0.38457967  0.92207603  1
  O  O24  1  0.44312542  0.51944608  0.19020959  1
  O  O25  1  0.29524618  0.66670532  0.61844808  1
  O  O26  1  0.72710992  0.02408894  0.25264214  1
  O  O27  1  0.36821616  0.93260094  0.36688579  1
  O  O28  1  0.62255140  0.05879494  0.64340051  1
  O  O29  1  0.26137851  0.97505128  0.73944132  1
  O  O30  1  0.71446045  0.35433571  0.35689231  1
  O  O31  1  0.56084794  0.48514800  0.80813675  1
  O  O32  1  0.79440267  0.61399839  0.10358298  1
  O  O33  1  0.64599689  0.73743209  0.55198056  1
  O  O34  1  0.53957098  0.81079982  0.90397084  1
  O  O35  1  0.00666033  0.15954434  0.54426065  1
  O  O36  1  0.82729306  0.28392182  0.00925526  1
  O  O37  1  0.92041228  0.57062646  0.71926628  1
  O  O38  1  0.90793617  0.88721609  0.81556203  1
