# generated using pymatgen
data_Cr(CuO3)2
_symmetry_space_group_name_H-M   'P 1'
_cell_length_a   5.47971686
_cell_length_b   5.47971686
_cell_length_c   8.96266709
_cell_angle_alpha   90.00000000
_cell_angle_beta   90.00000000
_cell_angle_gamma   117.68079823
_symmetry_Int_Tables_number   1
_chemical_formula_structural   Cr(CuO3)2
_chemical_formula_sum   'Cr2 Cu4 O12'
_cell_volume   238.32317518
_cell_formula_units_Z   2
loop_
 _symmetry_equiv_pos_site_id
 _symmetry_equiv_pos_as_xyz
  1  'x, y, z'
loop_
 _atom_site_type_symbol
 _atom_site_label
 _atom_site_symmetry_multiplicity
 _atom_site_fract_x
 _atom_site_fract_y
 _atom_site_fract_z
 _atom_site_occupancy
  Cr  Cr0  1  0.47001218  0.52998782  0.75000000  1
  Cr  Cr1  1  0.52998782  0.47001218  0.25000000  1
  Cu  Cu2  1  -0.00000000  0.50000000  0.50000000  1
  Cu  Cu3  1  0.50000000  0.00000000  0.50000000  1
  Cu  Cu4  1  -0.00000000  0.50000000  -0.00000000  1
  Cu  Cu5  1  0.50000000  0.00000000  0.00000000  1
  O  O6  1  0.36166393  0.63833607  0.58731937  1
  O  O7  1  0.63833607  0.36166393  0.41268063  1
  O  O8  1  0.36166393  0.63833607  0.91268063  1
  O  O9  1  0.63833607  0.36166393  0.08731937  1
  O  O10  1  0.80001775  0.65866978  0.75000000  1
  O  O11  1  0.65866978  0.80001775  0.25000000  1
  O  O12  1  0.19998225  0.34133022  0.25000000  1
  O  O13  1  0.34133022  0.19998225  0.75000000  1
  O  O14  1  0.84427038  0.15572962  0.57796181  1
  O  O15  1  0.15572962  0.84427038  0.42203819  1
  O  O16  1  0.84427038  0.15572962  0.92203819  1
  O  O17  1  0.15572962  0.84427038  0.07796181  1
