# generated using pymatgen
data_Sr3Li3La5O12
_symmetry_space_group_name_H-M   'P 1'
_cell_length_a   13.52639245
_cell_length_b   6.89585151
_cell_length_c   10.78300566
_cell_angle_alpha   90.00000000
_cell_angle_beta   90.00000000
_cell_angle_gamma   89.95837687
_symmetry_Int_Tables_number   1
_chemical_formula_structural   Sr3Li3La5O12
_chemical_formula_sum   'Sr9 Li9 La15 O36'
_cell_volume   1005.79530344
_cell_formula_units_Z   3
loop_
 _symmetry_equiv_pos_site_id
 _symmetry_equiv_pos_as_xyz
  1  'x, y, z'
loop_
 _atom_site_type_symbol
 _atom_site_label
 _atom_site_symmetry_multiplicity
 _atom_site_fract_x
 _atom_site_fract_y
 _atom_site_fract_z
 _atom_site_occupancy
  Sr  Sr0  1  0.21874823  0.91476137  0.91666700  1
  Sr  Sr1  1  0.21722494  0.91405041  0.25010388  1
  Sr  Sr2  1  0.21722494  0.91405041  0.58323012  1
  Sr  Sr3  1  0.28045535  0.41210630  0.91666700  1
  Sr  Sr4  1  0.27951724  0.41275872  0.58355046  1
  Sr  Sr5  1  0.27951724  0.41275872  0.24978354  1
  Sr  Sr6  1  0.71836753  0.59910247  0.07764994  1
  Sr  Sr7  1  0.72562653  0.58691271  0.41666700  1
  Sr  Sr8  1  0.71836753  0.59910247  0.75568306  1
  Li  Li9  1  0.13663878  0.62399328  0.08194063  1
  Li  Li10  1  0.13541350  0.62313632  0.41666700  1
  Li  Li11  1  0.13663878  0.62399328  0.75139237  1
  Li  Li12  1  0.36379580  0.12228077  0.08467627  1
  Li  Li13  1  0.36301595  0.12418892  0.41666700  1
  Li  Li14  1  0.36379580  0.12228077  0.74865673  1
  Li  Li15  1  0.63182670  0.87830659  0.25488396  1
  Li  Li16  1  0.63182670  0.87830659  0.57844904  1
  Li  Li17  1  0.86946042  0.38356027  0.91666700  1
  La  La18  1  0.03932801  0.24531125  0.08592415  1
  La  La19  1  0.03603373  0.24152436  0.41666700  1
  La  La20  1  0.03932801  0.24531125  0.74740885  1
  La  La21  1  0.46052527  0.73912236  0.08065750  1
  La  La22  1  0.45586887  0.74344715  0.41666700  1
  La  La23  1  0.46052527  0.73912236  0.75267650  1
  La  La24  1  0.53871728  0.25554971  0.25062843  1
  La  La25  1  0.53871728  0.25554971  0.58270557  1
  La  La26  1  0.54122567  0.23743178  0.91666700  1
  La  La27  1  0.77856502  0.09424164  0.08790349  1
  La  La28  1  0.78504829  0.10610616  0.41666700  1
  La  La29  1  0.77856502  0.09424164  0.74542951  1
  La  La30  1  0.95775471  0.73125072  0.24942198  1
  La  La31  1  0.95775471  0.73125072  0.58391102  1
  La  La32  1  0.96181891  0.75412184  0.91666700  1
  O  O33  1  0.06546230  0.86809234  0.74957400  1
  O  O34  1  0.06546230  0.86809234  0.08375900  1
  O  O35  1  0.06263995  0.86229107  0.41666700  1
  O  O36  1  0.09577631  0.48670813  0.24808131  1
  O  O37  1  0.09577631  0.48670813  0.58525269  1
  O  O38  1  0.09860285  0.48640408  0.91666700  1
  O  O39  1  0.22068301  0.18215836  0.08386245  1
  O  O40  1  0.22068301  0.18215836  0.74947155  1
  O  O41  1  0.21875683  0.18311833  0.41666700  1
  O  O42  1  0.28147824  0.68279033  0.08295851  1
  O  O43  1  0.28147824  0.68279033  0.75037549  1
  O  O44  1  0.27903327  0.68202834  0.41666700  1
  O  O45  1  0.40461009  0.98922279  0.58131048  1
  O  O46  1  0.40461009  0.98922279  0.25202252  1
  O  O47  1  0.40663916  0.98994677  0.91666700  1
  O  O48  1  0.43686947  0.36362540  0.08363958  1
  O  O49  1  0.43424330  0.37052910  0.41666700  1
  O  O50  1  0.43686947  0.36362540  0.74969442  1
  O  O51  1  0.56398961  0.63189616  0.24903938  1
  O  O52  1  0.56398961  0.63189616  0.58429362  1
  O  O53  1  0.55985065  0.60811877  0.91666700  1
  O  O54  1  0.60286566  0.02434810  0.09693819  1
  O  O55  1  0.60467386  0.01011315  0.41666700  1
  O  O56  1  0.60286566  0.02434810  0.73639481  1
  O  O57  1  0.72579103  0.30797729  0.91666700  1
  O  O58  1  0.71707151  0.30253727  0.25283980  1
  O  O59  1  0.71707151  0.30253727  0.58049420  1
  O  O60  1  0.77389727  0.83459113  0.24926903  1
  O  O61  1  0.77389727  0.83459113  0.58406397  1
  O  O62  1  0.78443732  0.83892270  0.91666700  1
  O  O63  1  0.90304475  0.51703388  0.76344332  1
  O  O64  1  0.90304475  0.51703388  0.06988968  1
  O  O65  1  0.90748953  0.52904794  0.41666700  1
  O  O66  1  0.93313552  0.11479146  0.25143074  1
  O  O67  1  0.93313552  0.11479146  0.58190326  1
  O  O68  1  0.93387874  0.13612773  0.91666700  1
