# generated using pymatgen
data_Li3(NiO2)5
_symmetry_space_group_name_H-M   'P 1'
_cell_length_a   6.44000967
_cell_length_b   4.96465727
_cell_length_c   5.79844209
_cell_angle_alpha   73.81386442
_cell_angle_beta   105.09863762
_cell_angle_gamma   82.98099618
_symmetry_Int_Tables_number   1
_chemical_formula_structural   Li3(NiO2)5
_chemical_formula_sum   'Li3 Ni5 O10'
_cell_volume   168.05861484
_cell_formula_units_Z   1
loop_
 _symmetry_equiv_pos_site_id
 _symmetry_equiv_pos_as_xyz
  1  'x, y, z'
loop_
 _atom_site_type_symbol
 _atom_site_label
 _atom_site_symmetry_multiplicity
 _atom_site_fract_x
 _atom_site_fract_y
 _atom_site_fract_z
 _atom_site_occupancy
  Li  Li0  1  0.19608502  0.39926544  0.69875081  1
  Li  Li1  1  0.80000000  0.60000000  0.30000000  1
  Li  Li2  1  0.40391498  0.80073456  0.90124919  1
  Ni  Ni3  1  0.99333888  0.99974943  0.00413772  1
  Ni  Ni4  1  0.20033816  0.39965493  0.19892476  1
  Ni  Ni5  1  0.60666112  0.20025057  0.59586228  1
  Ni  Ni6  1  0.39966184  0.80034507  0.40107524  1
  Ni  Ni7  1  0.80000000  0.60000000  0.80000000  1
  O  O8  1  0.28386113  0.09440440  0.07900956  1
  O  O9  1  0.31613887  0.10559560  0.52099044  1
  O  O10  1  0.12578875  0.67941967  0.33989118  1
  O  O11  1  0.47421125  0.52058033  0.26010882  1
  O  O12  1  0.08919274  0.66918936  0.87529783  1
  O  O13  1  0.91487553  0.33303311  0.12630398  1
  O  O14  1  0.51080726  0.53081064  0.72470217  1
  O  O15  1  0.68512447  0.86696689  0.47369602  1
  O  O16  1  0.88624678  0.31900325  0.66986054  1
  O  O17  1  0.71375322  0.88099675  0.93013946  1
