# generated using pymatgen
data_LiNiPO4
_symmetry_space_group_name_H-M   'P 1'
_cell_length_a   8.23175248
_cell_length_b   5.03838685
_cell_length_c   8.84857954
_cell_angle_alpha   90.00000000
_cell_angle_beta   109.10074061
_cell_angle_gamma   90.00000000
_symmetry_Int_Tables_number   1
_chemical_formula_structural   LiNiPO4
_chemical_formula_sum   'Li4 Ni4 P4 O16'
_cell_volume   346.78775751
_cell_formula_units_Z   4
loop_
 _symmetry_equiv_pos_site_id
 _symmetry_equiv_pos_as_xyz
  1  'x, y, z'
loop_
 _atom_site_type_symbol
 _atom_site_label
 _atom_site_symmetry_multiplicity
 _atom_site_fract_x
 _atom_site_fract_y
 _atom_site_fract_z
 _atom_site_occupancy
  Li  Li0  1  0.10766469  0.83311451  0.98790059  1
  Li  Li1  1  0.26175646  0.31722964  0.50321762  1
  Li  Li2  1  0.60766469  0.16688549  0.98790059  1
  Li  Li3  1  0.76175646  0.68277036  0.50321762  1
  Ni  Ni4  1  0.97963700  0.67906926  0.24092972  1
  Ni  Ni5  1  0.33227185  0.81689570  0.72935231  1
  Ni  Ni6  1  0.47963700  0.32093074  0.24092972  1
  Ni  Ni7  1  0.83227185  0.18310430  0.72935231  1
  P  P8  1  0.22410464  0.31927569  0.86287590  1
  P  P9  1  0.36961736  0.81327749  0.37210119  1
  P  P10  1  0.72410464  0.68072431  0.86287590  1
  P  P11  1  0.86961736  0.18672251  0.37210119  1
  O  O12  1  0.06551575  0.18654183  0.88843126  1
  O  O13  1  0.02650386  0.33008415  0.34945224  1
  O  O14  1  0.19180611  0.62185975  0.83704749  1
  O  O15  1  0.26216618  0.19691534  0.71581152  1
  O  O16  1  0.20992309  0.76204698  0.22182788  1
  O  O17  1  0.33064638  0.69778676  0.51898917  1
  O  O18  1  0.56551575  0.81345817  0.88843126  1
  O  O19  1  0.40892938  0.11454569  0.39981327  1
  O  O20  1  0.38325824  0.26205769  0.01104984  1
  O  O21  1  0.52650386  0.66991485  0.34945224  1
  O  O22  1  0.69180611  0.37814025  0.83704749  1
  O  O23  1  0.76216618  0.80308466  0.71581152  1
  O  O24  1  0.70992309  0.23795302  0.22182788  1
  O  O25  1  0.83064638  0.30221324  0.51898917  1
  O  O26  1  0.90892938  0.88545431  0.39981327  1
  O  O27  1  0.88325824  0.73794231  0.01104984  1
