# generated using pymatgen
data_Co(Bi5O8)5
_symmetry_space_group_name_H-M   'P 1'
_cell_length_a   10.34986223
_cell_length_b   10.34986223
_cell_length_c   10.34986223
_cell_angle_alpha   90.00000000
_cell_angle_beta   90.00000000
_cell_angle_gamma   90.00000000
_symmetry_Int_Tables_number   1
_chemical_formula_structural   Co(Bi5O8)5
_chemical_formula_sum   'Co1 Bi25 O40'
_cell_volume   1108.67360079
_cell_formula_units_Z   1
loop_
 _symmetry_equiv_pos_site_id
 _symmetry_equiv_pos_as_xyz
  1  'x, y, z'
loop_
 _atom_site_type_symbol
 _atom_site_label
 _atom_site_symmetry_multiplicity
 _atom_site_fract_x
 _atom_site_fract_y
 _atom_site_fract_z
 _atom_site_occupancy
  Co  Co0  1  0.00000000  0.00000000  0.00000000  1
  Bi  Bi1  1  0.98178517  0.31960741  0.17681182  1
  Bi  Bi2  1  0.98178517  0.68039259  0.82318818  1
  Bi  Bi3  1  0.82318818  0.01821483  0.31960741  1
  Bi  Bi4  1  0.82318818  0.98178517  0.68039259  1
  Bi  Bi5  1  0.81912942  0.32172138  0.51060890  1
  Bi  Bi6  1  0.81912942  0.67827862  0.48939110  1
  Bi  Bi7  1  0.68039259  0.17681182  0.01821483  1
  Bi  Bi8  1  0.68039259  0.82318818  0.98178517  1
  Bi  Bi9  1  0.67827862  0.51060890  0.18087058  1
  Bi  Bi10  1  0.67827862  0.48939110  0.81912942  1
  Bi  Bi11  1  0.51060890  0.81912942  0.32172138  1
  Bi  Bi12  1  0.51060890  0.18087058  0.67827862  1
  Bi  Bi13  1  0.50000000  0.50000000  0.50000000  1
  Bi  Bi14  1  0.48939110  0.18087058  0.32172138  1
  Bi  Bi15  1  0.48939110  0.81912942  0.67827862  1
  Bi  Bi16  1  0.32172138  0.51060890  0.81912942  1
  Bi  Bi17  1  0.32172138  0.48939110  0.18087058  1
  Bi  Bi18  1  0.31960741  0.82318818  0.01821483  1
  Bi  Bi19  1  0.31960741  0.17681182  0.98178517  1
  Bi  Bi20  1  0.18087058  0.32172138  0.48939110  1
  Bi  Bi21  1  0.18087058  0.67827862  0.51060890  1
  Bi  Bi22  1  0.17681182  0.98178517  0.31960741  1
  Bi  Bi23  1  0.17681182  0.01821483  0.68039259  1
  Bi  Bi24  1  0.01821483  0.68039259  0.17681182  1
  Bi  Bi25  1  0.01821483  0.31960741  0.82318818  1
  O  O26  1  0.98995025  0.75165010  0.36648906  1
  O  O27  1  0.98995025  0.24834990  0.63351094  1
  O  O28  1  0.90510255  0.90510255  0.09489745  1
  O  O29  1  0.90510255  0.09489745  0.90510255  1
  O  O30  1  0.87164833  0.49096558  0.24438692  1
  O  O31  1  0.87164833  0.50903442  0.75561308  1
  O  O32  1  0.80538070  0.19461930  0.19461930  1
  O  O33  1  0.80538070  0.80538070  0.80538070  1
  O  O34  1  0.75165010  0.63351094  0.01004975  1
  O  O35  1  0.75165010  0.36648906  0.98995025  1
  O  O36  1  0.75561308  0.12835167  0.49096558  1
  O  O37  1  0.75561308  0.87164833  0.50903442  1
  O  O38  1  0.68501722  0.68501722  0.31498278  1
  O  O39  1  0.68501722  0.31498278  0.68501722  1
  O  O40  1  0.63351094  0.01004975  0.75165010  1
  O  O41  1  0.63351094  0.98995025  0.24834990  1
  O  O42  1  0.62638774  0.62638774  0.62638774  1
  O  O43  1  0.62638774  0.37361226  0.37361226  1
  O  O44  1  0.50903442  0.24438692  0.12835167  1
  O  O45  1  0.50903442  0.75561308  0.87164833  1
  O  O46  1  0.49096558  0.75561308  0.12835167  1
  O  O47  1  0.49096558  0.24438692  0.87164833  1
  O  O48  1  0.37361226  0.62638774  0.37361226  1
  O  O49  1  0.37361226  0.37361226  0.62638774  1
  O  O50  1  0.36648906  0.01004975  0.24834990  1
  O  O51  1  0.36648906  0.98995025  0.75165010  1
  O  O52  1  0.31498278  0.68501722  0.68501722  1
  O  O53  1  0.31498278  0.31498278  0.31498278  1
  O  O54  1  0.24438692  0.87164833  0.49096558  1
  O  O55  1  0.24438692  0.12835167  0.50903442  1
  O  O56  1  0.24834990  0.36648906  0.01004975  1
  O  O57  1  0.24834990  0.63351094  0.98995025  1
  O  O58  1  0.19461930  0.80538070  0.19461930  1
  O  O59  1  0.19461930  0.19461930  0.80538070  1
  O  O60  1  0.12835167  0.50903442  0.24438692  1
  O  O61  1  0.12835167  0.49096558  0.75561308  1
  O  O62  1  0.09489745  0.09489745  0.09489745  1
  O  O63  1  0.09489745  0.90510255  0.90510255  1
  O  O64  1  0.01004975  0.75165010  0.63351094  1
  O  O65  1  0.01004975  0.24834990  0.36648906  1
