# generated using pymatgen
data_Li2(NiO2)3
_symmetry_space_group_name_H-M   'P 1'
_cell_length_a   4.89222635
_cell_length_b   4.89173127
_cell_length_c   10.20676836
_cell_angle_alpha   90.57663372
_cell_angle_beta   76.06456262
_cell_angle_gamma   61.45167767
_symmetry_Int_Tables_number   1
_chemical_formula_structural   Li2(NiO2)3
_chemical_formula_sum   'Li4 Ni6 O12'
_cell_volume   205.99275120
_cell_formula_units_Z   2
loop_
 _symmetry_equiv_pos_site_id
 _symmetry_equiv_pos_as_xyz
  1  'x, y, z'
loop_
 _atom_site_type_symbol
 _atom_site_label
 _atom_site_symmetry_multiplicity
 _atom_site_fract_x
 _atom_site_fract_y
 _atom_site_fract_z
 _atom_site_occupancy
  Li  Li0  1  0.84240314  0.40905243  0.24302275  1
  Li  Li1  1  0.84083226  0.24349541  0.74336673  1
  Li  Li2  1  0.16546385  0.58570451  0.74326910  1
  Li  Li3  1  0.50015690  0.08451284  0.24311754  1
  Ni  Ni4  1  0.66377989  0.50307844  0.50291041  1
  Ni  Ni5  1  0.66702360  0.33301674  0.00192395  1
  Ni  Ni6  1  0.00358785  0.83144299  0.49301171  1
  Ni  Ni7  1  0.00026606  0.66666891  0.00295892  1
  Ni  Ni8  1  0.33109739  0.16890130  0.50187787  1
  Ni  Ni9  1  0.33858306  0.99654191  0.99300324  1
  O  O10  1  0.74421134  0.98183903  0.89266872  1
  O  O11  1  0.95430915  0.51580898  0.60606219  1
  O  O12  1  0.72301127  0.80055638  0.40008884  1
  O  O13  1  0.61929127  0.68810418  0.10453328  1
  O  O14  1  0.23680484  0.88454888  0.60155141  1
  O  O15  1  0.40077659  0.62279798  0.90012423  1
  O  O16  1  0.90957555  0.06055824  0.10604713  1
  O  O17  1  0.58328808  0.22404071  0.60451988  1
  O  O18  1  0.41756376  0.43544874  0.39273417  1
  O  O19  1  0.28295596  0.33843508  0.10160069  1
  O  O20  1  0.04290758  0.31017820  0.89281038  1
  O  O21  1  0.08924957  0.13669812  0.39269289  1
