# generated using pymatgen
data_Fe35SiO48
_symmetry_space_group_name_H-M   'P 1'
_cell_length_a   10.53574782
_cell_length_b   10.46859461
_cell_length_c   10.46859461
_cell_angle_alpha   60.39616743
_cell_angle_beta   99.92623904
_cell_angle_gamma   80.07376096
_symmetry_Int_Tables_number   1
_chemical_formula_structural   Fe35SiO48
_chemical_formula_sum   'Fe35 Si1 O48'
_cell_volume   943.10978489
_cell_formula_units_Z   1
loop_
 _symmetry_equiv_pos_site_id
 _symmetry_equiv_pos_as_xyz
  1  'x, y, z'
loop_
 _atom_site_type_symbol
 _atom_site_label
 _atom_site_symmetry_multiplicity
 _atom_site_fract_x
 _atom_site_fract_y
 _atom_site_fract_z
 _atom_site_occupancy
  Fe  Fe0  1  0.81412037  0.73443689  0.10477605  1
  Fe  Fe1  1  0.81412037  0.89522395  0.26556311  1
  Fe  Fe2  1  0.56377469  0.81183754  0.18816246  1
  Fe  Fe3  1  0.81204785  0.89894085  0.76929785  1
  Fe  Fe4  1  0.80951780  0.56174515  0.43825485  1
  Fe  Fe5  1  0.81204785  0.23070215  0.10105915  1
  Fe  Fe6  1  0.62228877  0.79508343  0.54265051  1
  Fe  Fe7  1  0.62228877  0.45734949  0.20491657  1
  Fe  Fe8  1  0.81495037  0.05889788  0.43521097  1
  Fe  Fe9  1  0.31299543  0.89329982  0.27808505  1
  Fe  Fe10  1  0.81495037  0.56478903  0.94110212  1
  Fe  Fe11  1  0.80996729  0.39659194  0.77350996  1
  Fe  Fe12  1  0.31299543  0.72191495  0.10670018  1
  Fe  Fe13  1  0.80996729  0.22649004  0.60340806  1
  Fe  Fe14  1  0.50022422  0.50352373  0.49647627  1
  Fe  Fe15  1  0.50132098  0.83172029  0.83765879  1
  Fe  Fe16  1  0.50132098  0.16234121  0.16827971  1
  Fe  Fe17  1  0.31312278  0.72629159  0.60520089  1
  Fe  Fe18  1  0.31312278  0.39479911  0.27370841  1
  Fe  Fe19  1  0.06699994  0.97340854  0.35950307  1
  Fe  Fe20  1  0.55775972  0.48559426  0.85003740  1
  Fe  Fe21  1  0.06699994  0.64049693  0.02659146  1
  Fe  Fe22  1  0.55775972  0.14996260  0.51440574  1
  Fe  Fe23  1  0.12537346  0.62382754  0.37617246  1
  Fe  Fe24  1  0.12631144  0.29232322  0.04224391  1
  Fe  Fe25  1  0.62132262  0.12766542  0.87233458  1
  Fe  Fe26  1  0.12631144  0.95775609  0.70767678  1
  Fe  Fe27  1  0.31204135  0.56171348  0.93791431  1
  Fe  Fe28  1  0.31204135  0.06208569  0.43828652  1
  Fe  Fe29  1  0.31402450  0.40212591  0.76879114  1
  Fe  Fe30  1  0.31402450  0.23120886  0.59787409  1
  Fe  Fe31  1  0.99835454  0.66692642  0.66733775  1
  Fe  Fe32  1  0.99835454  0.33266225  0.33307358  1
  Fe  Fe33  1  0.30990836  0.06370509  0.93629491  1
  Fe  Fe34  1  0.06580979  0.31172125  0.68827875  1
  Si  Si35  1  0.00202467  0.00333465  0.99666535  1
  O  O36  1  0.93936346  0.87252966  0.46455817  1
  O  O37  1  0.93936346  0.53544183  0.12747034  1
  O  O38  1  0.93169353  0.68356373  0.31643627  1
  O  O39  1  0.67554857  0.93752134  0.06247866  1
  O  O40  1  0.69645345  0.95069977  0.56680430  1
  O  O41  1  0.68719974  0.76241170  0.38552457  1
  O  O42  1  0.68719974  0.61447543  0.23758830  1
  O  O43  1  0.69645345  0.43319570  0.04930023  1
  O  O44  1  0.93260016  0.17158012  0.30496941  1
  O  O45  1  0.94590298  0.02639923  0.12632369  1
  O  O46  1  0.93260016  0.69503059  0.82841988  1
  O  O47  1  0.93166766  0.49857869  0.65088430  1
  O  O48  1  0.94590298  0.87367631  0.97360077  1
  O  O49  1  0.93166766  0.34911570  0.50142131  1
  O  O50  1  0.42502274  0.70817505  0.29182495  1
  O  O51  1  0.70701346  0.76996187  0.89520368  1
  O  O52  1  0.17238254  0.94743529  0.05256471  1
  O  O53  1  0.70921284  0.42223335  0.57776665  1
  O  O54  1  0.70701346  0.10479632  0.23003813  1
  O  O55  1  0.94407600  0.17584862  0.82415138  1
  O  O56  1  0.42092765  0.85966654  0.46993925  1
  O  O57  1  0.69503012  0.25105432  0.41488624  1
  O  O58  1  0.91865972  0.36024058  0.97144337  1
  O  O59  1  0.42092765  0.53006075  0.14033346  1
  O  O60  1  0.69503012  0.58511376  0.74894568  1
  O  O61  1  0.91865972  0.02855663  0.63975942  1
  O  O62  1  0.19362288  0.93659078  0.54772836  1
  O  O63  1  0.69068297  0.10320848  0.72339782  1
  O  O64  1  0.19362288  0.45227164  0.06340922  1
  O  O65  1  0.18720644  0.60941517  0.22060701  1
  O  O66  1  0.18720644  0.77939299  0.39058483  1
  O  O67  1  0.69068297  0.27660218  0.89679152  1
  O  O68  1  0.42056609  0.85923895  0.99170522  1
  O  O69  1  0.43533104  0.51571828  0.66092677  1
  O  O70  1  0.43533104  0.33907323  0.48428172  1
  O  O71  1  0.42056609  0.00829478  0.14076105  1
  O  O72  1  0.43470081  0.18253022  0.32902069  1
  O  O73  1  0.43470081  0.67097931  0.81746978  1
  O  O74  1  0.43362106  0.03792280  0.63037284  1
  O  O75  1  0.20403562  0.26257837  0.40377038  1
  O  O76  1  0.20403562  0.59622962  0.73742163  1
  O  O77  1  0.43362106  0.36962716  0.96207720  1
  O  O78  1  0.42589414  0.19300805  0.80699195  1
  O  O79  1  0.19101856  0.42858171  0.57141829  1
  O  O80  1  0.19216793  0.08457035  0.24781358  1
  O  O81  1  0.19216793  0.75218642  0.91542965  1
  O  O82  1  0.19554115  0.27074796  0.87862959  1
  O  O83  1  0.19554115  0.12137041  0.72925204  1
