# generated using pymatgen
data_Li4Ti2Fe3O10
_symmetry_space_group_name_H-M   'P 1'
_cell_length_a   7.93492206
_cell_length_b   6.68051140
_cell_length_c   8.01820436
_cell_angle_alpha   115.18851612
_cell_angle_beta   83.91239183
_cell_angle_gamma   90.31119354
_symmetry_Int_Tables_number   1
_chemical_formula_structural   Li4Ti2Fe3O10
_chemical_formula_sum   'Li8 Ti4 Fe6 O20'
_cell_volume   382.08227135
_cell_formula_units_Z   2
loop_
 _symmetry_equiv_pos_site_id
 _symmetry_equiv_pos_as_xyz
  1  'x, y, z'
loop_
 _atom_site_type_symbol
 _atom_site_label
 _atom_site_symmetry_multiplicity
 _atom_site_fract_x
 _atom_site_fract_y
 _atom_site_fract_z
 _atom_site_occupancy
  Li  Li0  1  0.15543043  0.05840976  0.40454713  1
  Li  Li1  1  0.04617587  0.35140793  0.79112102  1
  Li  Li2  1  0.99546488  0.49950554  0.49063631  1
  Li  Li3  1  0.50453512  0.00049446  0.50936369  1
  Li  Li4  1  0.45382413  0.14859207  0.20887898  1
  Li  Li5  1  0.34456957  0.44159024  0.59545287  1
  Li  Li6  1  0.66468871  0.56640615  0.40340726  1
  Li  Li7  1  0.83531129  0.93359385  0.59659274  1
  Ti  Ti8  1  0.29224042  0.60132532  0.30867690  1
  Ti  Ti9  1  0.20775958  0.89867468  0.69132310  1
  Ti  Ti10  1  0.81058741  0.08555194  0.31217460  1
  Ti  Ti11  1  0.68941259  0.41444806  0.68782540  1
  Fe  Fe12  1  0.09359669  0.21640546  0.10681399  1
  Fe  Fe13  1  0.40640331  0.28359454  0.89318601  1
  Fe  Fe14  1  0.25000000  0.75000000  0.00000000  1
  Fe  Fe15  1  0.75000000  0.25000000  0.00000000  1
  Fe  Fe16  1  0.60434615  0.70555996  0.10812268  1
  Fe  Fe17  1  0.89565385  0.79444004  0.89187732  1
  O  O18  1  0.30712090  0.03186407  0.93981928  1
  O  O19  1  0.27631118  0.16365808  0.66587630  1
  O  O20  1  0.22368882  0.33634192  0.33412370  1
  O  O21  1  0.12746377  0.64973435  0.76081615  1
  O  O22  1  0.19287910  0.46813593  0.06018072  1
  O  O23  1  0.09937640  0.78251635  0.46720000  1
  O  O24  1  0.63247717  0.15910469  0.75823044  1
  O  O25  1  0.01761985  0.94542385  0.14806969  1
  O  O26  1  0.59349930  0.28206217  0.46207452  1
  O  O27  1  0.48238015  0.55457615  0.85193031  1
  O  O28  1  0.51574858  0.43750279  0.14885157  1
  O  O29  1  0.40062360  0.71748365  0.53280000  1
  O  O30  1  0.98425142  0.06249721  0.85114843  1
  O  O31  1  0.37253623  0.85026565  0.23918385  1
  O  O32  1  0.90650070  0.21793783  0.53792548  1
  O  O33  1  0.81243129  0.52875006  0.92845393  1
  O  O34  1  0.86752283  0.34089531  0.24176956  1
  O  O35  1  0.78486055  0.66090633  0.65810090  1
  O  O36  1  0.71513945  0.83909367  0.34189910  1
  O  O37  1  0.68756871  0.97124994  0.07154607  1
