# generated using pymatgen
data_LiMnF4
_symmetry_space_group_name_H-M   'P 1'
_cell_length_a   4.56374292
_cell_length_b   11.56462017
_cell_length_c   5.35001433
_cell_angle_alpha   90.00000000
_cell_angle_beta   90.00225045
_cell_angle_gamma   90.00000000
_symmetry_Int_Tables_number   1
_chemical_formula_structural   LiMnF4
_chemical_formula_sum   'Li4 Mn4 F16'
_cell_volume   282.36280701
_cell_formula_units_Z   4
loop_
 _symmetry_equiv_pos_site_id
 _symmetry_equiv_pos_as_xyz
  1  'x, y, z'
loop_
 _atom_site_type_symbol
 _atom_site_label
 _atom_site_symmetry_multiplicity
 _atom_site_fract_x
 _atom_site_fract_y
 _atom_site_fract_z
 _atom_site_occupancy
  Li  Li0  1  0.00000000  0.32556215  0.75000000  1
  Li  Li1  1  0.00000000  0.67443785  0.25000000  1
  Li  Li2  1  0.50000000  0.17444975  0.25000000  1
  Li  Li3  1  0.50000000  0.82555125  0.75000000  1
  Mn  Mn4  1  0.00000000  0.07166802  0.75000000  1
  Mn  Mn5  1  0.00000000  0.92833198  0.25000000  1
  Mn  Mn6  1  0.50000000  0.42827639  0.25000000  1
  Mn  Mn7  1  0.50000000  0.57172361  0.75000000  1
  F  F8  1  0.23568975  0.04823043  0.10088802  1
  F  F9  1  0.23568975  0.95176957  0.60088802  1
  F  F10  1  0.22492100  0.18617424  0.59840481  1
  F  F11  1  0.22492100  0.81382576  0.09840481  1
  F  F12  1  0.27506526  0.31383508  0.09845553  1
  F  F13  1  0.27506526  0.68616392  0.59845553  1
  F  F14  1  0.26432359  0.54821182  0.10090728  1
  F  F15  1  0.26432359  0.45178818  0.60090728  1
  F  F16  1  0.73567641  0.45178818  0.89909272  1
  F  F17  1  0.73567641  0.54821182  0.39909272  1
  F  F18  1  0.72493474  0.68616392  0.90154447  1
  F  F19  1  0.72493474  0.31383508  0.40154447  1
  F  F20  1  0.77507900  0.18617424  0.90159519  1
  F  F21  1  0.77507900  0.81382576  0.40159519  1
  F  F22  1  0.76431025  0.04823043  0.39911198  1
  F  F23  1  0.76431025  0.95176957  0.89911198  1
