# generated using pymatgen
data_Li4Mn3(NiO4)3
_symmetry_space_group_name_H-M   'P 1'
_cell_length_a   5.85962998
_cell_length_b   5.94019102
_cell_length_c   6.53449101
_cell_angle_alpha   104.06934144
_cell_angle_beta   102.80195202
_cell_angle_gamma   91.65175136
_symmetry_Int_Tables_number   1
_chemical_formula_structural   Li4Mn3(NiO4)3
_chemical_formula_sum   'Li4 Mn3 Ni3 O12'
_cell_volume   214.31718249
_cell_formula_units_Z   1
loop_
 _symmetry_equiv_pos_site_id
 _symmetry_equiv_pos_as_xyz
  1  'x, y, z'
loop_
 _atom_site_type_symbol
 _atom_site_label
 _atom_site_symmetry_multiplicity
 _atom_site_fract_x
 _atom_site_fract_y
 _atom_site_fract_z
 _atom_site_occupancy
  Li  Li0  1  0.50930997  0.99205259  0.98729316  1
  Li  Li1  1  0.83333300  0.33333300  0.33333300  1
  Li  Li2  1  0.33333300  0.33333300  0.33333300  1
  Li  Li3  1  0.15735703  0.67461341  0.67937384  1
  Mn  Mn4  1  0.16928759  0.16158568  0.67381172  1
  Mn  Mn5  1  0.49737841  0.50508132  0.99285428  1
  Mn  Mn6  1  0.83333300  0.83333300  0.33333300  1
  Ni  Ni7  1  0.67023654  0.16441329  0.67018593  1
  Ni  Ni8  1  0.99643046  0.50225371  0.99648007  1
  Ni  Ni9  1  0.33333300  0.83333300  0.33333300  1
  O  O10  1  0.73612551  0.28577457  0.97988627  1
  O  O11  1  0.26851792  0.26427335  0.98830637  1
  O  O12  1  0.60764789  0.06800819  0.35688255  1
  O  O13  1  0.93054149  0.38089243  0.68678073  1
  O  O14  1  0.07883504  0.07630918  0.36186148  1
  O  O15  1  0.39814908  0.40239365  0.67836063  1
  O  O16  1  0.58783196  0.59035782  0.30480452  1
  O  O17  1  0.93166543  0.92124207  0.64325331  1
  O  O18  1  0.05901911  0.59865781  0.30978445  1
  O  O19  1  0.40944198  0.95378213  0.66445376  1
  O  O20  1  0.73500057  0.74542493  0.02341369  1
  O  O21  1  0.25722502  0.71288387  0.00221324  1
