# generated using pymatgen
data_V6O7F5
_symmetry_space_group_name_H-M   'P 1'
_cell_length_a   7.48984934
_cell_length_b   5.63473985
_cell_length_c   5.63473985
_cell_angle_alpha   70.43309102
_cell_angle_beta   70.84754279
_cell_angle_gamma   70.84754279
_symmetry_Int_Tables_number   1
_chemical_formula_structural   V6O7F5
_chemical_formula_sum   'V6 O7 F5'
_cell_volume   205.21034759
_cell_formula_units_Z   1
loop_
 _symmetry_equiv_pos_site_id
 _symmetry_equiv_pos_as_xyz
  1  'x, y, z'
loop_
 _atom_site_type_symbol
 _atom_site_label
 _atom_site_symmetry_multiplicity
 _atom_site_fract_x
 _atom_site_fract_y
 _atom_site_fract_z
 _atom_site_occupancy
  V  V0  1  0.84271434  0.67996014  0.69430853  1
  V  V1  1  0.67949877  0.32982108  0.33896830  1
  V  V2  1  0.32050123  0.66103170  0.67017892  1
  V  V3  1  0.15728566  0.30569147  0.32003986  1
  V  V4  1  0.50000000  0.99613207  0.00386793  1
  V  V5  1  0.00000000  0.02623239  0.97376761  1
  O  O6  1  0.66527103  0.02890035  0.64218130  1
  O  O7  1  0.33472897  0.35781870  0.97109965  1
  O  O8  1  0.96583260  0.22605135  0.22513799  1
  O  O9  1  0.03416740  0.77486201  0.77394865  1
  O  O10  1  0.00000000  0.32132393  0.67867607  1
  O  O11  1  0.66550152  0.63561498  0.04628848  1
  O  O12  1  0.33449848  0.95371052  0.36438502  1
  F  F13  1  0.63072885  0.56847628  0.57659846  1
  F  F14  1  0.29944614  0.89975518  0.89408108  1
  F  F15  1  0.70055386  0.10591892  0.10024482  1
  F  F16  1  0.36927115  0.42340154  0.43152372  1
  F  F17  1  0.00000000  0.70529538  0.29470362  1
