# generated using pymatgen
data_LiMnF3
_symmetry_space_group_name_H-M   'P 1'
_cell_length_a   10.28897412
_cell_length_b   9.27624776
_cell_length_c   5.71913113
_cell_angle_alpha   90.00000000
_cell_angle_beta   75.03034893
_cell_angle_gamma   90.00000000
_symmetry_Int_Tables_number   1
_chemical_formula_structural   LiMnF3
_chemical_formula_sum   'Li8 Mn8 F24'
_cell_volume   527.32677233
_cell_formula_units_Z   8
loop_
 _symmetry_equiv_pos_site_id
 _symmetry_equiv_pos_as_xyz
  1  'x, y, z'
loop_
 _atom_site_type_symbol
 _atom_site_label
 _atom_site_symmetry_multiplicity
 _atom_site_fract_x
 _atom_site_fract_y
 _atom_site_fract_z
 _atom_site_occupancy
  Li  Li0  1  0.04500566  0.16483998  0.75521029  1
  Li  Li1  1  0.04500566  0.33516002  0.25521029  1
  Li  Li2  1  0.43809679  0.33401834  0.84838436  1
  Li  Li3  1  0.43809679  0.16598166  0.34838436  1
  Li  Li4  1  0.56190321  0.83401834  0.65161564  1
  Li  Li5  1  0.56190321  0.66598166  0.15161564  1
  Li  Li6  1  0.95499434  0.66483998  0.74478971  1
  Li  Li7  1  0.95499434  0.83516002  0.24478971  1
  Mn  Mn8  1  0.25858117  0.65568489  0.94720468  1
  Mn  Mn9  1  0.25893021  0.03958503  0.94061394  1
  Mn  Mn10  1  0.25858117  0.84431511  0.44720468  1
  Mn  Mn11  1  0.25893021  0.46041497  0.44061394  1
  Mn  Mn12  1  0.74106979  0.53958503  0.55938606  1
  Mn  Mn13  1  0.74141883  0.15568489  0.55279532  1
  Mn  Mn14  1  0.74106979  0.96041497  0.05938606  1
  Mn  Mn15  1  0.74141883  0.34431511  0.05279532  1
  F  F16  1  0.13988329  0.98558196  0.68922695  1
  F  F17  1  0.15091887  0.65881654  0.66294026  1
  F  F18  1  0.11493011  0.30189714  0.52512331  1
  F  F19  1  0.13988329  0.51441804  0.18922695  1
  F  F20  1  0.15091887  0.84118346  0.16294026  1
  F  F21  1  0.11493011  0.19810286  0.02512331  1
  F  F22  1  0.35735739  0.48842895  0.71926253  1
  F  F23  1  0.36481106  0.83593043  0.73794403  1
  F  F24  1  0.39626427  0.16664195  0.69246532  1
  F  F25  1  0.35735739  0.01157105  0.21926253  1
  F  F26  1  0.36481106  0.66406957  0.23794403  1
  F  F27  1  0.39626427  0.33335805  0.19246532  1
  F  F28  1  0.60373573  0.66664195  0.80753468  1
  F  F29  1  0.63518894  0.33593043  0.76205597  1
  F  F30  1  0.64264261  0.98842895  0.78073747  1
  F  F31  1  0.60373573  0.83335805  0.30753468  1
  F  F32  1  0.63518894  0.16406957  0.26205597  1
  F  F33  1  0.64264261  0.51157105  0.28073747  1
  F  F34  1  0.88506989  0.80189714  0.97487669  1
  F  F35  1  0.84908113  0.15881654  0.83705974  1
  F  F36  1  0.86011671  0.48558196  0.81077305  1
  F  F37  1  0.88506989  0.69810286  0.47487669  1
  F  F38  1  0.84908113  0.34118346  0.33705974  1
  F  F39  1  0.86011671  0.01441804  0.31077305  1
