# generated using pymatgen
data_Li5V3P8O29
_symmetry_space_group_name_H-M   'P 1'
_cell_length_a   9.77628284
_cell_length_b   9.74293267
_cell_length_c   14.03992440
_cell_angle_alpha   90.06389000
_cell_angle_beta   90.21956227
_cell_angle_gamma   60.31027500
_symmetry_Int_Tables_number   1
_chemical_formula_structural   Li5V3P8O29
_chemical_formula_sum   'Li10 V6 P16 O58'
_cell_volume   1161.72907687
_cell_formula_units_Z   2
loop_
 _symmetry_equiv_pos_site_id
 _symmetry_equiv_pos_as_xyz
  1  'x, y, z'
loop_
 _atom_site_type_symbol
 _atom_site_label
 _atom_site_symmetry_multiplicity
 _atom_site_fract_x
 _atom_site_fract_y
 _atom_site_fract_z
 _atom_site_occupancy
  Li  Li0  1  0.91206614  0.76572829  0.05561160  1
  Li  Li1  1  0.90547736  0.33307320  0.56363028  1
  Li  Li2  1  0.66083873  0.67042757  0.88566429  1
  Li  Li3  1  0.77021174  0.31793938  0.05846064  1
  Li  Li4  1  0.32416612  0.91317722  0.05996652  1
  Li  Li5  1  0.66513990  0.23412765  0.44430591  1
  Li  Li6  1  0.33971447  0.76071316  0.56345781  1
  Li  Li7  1  0.08966788  0.67402638  0.44209609  1
  Li  Li8  1  0.00358737  0.00184098  0.98119601  1
  Li  Li9  1  0.00273254  0.99934585  0.50892152  1
  V  V10  1  0.56442959  0.43512290  0.24414145  1
  V  V11  1  0.43399287  0.56277090  0.75482310  1
  V  V12  1  0.56688206  0.00026066  0.74595171  1
  V  V13  1  0.43466490  0.00372009  0.25316316  1
  V  V14  1  0.99850595  0.56464939  0.24995598  1
  V  V15  1  0.00352262  0.43288587  0.74766924  1
  P  P16  1  0.90748485  0.78050726  0.83976084  1
  P  P17  1  0.77641793  0.91840269  0.34312052  1
  P  P18  1  0.91113963  0.31327342  0.34505459  1
  P  P19  1  0.66518901  0.67100990  0.12780208  1
  P  P20  1  0.66317501  0.66524525  0.62970124  1
  P  P21  1  0.77990550  0.31474349  0.84269786  1
  P  P22  1  0.68758181  0.22613460  0.65972833  1
  P  P23  1  0.31261728  0.91256647  0.84717799  1
  P  P24  1  0.69220831  0.08127046  0.15504343  1
  P  P25  1  0.31582461  0.77148894  0.34307081  1
  P  P26  1  0.22210281  0.69262855  0.15911148  1
  P  P27  1  0.33525978  0.33487747  0.36907185  1
  P  P28  1  0.33626009  0.32613039  0.86958297  1
  P  P29  1  0.08571878  0.69282526  0.65672072  1
  P  P30  1  0.22153182  0.08033377  0.66080634  1
  P  P31  1  0.08538126  0.22028304  0.16203261  1
  O  O32  1  0.00956119  0.77944976  0.56640040  1
  O  O33  1  0.91471476  0.74586655  0.34127125  1
  O  O34  1  0.78746814  0.99061398  0.07099307  1
  O  O35  1  0.73699692  0.92259717  0.83128751  1
  O  O36  1  0.89559974  0.62879914  0.82961965  1
  O  O37  1  0.81157758  0.67739987  0.16697794  1
  O  O38  1  0.91089328  0.47090894  0.32852128  1
  O  O39  1  0.99490503  0.20400535  0.08090852  1
  O  O40  1  0.92141847  0.34289354  0.83156277  1
  O  O41  1  0.66682514  0.80899696  0.67960546  1
  O  O42  1  0.61709969  0.91982007  0.32993675  1
  O  O43  1  0.81242186  0.51095142  0.66476842  1
  O  O44  1  0.65945514  0.67852600  0.02043199  1
  O  O45  1  0.64995819  0.67695746  0.52400835  1
  O  O46  1  0.67428134  0.51373344  0.16287161  1
  O  O47  1  0.47467849  0.90471642  0.83265699  1
  O  O48  1  0.51341900  0.81472115  0.17068523  1
  O  O49  1  0.74067188  0.34205521  0.33180711  1
  O  O50  1  0.79305313  0.20599250  0.75267980  1
  O  O51  1  0.78322912  0.21435571  0.57239162  1
  O  O52  1  0.79230828  0.22595332  0.93190365  1
  O  O53  1  0.62992995  0.47922627  0.83337741  1
  O  O54  1  0.51401327  0.66781886  0.67386012  1
  O  O55  1  0.66041799  0.25377800  0.15563202  1
  O  O56  1  0.47011837  0.61770201  0.32848623  1
  O  O57  1  0.34392767  0.91411876  0.33229854  1
  O  O58  1  0.79733549  0.00065385  0.24926925  1
  O  O59  1  0.78522647  0.00828431  0.42720415  1
  O  O60  1  0.20631436  0.98668514  0.58082826  1
  O  O61  1  0.65798231  0.08357444  0.66298719  1
  O  O62  1  0.53362004  0.38176865  0.66730714  1
  O  O63  1  0.34384210  0.74265970  0.83920746  1
  O  O64  1  0.48750599  0.32690551  0.32885067  1
  O  O65  1  0.37997030  0.53488976  0.17045573  1
  O  O66  1  0.21450102  0.79371140  0.07761285  1
  O  O67  1  0.23022250  0.77935436  0.43413255  1
  O  O68  1  0.19783901  0.78911241  0.25748184  1
  O  O69  1  0.25623261  0.65996032  0.66223324  1
  O  O70  1  0.47723464  0.17940320  0.81747530  1
  O  O71  1  0.53580223  0.08040495  0.17143769  1
  O  O72  1  0.34721509  0.46974360  0.82491664  1
  O  O73  1  0.35030725  0.31815499  0.97419249  1
  O  O74  1  0.33799443  0.32449820  0.47455648  1
  O  O75  1  0.18742044  0.48811021  0.33017994  1
  O  O76  1  0.38251900  0.07365227  0.66901428  1
  O  O77  1  0.33085690  0.18893861  0.31920961  1
  O  O78  1  0.08352230  0.65749289  0.15911710  1
  O  O79  1  0.99784969  0.79864080  0.74908154  1
  O  O80  1  0.98393444  0.79437399  0.92915296  1
  O  O81  1  0.07920149  0.53844017  0.67068991  1
  O  O82  1  0.18803291  0.33583964  0.82457388  1
  O  O83  1  0.08262812  0.37856509  0.17103183  1
  O  O84  1  0.25891500  0.08163723  0.16243620  1
  O  O85  1  0.22738960  0.99066816  0.93695842  1
  O  O86  1  0.19912086  0.01136194  0.75991149  1
  O  O87  1  0.08477806  0.25351420  0.65780616  1
  O  O88  1  0.97590642  0.23594002  0.43886203  1
  O  O89  1  0.01282960  0.19627368  0.26090607  1
