# generated using pymatgen
data_Ti3Fe2P6WO24
_symmetry_space_group_name_H-M   'P 1'
_cell_length_a   8.62736134
_cell_length_b   8.74549399
_cell_length_c   8.74549327
_cell_angle_alpha   59.99999635
_cell_angle_beta   59.54600436
_cell_angle_gamma   59.54600695
_symmetry_Int_Tables_number   1
_chemical_formula_structural   Ti3Fe2P6WO24
_chemical_formula_sum   'Ti3 Fe2 P6 W1 O24'
_cell_volume   463.35848050
_cell_formula_units_Z   1
loop_
 _symmetry_equiv_pos_site_id
 _symmetry_equiv_pos_as_xyz
  1  'x, y, z'
loop_
 _atom_site_type_symbol
 _atom_site_label
 _atom_site_symmetry_multiplicity
 _atom_site_fract_x
 _atom_site_fract_y
 _atom_site_fract_z
 _atom_site_occupancy
  Ti  Ti0  1  0.06528536  0.64490455  0.64490455  1
  Ti  Ti1  1  0.43168785  0.85610405  0.85610405  1
  Ti  Ti2  1  0.93443082  0.35518973  0.35518973  1
  Fe  Fe3  1  0.00639740  0.99786787  0.99786787  1
  Fe  Fe4  1  0.49652022  0.50116026  0.50116026  1
  P  P5  1  0.24733437  0.25120740  0.54775043  1
  P  P6  1  0.24733437  0.95370779  0.25120740  1
  P  P7  1  0.24733437  0.54775043  0.95370779  1
  P  P8  1  0.75129266  0.46204756  0.04371445  1
  P  P9  1  0.75129266  0.04371445  0.74294533  1
  P  P10  1  0.75129266  0.74294533  0.46204756  1
  W  W11  1  0.58090205  0.13969932  0.13969932  1
  O  O12  1  0.06937810  0.11769756  0.31403853  1
  O  O13  1  0.06937810  0.49888581  0.11769756  1
  O  O14  1  0.06937810  0.31403853  0.49888581  1
  O  O15  1  0.22519747  0.09066510  0.74174489  1
  O  O16  1  0.43129056  0.18859415  0.39733472  1
  O  O17  1  0.25947142  0.41273996  0.56800038  1
  O  O18  1  0.22519747  0.94239254  0.09066510  1
  O  O19  1  0.25947142  0.75978823  0.41273996  1
  O  O20  1  0.56936548  0.61660153  -0.00007990  1
  O  O21  1  0.25947142  0.56800038  0.75978823  1
  O  O22  1  0.78618562  0.26579351  0.05195806  1
  O  O23  1  0.56936548  -0.00007990  0.81411388  1
  O  O24  1  0.43129056  0.98278157  0.18859415  1
  O  O25  1  0.22519747  0.74174489  0.94239254  1
  O  O26  1  0.72752758  0.44898937  0.23859915  1
  O  O27  1  0.43129056  0.39733472  0.98278157  1
  O  O28  1  0.72752758  0.23859915  0.58488290  1
  O  O29  1  0.78618562  0.05195806  0.89606381  1
  O  O30  1  0.72752758  0.58488290  0.44898937  1
  O  O31  1  0.56936548  0.81411388  0.61660153  1
  O  O32  1  0.78618562  0.89606381  0.26579351  1
  O  O33  1  0.92788250  0.67292979  0.51301151  1
  O  O34  1  0.92788250  0.51301151  0.88617620  1
  O  O35  1  0.92788250  0.88617620  0.67292979  1
