# generated using pymatgen
data_CoN6(ClO)2
_symmetry_space_group_name_H-M   'P 1'
_cell_length_a   7.89426798
_cell_length_b   7.89426798
_cell_length_c   10.18803457
_cell_angle_alpha   72.34202916
_cell_angle_beta   72.34202916
_cell_angle_gamma   86.13760300
_symmetry_Int_Tables_number   1
_chemical_formula_structural   CoN6(ClO)2
_chemical_formula_sum   'Co2 N12 Cl4 O4'
_cell_volume   576.28102800
_cell_formula_units_Z   2
loop_
 _symmetry_equiv_pos_site_id
 _symmetry_equiv_pos_as_xyz
  1  'x, y, z'
loop_
 _atom_site_type_symbol
 _atom_site_label
 _atom_site_symmetry_multiplicity
 _atom_site_fract_x
 _atom_site_fract_y
 _atom_site_fract_z
 _atom_site_occupancy
  Co  Co0  1  1.00978210  -0.00978210  0.25000000  1
  Co  Co1  1  -0.00978210  1.00978210  0.75000000  1
  N  N2  1  0.29260996  0.70739004  0.25000000  1
  N  N3  1  0.70739004  0.29260996  0.75000000  1
  N  N4  1  0.17360776  0.82639224  0.25000000  1
  N  N5  1  0.82639224  0.17360776  0.75000000  1
  N  N6  1  0.58858540  0.16569466  0.16299850  1
  N  N7  1  0.83430534  0.41141460  0.33700150  1
  N  N8  1  0.41141460  0.83430534  0.83700150  1
  N  N9  1  0.16569466  0.58858540  0.66299850  1
  N  N10  1  0.50597832  0.23349015  0.09204014  1
  N  N11  1  0.76650985  0.49402168  0.40795986  1
  N  N12  1  0.49402168  0.76650985  0.90795986  1
  N  N13  1  0.23349015  0.50597832  0.59204014  1
  Cl  Cl14  1  0.21308031  0.04699236  0.56705096  1
  Cl  Cl15  1  0.95300764  0.78691969  0.93294904  1
  Cl  Cl16  1  0.78691969  0.95300764  0.43294904  1
  Cl  Cl17  1  0.04699236  0.21308031  0.06705096  1
  O  O18  1  0.43397600  0.74029814  0.27047408  1
  O  O19  1  0.25970186  0.56602400  0.22952592  1
  O  O20  1  0.56602400  0.25970186  0.72952592  1
  O  O21  1  0.74029814  0.43397600  0.77047408  1
