# generated using pymatgen
data_Li2CrCo3O8
_symmetry_space_group_name_H-M   'P 1'
_cell_length_a   8.12753775
_cell_length_b   8.12585499
_cell_length_c   8.14302730
_cell_angle_alpha   90.05495860
_cell_angle_beta   90.10024017
_cell_angle_gamma   89.86013069
_symmetry_Int_Tables_number   1
_chemical_formula_structural   Li2CrCo3O8
_chemical_formula_sum   'Li8 Cr4 Co12 O32'
_cell_volume   537.78885448
_cell_formula_units_Z   4
loop_
 _symmetry_equiv_pos_site_id
 _symmetry_equiv_pos_as_xyz
  1  'x, y, z'
loop_
 _atom_site_type_symbol
 _atom_site_label
 _atom_site_symmetry_multiplicity
 _atom_site_fract_x
 _atom_site_fract_y
 _atom_site_fract_z
 _atom_site_occupancy
  Li  Li0  1  0.99668248  0.00007521  -0.00040481  1
  Li  Li1  1  0.25203670  0.25240960  0.25215344  1
  Li  Li2  1  0.24911489  0.74823726  0.74922755  1
  Li  Li3  1  0.50095388  0.00119530  0.49984613  1
  Li  Li4  1  0.49959979  0.49932251  0.00224202  1
  Li  Li5  1  0.75273943  0.24948400  0.74898070  1
  Li  Li6  1  0.75013121  0.74950693  0.24982513  1
  Li  Li7  1  0.99979201  0.49801950  0.50142202  1
  Cr  Cr8  1  0.12381418  0.87410735  0.37759487  1
  Cr  Cr9  1  0.37419506  0.12705824  0.87166616  1
  Cr  Cr10  1  0.62708346  0.62063711  0.62307958  1
  Cr  Cr11  1  0.87264170  0.37515716  0.12468897  1
  Co  Co12  1  0.12244280  0.12557099  0.62633149  1
  Co  Co13  1  0.12434006  0.37778893  0.87202581  1
  Co  Co14  1  0.12532115  0.62537937  0.12185856  1
  Co  Co15  1  0.37464417  0.37646403  0.62358060  1
  Co  Co16  1  0.37525038  0.62307484  0.37405523  1
  Co  Co17  1  0.37620743  0.87287613  0.12408205  1
  Co  Co18  1  0.62223171  0.37241412  0.37408199  1
  Co  Co19  1  0.62484312  0.12317807  0.12734154  1
  Co  Co20  1  0.62808587  0.87387782  0.87705365  1
  Co  Co21  1  0.87085834  0.12619206  0.37769506  1
  Co  Co22  1  0.87433345  0.87673534  0.62712369  1
  Co  Co23  1  0.87754124  0.62813055  0.87419730  1
  O  O24  1  0.10885265  0.11178810  0.39026548  1
  O  O25  1  0.11079236  0.88937334  0.61569421  1
  O  O26  1  0.11227935  0.61217906  0.88869449  1
  O  O27  1  0.13552040  0.14160964  0.86338020  1
  O  O28  1  0.12306535  0.39441339  0.10443846  1
  O  O29  1  0.13820424  0.36115414  0.64151592  1
  O  O30  1  0.13539619  0.63847626  0.35675367  1
  O  O31  1  0.14211720  0.85845828  0.13227071  1
  O  O32  1  0.36098796  0.13831027  0.63998267  1
  O  O33  1  0.35777902  0.36383859  0.86374181  1
  O  O34  1  0.35908161  0.63963765  0.13639627  1
  O  O35  1  0.38878915  0.61432160  0.60820455  1
  O  O36  1  0.36270272  0.86535849  0.35574843  1
  O  O37  1  0.38798400  0.38970614  0.39045235  1
  O  O38  1  0.38824753  0.10625209  0.11078612  1
  O  O39  1  0.39085016  0.88388395  0.89191135  1
  O  O40  1  0.61270237  0.38876856  0.61152875  1
  O  O41  1  0.60985639  0.60924392  0.38334935  1
  O  O42  1  0.60868461  0.88635243  0.11040985  1
  O  O43  1  0.63118363  0.35760345  0.13942966  1
  O  O44  1  0.61455946  0.10790588  0.88755517  1
  O  O45  1  0.63969431  0.13497664  0.36177759  1
  O  O46  1  0.63673232  0.86354297  0.64471417  1
  O  O47  1  0.64075719  0.64300392  0.86898083  1
  O  O48  1  0.86070678  0.35548724  0.36900421  1
  O  O49  1  0.85890939  0.13110056  0.14453586  1
  O  O50  1  0.85972024  0.86314106  0.86054109  1
  O  O51  1  0.88819110  0.88873364  0.39071409  1
  O  O52  1  0.86057608  0.63838737  0.63946112  1
  O  O53  1  0.88857072  0.11118950  0.60993298  1
  O  O54  1  0.89542310  0.39227045  0.87913831  1
  O  O55  1  0.89619889  0.62277502  0.10908052  1
