# generated using pymatgen
data_V6O7F5
_symmetry_space_group_name_H-M   'P 1'
_cell_length_a   4.64540952
_cell_length_b   7.81123015
_cell_length_c   5.62902154
_cell_angle_alpha   92.95360579
_cell_angle_beta   90.85574018
_cell_angle_gamma   89.13443782
_symmetry_Int_Tables_number   1
_chemical_formula_structural   V6O7F5
_chemical_formula_sum   'V6 O7 F5'
_cell_volume   203.94160693
_cell_formula_units_Z   1
loop_
 _symmetry_equiv_pos_site_id
 _symmetry_equiv_pos_as_xyz
  1  'x, y, z'
loop_
 _atom_site_type_symbol
 _atom_site_label
 _atom_site_symmetry_multiplicity
 _atom_site_fract_x
 _atom_site_fract_y
 _atom_site_fract_z
 _atom_site_occupancy
  V  V0  1  0.53295956  0.65270763  0.15606716  1
  V  V1  1  0.50171524  0.00219861  0.50316469  1
  V  V2  1  0.47698120  0.35174609  0.82623709  1
  V  V3  1  -0.00029727  0.69375815  0.67787768  1
  V  V4  1  0.98727278  0.31915734  0.33769371  1
  V  V5  1  0.98721441  0.99303699  0.00866983  1
  O  O6  1  0.80713015  0.09146331  0.29911938  1
  O  O7  1  0.79856906  0.76962861  0.95876909  1
  O  O8  1  0.71361397  0.76034254  0.46733268  1
  O  O9  1  0.69909963  0.42427933  0.12300288  1
  O  O10  1  0.28368434  0.56939673  0.85168591  1
  O  O11  1  0.30910949  0.23305896  0.53567851  1
  O  O12  1  0.19781848  0.90472463  0.71506127  1
  F  F13  1  0.80366153  0.44274435  0.63117340  1
  F  F14  1  0.69964240  0.11427671  0.80503379  1
  F  F15  1  0.30516885  0.88666469  0.20453539  1
  F  F16  1  0.19893983  0.22476191  0.03556086  1
  F  F17  1  0.19771636  0.56605241  0.36333564  1
