# generated using pymatgen
data_Na5V2(PO5)3
_symmetry_space_group_name_H-M   'P 1'
_cell_length_a   5.22719734
_cell_length_b   6.36136591
_cell_length_c   10.65333378
_cell_angle_alpha   72.62873055
_cell_angle_beta   89.65477308
_cell_angle_gamma   88.84363051
_symmetry_Int_Tables_number   1
_chemical_formula_structural   Na5V2(PO5)3
_chemical_formula_sum   'Na5 V2 P3 O15'
_cell_volume   338.01992702
_cell_formula_units_Z   1
loop_
 _symmetry_equiv_pos_site_id
 _symmetry_equiv_pos_as_xyz
  1  'x, y, z'
loop_
 _atom_site_type_symbol
 _atom_site_label
 _atom_site_symmetry_multiplicity
 _atom_site_fract_x
 _atom_site_fract_y
 _atom_site_fract_z
 _atom_site_occupancy
  Na  Na0  1  0.98811909  0.91290284  0.82768047  1
  Na  Na1  1  0.98811909  0.74058331  0.17231953  1
  Na  Na2  1  0.01904366  0.49274363  0.52448279  1
  Na  Na3  1  0.01904366  0.01722642  0.47551721  1
  Na  Na4  1  0.39655421  0.18462853  1.00000000  1
  V  V5  1  0.50056073  0.65054799  0.69848653  1
  V  V6  1  0.50056073  0.34903452  0.30151347  1
  P  P7  1  0.50349108  0.18255688  0.62777592  1
  P  P8  1  0.50349108  0.81033280  0.37222408  1
  P  P9  1  0.46308154  0.65682098  0.00000000  1
  O  O10  1  0.89346981  0.20547131  0.00000000  1
  O  O11  1  0.79391442  0.17191038  0.62064333  1
  O  O12  1  0.79391442  0.79255371  0.37935667  1
  O  O13  1  0.81488686  0.66194598  0.68624225  1
  O  O14  1  0.81488686  0.34818823  0.31375775  1
  O  O15  1  0.40400575  0.34497068  0.70284129  1
  O  O16  1  0.40400575  0.04781197  0.29715871  1
  O  O17  1  0.37469688  0.74523585  0.51284807  1
  O  O18  1  0.37469688  0.25808392  0.48715193  1
  O  O19  1  0.38943103  0.95267523  0.70082888  1
  O  O20  1  0.38943103  0.65350412  0.29917112  1
  O  O21  1  0.39939021  0.56485929  0.87990024  1
  O  O22  1  0.39939021  0.44475953  0.12009976  1
  O  O23  1  0.27856679  0.84536316  0.00000000  1
  O  O24  1  0.74274821  0.71468873  1.00000000  1
