# generated using pymatgen
data_Li2FePO4F
_symmetry_space_group_name_H-M   'P 1'
_cell_length_a   5.08936912
_cell_length_b   13.14445212
_cell_length_c   11.51676359
_cell_angle_alpha   90.00000000
_cell_angle_beta   90.00000000
_cell_angle_gamma   90.00000000
_symmetry_Int_Tables_number   1
_chemical_formula_structural   Li2FePO4F
_chemical_formula_sum   'Li16 Fe8 P8 O32 F8'
_cell_volume   770.43657362
_cell_formula_units_Z   8
loop_
 _symmetry_equiv_pos_site_id
 _symmetry_equiv_pos_as_xyz
  1  'x, y, z'
loop_
 _atom_site_type_symbol
 _atom_site_label
 _atom_site_symmetry_multiplicity
 _atom_site_fract_x
 _atom_site_fract_y
 _atom_site_fract_z
 _atom_site_occupancy
  Li  Li0  1  0.21792964  0.26015122  0.17746348  1
  Li  Li1  1  0.21792964  0.73984878  0.67746348  1
  Li  Li2  1  0.22199380  0.13331311  0.90205572  1
  Li  Li3  1  0.22199380  0.86668689  0.40205572  1
  Li  Li4  1  0.27800620  0.36668689  0.40205572  1
  Li  Li5  1  0.27800620  0.63331311  0.90205572  1
  Li  Li6  1  0.28207036  0.23984878  0.67746348  1
  Li  Li7  1  0.28207036  0.76015122  0.17746348  1
  Li  Li8  1  0.71792964  0.23984878  0.82253652  1
  Li  Li9  1  0.71792964  0.76015122  0.32253652  1
  Li  Li10  1  0.72199380  0.36668689  0.09794428  1
  Li  Li11  1  0.72199380  0.63331311  0.59794428  1
  Li  Li12  1  0.77800620  0.13331311  0.59794428  1
  Li  Li13  1  0.77800620  0.86668689  0.09794428  1
  Li  Li14  1  0.78207036  0.73984878  0.82253652  1
  Li  Li15  1  0.78207036  0.26015122  0.32253652  1
  Fe  Fe16  1  0.22892165  0.00774232  0.66964633  1
  Fe  Fe17  1  0.22892165  0.99225768  0.16964633  1
  Fe  Fe18  1  0.27107835  0.50774232  0.66964633  1
  Fe  Fe19  1  0.27107835  0.49225768  0.16964633  1
  Fe  Fe20  1  0.72892165  0.50774232  0.83035367  1
  Fe  Fe21  1  0.72892165  0.49225768  0.33035367  1
  Fe  Fe22  1  0.77107835  0.00774232  0.83035367  1
  Fe  Fe23  1  0.77107835  0.99225768  0.33035367  1
  P  P24  1  0.20407453  0.62767043  0.41617005  1
  P  P25  1  0.20407453  0.37232957  0.91617005  1
  P  P26  1  0.29592547  0.12767043  0.41617005  1
  P  P27  1  0.29592547  0.87232957  0.91617005  1
  P  P28  1  0.70407453  0.12767043  0.08382995  1
  P  P29  1  0.70407453  0.87232957  0.58382995  1
  P  P30  1  0.79592547  0.37232957  0.58382995  1
  P  P31  1  0.79592547  0.62767043  0.08382995  1
  O  O32  1  0.10458610  0.62113425  0.09462858  1
  O  O33  1  0.10458610  0.37886575  0.59462858  1
  O  O34  1  0.17888778  0.02981932  0.35723220  1
  O  O35  1  0.17888778  0.97018068  0.85723220  1
  O  O36  1  0.18811183  0.22294583  0.35647127  1
  O  O37  1  0.18811183  0.77705417  0.85647127  1
  O  O38  1  0.21810941  0.12742762  0.54618155  1
  O  O39  1  0.21810941  0.87257238  0.04618155  1
  O  O40  1  0.28189059  0.37257238  0.04618155  1
  O  O41  1  0.28189059  0.62742762  0.54618155  1
  O  O42  1  0.31188817  0.27705417  0.85647127  1
  O  O43  1  0.31188817  0.72294583  0.35647127  1
  O  O44  1  0.32111222  0.52981932  0.35723220  1
  O  O45  1  0.32111222  0.47018068  0.85723220  1
  O  O46  1  0.39541490  0.12113425  0.09462858  1
  O  O47  1  0.39541490  0.87886575  0.59462858  1
  O  O48  1  0.60458610  0.87886575  0.90537142  1
  O  O49  1  0.60458610  0.12113425  0.40537142  1
  O  O50  1  0.67888778  0.47018068  0.64276780  1
  O  O51  1  0.67888778  0.52981932  0.14276780  1
  O  O52  1  0.68811183  0.72294583  0.14352873  1
  O  O53  1  0.68811183  0.27705417  0.64352873  1
  O  O54  1  0.71810941  0.37257238  0.45381845  1
  O  O55  1  0.71810941  0.62742762  0.95381845  1
  O  O56  1  0.78189059  0.12742762  0.95381845  1
  O  O57  1  0.78189059  0.87257238  0.45381845  1
  O  O58  1  0.81188817  0.22294583  0.14352873  1
  O  O59  1  0.81188817  0.77705417  0.64352873  1
  O  O60  1  0.82111222  0.02981932  0.14276780  1
  O  O61  1  0.82111222  0.97018068  0.64276780  1
  O  O62  1  0.89541390  0.37886575  0.90537142  1
  O  O63  1  0.89541390  0.62113425  0.40537142  1
  F  F64  1  0.00000000  0.39489089  0.25000000  1
  F  F65  1  0.00000000  0.13570164  0.75000000  1
  F  F66  1  0.00000000  0.86429836  0.25000000  1
  F  F67  1  0.00000000  0.60510911  0.75000000  1
  F  F68  1  0.50000000  0.36429836  0.25000000  1
  F  F69  1  0.50000000  0.10510911  0.75000000  1
  F  F70  1  0.50000000  0.63570164  0.75000000  1
  F  F71  1  0.50000000  0.89489089  0.25000000  1
