# generated using pymatgen
data_Li3MnVP2(O4F)2
_symmetry_space_group_name_H-M   'P 1'
_cell_length_a   5.27338108
_cell_length_b   5.43341639
_cell_length_c   7.66827443
_cell_angle_alpha   110.36151743
_cell_angle_beta   107.93318410
_cell_angle_gamma   97.08112094
_symmetry_Int_Tables_number   1
_chemical_formula_structural   Li3MnVP2(O4F)2
_chemical_formula_sum   'Li3 Mn1 V1 P2 O8 F2'
_cell_volume   189.32738038
_cell_formula_units_Z   1
loop_
 _symmetry_equiv_pos_site_id
 _symmetry_equiv_pos_as_xyz
  1  'x, y, z'
loop_
 _atom_site_type_symbol
 _atom_site_label
 _atom_site_symmetry_multiplicity
 _atom_site_fract_x
 _atom_site_fract_y
 _atom_site_fract_z
 _atom_site_occupancy
  Li  Li0  1  0.09342012  0.43107291  0.83958522  1
  Li  Li1  1  0.98057140  0.52777905  0.48916967  1
  Li  Li2  1  0.90595953  0.56592194  0.14629743  1
  Mn  Mn3  1  0.49153382  0.49427786  0.50119808  1
  V  V4  1  0.00051767  0.00044945  0.00055610  1
  P  P5  1  0.42101202  0.12004913  0.76375652  1
  P  P6  1  0.58083027  0.87953093  0.23883344  1
  O  O7  1  0.28319233  0.16407048  0.92356948  1
  O  O8  1  0.32900428  0.82448607  0.61101311  1
  O  O9  1  0.32845699  0.31824890  0.66826302  1
  O  O10  1  0.25673339  0.78681657  0.12005151  1
  O  O11  1  0.74492398  0.21082432  0.87982846  1
  O  O12  1  0.67447996  0.68328233  0.33626810  1
  O  O13  1  0.66916106  0.17702960  0.38960522  1
  O  O14  1  0.71926295  0.83659333  0.07939445  1
  F  F15  1  0.09802169  0.34409290  0.25733854  1
  F  F16  1  0.89566952  0.66029223  0.74114764  1
