# generated using pymatgen
data_V6O11F
_symmetry_space_group_name_H-M   'P 1'
_cell_length_a   10.47401320
_cell_length_b   6.47002724
_cell_length_c   2.94611743
_cell_angle_alpha   90.00000000
_cell_angle_beta   90.00000000
_cell_angle_gamma   107.99042480
_symmetry_Int_Tables_number   1
_chemical_formula_structural   V6O11F
_chemical_formula_sum   'V6 O11 F1'
_cell_volume   189.88872584
_cell_formula_units_Z   1
loop_
 _symmetry_equiv_pos_site_id
 _symmetry_equiv_pos_as_xyz
  1  'x, y, z'
loop_
 _atom_site_type_symbol
 _atom_site_label
 _atom_site_symmetry_multiplicity
 _atom_site_fract_x
 _atom_site_fract_y
 _atom_site_fract_z
 _atom_site_occupancy
  V  V0  1  0.01722989  0.00856116  0.00000000  1
  V  V1  1  0.34266377  0.17136372  0.50000000  1
  V  V2  1  0.99753624  0.49870111  0.50000000  1
  V  V3  1  0.32209284  0.66107438  0.00000000  1
  V  V4  1  0.67062262  0.33531732  0.00000000  1
  V  V5  1  0.64275282  0.82138831  0.50000000  1
  O  O6  1  0.13785068  0.06894082  0.50000000  1
  O  O7  1  0.99849075  0.29028138  0.00000000  1
  O  O8  1  0.99846918  0.70811733  0.00000000  1
  O  O9  1  0.33574963  0.36494217  0.00000000  1
  O  O10  1  0.66865469  0.02903467  0.00000000  1
  O  O11  1  0.19383990  0.59688542  0.50000000  1
  O  O12  1  0.53856625  0.26927876  0.50000000  1
  O  O13  1  0.46262764  0.73133992  0.50000000  1
  O  O14  1  0.79753931  0.39875270  0.50000000  1
  O  O15  1  0.33575365  0.97083663  0.00000000  1
  O  O16  1  0.66862704  0.63962093  0.00000000  1
  F  F17  1  0.87093409  0.93556428  0.50000000  1
