# generated using pymatgen
data_Li4MnV3O8
_symmetry_space_group_name_H-M   'P 1'
_cell_length_a   5.92822591
_cell_length_b   6.03828098
_cell_length_c   5.94089113
_cell_angle_alpha   60.31805540
_cell_angle_beta   90.11232241
_cell_angle_gamma   60.65520632
_symmetry_Int_Tables_number   1
_chemical_formula_structural   Li4MnV3O8
_chemical_formula_sum   'Li4 Mn1 V3 O8'
_cell_volume   152.41698198
_cell_formula_units_Z   1
loop_
 _symmetry_equiv_pos_site_id
 _symmetry_equiv_pos_as_xyz
  1  'x, y, z'
loop_
 _atom_site_type_symbol
 _atom_site_label
 _atom_site_symmetry_multiplicity
 _atom_site_fract_x
 _atom_site_fract_y
 _atom_site_fract_z
 _atom_site_occupancy
  Li  Li0  1  0.98646709  0.51355539  0.49622073  1
  Li  Li1  1  0.48687464  0.51238414  0.49550941  1
  Li  Li2  1  0.49208074  0.00731255  0.49896773  1
  Li  Li3  1  0.99101329  0.01025873  0.49705337  1
  Mn  Mn4  1  0.99315745  0.00588666  0.99665353  1
  V  V5  1  0.49333544  0.00545612  0.99700509  1
  V  V6  1  0.49375656  0.50477755  0.99814324  1
  V  V7  1  0.99408814  0.50474057  0.99838610  1
  O  O8  1  0.76205289  0.98382675  0.77644939  1
  O  O9  1  0.24592950  0.98423705  0.77668365  1
  O  O10  1  0.73635228  0.51856470  0.75707569  1
  O  O11  1  0.25509032  0.48109706  0.77115236  1
  O  O12  1  0.73224203  0.52885986  0.22487353  1
  O  O13  1  0.25089164  0.49217193  0.23855931  1
  O  O14  1  0.74176434  0.02494889  0.21884523  1
  O  O15  1  0.22557366  0.02538404  0.21912363  1
