# generated using pymatgen
data_LiP2WO7
_symmetry_space_group_name_H-M   'P 1'
_cell_length_a   8.61048679
_cell_length_b   5.09656882
_cell_length_c   12.84992908
_cell_angle_alpha   90.00000000
_cell_angle_beta   102.16419647
_cell_angle_gamma   90.00000000
_symmetry_Int_Tables_number   1
_chemical_formula_structural   LiP2WO7
_chemical_formula_sum   'Li4 P8 W4 O28'
_cell_volume   551.24455468
_cell_formula_units_Z   4
loop_
 _symmetry_equiv_pos_site_id
 _symmetry_equiv_pos_as_xyz
  1  'x, y, z'
loop_
 _atom_site_type_symbol
 _atom_site_label
 _atom_site_symmetry_multiplicity
 _atom_site_fract_x
 _atom_site_fract_y
 _atom_site_fract_z
 _atom_site_occupancy
  Li  Li0  1  0.11704135  0.27971580  0.70921213  1
  Li  Li1  1  0.38295865  0.77971580  0.79078787  1
  Li  Li2  1  0.61704135  0.22028420  0.20921213  1
  Li  Li3  1  0.88295865  0.72028420  0.29078787  1
  P  P4  1  0.02506392  0.76083315  0.85104501  1
  P  P5  1  0.07860313  0.22888547  0.37832789  1
  P  P6  1  0.47493608  0.26083315  0.64895499  1
  P  P7  1  0.57860313  0.27111453  0.87832789  1
  P  P8  1  0.42139687  0.72888547  0.12167211  1
  P  P9  1  0.52506392  0.73916685  0.35104501  1
  P  P10  1  0.92139687  0.77111453  0.62167211  1
  P  P11  1  0.97493608  0.23916685  0.14895499  1
  W  W12  1  0.23976334  0.24264869  0.97058252  1
  W  W13  1  0.26023666  0.74264869  0.52941748  1
  W  W14  1  0.73976334  0.25735131  0.47058252  1
  W  W15  1  0.76023666  0.75735131  0.02941748  1
  O  O16  1  0.08693343  0.04212347  0.83928155  1
  O  O17  1  0.16342483  0.56251293  0.85339509  1
  O  O18  1  0.08741888  0.65169906  0.62471376  1
  O  O19  1  0.08214112  0.93073705  0.39979426  1
  O  O20  1  0.10519826  0.28350575  0.25917116  1
  O  O21  1  0.21228895  0.37123403  0.45135807  1
  O  O22  1  0.06133478  0.28295388  0.06140762  1
  O  O23  1  0.41258112  0.15169906  0.87528624  1
  O  O24  1  0.33657517  0.06251293  0.64660491  1
  O  O25  1  0.41306657  0.54212347  0.66071845  1
  O  O26  1  0.43866522  0.78295388  0.43859238  1
  O  O27  1  0.58214112  0.56926295  0.89979426  1
  O  O28  1  0.28771105  0.87123403  0.04864193  1
  O  O29  1  0.39480174  0.78350575  0.24082884  1
  O  O30  1  0.60519826  0.21649425  0.75917116  1
  O  O31  1  0.71228895  0.12876597  0.95135807  1
  O  O32  1  0.41785888  0.43073705  0.10020574  1
  O  O33  1  0.56133478  0.21704612  0.56140762  1
  O  O34  1  0.58693343  0.45787653  0.33928155  1
  O  O35  1  0.66342483  0.93748707  0.35339509  1
  O  O36  1  0.58741888  0.84830094  0.12471376  1
  O  O37  1  0.93866522  0.71704612  0.93859238  1
  O  O38  1  0.78771105  0.62876597  0.54864193  1
  O  O39  1  0.89480174  0.71649425  0.74082884  1
  O  O40  1  0.91785888  0.06926295  0.60020574  1
  O  O41  1  0.91258112  0.34830094  0.37528624  1
  O  O42  1  0.83657517  0.43748707  0.14660491  1
  O  O43  1  0.91306657  0.95787653  0.16071845  1
