# generated using pymatgen
data_Li4Co2Si3O10
_symmetry_space_group_name_H-M   'P 1'
_cell_length_a   5.35196796
_cell_length_b   5.35196796
_cell_length_c   17.08257624
_cell_angle_alpha   82.22019639
_cell_angle_beta   97.77980361
_cell_angle_gamma   119.49848487
_symmetry_Int_Tables_number   1
_chemical_formula_structural   Li4Co2Si3O10
_chemical_formula_sum   'Li8 Co4 Si6 O20'
_cell_volume   420.61496103
_cell_formula_units_Z   2
loop_
 _symmetry_equiv_pos_site_id
 _symmetry_equiv_pos_as_xyz
  1  'x, y, z'
loop_
 _atom_site_type_symbol
 _atom_site_label
 _atom_site_symmetry_multiplicity
 _atom_site_fract_x
 _atom_site_fract_y
 _atom_site_fract_z
 _atom_site_occupancy
  Li  Li0  1  0.17234613  0.68231810  0.94798745  1
  Li  Li1  1  0.42116774  0.78563298  0.76913056  1
  Li  Li2  1  0.31768190  0.82765387  0.44798745  1
  Li  Li3  1  0.21436702  0.57883226  0.26913056  1
  Li  Li4  1  0.78563298  0.42116774  0.73086944  1
  Li  Li5  1  0.68231810  0.17234613  0.55201255  1
  Li  Li6  1  0.57883226  0.21436702  0.23086944  1
  Li  Li7  1  0.82765387  0.31768190  0.05201255  1
  Co  Co8  1  0.81127050  0.01821366  0.91382732  1
  Co  Co9  1  0.98178634  0.18872950  0.41382732  1
  Co  Co10  1  0.01821366  0.81127050  0.58617268  1
  Co  Co11  1  0.18872950  0.98178634  0.08617268  1
  Si  Si12  1  0.33708107  0.46642874  0.59761880  1
  Si  Si13  1  0.11708872  0.11708872  0.75000000  1
  Si  Si14  1  0.46642874  0.33708107  0.90238120  1
  Si  Si15  1  0.53357126  0.66291893  0.09761880  1
  Si  Si16  1  0.88291128  0.88291128  0.25000000  1
  Si  Si17  1  0.66291893  0.53357126  0.40238120  1
  O  O18  1  0.08004350  0.83905712  0.71136064  1
  O  O19  1  0.16094288  0.91995650  0.21136064  1
  O  O20  1  0.36953623  0.78038311  0.56483779  1
  O  O21  1  0.44965364  0.63774673  0.89239254  1
  O  O22  1  0.22078657  0.41262095  0.68827284  1
  O  O23  1  0.20774544  0.07483919  0.95220289  1
  O  O24  1  0.07483919  0.20774544  0.54779711  1
  O  O25  1  0.21961689  0.63046377  0.06483779  1
  O  O26  1  0.36225327  0.55034636  0.39239254  1
  O  O27  1  0.41262095  0.22078657  0.81172716  1
  O  O28  1  0.58737905  0.77921343  0.18827284  1
  O  O29  1  0.63774673  0.44965364  0.60760746  1
  O  O30  1  0.78038311  0.36953623  0.93516221  1
  O  O31  1  0.92516081  0.79225456  0.45220289  1
  O  O32  1  0.79225456  0.92516081  0.04779711  1
  O  O33  1  0.77921343  0.58737905  0.31172716  1
  O  O34  1  0.55034636  0.36225327  0.10760746  1
  O  O35  1  0.63046377  0.21961689  0.43516221  1
  O  O36  1  0.83905712  0.08004350  0.78863936  1
  O  O37  1  0.91995650  0.16094288  0.28863936  1
