# generated using pymatgen
data_LiFeSiO4
_symmetry_space_group_name_H-M   'P 1'
_cell_length_a   5.23229092
_cell_length_b   5.23230133
_cell_length_c   9.33915014
_cell_angle_alpha   89.96294809
_cell_angle_beta   89.99979555
_cell_angle_gamma   120.00256502
_symmetry_Int_Tables_number   1
_chemical_formula_structural   LiFeSiO4
_chemical_formula_sum   'Li2 Fe2 Si2 O8'
_cell_volume   221.41715817
_cell_formula_units_Z   2
loop_
 _symmetry_equiv_pos_site_id
 _symmetry_equiv_pos_as_xyz
  1  'x, y, z'
loop_
 _atom_site_type_symbol
 _atom_site_label
 _atom_site_symmetry_multiplicity
 _atom_site_fract_x
 _atom_site_fract_y
 _atom_site_fract_z
 _atom_site_occupancy
  Li  Li0  1  0.99998116  0.00011860  0.19812270  1
  Li  Li1  1  0.99979210  0.99991886  0.69816595  1
  Fe  Fe2  1  0.33343765  0.66680719  0.13527717  1
  Fe  Fe3  1  0.66658031  0.33326572  0.63521035  1
  Si  Si4  1  0.33323657  0.66654055  0.76529730  1
  Si  Si5  1  0.66676718  0.33340627  0.26505860  1
  O  O6  1  0.02997608  0.37647399  0.70435658  1
  O  O7  1  0.34604969  0.96957216  0.70405385  1
  O  O8  1  0.33405820  0.66663034  0.93851958  1
  O  O9  1  0.37661673  0.34650486  0.20442540  1
  O  O10  1  0.62309260  0.65358958  0.70373040  1
  O  O11  1  0.66748742  0.33322136  0.43880083  1
  O  O12  1  0.65363899  0.03051952  0.20396469  1
  O  O13  1  0.96958332  0.62343201  0.20383760  1
