# generated using pymatgen
data_V3O5F
_symmetry_space_group_name_H-M   'P 1'
_cell_length_a   7.24441474
_cell_length_b   5.52878469
_cell_length_c   5.53492385
_cell_angle_alpha   73.67542507
_cell_angle_beta   70.94830452
_cell_angle_gamma   70.86440517
_symmetry_Int_Tables_number   1
_chemical_formula_structural   V3O5F
_chemical_formula_sum   'V6 O10 F2'
_cell_volume   194.16995677
_cell_formula_units_Z   2
loop_
 _symmetry_equiv_pos_site_id
 _symmetry_equiv_pos_as_xyz
  1  'x, y, z'
loop_
 _atom_site_type_symbol
 _atom_site_label
 _atom_site_symmetry_multiplicity
 _atom_site_fract_x
 _atom_site_fract_y
 _atom_site_fract_z
 _atom_site_occupancy
  V  V0  1  0.84775163  0.64598114  0.66393330  1
  V  V1  1  0.66793866  0.36240446  0.31132653  1
  V  V2  1  0.34128267  0.64355116  0.65213451  1
  V  V3  1  0.16439693  0.32995694  0.33196695  1
  V  V4  1  0.49660182  0.00979567  0.02936216  1
  V  V5  1  0.98205988  0.00285185  0.01116446  1
  O  O6  1  0.34440034  0.35281471  0.95430124  1
  O  O7  1  0.97293725  0.22393077  0.22418410  1
  O  O8  1  0.62955907  0.57471187  0.57315842  1
  O  O9  1  0.69703986  0.10213800  0.10091064  1
  O  O10  1  0.04247530  0.76714262  0.77340774  1
  O  O11  1  0.36257010  0.43280018  0.43153394  1
  O  O12  1  0.99193133  0.30113282  0.71165533  1
  O  O13  1  0.66564486  0.65304017  0.01824904  1
  O  O14  1  0.34005744  0.95226966  0.36596197  1
  O  O15  1  0.98805889  0.70875414  0.31107729  1
  F  F16  1  0.66649381  0.03873765  0.63309520  1
  F  F17  1  0.29879714  0.89798519  0.90257817  1
