# generated using pymatgen
data_Li2Co(CO3)2
_symmetry_space_group_name_H-M   'P 1'
_cell_length_a   7.57704268
_cell_length_b   9.12939697
_cell_length_c   9.72345926
_cell_angle_alpha   89.99810904
_cell_angle_beta   89.99802303
_cell_angle_gamma   55.98020462
_symmetry_Int_Tables_number   1
_chemical_formula_structural   Li2Co(CO3)2
_chemical_formula_sum   'Li8 Co4 C8 O24'
_cell_volume   557.48808834
_cell_formula_units_Z   4
loop_
 _symmetry_equiv_pos_site_id
 _symmetry_equiv_pos_as_xyz
  1  'x, y, z'
loop_
 _atom_site_type_symbol
 _atom_site_label
 _atom_site_symmetry_multiplicity
 _atom_site_fract_x
 _atom_site_fract_y
 _atom_site_fract_z
 _atom_site_occupancy
  Li  Li0  1  0.84419288  0.78944943  0.31675547  1
  Li  Li1  1  0.63539155  0.85688101  0.62146243  1
  Li  Li2  1  0.84418204  0.28942841  0.18319560  1
  Li  Li3  1  0.63534947  0.35688308  0.87855635  1
  Li  Li4  1  0.36457034  0.64305052  0.12151052  1
  Li  Li5  1  0.15579225  0.71050071  0.81675271  1
  Li  Li6  1  0.36465275  0.14306155  0.37851504  1
  Li  Li7  1  0.15581699  0.21053701  0.68318427  1
  Co  Co8  1  0.46040857  0.95218493  0.11895753  1
  Co  Co9  1  0.53968565  0.54774914  0.61898101  1
  Co  Co10  1  0.46034314  0.45229534  0.38105285  1
  Co  Co11  1  0.53970321  0.04769848  0.88099855  1
  C  C12  1  0.92400930  0.80236412  0.01542927  1
  C  C13  1  0.92409727  0.30229237  0.48450995  1
  C  C14  1  0.48979251  0.76895196  0.38187407  1
  C  C15  1  0.51014647  0.73107339  0.88191560  1
  C  C16  1  0.48973257  0.26891506  0.11820467  1
  C  C17  1  0.51023290  0.23108941  0.61815901  1
  C  C18  1  0.07598025  0.69767029  0.51548525  1
  C  C19  1  0.07601945  0.19770145  0.98444287  1
  O  O20  1  0.87684963  0.81637027  0.52435197  1
  O  O21  1  0.85455838  0.88805960  0.89796634  1
  O  O22  1  0.79318077  0.83845863  0.11693519  1
  O  O23  1  0.87678454  0.31634690  0.97564690  1
  O  O24  1  0.85448236  0.38799976  0.60197475  1
  O  O25  1  0.79326550  0.33834794  0.38297215  1
  O  O26  1  0.52117449  0.88286256  0.32503589  1
  O  O27  1  0.48446630  0.75206596  0.01372295  1
  O  O28  1  0.56025955  0.81879123  0.80754869  1
  O  O29  1  0.43967273  0.68121424  0.30749464  1
  O  O30  1  0.51543715  0.74793765  0.51368618  1
  O  O31  1  0.47879820  0.61712132  0.82506263  1
  O  O32  1  0.52116853  0.38283770  0.17500622  1
  O  O33  1  0.48458143  0.25212929  0.48635240  1
  O  O34  1  0.56038568  0.31875085  0.69256352  1
  O  O35  1  0.43961507  0.18123113  0.19259515  1
  O  O36  1  0.51532809  0.24791916  0.98637296  1
  O  O37  1  0.47882681  0.11714682  0.67496258  1
  O  O38  1  0.20684405  0.66159548  0.61699935  1
  O  O39  1  0.14550190  0.61203287  0.39800659  1
  O  O40  1  0.12317481  0.68353562  0.02426902  1
  O  O41  1  0.20673063  0.16179772  0.88291021  1
  O  O42  1  0.14561174  0.11206389  0.10191110  1
  O  O43  1  0.12318411  0.18360274  0.47571863  1
