# generated using pymatgen
data_HfMg30SiO32
_symmetry_space_group_name_H-M   'P 1'
_cell_length_a   8.64207692
_cell_length_b   8.61760887
_cell_length_c   8.61760887
_cell_angle_alpha   90.00000000
_cell_angle_beta   90.00000000
_cell_angle_gamma   90.00000000
_symmetry_Int_Tables_number   1
_chemical_formula_structural   HfMg30SiO32
_chemical_formula_sum   'Hf1 Mg30 Si1 O32'
_cell_volume   641.78813667
_cell_formula_units_Z   1
loop_
 _symmetry_equiv_pos_site_id
 _symmetry_equiv_pos_as_xyz
  1  'x, y, z'
loop_
 _atom_site_type_symbol
 _atom_site_label
 _atom_site_symmetry_multiplicity
 _atom_site_fract_x
 _atom_site_fract_y
 _atom_site_fract_z
 _atom_site_occupancy
  Hf  Hf0  1  0.00000000  0.50000000  0.50000000  1
  Mg  Mg1  1  0.00000000  0.00000000  0.50000000  1
  Mg  Mg2  1  0.00000000  0.50000000  0.00000000  1
  Mg  Mg3  1  0.50000000  0.00000000  0.00000000  1
  Mg  Mg4  1  0.50000000  0.00000000  0.50000000  1
  Mg  Mg5  1  0.50000000  0.50000000  0.00000000  1
  Mg  Mg6  1  0.50000000  0.50000000  0.50000000  1
  Mg  Mg7  1  0.00000000  0.24567972  0.24567972  1
  Mg  Mg8  1  0.00000000  0.24567972  0.75432028  1
  Mg  Mg9  1  0.00000000  0.75432028  0.24567972  1
  Mg  Mg10  1  0.00000000  0.75432028  0.75432028  1
  Mg  Mg11  1  0.50000000  0.24948113  0.24948113  1
  Mg  Mg12  1  0.50000000  0.24948113  0.75051887  1
  Mg  Mg13  1  0.50000000  0.75051887  0.24948113  1
  Mg  Mg14  1  0.50000000  0.75051887  0.75051887  1
  Mg  Mg15  1  0.25211251  0.00000000  0.25071609  1
  Mg  Mg16  1  0.25211251  0.00000000  0.74928391  1
  Mg  Mg17  1  0.25480708  0.50000000  0.24647629  1
  Mg  Mg18  1  0.25480708  0.50000000  0.75352371  1
  Mg  Mg19  1  0.74788749  0.00000000  0.25071609  1
  Mg  Mg20  1  0.74788749  0.00000000  0.74928391  1
  Mg  Mg21  1  0.74519292  0.50000000  0.24647629  1
  Mg  Mg22  1  0.74519292  0.50000000  0.75352371  1
  Mg  Mg23  1  0.25211251  0.25071609  0.00000000  1
  Mg  Mg24  1  0.25480708  0.24647629  0.50000000  1
  Mg  Mg25  1  0.25211251  0.74928391  0.00000000  1
  Mg  Mg26  1  0.25480708  0.75352371  0.50000000  1
  Mg  Mg27  1  0.74788749  0.25071609  0.00000000  1
  Mg  Mg28  1  0.74519292  0.24647629  0.50000000  1
  Mg  Mg29  1  0.74788749  0.74928391  0.00000000  1
  Mg  Mg30  1  0.74519292  0.75352371  0.50000000  1
  Si  Si31  1  0.00000000  0.00000000  0.00000000  1
  O  O32  1  0.25983686  0.00000000  0.00000000  1
  O  O33  1  0.25045357  0.00000000  0.50000000  1
  O  O34  1  0.25045357  0.50000000  0.00000000  1
  O  O35  1  0.25715572  0.50000000  0.50000000  1
  O  O36  1  0.74016314  0.00000000  0.00000000  1
  O  O37  1  0.74954643  0.00000000  0.50000000  1
  O  O38  1  0.74954643  0.50000000  0.00000000  1
  O  O39  1  0.74284428  0.50000000  0.50000000  1
  O  O40  1  0.24838202  0.24982821  0.24982821  1
  O  O41  1  0.24838202  0.24982821  0.75017179  1
  O  O42  1  0.24838202  0.75017179  0.24982821  1
  O  O43  1  0.24838202  0.75017179  0.75017179  1
  O  O44  1  0.75161798  0.24982821  0.24982821  1
  O  O45  1  0.75161798  0.24982821  0.75017179  1
  O  O46  1  0.75161798  0.75017179  0.24982821  1
  O  O47  1  0.75161798  0.75017179  0.75017179  1
  O  O48  1  0.00000000  0.00000000  0.26096715  1
  O  O49  1  0.00000000  0.00000000  0.73903285  1
  O  O50  1  0.00000000  0.50000000  0.24899257  1
  O  O51  1  0.00000000  0.50000000  0.75100743  1
  O  O52  1  0.50000000  0.00000000  0.25099305  1
  O  O53  1  0.50000000  0.00000000  0.74900695  1
  O  O54  1  0.50000000  0.50000000  0.24925608  1
  O  O55  1  0.50000000  0.50000000  0.75074392  1
  O  O56  1  0.00000000  0.26096715  0.00000000  1
  O  O57  1  0.00000000  0.24899257  0.50000000  1
  O  O58  1  0.00000000  0.73903285  0.00000000  1
  O  O59  1  0.00000000  0.75100743  0.50000000  1
  O  O60  1  0.50000000  0.25099305  0.00000000  1
  O  O61  1  0.50000000  0.24925608  0.50000000  1
  O  O62  1  0.50000000  0.74900695  0.00000000  1
  O  O63  1  0.50000000  0.75074392  0.50000000  1
