# generated using pymatgen
data_NdCO4
_symmetry_space_group_name_H-M   'P 1'
_cell_length_a   4.98974655
_cell_length_b   7.35724769
_cell_length_c   8.45412073
_cell_angle_alpha   90.00000000
_cell_angle_beta   90.00000000
_cell_angle_gamma   90.00000000
_symmetry_Int_Tables_number   1
_chemical_formula_structural   NdCO4
_chemical_formula_sum   'Nd4 C4 O16'
_cell_volume   310.35754610
_cell_formula_units_Z   4
loop_
 _symmetry_equiv_pos_site_id
 _symmetry_equiv_pos_as_xyz
  1  'x, y, z'
loop_
 _atom_site_type_symbol
 _atom_site_label
 _atom_site_symmetry_multiplicity
 _atom_site_fract_x
 _atom_site_fract_y
 _atom_site_fract_z
 _atom_site_occupancy
  Nd  Nd0  1  0.75000000  0.14545138  0.16648945  1
  Nd  Nd1  1  0.75000000  0.64545138  0.33351055  1
  Nd  Nd2  1  0.25000000  0.85454862  0.83351055  1
  Nd  Nd3  1  0.25000000  0.35454862  0.66648945  1
  C  C4  1  0.75000000  0.19675420  0.82030405  1
  C  C5  1  0.75000000  0.69675420  0.67969595  1
  C  C6  1  0.25000000  0.80324580  0.17969595  1
  C  C7  1  0.25000000  0.30324580  0.32030405  1
  O  O8  1  0.75000000  0.46309437  0.10009231  1
  O  O9  1  0.75000000  0.96309437  0.39990769  1
  O  O10  1  0.25000000  0.53690563  0.89990769  1
  O  O11  1  0.25000000  0.03690563  0.60009231  1
  O  O12  1  0.25000000  0.20522434  0.19442602  1
  O  O13  1  0.25000000  0.70522434  0.30557398  1
  O  O14  1  0.75000000  0.79477566  0.80557398  1
  O  O15  1  0.75000000  0.29477566  0.69442602  1
  O  O16  1  0.02476877  0.84891802  0.11386483  1
  O  O17  1  0.47523123  0.34891802  0.38613517  1
  O  O18  1  0.52476877  0.15108198  0.88613517  1
  O  O19  1  0.97523123  0.65108198  0.61386483  1
  O  O20  1  0.97523123  0.15108198  0.88613517  1
  O  O21  1  0.52476877  0.65108198  0.61386483  1
  O  O22  1  0.47523123  0.84891802  0.11386483  1
  O  O23  1  0.02476877  0.34891802  0.38613517  1
