# generated using pymatgen
data_Li6Mn5SbO12
_symmetry_space_group_name_H-M   'P 1'
_cell_length_a   5.31810174
_cell_length_b   5.31810097
_cell_length_c   10.44754558
_cell_angle_alpha   86.67357775
_cell_angle_beta   86.67357950
_cell_angle_gamma   117.05945364
_symmetry_Int_Tables_number   1
_chemical_formula_structural   Li6Mn5SbO12
_chemical_formula_sum   'Li6 Mn5 Sb1 O12'
_cell_volume   261.50455032
_cell_formula_units_Z   1
loop_
 _symmetry_equiv_pos_site_id
 _symmetry_equiv_pos_as_xyz
  1  'x, y, z'
loop_
 _atom_site_type_symbol
 _atom_site_label
 _atom_site_symmetry_multiplicity
 _atom_site_fract_x
 _atom_site_fract_y
 _atom_site_fract_z
 _atom_site_occupancy
  Li  Li0  1  0.56306036  0.90206995  0.28547095  1
  Li  Li1  1  0.76408290  0.76408290  0.71470334  1
  Li  Li2  1  0.09793305  0.43694564  0.71453105  1
  Li  Li3  1  0.90206995  0.56306036  0.28547095  1
  Li  Li4  1  0.23592010  0.23592010  0.28529666  1
  Li  Li5  1  0.43694564  0.09793305  0.71453105  1
  Mn  Mn6  1  0.16767066  0.83232934  0.50000000  1
  Mn  Mn7  1  0.50000000  0.50000000  0.50000000  1
  Mn  Mn8  1  0.83232934  0.16767066  0.50000000  1
  Mn  Mn9  1  0.33310071  0.66689929  1.00000000  1
  Mn  Mn10  1  0.66689929  0.33310071  0.00000000  1
  Sb  Sb11  1  0.00000000  0.00000000  0.00000000  1
  O  O12  1  0.32564477  0.00226867  0.89392245  1
  O  O13  1  0.99773133  0.67435523  0.10607755  1
  O  O14  1  0.43097476  0.78672870  0.61650885  1
  O  O15  1  0.89660443  0.89660443  0.39113760  1
  O  O16  1  0.21327130  0.56902524  0.38349115  1
  O  O17  1  0.70122846  0.70122846  0.90087748  1
  O  O18  1  0.29877154  0.29877154  0.09912252  1
  O  O19  1  0.78672870  0.43097476  0.61650885  1
  O  O20  1  0.10339557  0.10339557  0.60886240  1
  O  O21  1  0.56902524  0.21327130  0.38349115  1
  O  O22  1  0.00226867  0.32564477  0.89392245  1
  O  O23  1  0.67435523  0.99773133  0.10607755  1
