# generated using pymatgen
data_Li2Mn3F8
_symmetry_space_group_name_H-M   'P 1'
_cell_length_a   6.49734189
_cell_length_b   6.89329429
_cell_length_c   8.79297041
_cell_angle_alpha   90.00000000
_cell_angle_beta   90.00000000
_cell_angle_gamma   118.11740884
_symmetry_Int_Tables_number   1
_chemical_formula_structural   Li2Mn3F8
_chemical_formula_sum   'Li4 Mn6 F16'
_cell_volume   347.34313254
_cell_formula_units_Z   2
loop_
 _symmetry_equiv_pos_site_id
 _symmetry_equiv_pos_as_xyz
  1  'x, y, z'
loop_
 _atom_site_type_symbol
 _atom_site_label
 _atom_site_symmetry_multiplicity
 _atom_site_fract_x
 _atom_site_fract_y
 _atom_site_fract_z
 _atom_site_occupancy
  Li  Li0  1  0.11597254  0.23194407  0.60799216  1
  Li  Li1  1  0.38402746  0.76805593  0.10799216  1
  Li  Li2  1  0.61597254  0.23194407  0.89200784  1
  Li  Li3  1  0.88402746  0.76805593  0.39200784  1
  Mn  Mn4  1  0.10254357  0.70508714  0.75000000  1
  Mn  Mn5  1  0.00000000  0.00000000  0.00000000  1
  Mn  Mn6  1  0.60254357  0.70508714  0.75000000  1
  Mn  Mn7  1  0.39745643  0.29491286  0.25000000  1
  Mn  Mn8  1  0.50000000  0.00000000  0.50000000  1
  Mn  Mn9  1  0.89745643  0.29491286  0.25000000  1
  F  F10  1  0.13389534  0.77051737  0.51360579  1
  F  F11  1  0.13662202  0.77051737  0.98639421  1
  F  F12  1  0.98401041  0.96802083  0.75351967  1
  F  F13  1  0.25574257  0.51148414  0.23239853  1
  F  F14  1  0.51598959  0.03197917  0.25351967  1
  F  F15  1  0.24425743  0.48851586  0.73239853  1
  F  F16  1  0.63389534  0.77051737  0.98639421  1
  F  F17  1  0.36337798  0.22948263  0.48639421  1
  F  F18  1  0.63662202  0.77051737  0.51360579  1
  F  F19  1  0.36610466  0.22948263  0.01360579  1
  F  F20  1  0.01598959  0.03197917  0.24648033  1
  F  F21  1  0.48401041  0.96802083  0.74648033  1
  F  F22  1  0.74425743  0.48851586  0.76760147  1
  F  F23  1  0.75574257  0.51148414  0.26760147  1
  F  F24  1  0.86337798  0.22948263  0.01360579  1
  F  F25  1  0.86610466  0.22948263  0.48639421  1
