# generated using pymatgen
data_Li5Ti2Co3O10
_symmetry_space_group_name_H-M   'P 1'
_cell_length_a   5.10963686
_cell_length_b   5.13808395
_cell_length_c   7.73116670
_cell_angle_alpha   71.28725800
_cell_angle_beta   108.79761862
_cell_angle_gamma   99.40596206
_symmetry_Int_Tables_number   1
_chemical_formula_structural   Li5Ti2Co3O10
_chemical_formula_sum   'Li5 Ti2 Co3 O10'
_cell_volume   181.58040803
_cell_formula_units_Z   1
loop_
 _symmetry_equiv_pos_site_id
 _symmetry_equiv_pos_as_xyz
  1  'x, y, z'
loop_
 _atom_site_type_symbol
 _atom_site_label
 _atom_site_symmetry_multiplicity
 _atom_site_fract_x
 _atom_site_fract_y
 _atom_site_fract_z
 _atom_site_occupancy
  Li  Li0  1  0.22291319  0.49729861  0.40502624  1
  Li  Li1  1  0.42802824  0.51123894  0.79944047  1
  Li  Li2  1  0.49776117  0.99996142  0.50175385  1
  Li  Li3  1  0.78418318  0.48781956  0.59736693  1
  Li  Li4  1  0.59008647  0.49565222  0.20576376  1
  Ti  Ti5  1  0.10384676  0.00705577  0.69630822  1
  Ti  Ti6  1  0.88556700  0.98345654  0.30396219  1
  Co  Co7  1  0.00716081  0.49747106  0.00459453  1
  Co  Co8  1  0.30194733  0.00258576  0.10595773  1
  Co  Co9  1  0.69700721  0.99659980  0.90052427  1
  O  O10  1  0.01976848  0.22333077  0.84615934  1
  O  O11  1  0.13000886  0.77246896  0.54465119  1
  O  O12  1  0.35525024  0.76929771  0.93749694  1
  O  O13  1  0.23056030  0.24234785  0.24809404  1
  O  O14  1  0.44175159  0.22246938  0.67280860  1
  O  O15  1  0.57088017  0.75954777  0.34980582  1
  O  O16  1  0.77282265  0.76875634  0.76587079  1
  O  O17  1  0.66363298  0.22726417  0.05212420  1
  O  O18  1  0.86941615  0.22233397  0.45621615  1
  O  O19  1  0.93561522  0.77186439  0.14095176  1
