# generated using pymatgen
data_Ni6OF11
_symmetry_space_group_name_H-M   'P 1'
_cell_length_a   10.53750574
_cell_length_b   6.62550793
_cell_length_c   3.08926563
_cell_angle_alpha   90.00000000
_cell_angle_beta   90.00000000
_cell_angle_gamma   71.67189031
_symmetry_Int_Tables_number   1
_chemical_formula_structural   Ni6OF11
_chemical_formula_sum   'Ni6 O1 F11'
_cell_volume   204.73995959
_cell_formula_units_Z   1
loop_
 _symmetry_equiv_pos_site_id
 _symmetry_equiv_pos_as_xyz
  1  'x, y, z'
loop_
 _atom_site_type_symbol
 _atom_site_label
 _atom_site_symmetry_multiplicity
 _atom_site_fract_x
 _atom_site_fract_y
 _atom_site_fract_z
 _atom_site_occupancy
  Ni  Ni0  1  0.00001611  0.00347175  0.00000000  1
  Ni  Ni1  1  0.99999149  0.49217013  0.50000000  1
  Ni  Ni2  1  0.33407904  0.33355086  0.00000000  1
  Ni  Ni3  1  0.33311864  0.83318491  0.50000000  1
  Ni  Ni4  1  0.66690487  0.16623474  0.50000000  1
  Ni  Ni5  1  0.66590241  0.66765959  0.00000000  1
  O  O6  1  0.99998586  0.30651936  0.00000000  1
  F  F7  1  0.33318561  0.03015050  0.00000000  1
  F  F8  1  0.99998330  0.69733396  0.00000000  1
  F  F9  1  0.20317678  0.39831800  0.50000000  1
  F  F10  1  0.46463866  0.26770292  0.50000000  1
  F  F11  1  0.13201145  0.93367907  0.50000000  1
  F  F12  1  0.33395444  0.63661398  0.00000000  1
  F  F13  1  0.66688914  0.36331440  0.00000000  1
  F  F14  1  0.53535515  0.73239864  0.50000000  1
  F  F15  1  0.86801046  0.06556983  0.50000000  1
  F  F16  1  0.79680670  0.60150861  0.50000000  1
  F  F17  1  0.66598988  0.97061876  0.00000000  1
