# generated using pymatgen
data_Li5Fe8(BO3)8
_symmetry_space_group_name_H-M   'P 1'
_cell_length_a   5.25555046
_cell_length_b   5.25798571
_cell_length_c   20.20398808
_cell_angle_alpha   89.13720991
_cell_angle_beta   89.96815533
_cell_angle_gamma   60.10109767
_symmetry_Int_Tables_number   1
_chemical_formula_structural   Li5Fe8(BO3)8
_chemical_formula_sum   'Li5 Fe8 B8 O24'
_cell_volume   483.93125293
_cell_formula_units_Z   1
loop_
 _symmetry_equiv_pos_site_id
 _symmetry_equiv_pos_as_xyz
  1  'x, y, z'
loop_
 _atom_site_type_symbol
 _atom_site_label
 _atom_site_symmetry_multiplicity
 _atom_site_fract_x
 _atom_site_fract_y
 _atom_site_fract_z
 _atom_site_occupancy
  Li  Li0  1  0.32679149  0.65244962  0.67038119  1
  Li  Li1  1  0.35434605  0.66766104  0.91987588  1
  Li  Li2  1  0.35462522  0.66672822  0.41715327  1
  Li  Li3  1  0.66761755  0.34208782  0.54886787  1
  Li  Li4  1  0.65943861  0.34053535  0.05353619  1
  Fe  Fe5  1  0.98630343  0.67552564  0.80969210  1
  Fe  Fe6  1  0.98426695  0.67685922  0.30879995  1
  Fe  Fe7  1  0.68319382  0.00539624  0.93547858  1
  Fe  Fe8  1  0.68385702  0.00125017  0.43531860  1
  Fe  Fe9  1  0.32365410  0.00700790  0.56041906  1
  Fe  Fe10  1  0.32122040  0.99503449  0.06009741  1
  Fe  Fe11  1  0.99039616  0.32237308  0.68702903  1
  Fe  Fe12  1  0.00626268  0.33152526  0.18259331  1
  B  B13  1  0.00771261  0.33222975  0.93634459  1
  B  B14  1  0.00697144  0.32951160  0.43592197  1
  B  B15  1  0.32599238  0.00902126  0.81302976  1
  B  B16  1  0.32671739  0.00977569  0.31098208  1
  B  B17  1  0.66020270  0.99871702  0.68567549  1
  B  B18  1  0.66487043  0.00184132  0.18438468  1
  B  B19  1  0.99690945  0.67104730  0.56127777  1
  B  B20  1  0.99482483  0.67233616  0.06017081  1
  O  O21  1  0.09765336  0.27587762  0.79076773  1
  O  O22  1  0.10327043  0.27479409  0.28510793  1
  O  O23  1  0.26247951  0.07249102  0.95268381  1
  O  O24  1  0.02668240  0.57691188  0.91340751  1
  O  O25  1  0.26085841  0.06823994  0.45217902  1
  O  O26  1  0.02763075  0.57251786  0.41256798  1
  O  O27  1  0.59509069  0.98263784  0.82925066  1
  O  O28  1  0.26523834  0.65868274  0.56742270  1
  O  O29  1  0.59203096  0.98738174  0.32953062  1
  O  O30  1  0.26254304  0.65251281  0.05636964  1
  O  O31  1  0.28855719  0.76975976  0.82046653  1
  O  O32  1  0.28171075  0.77735213  0.32104946  1
  O  O33  1  0.65003608  0.26264211  0.67967102  1
  O  O34  1  0.70842366  0.23396072  0.17663091  1
  O  O35  1  0.73735187  0.35406141  0.94445320  1
  O  O36  1  0.41800650  0.97174691  0.66870595  1
  O  O37  1  0.73423058  0.35463441  0.44393415  1
  O  O38  1  0.40225762  0.01793388  0.16665506  1
  O  O39  1  0.97748758  0.42240758  0.57715671  1
  O  O40  1  0.97337666  0.42636534  0.08206087  1
  O  O41  1  0.74763489  0.92853972  0.54079382  1
  O  O42  1  0.73877114  0.92761363  0.04181539  1
  O  O43  1  0.92316131  0.74642219  0.70761816  1
  O  O44  1  0.89131858  0.73243552  0.20969161  1
