# generated using pymatgen
data_Li6Mn(FeO3)2
_symmetry_space_group_name_H-M   'P 1'
_cell_length_a   3.23144410
_cell_length_b   7.63664275
_cell_length_c   6.14252611
_cell_angle_alpha   106.39551806
_cell_angle_beta   105.02903937
_cell_angle_gamma   88.51684857
_symmetry_Int_Tables_number   1
_chemical_formula_structural   Li6Mn(FeO3)2
_chemical_formula_sum   'Li6 Mn1 Fe2 O6'
_cell_volume   140.26027967
_cell_formula_units_Z   1
loop_
 _symmetry_equiv_pos_site_id
 _symmetry_equiv_pos_as_xyz
  1  'x, y, z'
loop_
 _atom_site_type_symbol
 _atom_site_label
 _atom_site_symmetry_multiplicity
 _atom_site_fract_x
 _atom_site_fract_y
 _atom_site_fract_z
 _atom_site_occupancy
  Li  Li0  1  0.99305251  0.60454460  0.98804265  1
  Li  Li1  1  0.96902216  0.28827593  0.93842306  1
  Li  Li2  1  0.33189560  0.26720643  0.65067766  1
  Li  Li3  1  0.29818960  0.95856239  0.60972709  1
  Li  Li4  1  0.66284388  0.93818105  0.32156909  1
  Li  Li5  1  0.63614115  0.62126720  0.27397064  1
  Mn  Mn6  1  0.31553833  0.61302383  0.63109077  1
  Fe  Fe7  1  0.98303899  0.94744444  0.96699346  1
  Fe  Fe8  1  0.64746703  0.27892685  0.29351288  1
  O  O9  1  0.49734602  0.75500432  0.01891286  1
  O  O10  1  0.83921084  0.41615983  0.67743336  1
  O  O11  1  0.16692587  0.08671328  0.34624005  1
  O  O12  1  0.79043850  0.80969838  0.58343482  1
  O  O13  1  0.13059452  0.47075595  0.24197752  1
  O  O14  1  0.46637802  0.13971250  0.91415910  1
