# generated using pymatgen
data_Na8Fe7(PO4)8
_symmetry_space_group_name_H-M   'P 1'
_cell_length_a   8.09152671
_cell_length_b   8.09152671
_cell_length_c   11.52262007
_cell_angle_alpha   74.44077227
_cell_angle_beta   105.55922773
_cell_angle_gamma   77.14114863
_symmetry_Int_Tables_number   1
_chemical_formula_structural   Na8Fe7(PO4)8
_chemical_formula_sum   'Na8 Fe7 P8 O32'
_cell_volume   663.95122165
_cell_formula_units_Z   1
loop_
 _symmetry_equiv_pos_site_id
 _symmetry_equiv_pos_as_xyz
  1  'x, y, z'
loop_
 _atom_site_type_symbol
 _atom_site_label
 _atom_site_symmetry_multiplicity
 _atom_site_fract_x
 _atom_site_fract_y
 _atom_site_fract_z
 _atom_site_occupancy
  Na  Na0  1  0.26129358  0.24259058  0.51555256  1
  Na  Na1  1  0.50740942  0.48870642  0.51555256  1
  Na  Na2  1  0.74673700  0.75143475  0.49732777  1
  Na  Na3  1  0.99856525  0.00326300  0.49732777  1
  Na  Na4  1  0.74541948  0.76223038  0.99743965  1
  Na  Na5  1  0.98776962  0.00458052  0.99743965  1
  Na  Na6  1  0.49887844  0.49042287  0.99438554  1
  Na  Na7  1  0.25957713  0.25112156  0.99438554  1
  Fe  Fe8  1  0.01445475  0.73554525  0.78309350  1
  Fe  Fe9  1  0.47668148  0.77318449  0.71360212  1
  Fe  Fe10  1  0.97681551  0.27331852  0.71360212  1
  Fe  Fe11  1  0.02553414  0.72446586  0.28687402  1
  Fe  Fe12  1  0.52594095  0.22405905  0.28746101  1
  Fe  Fe13  1  0.49398323  0.75620351  0.21629809  1
  Fe  Fe14  1  0.99379649  0.25601677  0.21629809  1
  P  P15  1  0.78899485  0.47375013  0.88798296  1
  P  P16  1  0.27624987  0.96100515  0.88798296  1
  P  P17  1  0.65762329  0.09237671  0.60863822  1
  P  P18  1  0.14383577  0.60616423  0.60022519  1
  P  P19  1  0.35169204  0.89545233  0.39445463  1
  P  P20  1  0.85454767  0.39830796  0.39445463  1
  P  P21  1  0.71294509  0.03705491  0.11346345  1
  P  P22  1  0.21145649  0.53854351  0.10866900  1
  O  O23  1  0.19268466  0.55731534  0.96706941  1
  O  O24  1  0.68987181  0.06012819  0.97465226  1
  O  O25  1  0.92722335  0.32187351  0.87187018  1
  O  O26  1  0.42812649  0.82277665  0.87187018  1
  O  O27  1  0.58571022  0.50705899  0.81073652  1
  O  O28  1  0.80147192  0.66694806  0.82722962  1
  O  O29  1  0.24294101  0.16428978  0.81073652  1
  O  O30  1  0.08305194  0.94852808  0.82722962  1
  O  O31  1  0.21788982  0.73206842  0.67394845  1
  O  O32  1  0.01793158  0.53211018  0.67394845  1
  O  O33  1  0.53197795  0.01165311  0.67354049  1
  O  O34  1  0.73834689  0.21802205  0.67354049  1
  O  O35  1  0.29036950  0.45963050  0.59730878  1
  O  O36  1  0.81108352  0.93891648  0.60978842  1
  O  O37  1  0.97508822  0.27971059  0.53946899  1
  O  O38  1  0.47028941  0.77491178  0.53946899  1
  O  O39  1  0.01282310  0.73717690  0.46386797  1
  O  O40  1  0.53280901  0.21719099  0.46834495  1
  O  O41  1  0.69815723  0.54865122  0.39169731  1
  O  O42  1  0.20134878  0.05184277  0.39169731  1
  O  O43  1  0.98402229  0.46434316  0.32782095  1
  O  O44  1  0.48266792  0.95708028  0.32782077  1
  O  O45  1  0.28565684  0.76597771  0.32782095  1
  O  O46  1  0.79291972  0.26733208  0.32782077  1
  O  O47  1  0.91024384  0.03621412  0.18571746  1
  O  O48  1  0.71378588  0.83975616  0.18571746  1
  O  O49  1  0.21119810  0.34190913  0.17658145  1
  O  O50  1  0.40809087  0.53880190  0.17658145  1
  O  O51  1  0.06244180  0.68755820  0.11535799  1
  O  O52  1  0.56442699  0.18557301  0.12444577  1
  O  O53  1  0.81282008  0.43769025  0.03074150  1
  O  O54  1  0.31230975  0.93717992  0.03074150  1
