# generated using pymatgen
data_Ni6OF11
_symmetry_space_group_name_H-M   'P 1'
_cell_length_a   10.49567532
_cell_length_b   6.66214782
_cell_length_c   3.08490328
_cell_angle_alpha   90.00000000
_cell_angle_beta   90.00000000
_cell_angle_gamma   108.49886268
_symmetry_Int_Tables_number   1
_chemical_formula_structural   Ni6OF11
_chemical_formula_sum   'Ni6 O1 F11'
_cell_volume   204.56233500
_cell_formula_units_Z   1
loop_
 _symmetry_equiv_pos_site_id
 _symmetry_equiv_pos_as_xyz
  1  'x, y, z'
loop_
 _atom_site_type_symbol
 _atom_site_label
 _atom_site_symmetry_multiplicity
 _atom_site_fract_x
 _atom_site_fract_y
 _atom_site_fract_z
 _atom_site_occupancy
  Ni  Ni0  1  0.00117367  0.00059619  0.00000000  1
  Ni  Ni1  1  0.99569556  0.49788514  0.50000000  1
  Ni  Ni2  1  0.33653987  0.16821170  0.50000000  1
  Ni  Ni3  1  0.67455495  0.33726931  0.00000000  1
  Ni  Ni4  1  0.32985116  0.66488445  0.00000000  1
  Ni  Ni5  1  0.66501219  0.83254360  0.50000000  1
  O  O6  1  0.79677755  0.39836285  0.50000000  1
  F  F7  1  0.13270233  0.06623383  0.50000000  1
  F  F8  1  0.99940166  0.30139667  0.00000000  1
  F  F9  1  0.66645314  0.02881595  0.00000000  1
  F  F10  1  0.99944411  0.69808590  0.00000000  1
  F  F11  1  0.33416093  0.36379535  0.00000000  1
  F  F12  1  0.19873146  0.59946738  0.50000000  1
  F  F13  1  0.53827863  0.26918864  0.50000000  1
  F  F14  1  0.46187475  0.73080905  0.50000000  1
  F  F15  1  0.66665216  0.63774683  0.00000000  1
  F  F16  1  0.33434748  0.97039581  0.00000000  1
  F  F17  1  0.86834841  0.93431036  0.50000000  1
