# generated using pymatgen
data_LiMnF3
_symmetry_space_group_name_H-M   'P 1'
_cell_length_a   5.37001671
_cell_length_b   5.66221121
_cell_length_c   5.37001735
_cell_angle_alpha   118.30714162
_cell_angle_beta   59.99999609
_cell_angle_gamma   118.30713711
_symmetry_Int_Tables_number   1
_chemical_formula_structural   LiMnF3
_chemical_formula_sum   'Li2 Mn2 F6'
_cell_volume   118.32415508
_cell_formula_units_Z   2
loop_
 _symmetry_equiv_pos_site_id
 _symmetry_equiv_pos_as_xyz
  1  'x, y, z'
loop_
 _atom_site_type_symbol
 _atom_site_label
 _atom_site_symmetry_multiplicity
 _atom_site_fract_x
 _atom_site_fract_y
 _atom_site_fract_z
 _atom_site_occupancy
  Li  Li0  1  0.14307532  0.42922596  0.14307532  1
  Li  Li1  1  0.85692468  0.57077404  0.85692468  1
  Mn  Mn2  1  0.64571526  0.93714579  0.64571526  1
  Mn  Mn3  1  0.35428474  0.06285421  0.35428474  1
  F  F4  1  0.24171781  0.74966291  0.55740517  1
  F  F5  1  0.04946007  0.25033709  0.75828219  1
  F  F6  1  0.44259483  0.25033709  0.04946007  1
  F  F7  1  0.55740517  0.74966291  0.95053993  1
  F  F8  1  0.95053993  0.74966291  0.24171781  1
  F  F9  1  0.75828219  0.25033709  0.44259483  1
