# generated using pymatgen
data_Li2Fe2(CO3)3
_symmetry_space_group_name_H-M   'P 1'
_cell_length_a   4.89103800
_cell_length_b   6.08327791
_cell_length_c   6.08327791
_cell_angle_alpha   110.26665729
_cell_angle_beta   90.00000000
_cell_angle_gamma   90.00000000
_symmetry_Int_Tables_number   1
_chemical_formula_structural   Li2Fe2(CO3)3
_chemical_formula_sum   'Li2 Fe2 C3 O9'
_cell_volume   169.79354263
_cell_formula_units_Z   1
loop_
 _symmetry_equiv_pos_site_id
 _symmetry_equiv_pos_as_xyz
  1  'x, y, z'
loop_
 _atom_site_type_symbol
 _atom_site_label
 _atom_site_symmetry_multiplicity
 _atom_site_fract_x
 _atom_site_fract_y
 _atom_site_fract_z
 _atom_site_occupancy
  Li  Li0  1  0.00000000  0.90507227  0.90507227  1
  Li  Li1  1  0.50000000  0.62752008  0.62752008  1
  Fe  Fe2  1  0.50000000  0.25385055  0.81450837  1
  Fe  Fe3  1  0.50000000  0.81450837  0.25385055  1
  C  C4  1  0.00000000  0.45052671  0.85825024  1
  C  C5  1  0.00000000  0.85825024  0.45052671  1
  C  C6  1  0.50000000  0.24042812  0.24042812  1
  O  O7  1  0.00000000  0.24885779  0.88267208  1
  O  O8  1  0.00000000  0.88267208  0.24885779  1
  O  O9  1  0.23048674  0.55147955  0.84465647  1
  O  O10  1  0.23048674  0.84465647  0.55147955  1
  O  O11  1  0.50000000  0.21318663  0.44002606  1
  O  O12  1  0.50000000  0.04931803  0.04931803  1
  O  O13  1  0.50000000  0.44002606  0.21318663  1
  O  O14  1  0.76951326  0.55147955  0.84465647  1
  O  O15  1  0.76951326  0.84465647  0.55147955  1
