# generated using pymatgen
data_Li4CrSb(WO6)2
_symmetry_space_group_name_H-M   'P 1'
_cell_length_a   5.43705669
_cell_length_b   10.87275326
_cell_length_c   9.56292701
_cell_angle_alpha   28.41016279
_cell_angle_beta   51.52249643
_cell_angle_gamma   56.84553696
_symmetry_Int_Tables_number   1
_chemical_formula_structural   Li4CrSb(WO6)2
_chemical_formula_sum   'Li4 Cr1 Sb1 W2 O12'
_cell_volume   210.56217616
_cell_formula_units_Z   1
loop_
 _symmetry_equiv_pos_site_id
 _symmetry_equiv_pos_as_xyz
  1  'x, y, z'
loop_
 _atom_site_type_symbol
 _atom_site_label
 _atom_site_symmetry_multiplicity
 _atom_site_fract_x
 _atom_site_fract_y
 _atom_site_fract_z
 _atom_site_occupancy
  Li  Li0  1  0.31311204  0.00285669  0.26353528  1
  Li  Li1  1  0.25681736  0.49643133  0.30991399  1
  Li  Li2  1  0.76870538  0.99641905  0.80248639  1
  Li  Li3  1  0.77470247  0.50400430  0.73964565  1
  Cr  Cr4  1  0.00321483  0.00094030  0.99789087  1
  Sb  Sb5  1  0.99949356  0.49918329  0.00321684  1
  W  W6  1  0.50475528  0.99738203  0.50270730  1
  W  W7  1  0.49732065  0.50193334  0.49989284  1
  O  O8  1  0.38052709  0.30590550  0.12119511  1
  O  O9  1  0.25385285  0.11674455  0.62214655  1
  O  O10  1  0.14469199  0.31652325  0.73138755  1
  O  O11  1  0.87703937  0.18619989  0.24368195  1
  O  O12  1  0.36722691  0.79483617  0.14328465  1
  O  O13  1  0.74090169  0.36918346  0.37950687  1
  O  O14  1  0.23613063  0.62680338  0.62505353  1
  O  O15  1  0.63537862  0.19824712  0.85107951  1
  O  O16  1  0.12078928  0.82083278  0.74055390  1
  O  O17  1  0.85259885  0.69481569  0.24574866  1
  O  O18  1  0.72685951  0.88706575  0.37044192  1
  O  O19  1  0.61708362  0.68369313  0.87783065  1
