# generated using pymatgen
data_Na11Mn24O48
_symmetry_space_group_name_H-M   'P 1'
_cell_length_a   6.18999238
_cell_length_b   12.32394695
_cell_length_c   13.54260581
_cell_angle_alpha   77.59758028
_cell_angle_beta   102.12157395
_cell_angle_gamma   85.93057794
_symmetry_Int_Tables_number   1
_chemical_formula_structural   Na11Mn24O48
_chemical_formula_sum   'Na11 Mn24 O48'
_cell_volume   979.17972411
_cell_formula_units_Z   1
loop_
 _symmetry_equiv_pos_site_id
 _symmetry_equiv_pos_as_xyz
  1  'x, y, z'
loop_
 _atom_site_type_symbol
 _atom_site_label
 _atom_site_symmetry_multiplicity
 _atom_site_fract_x
 _atom_site_fract_y
 _atom_site_fract_z
 _atom_site_occupancy
  Na  Na0  1  0.69116233  0.01799747  0.41355340  1
  Na  Na1  1  0.03174327  0.35247485  0.08889762  1
  Na  Na2  1  0.62450256  0.31303230  0.24873385  1
  Na  Na3  1  0.04656127  0.85537136  0.07897501  1
  Na  Na4  1  0.72202201  0.52590142  0.41405481  1
  Na  Na5  1  0.37193368  0.18633514  0.74652808  1
  Na  Na6  1  0.30742455  0.48088594  0.58290410  1
  Na  Na7  1  0.95998338  0.14706071  0.91424491  1
  Na  Na8  1  0.96812919  0.64233038  0.92470399  1
  Na  Na9  1  0.27636788  0.97642695  0.58304091  1
  Na  Na10  1  0.37650656  0.68625701  0.75456579  1
  Mn  Mn11  1  0.50865504  0.00006672  0.00097789  1
  Mn  Mn12  1  0.49423471  0.24741105  0.99812873  1
  Mn  Mn13  1  0.82718664  0.07804084  0.16635569  1
  Mn  Mn14  1  0.49319261  0.49935055  0.00243222  1
  Mn  Mn15  1  0.32752247  0.07825424  0.16568826  1
  Mn  Mn16  1  0.50761621  0.75289719  0.00636515  1
  Mn  Mn17  1  0.84099114  0.59170431  0.16702991  1
  Mn  Mn18  1  0.34053736  0.59131491  0.16709643  1
  Mn  Mn19  1  0.15690676  0.16132487  0.33341477  1
  Mn  Mn20  1  0.17740790  0.42156571  0.33231946  1
  Mn  Mn21  1  0.49888586  0.24983989  0.49896481  1
  Mn  Mn22  1  0.82300543  0.07934767  0.66446258  1
  Mn  Mn23  1  0.17186804  0.67396904  0.32884919  1
  Mn  Mn24  1  0.99979194  0.25013721  0.49903031  1
  Mn  Mn25  1  0.83940696  0.33829352  0.66393298  1
  Mn  Mn26  1  0.84435633  0.58629590  0.67150455  1
  Mn  Mn27  1  0.15559397  0.91195005  0.32811662  1
  Mn  Mn28  1  0.50037144  0.75112673  0.49710811  1
  Mn  Mn29  1  0.99627808  0.75045933  0.49711016  1
  Mn  Mn30  1  0.82710958  0.82776200  0.67076937  1
  Mn  Mn31  1  0.66998194  0.41553034  0.83539788  1
  Mn  Mn32  1  0.16843371  0.41598601  0.83435176  1
  Mn  Mn33  1  0.66497622  0.91218745  0.83507157  1
  Mn  Mn34  1  0.16323885  0.91528514  0.83604033  1
  O  O35  1  0.71673481  0.11385903  0.01124901  1
  O  O36  1  0.30271860  0.12366653  0.00955253  1
  O  O37  1  0.58410475  0.19613918  0.14817853  1
  O  O38  1  0.92678886  0.03703755  0.31524982  1
  O  O39  1  0.72535435  0.63279410  0.01670226  1
  O  O40  1  0.30338370  0.63999780  0.01240997  1
  O  O41  1  0.56615476  0.48187021  0.15001409  1
  O  O42  1  0.95829243  0.28214863  0.34918417  1
  O  O43  1  0.06712005  0.17708375  0.17380273  1
  O  O44  1  0.35333686  0.03552992  0.31981112  1
  O  O45  1  0.96546436  0.55308097  0.31919350  1
  O  O46  1  0.56771147  0.69713420  0.15676710  1
  O  O47  1  0.11198389  0.48682730  0.17136342  1
  O  O48  1  0.39333294  0.29393787  0.34964555  1
  O  O49  1  0.76820113  0.14498983  0.50650760  1
  O  O50  1  0.10900176  0.69477224  0.18023625  1
  O  O51  1  0.96112321  0.79619204  0.33695166  1
  O  O52  1  0.25995981  0.14907390  0.49141484  1
  O  O53  1  0.58521119  0.98018483  0.15373300  1
  O  O54  1  0.38753229  0.55495157  0.31598082  1
  O  O55  1  0.73874735  0.35188705  0.50837961  1
  O  O56  1  0.23181378  0.35418109  0.49196879  1
  O  O57  1  0.60581340  0.20422816  0.64859411  1
  O  O58  1  0.89397912  0.01529351  0.82673445  1
  O  O59  1  0.75144994  0.63607086  0.52039998  1
  O  O60  1  0.06915307  0.96660604  0.17879635  1
  O  O61  1  0.37454585  0.78535816  0.33667583  1
  O  O62  1  0.22699175  0.64639514  0.47952357  1
  O  O63  1  0.76930331  0.85478873  0.52030195  1
  O  O64  1  0.44618230  0.02300512  0.85149610  1
  O  O65  1  0.03953324  0.21769061  0.64891799  1
  O  O66  1  0.64378356  0.46614882  0.68085230  1
  O  O67  1  0.92813244  0.31882703  0.82043833  1
  O  O68  1  0.62460696  0.71501174  0.66112780  1
  O  O69  1  0.92981268  0.53118317  0.82256944  1
  O  O70  1  0.25032573  0.86328775  0.47925743  1
  O  O71  1  0.07342979  0.46553915  0.68383848  1
  O  O72  1  0.40916146  0.30004056  0.84766092  1
  O  O73  1  0.03588104  0.70533253  0.66102446  1
  O  O74  1  0.61105325  0.94422183  0.68558621  1
  O  O75  1  0.41224196  0.51403499  0.84973485  1
  O  O76  1  0.89083725  0.80490930  0.82128693  1
  O  O77  1  0.69484457  0.36375293  0.98866193  1
  O  O78  1  0.26582450  0.36725254  0.98606298  1
  O  O79  1  0.43206154  0.81033164  0.84994205  1
  O  O80  1  0.03613706  0.94480963  0.68124072  1
  O  O81  1  0.70701453  0.87260679  0.99012183  1
  O  O82  1  0.29494350  0.88926043  0.99013847  1
