# generated using pymatgen
data_Li5V3P8O29
_symmetry_space_group_name_H-M   'P 1'
_cell_length_a   9.75821152
_cell_length_b   9.76916761
_cell_length_c   13.99921443
_cell_angle_alpha   89.98897501
_cell_angle_beta   90.07598072
_cell_angle_gamma   59.95942519
_symmetry_Int_Tables_number   1
_chemical_formula_structural   Li5V3P8O29
_chemical_formula_sum   'Li10 V6 P16 O58'
_cell_volume   1155.27076036
_cell_formula_units_Z   2
loop_
 _symmetry_equiv_pos_site_id
 _symmetry_equiv_pos_as_xyz
  1  'x, y, z'
loop_
 _atom_site_type_symbol
 _atom_site_label
 _atom_site_symmetry_multiplicity
 _atom_site_fract_x
 _atom_site_fract_y
 _atom_site_fract_z
 _atom_site_occupancy
  Li  Li0  1  0.76536666  0.89649992  0.55816199  1
  Li  Li1  1  0.76536225  0.33811823  0.05816131  1
  Li  Li2  1  0.33170316  0.90537532  0.06035112  1
  Li  Li3  1  0.66834436  0.23705832  0.43965376  1
  Li  Li4  1  0.33170669  0.76287983  0.56038938  1
  Li  Li5  1  0.66830393  0.09461703  0.93965654  1
  Li  Li6  1  0.23470536  0.66182379  0.94178423  1
  Li  Li7  1  0.23460169  0.10353363  0.44184237  1
  Li  Li8  1  -0.00000059  0.99998489  0.00000484  1
  Li  Li9  1  0.00001931  0.99997377  0.50000260  1
  V  V10  1  0.56648034  0.43517590  0.25317687  1
  V  V11  1  0.43349499  0.56487381  0.74681677  1
  V  V12  1  0.56648885  0.99836224  0.75314964  1
  V  V13  1  0.43353508  0.00162201  0.24683049  1
  V  V14  1  0.99999507  0.56548889  0.24999022  1
  V  V15  1  0.00001014  0.43451327  0.75001866  1
  P  P16  1  0.91921295  0.77426500  0.84447399  1
  P  P17  1  0.77530068  0.91164539  0.33900677  1
  P  P18  1  0.91919827  0.30652552  0.34445909  1
  P  P19  1  0.66778119  0.66421507  0.12992470  1
  P  P20  1  0.66779603  0.66799057  0.62993072  1
  P  P21  1  0.77529611  0.31307249  0.83898519  1
  P  P22  1  0.68636807  0.22354024  0.65607605  1
  P  P23  1  0.31363719  0.90986247  0.84392962  1
  P  P24  1  0.68638282  0.09012112  0.15607468  1
  P  P25  1  0.31360669  0.77649537  0.34392581  1
  P  P26  1  0.22470570  0.68693811  0.16100781  1
  P  P27  1  0.33218343  0.33198119  0.37007926  1
  P  P28  1  0.33222856  0.33577946  0.87006425  1
  P  P29  1  0.08079227  0.69348718  0.65554313  1
  P  P30  1  0.22466322  0.08838186  0.66099816  1
  P  P31  1  0.08080302  0.22571414  0.15553175  1
  O  O32  1  0.99140281  0.79418551  0.57176737  1
  O  O33  1  0.91740029  0.74153309  0.33438923  1
  O  O34  1  0.77065367  0.01625109  0.06521270  1
  O  O35  1  0.74639230  0.91553238  0.84302708  1
  O  O36  1  0.92067680  0.61658536  0.83110078  1
  O  O37  1  0.81181416  0.66708590  0.17989336  1
  O  O38  1  0.92065545  0.46276542  0.33107578  1
  O  O39  1  0.99141597  0.21445513  0.07178133  1
  O  O40  1  0.91739868  0.34105733  0.83441083  1
  O  O41  1  0.67510656  0.81376959  0.67058818  1
  O  O42  1  0.61941620  0.91193910  0.32722421  1
  O  O43  1  0.81182117  0.52110171  0.67994602  1
  O  O44  1  0.67264440  0.66128007  0.02378017  1
  O  O45  1  0.67267292  0.66604611  0.52377922  1
  O  O46  1  0.67510633  0.51110719  0.17060660  1
  O  O47  1  0.47090762  0.90903294  0.82938960  1
  O  O48  1  0.51193736  0.81210697  0.16792444  1
  O  O49  1  0.74638962  0.33809270  0.34302956  1
  O  O50  1  0.79615464  0.20298846  0.74754811  1
  O  O51  1  0.77067785  0.21306802  0.56519956  1
  O  O52  1  0.78080511  0.22288545  0.92819785  1
  O  O53  1  0.61938120  0.46866488  0.82720053  1
  O  O54  1  0.51191761  0.67596869  0.66790806  1
  O  O55  1  0.65785451  0.26124047  0.16313099  1
  O  O56  1  0.47089894  0.62007726  0.32939860  1
  O  O57  1  0.34210484  0.91912017  0.33686241  1
  O  O58  1  0.79615571  0.00087665  0.24754785  1
  O  O59  1  0.78082589  0.99628261  0.42819046  1
  O  O60  1  0.21914771  0.00370829  0.57181879  1
  O  O61  1  0.65786173  0.08091840  0.66312715  1
  O  O62  1  0.52908541  0.37995750  0.67058661  1
  O  O63  1  0.34212587  0.73875404  0.83686978  1
  O  O64  1  0.48803458  0.32407911  0.33212873  1
  O  O65  1  0.38058815  0.53131585  0.17281808  1
  O  O66  1  0.21922284  0.77708307  0.07180137  1
  O  O67  1  0.22933348  0.78690930  0.43479924  1
  O  O68  1  0.20383266  0.79701010  0.25245346  1
  O  O69  1  0.25359864  0.66193316  0.65696884  1
  O  O70  1  0.48808216  0.18789503  0.83206126  1
  O  O71  1  0.52911025  0.09093320  0.17060617  1
  O  O72  1  0.32489459  0.48889185  0.82939547  1
  O  O73  1  0.32735692  0.33868604  0.97621412  1
  O  O74  1  0.32719287  0.33395232  0.47622341  1
  O  O75  1  0.18815756  0.47891236  0.32006478  1
  O  O76  1  0.38059182  0.08803977  0.67277702  1
  O  O77  1  0.32488200  0.18623056  0.32938473  1
  O  O78  1  0.08259263  0.65894774  0.16558537  1
  O  O79  1  0.00000505  0.79708304  0.74999829  1
  O  O80  1  0.00860729  0.78553807  0.92823169  1
  O  O81  1  0.07932124  0.53727304  0.66891179  1
  O  O82  1  0.18817928  0.33294424  0.82007785  1
  O  O83  1  0.07932419  0.38342172  0.16891031  1
  O  O84  1  0.25361083  0.08445417  0.15698022  1
  O  O85  1  0.22937241  0.98370159  0.93480111  1
  O  O86  1  0.20385159  0.99912882  0.75246192  1
  O  O87  1  0.08257725  0.25847846  0.66560121  1
  O  O88  1  0.00859080  0.20586299  0.42822841  1
  O  O89  1  0.99998309  0.20294191  0.25000516  1
