# generated using pymatgen
data_Li2MnNiO4
_symmetry_space_group_name_H-M   'P 1'
_cell_length_a   5.86572684
_cell_length_b   5.86572672
_cell_length_c   5.79218606
_cell_angle_alpha   119.59463356
_cell_angle_beta   119.59463009
_cell_angle_gamma   90.14006826
_symmetry_Int_Tables_number   1
_chemical_formula_structural   Li2MnNiO4
_chemical_formula_sum   'Li4 Mn2 Ni2 O8'
_cell_volume   142.46195044
_cell_formula_units_Z   2
loop_
 _symmetry_equiv_pos_site_id
 _symmetry_equiv_pos_as_xyz
  1  'x, y, z'
loop_
 _atom_site_type_symbol
 _atom_site_label
 _atom_site_symmetry_multiplicity
 _atom_site_fract_x
 _atom_site_fract_y
 _atom_site_fract_z
 _atom_site_occupancy
  Li  Li0  1  0.00000000  0.50000000  0.50000000  1
  Li  Li1  1  0.50000000  0.50000000  0.50000000  1
  Li  Li2  1  0.50000000  0.00000000  0.00000000  1
  Li  Li3  1  0.50000000  0.50000000  0.00000000  1
  Mn  Mn4  1  0.00000000  0.00000000  0.50000000  1
  Mn  Mn5  1  0.00000000  0.00000000  0.00000000  1
  Ni  Ni6  1  0.00000000  0.50000000  0.00000000  1
  Ni  Ni7  1  0.50000000  0.00000000  0.50000000  1
  O  O8  1  0.23176958  0.76774519  0.00275648  1
  O  O9  1  0.22509497  0.22315068  0.47415955  1
  O  O10  1  0.23225481  0.76823042  0.49724352  1
  O  O11  1  0.77684932  0.77490503  0.02584045  1
  O  O12  1  0.22315068  0.22509497  0.97415955  1
  O  O13  1  0.76774519  0.23176958  0.50275648  1
  O  O14  1  0.77490503  0.77684932  0.52584045  1
  O  O15  1  0.76823042  0.23225481  0.99724352  1
