# generated using pymatgen
data_Li4Ti3Co3(TeO8)2
_symmetry_space_group_name_H-M   'P 1'
_cell_length_a   6.00082716
_cell_length_b   5.99140392
_cell_length_c   10.11412266
_cell_angle_alpha   89.99485015
_cell_angle_beta   89.91765675
_cell_angle_gamma   119.94338571
_symmetry_Int_Tables_number   1
_chemical_formula_structural   Li4Ti3Co3(TeO8)2
_chemical_formula_sum   'Li4 Ti3 Co3 Te2 O16'
_cell_volume   315.09782331
_cell_formula_units_Z   1
loop_
 _symmetry_equiv_pos_site_id
 _symmetry_equiv_pos_as_xyz
  1  'x, y, z'
loop_
 _atom_site_type_symbol
 _atom_site_label
 _atom_site_symmetry_multiplicity
 _atom_site_fract_x
 _atom_site_fract_y
 _atom_site_fract_z
 _atom_site_occupancy
  Li  Li0  1  0.32486572  0.66241656  0.91010806  1
  Li  Li1  1  0.99452471  0.99749301  0.98240995  1
  Li  Li2  1  0.01441610  0.00757901  0.49176842  1
  Li  Li3  1  0.66619695  0.33286846  0.40139253  1
  Ti  Ti4  1  0.18447593  0.83180808  0.21890131  1
  Ti  Ti5  1  0.18455628  0.35269512  0.21879797  1
  Ti  Ti6  1  0.34935661  0.17335972  0.72493891  1
  Co  Co7  1  0.65327422  0.82669344  0.20173136  1
  Co  Co8  1  0.82851533  0.65624412  0.72057884  1
  Co  Co9  1  0.82822874  0.17393017  0.72036098  1
  Te  Te10  1  0.35121831  0.67501570  0.51059798  1
  Te  Te11  1  0.66946654  0.33472148  0.98698530  1
  O  O12  1  0.19303125  0.84669760  0.61213080  1
  O  O13  1  0.02186526  0.51096235  0.31610804  1
  O  O14  1  0.30127965  0.65065540  0.10372697  1
  O  O15  1  0.00815142  0.00415260  0.29471519  1
  O  O16  1  0.01392968  0.00773655  0.80063910  1
  O  O17  1  0.19363735  0.34624803  0.61202475  1
  O  O18  1  0.47028038  0.98156990  0.32125309  1
  O  O19  1  0.47049102  0.48866943  0.32120081  1
  O  O20  1  0.33382535  0.16706953  0.08842947  1
  O  O21  1  0.68670333  0.84363508  0.59402300  1
  O  O22  1  0.50451333  0.46640822  0.85835479  1
  O  O23  1  0.50326212  0.03774826  0.85886782  1
  O  O24  1  0.64467100  0.32241233  0.61122081  1
  O  O25  1  0.82522471  0.65999896  0.08427440  1
  O  O26  1  0.95486394  0.47623393  0.85781365  1
  O  O27  1  0.82517478  0.16527495  0.08448673  1
