# generated using pymatgen
data_Li5V3P8O29
_symmetry_space_group_name_H-M   'P 1'
_cell_length_a   9.80311029
_cell_length_b   9.79147757
_cell_length_c   13.96020325
_cell_angle_alpha   90.16013486
_cell_angle_beta   90.07440393
_cell_angle_gamma   60.03799104
_symmetry_Int_Tables_number   1
_chemical_formula_structural   Li5V3P8O29
_chemical_formula_sum   'Li10 V6 P16 O58'
_cell_volume   1160.91100074
_cell_formula_units_Z   2
loop_
 _symmetry_equiv_pos_site_id
 _symmetry_equiv_pos_as_xyz
  1  'x, y, z'
loop_
 _atom_site_type_symbol
 _atom_site_label
 _atom_site_symmetry_multiplicity
 _atom_site_fract_x
 _atom_site_fract_y
 _atom_site_fract_z
 _atom_site_occupancy
  Li  Li0  1  0.90683763  0.76774481  0.06198189  1
  Li  Li1  1  0.90601115  0.32355944  0.55956647  1
  Li  Li2  1  0.66899879  0.66973649  0.88522930  1
  Li  Li3  1  0.76741120  0.32526667  0.06328336  1
  Li  Li4  1  0.32584122  0.90714666  0.06284732  1
  Li  Li5  1  0.67972419  0.22443477  0.43976372  1
  Li  Li6  1  0.32374875  0.76949632  0.55823145  1
  Li  Li7  1  0.08762409  0.68551208  0.43812059  1
  Li  Li8  1  0.22767487  0.09447045  0.43761796  1
  Li  Li9  1  0.99974284  0.99758239  0.99909161  1
  V  V10  1  0.56569526  0.43322773  0.24845959  1
  V  V11  1  0.42668333  0.56638250  0.75442354  1
  V  V12  1  0.57224603  0.00280913  0.74726703  1
  V  V13  1  0.43515021  0.00073758  0.24938765  1
  V  V14  1  0.99961883  0.56689267  0.24902725  1
  V  V15  1  0.00248111  0.42973175  0.75035145  1
  P  P16  1  0.90994854  0.77517018  0.84217866  1
  P  P17  1  0.76847668  0.91482511  0.34283785  1
  P  P18  1  0.91209983  0.31999041  0.34270924  1
  P  P19  1  0.66644132  0.66563800  0.12575605  1
  P  P20  1  0.66236244  0.66621855  0.62899823  1
  P  P21  1  0.77387640  0.31695831  0.84339760  1
  P  P22  1  0.68285622  0.23197252  0.65934232  1
  P  P23  1  0.31672055  0.91137706  0.84368380  1
  P  P24  1  0.68987913  0.08324277  0.15621537  1
  P  P25  1  0.32046681  0.76767153  0.34215007  1
  P  P26  1  0.22594743  0.68899493  0.15772863  1
  P  P27  1  0.33257049  0.33509642  0.37159338  1
  P  P28  1  0.33484687  0.32734585  0.87196234  1
  P  P29  1  0.08615569  0.68253800  0.65774950  1
  P  P30  1  0.23257270  0.08492321  0.65855278  1
  P  P31  1  0.08550740  0.22554784  0.15840718  1
  O  O32  1  0.00997260  0.75611809  0.56585148  1
  O  O33  1  0.91377228  0.74650956  0.34045277  1
  O  O34  1  0.78993828  0.99675647  0.07164953  1
  O  O35  1  0.74048610  0.92040170  0.83216155  1
  O  O36  1  0.89357328  0.62707056  0.83035330  1
  O  O37  1  0.81128668  0.67680281  0.16360978  1
  O  O38  1  0.90162110  0.48005865  0.32229193  1
  O  O39  1  0.99594811  0.21212680  0.07556583  1
  O  O40  1  0.91476354  0.34566540  0.83399324  1
  O  O41  1  0.65967326  0.81498574  0.67752345  1
  O  O42  1  0.61674365  0.90528709  0.32206623  1
  O  O43  1  0.81315427  0.51531178  0.66610769  1
  O  O44  1  0.66694416  0.66271966  0.01736303  1
  O  O45  1  0.65155116  0.67531312  0.52276808  1
  O  O46  1  0.67776720  0.51036584  0.16485103  1
  O  O47  1  0.47953929  0.89841700  0.83182270  1
  O  O48  1  0.51135574  0.81123673  0.16340258  1
  O  O49  1  0.74654895  0.33770733  0.34182403  1
  O  O50  1  0.79245856  0.20909910  0.75085813  1
  O  O51  1  0.75910618  0.24286695  0.56904878  1
  O  O52  1  0.77827268  0.23437843  0.93357377  1
  O  O53  1  0.62226599  0.48096175  0.82926658  1
  O  O54  1  0.51299346  0.66584006  0.67285331  1
  O  O55  1  0.66272330  0.25456299  0.16149792  1
  O  O56  1  0.48140391  0.61969174  0.32056122  1
  O  O57  1  0.33489122  0.91753040  0.34077285  1
  O  O58  1  0.79293202  0.99887346  0.25059790  1
  O  O59  1  0.75753226  0.00615924  0.43009554  1
  O  O60  1  0.24569844  0.99555043  0.56820343  1
  O  O61  1  0.65978356  0.08661259  0.66228645  1
  O  O62  1  0.52471457  0.38282805  0.67876726  1
  O  O63  1  0.34283325  0.74030324  0.83428811  1
  O  O64  1  0.48535444  0.32913459  0.32963388  1
  O  O65  1  0.38109142  0.53347522  0.16769650  1
  O  O66  1  0.21123510  0.79331839  0.07559956  1
  O  O67  1  0.24861634  0.75161920  0.43348508  1
  O  O68  1  0.20416661  0.78785404  0.25592302  1
  O  O69  1  0.25625657  0.66007816  0.66361456  1
  O  O70  1  0.48230777  0.17995394  0.82443323  1
  O  O71  1  0.53286018  0.08727827  0.16841166  1
  O  O72  1  0.33985582  0.47571429  0.82555274  1
  O  O73  1  0.34560368  0.33102578  0.97719828  1
  O  O74  1  0.33436373  0.33607907  0.47866644  1
  O  O75  1  0.18481089  0.48823741  0.33097859  1
  O  O76  1  0.38285289  0.09317532  0.67819825  1
  O  O77  1  0.32678585  0.18678763  0.33167440  1
  O  O78  1  0.08348510  0.65989743  0.16059671  1
  O  O79  1  0.00014530  0.79155450  0.74999842  1
  O  O80  1  0.98571413  0.78547626  0.93242857  1
  O  O81  1  0.09222290  0.52493258  0.67888262  1
  O  O82  1  0.18929509  0.33059080  0.82808777  1
  O  O83  1  0.08777153  0.37973107  0.16983287  1
  O  O84  1  0.25669949  0.08288338  0.16160467  1
  O  O85  1  0.22992292  0.98644562  0.93380845  1
  O  O86  1  0.20990486  0.99891813  0.75087090  1
  O  O87  1  0.08468029  0.25064384  0.65806116  1
  O  O88  1  0.99977559  0.24660616  0.43418276  1
  O  O89  1  0.00681340  0.20407107  0.25596525  1
