# generated using pymatgen
data_LiMnF3
_symmetry_space_group_name_H-M   'P 1'
_cell_length_a   5.19547752
_cell_length_b   5.97720697
_cell_length_c   8.33816385
_cell_angle_alpha   90.00012113
_cell_angle_beta   89.99978975
_cell_angle_gamma   89.99973384
_symmetry_Int_Tables_number   1
_chemical_formula_structural   LiMnF3
_chemical_formula_sum   'Li4 Mn4 F12'
_cell_volume   258.93704605
_cell_formula_units_Z   4
loop_
 _symmetry_equiv_pos_site_id
 _symmetry_equiv_pos_as_xyz
  1  'x, y, z'
loop_
 _atom_site_type_symbol
 _atom_site_label
 _atom_site_symmetry_multiplicity
 _atom_site_fract_x
 _atom_site_fract_y
 _atom_site_fract_z
 _atom_site_occupancy
  Li  Li0  1  0.96988727  0.64615741  0.74999952  1
  Li  Li1  1  0.53011628  0.14615258  0.75000433  1
  Li  Li2  1  0.46987749  0.85384347  0.25000436  1
  Li  Li3  1  0.03012269  0.35384744  0.25000024  1
  Mn  Mn4  1  0.99997027  0.99998528  0.99998570  1
  Mn  Mn5  1  0.99998016  0.00001147  0.50000111  1
  Mn  Mn6  1  0.50004822  0.49998886  0.99997792  1
  Mn  Mn7  1  0.49999566  0.49997880  0.49998078  1
  F  F8  1  0.34027549  0.52610441  0.25000724  1
  F  F9  1  0.31664985  0.19853806  0.57234475  1
  F  F10  1  0.31664543  0.19853684  0.92766729  1
  F  F11  1  0.18336271  0.69854694  0.57233256  1
  F  F12  1  0.18334776  0.69855059  0.92767105  1
  F  F13  1  0.15971855  0.02611026  0.25000536  1
  F  F14  1  0.84027290  0.97389969  0.74999980  1
  F  F15  1  0.81665629  0.30146686  0.42766729  1
  F  F16  1  0.81664014  0.30146679  0.07233882  1
  F  F17  1  0.68335251  0.80145929  0.07233482  1
  F  F18  1  0.68335001  0.80145819  0.42767101  1
  F  F19  1  0.65973031  0.47389678  0.75000602  1
