# generated using pymatgen
data_Li5V3P8O29
_symmetry_space_group_name_H-M   'P 1'
_cell_length_a   9.78420581
_cell_length_b   9.77991022
_cell_length_c   14.00756156
_cell_angle_alpha   90.01822853
_cell_angle_beta   89.95100254
_cell_angle_gamma   59.77172129
_symmetry_Int_Tables_number   1
_chemical_formula_structural   Li5V3P8O29
_chemical_formula_sum   'Li10 V6 P16 O58'
_cell_volume   1158.10968093
_cell_formula_units_Z   2
loop_
 _symmetry_equiv_pos_site_id
 _symmetry_equiv_pos_as_xyz
  1  'x, y, z'
loop_
 _atom_site_type_symbol
 _atom_site_label
 _atom_site_symmetry_multiplicity
 _atom_site_fract_x
 _atom_site_fract_y
 _atom_site_fract_z
 _atom_site_occupancy
  Li  Li0  1  0.76401521  0.89849843  0.56007408  1
  Li  Li1  1  0.76207243  0.33290721  0.05894399  1
  Li  Li2  1  0.33087401  0.90112411  0.05996254  1
  Li  Li3  1  0.66855424  0.23726836  0.44079988  1
  Li  Li4  1  0.33224083  0.76237188  0.55997092  1
  Li  Li5  1  0.23217086  0.66188614  0.94252748  1
  Li  Li6  1  0.23651207  0.10267889  0.44087341  1
  Li  Li7  1  0.09763266  0.23812858  0.94048637  1
  Li  Li8  1  0.95017268  0.98357401  0.99480833  1
  Li  Li9  1  0.99759692  0.00202381  0.49863012  1
  V  V10  1  0.56565356  0.43483653  0.25292091  1
  V  V11  1  0.43407872  0.56475566  0.74916925  1
  V  V12  1  0.56876497  0.00096618  0.75585008  1
  V  V13  1  0.43744199  0.00045011  0.24507086  1
  V  V14  1  0.00050902  0.56770640  0.25185729  1
  V  V15  1  0.99934617  0.43689825  0.74489655  1
  P  P16  1  0.91785472  0.77338477  0.84304180  1
  P  P17  1  0.77436505  0.91364798  0.34208719  1
  P  P18  1  0.91798619  0.30669754  0.34249657  1
  P  P19  1  0.67025640  0.66082901  0.13011704  1
  P  P20  1  0.66513536  0.67085813  0.62994299  1
  P  P21  1  0.77708755  0.31284137  0.84136100  1
  P  P22  1  0.68865763  0.22372482  0.65765726  1
  P  P23  1  0.31426038  0.91195439  0.84319821  1
  P  P24  1  0.69307493  0.08606760  0.15778743  1
  P  P25  1  0.31364472  0.77787307  0.34279110  1
  P  P26  1  0.22464273  0.68695227  0.16072545  1
  P  P27  1  0.33180507  0.33202444  0.37041128  1
  P  P28  1  0.32878024  0.33610077  0.86920962  1
  P  P29  1  0.08311001  0.69425294  0.65557342  1
  P  P30  1  0.22849413  0.08614216  0.66004901  1
  P  P31  1  0.08407954  0.23034088  0.15560129  1
  O  O32  1  0.99218040  0.79279038  0.57171011  1
  O  O33  1  0.91727605  0.74325167  0.33535504  1
  O  O34  1  0.78970759  0.00322577  0.07347501  1
  O  O35  1  0.74496129  0.91074753  0.83880056  1
  O  O36  1  0.92371764  0.61404016  0.82993849  1
  O  O37  1  0.81280241  0.66430996  0.18097594  1
  O  O38  1  0.92141435  0.46190353  0.33156043  1
  O  O39  1  0.99841643  0.23399597  0.06526181  1
  O  O40  1  0.92118927  0.34046250  0.83446059  1
  O  O41  1  0.67429882  0.81559412  0.66884201  1
  O  O42  1  0.62012560  0.91256762  0.32905811  1
  O  O43  1  0.81207965  0.52162031  0.67893926  1
  O  O44  1  0.67768530  0.65526438  0.02399672  1
  O  O45  1  0.67132948  0.66358628  0.52395535  1
  O  O46  1  0.67578198  0.50867459  0.17115868  1
  O  O47  1  0.47150298  0.90681017  0.83000612  1
  O  O48  1  0.51321038  0.80998165  0.16657375  1
  O  O49  1  0.74627701  0.33745414  0.34336098  1
  O  O50  1  0.79739892  0.20383909  0.74930743  1
  O  O51  1  0.77212956  0.21577444  0.56659337  1
  O  O52  1  0.79232741  0.22488259  0.93197282  1
  O  O53  1  0.62118288  0.46842474  0.82851276  1
  O  O54  1  0.51165948  0.67699945  0.66980044  1
  O  O55  1  0.65617603  0.26030292  0.16242337  1
  O  O56  1  0.47011772  0.61956188  0.32890250  1
  O  O57  1  0.34436982  0.91850747  0.33456535  1
  O  O58  1  0.79357315  0.00795758  0.25419977  1
  O  O59  1  0.78084453  0.99520512  0.43247192  1
  O  O60  1  0.22197145  0.00326250  0.57051693  1
  O  O61  1  0.66091418  0.08152419  0.66312713  1
  O  O62  1  0.53062802  0.38200904  0.67232839  1
  O  O63  1  0.33742098  0.74274066  0.84056582  1
  O  O64  1  0.48776023  0.32427622  0.33297911  1
  O  O65  1  0.37994085  0.53102104  0.17284800  1
  O  O66  1  0.21995794  0.77494747  0.07085768  1
  O  O67  1  0.22979180  0.78997614  0.43425064  1
  O  O68  1  0.20341985  0.79782367  0.25208427  1
  O  O69  1  0.25496979  0.66198989  0.65699519  1
  O  O70  1  0.47942575  0.19490708  0.82502875  1
  O  O71  1  0.53707425  0.08189036  0.16905642  1
  O  O72  1  0.31949391  0.49184407  0.83136941  1
  O  O73  1  0.31318101  0.33674472  0.97496655  1
  O  O74  1  0.32474049  0.33514893  0.47657475  1
  O  O75  1  0.18802118  0.48082786  0.32150191  1
  O  O76  1  0.38578570  0.08223504  0.67293725  1
  O  O77  1  0.32599925  0.18643308  0.32861455  1
  O  O78  1  0.08230224  0.65995821  0.16600370  1
  O  O79  1  0.00250609  0.79611360  0.75033990  1
  O  O80  1  0.00486995  0.78490089  0.92769170  1
  O  O81  1  0.08251802  0.53654239  0.66884263  1
  O  O82  1  0.18347025  0.32896420  0.82248556  1
  O  O83  1  0.08743232  0.38381561  0.17268725  1
  O  O84  1  0.25339324  0.08390689  0.15627817  1
  O  O85  1  0.22586560  0.99847661  0.93203178  1
  O  O86  1  0.20421339  0.99872566  0.75090445  1
  O  O87  1  0.08732206  0.25778228  0.66380761  1
  O  O88  1  0.01155944  0.20089258  0.42349557  1
  O  O89  1  0.99217562  0.20834743  0.24375549  1
