# generated using pymatgen
data_Ba2CaI6
_symmetry_space_group_name_H-M   'P 1'
_cell_length_a   7.69766014
_cell_length_b   28.20774486
_cell_length_c   8.53641301
_cell_angle_alpha   90.00000000
_cell_angle_beta   90.00000000
_cell_angle_gamma   90.00000000
_symmetry_Int_Tables_number   1
_chemical_formula_structural   Ba2CaI6
_chemical_formula_sum   'Ba8 Ca4 I24'
_cell_volume   1853.54237177
_cell_formula_units_Z   4
loop_
 _symmetry_equiv_pos_site_id
 _symmetry_equiv_pos_as_xyz
  1  'x, y, z'
loop_
 _atom_site_type_symbol
 _atom_site_label
 _atom_site_symmetry_multiplicity
 _atom_site_fract_x
 _atom_site_fract_y
 _atom_site_fract_z
 _atom_site_occupancy
  Ba  Ba0  1  0.00000000  0.04907237  0.25000000  1
  Ba  Ba1  1  0.00000000  0.28404092  0.75000000  1
  Ba  Ba2  1  0.00000000  0.71595908  0.25000000  1
  Ba  Ba3  1  0.00000000  0.95092763  0.75000000  1
  Ba  Ba4  1  0.50000000  0.21595908  0.25000000  1
  Ba  Ba5  1  0.50000000  0.54907237  0.25000000  1
  Ba  Ba6  1  0.50000000  0.78404092  0.75000000  1
  Ba  Ba7  1  0.50000000  0.45092763  0.75000000  1
  Ca  Ca8  1  0.00000000  0.38211451  0.25000000  1
  Ca  Ca9  1  0.00000000  0.61788549  0.75000000  1
  Ca  Ca10  1  0.50000000  0.88211451  0.25000000  1
  Ca  Ca11  1  0.50000000  0.11788549  0.75000000  1
  I  I12  1  0.25158242  0.04153868  0.58938788  1
  I  I13  1  0.25158242  0.95846132  0.08938788  1
  I  I14  1  0.26923948  0.19830209  0.59090746  1
  I  I15  1  0.26923948  0.80169791  0.09090746  1
  I  I16  1  0.22959150  0.37238828  0.55386072  1
  I  I17  1  0.22959150  0.62761172  0.05386072  1
  I  I18  1  0.27040850  0.87238828  0.55386072  1
  I  I19  1  0.27040850  0.12761172  0.05386072  1
  I  I20  1  0.23076052  0.30169791  0.09090746  1
  I  I21  1  0.23076052  0.69830209  0.59090746  1
  I  I22  1  0.24841758  0.45846132  0.08938788  1
  I  I23  1  0.24841758  0.54153868  0.58938788  1
  I  I24  1  0.75158242  0.45846132  0.41061212  1
  I  I25  1  0.75158242  0.54153868  0.91061212  1
  I  I26  1  0.76923948  0.30169791  0.40909254  1
  I  I27  1  0.76923948  0.69830209  0.90909254  1
  I  I28  1  0.72959150  0.12761172  0.44613928  1
  I  I29  1  0.72959150  0.87238828  0.94613928  1
  I  I30  1  0.77040850  0.62761172  0.44613928  1
  I  I31  1  0.77040850  0.37238828  0.94613928  1
  I  I32  1  0.73076052  0.19830209  0.90909254  1
  I  I33  1  0.73076052  0.80169791  0.40909254  1
  I  I34  1  0.74841758  0.04153868  0.91061212  1
  I  I35  1  0.74841758  0.95846132  0.41061212  1
