# generated using pymatgen
data_Li5Mn5(CoO6)2
_symmetry_space_group_name_H-M   'P 1'
_cell_length_a   5.22918352
_cell_length_b   5.16063294
_cell_length_c   9.84258474
_cell_angle_alpha   85.41889289
_cell_angle_beta   80.92850362
_cell_angle_gamma   59.56205931
_symmetry_Int_Tables_number   1
_chemical_formula_structural   Li5Mn5(CoO6)2
_chemical_formula_sum   'Li5 Mn5 Co2 O12'
_cell_volume   226.13974406
_cell_formula_units_Z   1
loop_
 _symmetry_equiv_pos_site_id
 _symmetry_equiv_pos_as_xyz
  1  'x, y, z'
loop_
 _atom_site_type_symbol
 _atom_site_label
 _atom_site_symmetry_multiplicity
 _atom_site_fract_x
 _atom_site_fract_y
 _atom_site_fract_z
 _atom_site_occupancy
  Li  Li0  1  0.32353229  0.82994347  0.00826153  1
  Li  Li1  1  0.84612905  0.83059833  0.49180115  1
  Li  Li2  1  0.16678075  0.17579374  0.49412361  1
  Li  Li3  1  0.65760971  0.17517020  0.00592005  1
  Li  Li4  1  0.91856879  0.16235275  0.24992856  1
  Mn  Mn5  1  0.51319918  0.49069030  0.49240874  1
  Mn  Mn6  1  0.99635060  0.49023215  0.00755914  1
  Mn  Mn7  1  0.07792281  0.84478396  0.75003273  1
  Mn  Mn8  1  0.58185391  0.83596677  0.24999646  1
  Mn  Mn9  1  0.41842393  0.16391220  0.75001716  1
  Co  Co10  1  0.25473879  0.49020635  0.25002122  1
  Co  Co11  1  0.74914800  0.50193687  0.74993099  1
  O  O12  1  0.24766003  0.80149518  0.36261083  1
  O  O13  1  0.45783294  0.84525540  0.63442797  1
  O  O14  1  0.16679745  0.48371732  0.62008281  1
  O  O15  1  0.63593466  0.52083730  0.12576717  1
  O  O16  1  0.02043351  0.18597136  0.88315936  1
  O  O17  1  0.30540764  0.16113104  0.13864947  1
  O  O18  1  0.69783767  0.84441953  0.86560199  1
  O  O19  1  0.95046015  0.80185892  0.13765527  1
  O  O20  1  0.35074940  0.48259959  0.87995886  1
  O  O21  1  0.84276290  0.52088530  0.37433409  1
  O  O22  1  0.53280815  0.16119340  0.36129221  1
  O  O23  1  0.79307369  0.18701459  0.61646065  1
