# generated using pymatgen
data_Li5NiOF5
_symmetry_space_group_name_H-M   'P 1'
_cell_length_a   2.90444269
_cell_length_b   2.90444632
_cell_length_c   12.38938250
_cell_angle_alpha   89.99997422
_cell_angle_beta   89.99974525
_cell_angle_gamma   90.00004478
_symmetry_Int_Tables_number   1
_chemical_formula_structural   Li5NiOF5
_chemical_formula_sum   'Li5 Ni1 O1 F5'
_cell_volume   104.51432640
_cell_formula_units_Z   1
loop_
 _symmetry_equiv_pos_site_id
 _symmetry_equiv_pos_as_xyz
  1  'x, y, z'
loop_
 _atom_site_type_symbol
 _atom_site_label
 _atom_site_symmetry_multiplicity
 _atom_site_fract_x
 _atom_site_fract_y
 _atom_site_fract_z
 _atom_site_occupancy
  Li  Li0  1  0.50002440  0.50003889  0.16920338  1
  Li  Li1  1  0.00005542  0.00009366  0.33738146  1
  Li  Li2  1  0.50005179  0.50009228  0.49999476  1
  Li  Li3  1  0.00005451  0.00009395  0.66261459  1
  Li  Li4  1  0.50002158  0.50003586  0.83080325  1
  Ni  Ni5  1  0.99988731  0.99979952  0.00001983  1
  O  O6  1  0.49970027  0.49948229  0.00004020  1
  F  F7  1  0.00003053  0.00004426  0.17489139  1
  F  F8  1  0.50006201  0.50010629  0.33648467  1
  F  F9  1  0.00004606  0.00009349  0.49996897  1
  F  F10  1  0.50004485  0.50008202  0.66346152  1
  F  F11  1  0.00002127  0.00003750  0.82513597  1
