# generated using pymatgen
data_Ba2CaI6
_symmetry_space_group_name_H-M   'P 1'
_cell_length_a   8.57735158
_cell_length_b   8.19022129
_cell_length_c   24.98657909
_cell_angle_alpha   90.00000000
_cell_angle_beta   91.28604107
_cell_angle_gamma   90.00000000
_symmetry_Int_Tables_number   1
_chemical_formula_structural   Ba2CaI6
_chemical_formula_sum   'Ba8 Ca4 I24'
_cell_volume   1754.87521244
_cell_formula_units_Z   4
loop_
 _symmetry_equiv_pos_site_id
 _symmetry_equiv_pos_as_xyz
  1  'x, y, z'
loop_
 _atom_site_type_symbol
 _atom_site_label
 _atom_site_symmetry_multiplicity
 _atom_site_fract_x
 _atom_site_fract_y
 _atom_site_fract_z
 _atom_site_occupancy
  Ba  Ba0  1  0.22780179  0.56110299  0.73798201  1
  Ba  Ba1  1  0.32939004  0.98379054  0.90869678  1
  Ba  Ba2  1  0.22780179  0.93889701  0.23798201  1
  Ba  Ba3  1  0.32939004  0.51620946  0.40869678  1
  Ba  Ba4  1  0.67060996  0.48379054  0.59130322  1
  Ba  Ba5  1  0.77219821  0.06110299  0.76201799  1
  Ba  Ba6  1  0.67060996  0.01620946  0.09130322  1
  Ba  Ba7  1  0.77219821  0.43889701  0.26201799  1
  Ca  Ca8  1  0.14716748  0.03026590  0.58569107  1
  Ca  Ca9  1  0.14716748  0.46973410  0.08569107  1
  Ca  Ca10  1  0.85283252  0.53026590  0.91430893  1
  Ca  Ca11  1  0.85283252  0.96973410  0.41430893  1
  I  I12  1  0.01693074  0.78716385  0.83195503  1
  I  I13  1  0.07540969  0.29144236  0.84180736  1
  I  I14  1  0.13016745  0.69552757  0.98536754  1
  I  I15  1  0.01693074  0.71283615  0.33195503  1
  I  I16  1  0.07540969  0.20855764  0.34180736  1
  I  I17  1  0.13016745  0.80447243  0.48536754  1
  I  I18  1  0.35873184  0.28203152  0.52498436  1
  I  I19  1  0.40351361  0.77894236  0.63600766  1
  I  I20  1  0.47189573  0.25611815  0.68898804  1
  I  I21  1  0.52810427  0.75611815  0.81101196  1
  I  I22  1  0.35873184  0.21796848  0.02498436  1
  I  I23  1  0.59648639  0.27894236  0.86399234  1
  I  I24  1  0.40351361  0.72105764  0.13600766  1
  I  I25  1  0.64126816  0.78203152  0.97501564  1
  I  I26  1  0.47189573  0.24388185  0.18898804  1
  I  I27  1  0.52810427  0.74388185  0.31101196  1
  I  I28  1  0.59648639  0.22105764  0.36399234  1
  I  I29  1  0.64126816  0.71796848  0.47501564  1
  I  I30  1  0.86983255  0.19552757  0.51463246  1
  I  I31  1  0.92459031  0.79144236  0.65819264  1
  I  I32  1  0.98306926  0.28716385  0.66804497  1
  I  I33  1  0.86983255  0.30447243  0.01463246  1
  I  I34  1  0.92459031  0.70855764  0.15819264  1
  I  I35  1  0.98306926  0.21283615  0.16804497  1
