# generated using pymatgen
data_Li6Fe5NiO12
_symmetry_space_group_name_H-M   'P 1'
_cell_length_a   5.10389966
_cell_length_b   5.10496329
_cell_length_c   10.15238339
_cell_angle_alpha   85.83239696
_cell_angle_beta   94.26775456
_cell_angle_gamma   60.04778916
_symmetry_Int_Tables_number   1
_chemical_formula_structural   Li6Fe5NiO12
_chemical_formula_sum   'Li6 Fe5 Ni1 O12'
_cell_volume   226.70404301
_cell_formula_units_Z   1
loop_
 _symmetry_equiv_pos_site_id
 _symmetry_equiv_pos_as_xyz
  1  'x, y, z'
loop_
 _atom_site_type_symbol
 _atom_site_label
 _atom_site_symmetry_multiplicity
 _atom_site_fract_x
 _atom_site_fract_y
 _atom_site_fract_z
 _atom_site_occupancy
  Li  Li0  1  0.10620829  0.89255761  0.25083267  1
  Li  Li1  1  0.56316174  0.76940007  0.74301257  1
  Li  Li2  1  0.22756656  0.44045407  0.74185159  1
  Li  Li3  1  0.76915847  0.56283832  0.25697409  1
  Li  Li4  1  0.44002744  0.22702952  0.25822075  1
  Li  Li5  1  0.89308190  0.10693176  0.74914366  1
  Fe  Fe6  1  0.50032352  0.50031879  0.49999370  1
  Fe  Fe7  1  0.83356594  0.83381414  0.49999800  1
  Fe  Fe8  1  0.16630679  0.16612944  0.49999368  1
  Fe  Fe9  1  0.66754603  0.66775352  0.99997844  1
  Fe  Fe10  1  0.33327647  0.33260001  0.00002352  1
  Ni  Ni11  1  0.99930776  0.99950961  0.99997691  1
  O  O12  1  0.19968331  0.80078926  0.61301612  1
  O  O13  1  0.69445956  0.96466298  0.11380928  1
  O  O14  1  0.03844201  0.30451697  0.11348640  1
  O  O15  1  0.46761726  0.86572842  0.38701647  1
  O  O16  1  0.13405893  0.53252801  0.38710043  1
  O  O17  1  0.37889717  0.61956043  0.11445549  1
  O  O18  1  0.61928170  0.37872864  0.88548641  1
  O  O19  1  0.86596053  0.46788285  0.61299079  1
  O  O20  1  0.53275445  0.13432713  0.61288251  1
  O  O21  1  0.96446390  0.69424621  0.88628549  1
  O  O22  1  0.30432173  0.03825816  0.88648211  1
  O  O23  1  0.80053154  0.19942808  0.38699192  1
