# generated using pymatgen
data_Li5V3P8O29
_symmetry_space_group_name_H-M   'P 1'
_cell_length_a   9.81195750
_cell_length_b   9.80608876
_cell_length_c   13.92184830
_cell_angle_alpha   89.89238352
_cell_angle_beta   89.83744463
_cell_angle_gamma   60.08031195
_symmetry_Int_Tables_number   1
_chemical_formula_structural   Li5V3P8O29
_chemical_formula_sum   'Li10 V6 P16 O58'
_cell_volume   1160.98896759
_cell_formula_units_Z   2
loop_
 _symmetry_equiv_pos_site_id
 _symmetry_equiv_pos_as_xyz
  1  'x, y, z'
loop_
 _atom_site_type_symbol
 _atom_site_label
 _atom_site_symmetry_multiplicity
 _atom_site_fract_x
 _atom_site_fract_y
 _atom_site_fract_z
 _atom_site_occupancy
  Li  Li0  1  0.91284059  0.77904269  0.05957607  1
  Li  Li1  1  0.76962101  0.91033773  0.55988966  1
  Li  Li2  1  0.90235757  0.32140568  0.55747927  1
  Li  Li3  1  0.66594387  0.66504689  0.88371982  1
  Li  Li4  1  0.77189524  0.31386762  0.06182087  1
  Li  Li5  1  0.31921783  0.90776141  0.05973485  1
  Li  Li6  1  0.32536804  0.76870023  0.56085718  1
  Li  Li7  1  0.09277875  0.67885916  0.43943492  1
  Li  Li8  1  0.22552810  0.09456492  0.43882124  1
  Li  Li9  1  0.09520869  0.22706218  0.93987350  1
  V  V10  1  0.56511888  0.42815348  0.25313347  1
  V  V11  1  0.43257221  0.56413948  0.75369081  1
  V  V12  1  0.56869400  0.00701524  0.75314981  1
  V  V13  1  0.43558010  0.99928742  0.25074318  1
  V  V14  1  0.99894369  0.56940801  0.24734558  1
  V  V15  1  0.99816450  0.43230405  0.74680336  1
  P  P16  1  0.91009356  0.76921837  0.84287699  1
  P  P17  1  0.76893212  0.91356595  0.34353239  1
  P  P18  1  0.90950510  0.32106128  0.34042536  1
  P  P19  1  0.66629703  0.66417207  0.12643693  1
  P  P20  1  0.66367586  0.67022643  0.62700166  1
  P  P21  1  0.77039793  0.31826125  0.84400908  1
  P  P22  1  0.68374841  0.23287731  0.65834223  1
  P  P23  1  0.31938696  0.91038879  0.84211879  1
  P  P24  1  0.68333278  0.08598842  0.15816689  1
  P  P25  1  0.31913062  0.76695523  0.34244765  1
  P  P26  1  0.23273324  0.68348194  0.15675128  1
  P  P27  1  0.32831945  0.33632369  0.37382946  1
  P  P28  1  0.32979347  0.33380207  0.87448499  1
  P  P29  1  0.08706436  0.68256573  0.65857318  1
  P  P30  1  0.23336280  0.08602439  0.65804516  1
  P  P31  1  0.08892491  0.23064107  0.15867318  1
  O  O32  1  0.99644129  0.75696155  0.56818277  1
  O  O33  1  0.91670483  0.74543548  0.33717223  1
  O  O34  1  0.77049687  0.99647712  0.07214316  1
  O  O35  1  0.74191904  0.91723986  0.83393243  1
  O  O36  1  0.88763158  0.62533039  0.82542589  1
  O  O37  1  0.81449337  0.67083542  0.16406183  1
  O  O38  1  0.89918755  0.47966876  0.32253147  1
  O  O39  1  0.00107158  0.24212735  0.06804710  1
  O  O40  1  0.92129541  0.33516974  0.83759743  1
  O  O41  1  0.66855410  0.81783071  0.66992961  1
  O  O42  1  0.61848399  0.90254825  0.32235961  1
  O  O43  1  0.81273755  0.51482009  0.66551582  1
  O  O44  1  0.66952178  0.66075879  0.01804169  1
  O  O45  1  0.66381152  0.67357570  0.51977832  1
  O  O46  1  0.67129889  0.51096912  0.16627109  1
  O  O47  1  0.48472461  0.89513527  0.82514560  1
  O  O48  1  0.51431408  0.81185386  0.16461317  1
  O  O49  1  0.74343503  0.34030479  0.33448900  1
  O  O50  1  0.78710935  0.20838364  0.75493418  1
  O  O51  1  0.77336561  0.23261668  0.57225683  1
  O  O52  1  0.76220883  0.24738405  0.93642274  1
  O  O53  1  0.62789682  0.48621126  0.82545412  1
  O  O54  1  0.51295437  0.67184874  0.66889883  1
  O  O55  1  0.66210720  0.25536958  0.16178355  1
  O  O56  1  0.47959966  0.61691499  0.32288606  1
  O  O57  1  0.33669218  0.91480625  0.34199528  1
  O  O58  1  0.78851501  0.00527026  0.25420985  1
  O  O59  1  0.75999569  0.99171501  0.43614892  1
  O  O60  1  0.24735994  0.99633575  0.56736060  1
  O  O61  1  0.66227913  0.08424670  0.66151845  1
  O  O62  1  0.52425069  0.38212355  0.67321738  1
  O  O63  1  0.34173165  0.74546760  0.84110420  1
  O  O64  1  0.47914714  0.33448263  0.32599437  1
  O  O65  1  0.38362942  0.52365545  0.17695177  1
  O  O66  1  0.24448351  0.76676746  0.07092948  1
  O  O67  1  0.24548859  0.75246843  0.43415839  1
  O  O68  1  0.20671303  0.78856157  0.25355356  1
  O  O69  1  0.25114116  0.66484777  0.65829874  1
  O  O70  1  0.47937064  0.18330731  0.82585900  1
  O  O71  1  0.52247950  0.09970391  0.17604044  1
  O  O72  1  0.33662214  0.47727435  0.82881197  1
  O  O73  1  0.34025959  0.32317945  0.98056101  1
  O  O74  1  0.33349092  0.33754843  0.48064360  1
  O  O75  1  0.18408031  0.48923005  0.33340111  1
  O  O76  1  0.38329646  0.09384280  0.67856343  1
  O  O77  1  0.32641642  0.18682114  0.33420522  1
  O  O78  1  0.08641890  0.66273070  0.15726702  1
  O  O79  1  0.99933775  0.78966087  0.75089513  1
  O  O80  1  0.99130291  0.76396133  0.93341030  1
  O  O81  1  0.09479480  0.52290914  0.67841096  1
  O  O82  1  0.18369639  0.32950299  0.83451120  1
  O  O83  1  0.09826440  0.38110456  0.17670564  1
  O  O84  1  0.25486467  0.08301557  0.16030147  1
  O  O85  1  0.24426989  0.00386777  0.93139461  1
  O  O86  1  0.20944366  0.00017182  0.75023265  1
  O  O87  1  0.08537372  0.25114811  0.65649486  1
  O  O88  1  0.99692473  0.24143707  0.43076971  1
  O  O89  1  0.00130749  0.20725281  0.24994036  1
