# generated using pymatgen
data_Mn7F18
_symmetry_space_group_name_H-M   'P 1'
_cell_length_a   7.23245842
_cell_length_b   7.57767979
_cell_length_c   7.99122351
_cell_angle_alpha   93.21435756
_cell_angle_beta   93.85889536
_cell_angle_gamma   115.91106003
_symmetry_Int_Tables_number   1
_chemical_formula_structural   Mn7F18
_chemical_formula_sum   'Mn7 F18'
_cell_volume   391.25421933
_cell_formula_units_Z   1
loop_
 _symmetry_equiv_pos_site_id
 _symmetry_equiv_pos_as_xyz
  1  'x, y, z'
loop_
 _atom_site_type_symbol
 _atom_site_label
 _atom_site_symmetry_multiplicity
 _atom_site_fract_x
 _atom_site_fract_y
 _atom_site_fract_z
 _atom_site_occupancy
  Mn  Mn0  1  0.20395050  0.88476117  0.18742201  1
  Mn  Mn1  1  0.00000000  0.00000000  0.50000000  1
  Mn  Mn2  1  0.17719890  0.38544368  0.20180475  1
  Mn  Mn3  1  0.38837432  0.27560520  0.87813352  1
  Mn  Mn4  1  0.61162568  0.72439480  0.12186648  1
  Mn  Mn5  1  0.82280110  0.61455632  0.79819525  1
  Mn  Mn6  1  0.79604950  0.11523883  0.81257799  1
  F  F7  1  0.07453588  0.76898601  0.93388818  1
  F  F8  1  0.11668372  0.61606430  0.24865017  1
  F  F9  1  0.06988984  0.24896040  0.40428197  1
  F  F10  1  0.08879819  0.13881054  0.75877146  1
  F  F11  1  0.48394815  0.90832668  0.16553585  1
  F  F12  1  0.31224880  0.49349167  0.99366169  1
  F  F13  1  0.74771579  0.98918575  0.55680026  1
  F  F14  1  0.44559637  0.53728422  0.30518779  1
  F  F15  1  0.27585680  0.15752855  0.11114844  1
  F  F16  1  0.72414320  0.84247145  0.88885156  1
  F  F17  1  0.55440363  0.46271578  0.69481221  1
  F  F18  1  0.25228421  0.01081425  0.44319974  1
  F  F19  1  0.68775120  0.50650833  0.00633831  1
  F  F20  1  0.51605185  0.09167332  0.83446415  1
  F  F21  1  0.91120181  0.86118946  0.24122854  1
  F  F22  1  0.93011016  0.75103960  0.59571803  1
  F  F23  1  0.88331628  0.38393570  0.75134983  1
  F  F24  1  0.92546412  0.23101399  0.06611182  1
