# generated using pymatgen
data_Ti3Sn7O20
_symmetry_space_group_name_H-M   'P 1'
_cell_length_a   4.77474587
_cell_length_b   4.77474587
_cell_length_c   15.86641251
_cell_angle_alpha   90.00000000
_cell_angle_beta   90.00000000
_cell_angle_gamma   90.04140827
_symmetry_Int_Tables_number   1
_chemical_formula_structural   Ti3Sn7O20
_chemical_formula_sum   'Ti3 Sn7 O20'
_cell_volume   361.72552170
_cell_formula_units_Z   1
loop_
 _symmetry_equiv_pos_site_id
 _symmetry_equiv_pos_as_xyz
  1  'x, y, z'
loop_
 _atom_site_type_symbol
 _atom_site_label
 _atom_site_symmetry_multiplicity
 _atom_site_fract_x
 _atom_site_fract_y
 _atom_site_fract_z
 _atom_site_occupancy
  Ti  Ti0  1  0.00000000  0.00000000  0.39992843  1
  Ti  Ti1  1  0.00000000  0.00000000  0.80007157  1
  Ti  Ti2  1  0.50000000  0.50000000  0.10000000  1
  Sn  Sn3  1  0.00000000  0.00000000  0.00038047  1
  Sn  Sn4  1  0.00000000  0.00000000  0.19961953  1
  Sn  Sn5  1  0.00000000  0.00000000  0.60000000  1
  Sn  Sn6  1  0.50000000  0.50000000  0.49769581  1
  Sn  Sn7  1  0.50000000  0.50000000  0.29988623  1
  Sn  Sn8  1  0.50000000  0.50000000  0.90011377  1
  Sn  Sn9  1  0.50000000  0.50000000  0.70230419  1
  O  O10  1  0.18982177  0.81017823  0.49537446  1
  O  O11  1  0.20295340  0.79704660  0.10000000  1
  O  O12  1  0.19000822  0.80999178  0.30400262  1
  O  O13  1  0.18982177  0.81017823  0.70462554  1
  O  O14  1  0.19000822  0.80999178  0.89599738  1
  O  O15  1  0.31003864  0.31003864  0.00422078  1
  O  O16  1  0.31003864  0.31003864  0.19577922  1
  O  O17  1  0.29687549  0.29687549  0.80069454  1
  O  O18  1  0.29687549  0.29687549  0.39930546  1
  O  O19  1  0.30613667  0.30613667  0.60000000  1
  O  O20  1  0.68996136  0.68996136  0.00422078  1
  O  O21  1  0.68996136  0.68996136  0.19577922  1
  O  O22  1  0.70312451  0.70312451  0.39930546  1
  O  O23  1  0.69386333  0.69386333  0.60000000  1
  O  O24  1  0.70312451  0.70312451  0.80069454  1
  O  O25  1  0.79704660  0.20295340  0.10000000  1
  O  O26  1  0.81017823  0.18982177  0.49537446  1
  O  O27  1  0.80999178  0.19000822  0.30400262  1
  O  O28  1  0.80999178  0.19000822  0.89599738  1
  O  O29  1  0.81017823  0.18982177  0.70462554  1
