# generated using pymatgen
data_Li3Co3OF7
_symmetry_space_group_name_H-M   'P 1'
_cell_length_a   6.06998820
_cell_length_b   6.06976860
_cell_length_c   10.49589349
_cell_angle_alpha   89.93004461
_cell_angle_beta   73.22238682
_cell_angle_gamma   119.91087248
_symmetry_Int_Tables_number   1
_chemical_formula_structural   Li3Co3OF7
_chemical_formula_sum   'Li6 Co6 O2 F14'
_cell_volume   315.98045972
_cell_formula_units_Z   2
loop_
 _symmetry_equiv_pos_site_id
 _symmetry_equiv_pos_as_xyz
  1  'x, y, z'
loop_
 _atom_site_type_symbol
 _atom_site_label
 _atom_site_symmetry_multiplicity
 _atom_site_fract_x
 _atom_site_fract_y
 _atom_site_fract_z
 _atom_site_occupancy
  Li  Li0  1  0.00712144  0.00558457  0.99941937  1
  Li  Li1  1  0.11984762  0.05509018  0.31164969  1
  Li  Li2  1  0.63003041  0.06662445  0.81151712  1
  Li  Li3  1  0.22798353  0.61280625  0.12828504  1
  Li  Li4  1  0.25581331  0.14155995  0.62828291  1
  Li  Li5  1  0.99277321  0.49095468  0.49941962  1
  Co  Co6  1  0.63086321  0.07476141  0.30557890  1
  Co  Co7  1  0.62649865  0.30730868  0.06825903  1
  Co  Co8  1  0.63064894  0.54993462  0.30643482  1
  Co  Co9  1  0.61659994  0.56159313  0.80567138  1
  Co  Co10  1  0.62159074  0.80283099  0.56829579  1
  Co  Co11  1  0.14064753  0.56086793  0.80635404  1
  O  O12  1  0.83834040  0.41669538  0.19079365  1
  O  O13  1  0.38945689  0.46879568  0.69087146  1
  F  F14  1  0.85529878  0.15410628  0.43775534  1
  F  F15  1  0.36587579  0.17974429  0.42896343  1
  F  F16  1  0.36602089  0.41618617  0.19276675  1
  F  F17  1  0.86913804  0.19891685  0.93323177  1
  F  F18  1  0.86610949  0.93015983  0.19760981  1
  F  F19  1  0.86525433  0.69483791  0.43340870  1
  F  F20  1  0.86917873  0.43433956  0.69754147  1
  F  F21  1  0.40049392  0.69746495  0.42575327  1
  F  F22  1  0.87394406  0.67166930  0.92586307  1
  F  F23  1  0.40564447  0.20492252  0.93786265  1
  F  F24  1  0.86005286  0.93997457  0.69419643  1
  F  F25  1  0.36387493  0.94257286  0.19424815  1
  F  F26  1  0.38822174  0.70304677  0.92897832  1
  F  F27  1  0.38801918  0.93902925  0.69267902  1
