# generated using pymatgen
data_Ba8Cu8O19
_symmetry_space_group_name_H-M   'P 1'
_cell_length_a   9.91055518
_cell_length_b   5.75492987
_cell_length_c   9.40486767
_cell_angle_alpha   89.94201720
_cell_angle_beta   91.26330042
_cell_angle_gamma   89.45105963
_symmetry_Int_Tables_number   1
_chemical_formula_structural   Ba8Cu8O19
_chemical_formula_sum   'Ba8 Cu8 O19'
_cell_volume   536.24700170
_cell_formula_units_Z   1
loop_
 _symmetry_equiv_pos_site_id
 _symmetry_equiv_pos_as_xyz
  1  'x, y, z'
loop_
 _atom_site_type_symbol
 _atom_site_label
 _atom_site_symmetry_multiplicity
 _atom_site_fract_x
 _atom_site_fract_y
 _atom_site_fract_z
 _atom_site_occupancy
  Ba  Ba0  1  0.99110314  0.98413016  0.25028463  1
  Ba  Ba1  1  0.99675778  0.99264659  0.74519211  1
  Ba  Ba2  1  0.16477534  0.50245222  0.49868938  1
  Ba  Ba3  1  0.32711997  0.99049043  0.01252614  1
  Ba  Ba4  1  0.49341911  0.47891949  0.24391240  1
  Ba  Ba5  1  0.48792695  0.49417127  0.74903429  1
  Ba  Ba6  1  0.67003410  0.00031824  0.48313856  1
  Ba  Ba7  1  0.83748401  0.49546179  0.00084281  1
  Cu  Cu8  1  0.17563972  0.49656163  0.86495846  1
  Cu  Cu9  1  0.17570976  0.49090816  0.13959673  1
  Cu  Cu10  1  0.34127296  0.00268883  0.36675729  1
  Cu  Cu11  1  0.33337138  0.01780519  0.63622782  1
  Cu  Cu12  1  0.67460943  0.98949005  0.12775952  1
  Cu  Cu13  1  0.69645102  0.01411840  0.85335636  1
  Cu  Cu14  1  0.82886628  0.51616610  0.63498501  1
  Cu  Cu15  1  0.83699094  0.50371142  0.36259759  1
  O  O16  1  0.01510246  0.48127119  0.23368362  1
  O  O17  1  0.01436159  0.48959789  0.76555369  1
  O  O18  1  0.09619306  0.69225329  0.00015435  1
  O  O19  1  0.24026425  0.22520275  0.24919133  1
  O  O20  1  0.25869552  0.79122437  0.74415593  1
  O  O21  1  0.25249624  0.25173944  0.74737953  1
  O  O22  1  0.25476275  0.76439521  0.27310457  1
  O  O23  1  0.32522721  0.48298827  0.00323807  1
  O  O24  1  0.40995839  0.23475685  0.50390712  1
  O  O25  1  0.40404396  0.79323444  0.51472044  1
  O  O26  1  0.51401255  0.97123832  0.22429560  1
  O  O27  1  0.58924218  0.18227112  0.98125252  1
  O  O28  1  0.73954948  0.72516603  0.24213982  1
  O  O29  1  0.73583082  0.28188203  0.73011478  1
  O  O30  1  0.75164664  0.26667121  0.26483605  1
  O  O31  1  0.72722295  0.75170146  0.73744239  1
  O  O32  1  0.83695090  0.98914990  0.00860985  1
  O  O33  1  0.89752207  0.29150595  0.50554404  1
  O  O34  1  0.90465408  0.73821233  0.49798620  1
