# generated using pymatgen
data_Li7Ti16O32
_symmetry_space_group_name_H-M   'P 1'
_cell_length_a   5.08587626
_cell_length_b   11.41018749
_cell_length_c   11.41018749
_cell_angle_alpha   117.46335295
_cell_angle_beta   90.07007658
_cell_angle_gamma   89.92992342
_symmetry_Int_Tables_number   1
_chemical_formula_structural   Li7Ti16O32
_chemical_formula_sum   'Li7 Ti16 O32'
_cell_volume   587.52225299
_cell_formula_units_Z   1
loop_
 _symmetry_equiv_pos_site_id
 _symmetry_equiv_pos_as_xyz
  1  'x, y, z'
loop_
 _atom_site_type_symbol
 _atom_site_label
 _atom_site_symmetry_multiplicity
 _atom_site_fract_x
 _atom_site_fract_y
 _atom_site_fract_z
 _atom_site_occupancy
  Li  Li0  1  0.57092833  0.32786118  0.29713882  1
  Li  Li1  1  0.43750593  0.92650695  0.96153273  1
  Li  Li2  1  0.43750593  0.66346727  0.69849305  1
  Li  Li3  1  0.06378725  0.17350835  0.70329627  1
  Li  Li4  1  0.06309310  0.67045327  0.20405809  1
  Li  Li5  1  0.06378725  0.92170373  0.45149165  1
  Li  Li6  1  0.06309310  0.42094191  0.95454673  1
  Ti  Ti7  1  0.97889683  0.74022266  0.88477734  1
  Ti  Ti8  1  0.97340408  0.48614395  0.62543584  1
  Ti  Ti9  1  0.99917743  0.24028599  0.38471401  1
  Ti  Ti10  1  0.97340408  0.99956416  0.13885605  1
  Ti  Ti11  1  0.52150707  0.24018708  0.88322952  1
  Ti  Ti12  1  0.52150707  0.74177048  0.38481292  1
  Ti  Ti13  1  0.53023329  0.49037063  0.13462937  1
  Ti  Ti14  1  0.51512321  0.99258309  0.63241691  1
  Ti  Ti15  1  0.48092296  0.50718545  0.86711869  1
  Ti  Ti16  1  0.49188448  0.25842740  0.61575498  1
  Ti  Ti17  1  0.49188448  0.00924502  0.36657260  1
  Ti  Ti18  1  0.48092296  0.75788131  0.11781455  1
  Ti  Ti19  1  0.01001259  0.00339471  0.86390666  1
  Ti  Ti20  1  0.03005978  0.51080845  0.37529550  1
  Ti  Ti21  1  0.03005978  0.24970450  0.11419155  1
  Ti  Ti22  1  0.01001259  0.76109334  0.62160529  1
  O  O23  1  0.80536995  0.67093385  0.70847988  1
  O  O24  1  0.80346907  0.17207091  0.20798161  1
  O  O25  1  0.80346907  0.41701839  0.45292909  1
  O  O26  1  0.80536995  0.91652012  0.95406615  1
  O  O27  1  0.80439764  0.17558355  0.95321817  1
  O  O28  1  0.79310809  0.92453938  0.70046062  1
  O  O29  1  0.78963449  0.41819350  0.20680650  1
  O  O30  1  0.80439764  0.67178183  0.44941645  1
  O  O31  1  0.69841273  0.42749270  0.70409451  1
  O  O32  1  0.70189839  0.17463556  0.45036444  1
  O  O33  1  0.70051497  0.67308042  0.95191958  1
  O  O34  1  0.69841273  0.92090549  0.19750730  1
  O  O35  1  0.69551785  0.42033782  0.95657657  1
  O  O36  1  0.69614226  0.17189937  0.70573290  1
  O  O37  1  0.69614226  0.91926710  0.45310063  1
  O  O38  1  0.69551785  0.66842343  0.20466218  1
  O  O39  1  0.29148090  0.82866322  0.29380680  1
  O  O40  1  0.29148090  0.33119320  0.79633678  1
  O  O41  1  0.29241117  0.08033361  0.54466639  1
  O  O42  1  0.28835701  0.58097434  0.04402566  1
  O  O43  1  0.28239082  0.08203815  0.79456696  1
  O  O44  1  0.28239082  0.83043304  0.54296185  1
  O  O45  1  0.28709411  0.57925131  0.29193548  1
  O  O46  1  0.28709411  0.33306452  0.04574869  1
  O  O47  1  0.19945768  0.32838237  0.55299037  1
  O  O48  1  0.20998259  0.83154774  0.04352508  1
  O  O49  1  0.19945768  0.07200963  0.29661763  1
  O  O50  1  0.20998259  0.58147492  0.79345226  1
  O  O51  1  0.21453860  0.83059730  0.79440270  1
  O  O52  1  0.20278461  0.33201739  0.29298261  1
  O  O53  1  0.20125196  0.07906612  0.04153715  1
  O  O54  1  0.20125196  0.58346285  0.54593388  1
