# generated using pymatgen
data_Li5V3P8O29
_symmetry_space_group_name_H-M   'P 1'
_cell_length_a   9.79809140
_cell_length_b   9.80148922
_cell_length_c   14.08596890
_cell_angle_alpha   90.07913715
_cell_angle_beta   91.29061835
_cell_angle_gamma   60.10817049
_symmetry_Int_Tables_number   1
_chemical_formula_structural   Li5V3P8O29
_chemical_formula_sum   'Li10 V6 P16 O58'
_cell_volume   1172.42496645
_cell_formula_units_Z   2
loop_
 _symmetry_equiv_pos_site_id
 _symmetry_equiv_pos_as_xyz
  1  'x, y, z'
loop_
 _atom_site_type_symbol
 _atom_site_label
 _atom_site_symmetry_multiplicity
 _atom_site_fract_x
 _atom_site_fract_y
 _atom_site_fract_z
 _atom_site_occupancy
  Li  Li0  1  0.69177905  0.65502501  0.39102175  1
  Li  Li1  1  0.77313436  0.31432321  0.06092229  1
  Li  Li2  1  0.32458276  0.90600210  0.06620568  1
  Li  Li3  1  0.67454047  0.23518452  0.43797509  1
  Li  Li4  1  0.32014574  0.76951182  0.56116525  1
  Li  Li5  1  0.68643890  0.08551939  0.93461423  1
  Li  Li6  1  0.23093428  0.67767658  0.94509857  1
  Li  Li7  1  0.33017674  0.32326928  0.60941838  1
  Li  Li8  1  0.09800636  0.22914918  0.94279767  1
  Li  Li9  1  0.00393272  0.00715329  0.49508557  1
  V  V10  1  0.56862107  0.43043025  0.24937370  1
  V  V11  1  0.42912719  0.56968916  0.75161409  1
  V  V12  1  0.57076300  0.99542682  0.74865299  1
  V  V13  1  0.43212307  0.00495132  0.25240482  1
  V  V14  1  0.00411470  0.56929864  0.25386972  1
  V  V15  1  0.99427558  0.43754532  0.74224092  1
  P  P16  1  0.92048493  0.76777216  0.84036120  1
  P  P17  1  0.78076077  0.91454667  0.33760946  1
  P  P18  1  0.91886238  0.30270242  0.34280576  1
  P  P19  1  0.66363064  0.66685312  0.13121770  1
  P  P20  1  0.65876150  0.67140712  0.62765965  1
  P  P21  1  0.77170525  0.31924346  0.83748459  1
  P  P22  1  0.67725277  0.22881372  0.65649022  1
  P  P23  1  0.32118584  0.91504562  0.84584879  1
  P  P24  1  0.67973101  0.08552193  0.15270148  1
  P  P25  1  0.32447227  0.77402580  0.34460474  1
  P  P26  1  0.22774818  0.68403094  0.16447265  1
  P  P27  1  0.33663682  0.32971567  0.37334257  1
  P  P28  1  0.33324607  0.33224091  0.86916004  1
  P  P29  1  0.08021697  0.69562230  0.65360372  1
  P  P30  1  0.21780054  0.08847176  0.66146071  1
  P  P31  1  0.08452358  0.23349364  0.15828659  1
  O  O32  1  0.00302415  0.79182431  0.56764891  1
  O  O33  1  0.91848638  0.73940239  0.33833411  1
  O  O34  1  0.74095940  0.01294215  0.05958923  1
  O  O35  1  0.75274200  0.91281612  0.83873579  1
  O  O36  1  0.91286930  0.61569741  0.81711211  1
  O  O37  1  0.81502504  0.65675058  0.18290696  1
  O  O38  1  0.91054358  0.46546163  0.33641034  1
  O  O39  1  0.99983760  0.24317784  0.06606514  1
  O  O40  1  0.91967384  0.33847793  0.83717538  1
  O  O41  1  0.66945284  0.80958345  0.67148199  1
  O  O42  1  0.62922566  0.90281447  0.33292596  1
  O  O43  1  0.81012884  0.51862577  0.67261901  1
  O  O44  1  0.66300706  0.67210271  0.02575581  1
  O  O45  1  0.66417771  0.66520430  0.52165863  1
  O  O46  1  0.66772563  0.51107195  0.16607854  1
  O  O47  1  0.47919367  0.90397172  0.82238697  1
  O  O48  1  0.51521009  0.81367487  0.17136662  1
  O  O49  1  0.74293994  0.33962029  0.33701311  1
  O  O50  1  0.78998190  0.21230458  0.74728423  1
  O  O51  1  0.75742640  0.22372863  0.56723537  1
  O  O52  1  0.76154367  0.24250366  0.92739332  1
  O  O53  1  0.62119090  0.47975007  0.81871396  1
  O  O54  1  0.50903260  0.67230628  0.66291412  1
  O  O55  1  0.66434016  0.25110936  0.16117610  1
  O  O56  1  0.48601607  0.62531104  0.33022396  1
  O  O57  1  0.34780513  0.91846023  0.33468897  1
  O  O58  1  0.80110873  0.98203699  0.23729632  1
  O  O59  1  0.79412110  0.00980023  0.41572092  1
  O  O60  1  0.20248551  0.99415379  0.58326592  1
  O  O61  1  0.65330628  0.08445888  0.66762097  1
  O  O62  1  0.51396841  0.37587857  0.67137457  1
  O  O63  1  0.33544005  0.75062580  0.84176416  1
  O  O64  1  0.48520503  0.33263370  0.33937428  1
  O  O65  1  0.37657970  0.52203612  0.18269745  1
  O  O66  1  0.23942470  0.75748887  0.07399626  1
  O  O67  1  0.24163566  0.78080257  0.43331086  1
  O  O68  1  0.21125966  0.79311832  0.25310361  1
  O  O69  1  0.25582156  0.65867351  0.66320424  1
  O  O70  1  0.48586788  0.18599045  0.83244548  1
  O  O71  1  0.52122179  0.09729722  0.17827757  1
  O  O72  1  0.33019020  0.48715327  0.83410830  1
  O  O73  1  0.31959147  0.33170431  0.97443536  1
  O  O74  1  0.33506474  0.32841003  0.47934489  1
  O  O75  1  0.18455453  0.48117250  0.32952137  1
  O  O76  1  0.36907997  0.10035880  0.66707279  1
  O  O77  1  0.32762280  0.19178128  0.32712514  1
  O  O78  1  0.08116032  0.66325852  0.16888166  1
  O  O79  1  0.00163024  0.79105935  0.74808847  1
  O  O80  1  0.01377421  0.75614635  0.92705355  1
  O  O81  1  0.08871729  0.53125816  0.66472874  1
  O  O82  1  0.18534718  0.33389980  0.81813372  1
  O  O83  1  0.09222261  0.38405338  0.18012743  1
  O  O84  1  0.24967959  0.08495179  0.16039963  1
  O  O85  1  0.25304746  0.99863069  0.93709110  1
  O  O86  1  0.20071901  0.01646943  0.76113752  1
  O  O87  1  0.07691864  0.26119252  0.66287295  1
  O  O88  1  0.00075195  0.19618495  0.42444849  1
  O  O89  1  0.99012272  0.21363698  0.24361606  1
