# generated using pymatgen
data_Li2Mn(CO3)2
_symmetry_space_group_name_H-M   'P 1'
_cell_length_a   5.37338594
_cell_length_b   6.46128284
_cell_length_c   8.74686450
_cell_angle_alpha   82.67660938
_cell_angle_beta   72.12694868
_cell_angle_gamma   65.42858580
_symmetry_Int_Tables_number   1
_chemical_formula_structural   Li2Mn(CO3)2
_chemical_formula_sum   'Li4 Mn2 C4 O12'
_cell_volume   262.85291248
_cell_formula_units_Z   2
loop_
 _symmetry_equiv_pos_site_id
 _symmetry_equiv_pos_as_xyz
  1  'x, y, z'
loop_
 _atom_site_type_symbol
 _atom_site_label
 _atom_site_symmetry_multiplicity
 _atom_site_fract_x
 _atom_site_fract_y
 _atom_site_fract_z
 _atom_site_occupancy
  Li  Li0  1  0.22286559  0.55577807  0.17134909  1
  Li  Li1  1  0.14432468  0.05582516  0.32875834  1
  Li  Li2  1  0.52864035  0.94438993  0.67127425  1
  Li  Li3  1  0.94993158  0.44446683  0.82873903  1
  Mn  Mn4  1  0.88210737  0.00006335  0.99999102  1
  Mn  Mn5  1  0.63226408  0.50017871  0.50002024  1
  C  C6  1  0.75826802  0.40110160  0.19489975  1
  C  C7  1  0.70309805  0.90112542  0.30552302  1
  C  C8  1  0.90953031  0.09891209  0.69448537  1
  C  C9  1  0.35405973  0.59881230  0.80511972  1
  O  O10  1  0.80882722  0.34469620  0.04812010  1
  O  O11  1  0.96181657  0.89463706  0.24921478  1
  O  O12  1  0.54711688  0.96083804  0.20672509  1
  O  O13  1  0.96057072  0.39482736  0.25104843  1
  O  O14  1  0.50372365  0.46061314  0.29335524  1
  O  O15  1  0.60685413  0.84497082  0.45190792  1
  O  O16  1  0.90322370  0.15534124  0.54816610  1
  O  O17  1  0.60619229  0.60512142  0.74916399  1
  O  O18  1  0.25776566  0.53918456  0.70651518  1
  O  O19  1  0.71472971  0.03894147  0.79324652  1
  O  O20  1  0.10559477  0.10521378  0.75079035  1
  O  O21  1  0.20118594  0.65529347  0.95182648  1
