# generated using pymatgen
data_Sn2P2O7
_symmetry_space_group_name_H-M   'P 1'
_cell_length_a   6.98613175
_cell_length_b   7.04389743
_cell_length_c   13.01765267
_cell_angle_alpha   96.66674110
_cell_angle_beta   90.03013492
_cell_angle_gamma   89.99300105
_symmetry_Int_Tables_number   1
_chemical_formula_structural   Sn2P2O7
_chemical_formula_sum   'Sn8 P8 O28'
_cell_volume   636.26177260
_cell_formula_units_Z   4
loop_
 _symmetry_equiv_pos_site_id
 _symmetry_equiv_pos_as_xyz
  1  'x, y, z'
loop_
 _atom_site_type_symbol
 _atom_site_label
 _atom_site_symmetry_multiplicity
 _atom_site_fract_x
 _atom_site_fract_y
 _atom_site_fract_z
 _atom_site_occupancy
  Sn  Sn0  1  0.09002482  0.79050107  0.86428678  1
  Sn  Sn1  1  0.25462265  0.17898395  0.64956744  1
  Sn  Sn2  1  0.33304572  0.80253851  0.13822890  1
  Sn  Sn3  1  0.33948354  0.38128097  0.37733086  1
  Sn  Sn4  1  0.66051646  0.61871903  0.62266914  1
  Sn  Sn5  1  0.66695428  0.19746149  0.86177110  1
  Sn  Sn6  1  0.74537735  0.82101605  0.35043256  1
  Sn  Sn7  1  0.90997518  0.20949893  0.13571322  1
  P  P8  1  0.16739379  0.30307961  0.91545731  1
  P  P9  1  0.18391275  0.70055564  0.58788056  1
  P  P10  1  0.23188553  0.90059697  0.40044420  1
  P  P11  1  0.42361916  0.29241828  0.09964429  1
  P  P12  1  0.57638084  0.70758172  0.90035571  1
  P  P13  1  0.76811447  0.09940303  0.59955580  1
  P  P14  1  0.81608725  0.29944436  0.41211944  1
  P  P15  1  0.83260621  0.69692039  0.08454269  1
  O  O16  1  0.00244740  0.18721281  0.95879945  1
  O  O17  1  0.00783494  0.63250019  0.64097380  1
  O  O18  1  0.08830858  0.47295019  0.86628454  1
  O  O19  1  0.08721230  0.92171171  0.31488300  1
  O  O20  1  0.11117492  0.79016106  0.48455370  1
  O  O21  1  0.30128816  0.17078293  0.84514276  1
  O  O22  1  0.29931380  0.85835664  0.65381052  1
  O  O23  1  0.29855013  0.09154159  0.46059664  1
  O  O24  1  0.29631267  0.13637880  0.13888297  1
  O  O25  1  0.29484094  0.39131287  0.01423071  1
  O  O26  1  0.32180197  0.53435780  0.54846731  1
  O  O27  1  0.39720201  0.79559548  0.95935165  1
  O  O28  1  0.40055252  0.76979879  0.36207126  1
  O  O29  1  0.47001306  0.45653376  0.18077839  1
  O  O30  1  0.52998694  0.54346624  0.81922161  1
  O  O31  1  0.59944748  0.23020121  0.63792874  1
  O  O32  1  0.60279799  0.20440452  0.04064835  1
  O  O33  1  0.67819803  0.46564220  0.45153269  1
  O  O34  1  0.70515906  0.60868713  0.98576929  1
  O  O35  1  0.70368733  0.86362120  0.86111703  1
  O  O36  1  0.70144987  0.90845841  0.53940336  1
  O  O37  1  0.70068620  0.14164336  0.34618948  1
  O  O38  1  0.69871184  0.82921707  0.15485724  1
  O  O39  1  0.88882508  0.20983894  0.51544630  1
  O  O40  1  0.91278770  0.07828829  0.68511700  1
  O  O41  1  0.91169142  0.52704981  0.13371546  1
  O  O42  1  0.99216506  0.36749981  0.35902620  1
  O  O43  1  0.99755260  0.81278719  0.04120055  1
