# generated using pymatgen
data_HgTeO3F
_symmetry_space_group_name_H-M   'P 1'
_cell_length_a   7.91201787
_cell_length_b   6.25887182
_cell_length_c   8.08735327
_cell_angle_alpha   90.00000000
_cell_angle_beta   90.00000000
_cell_angle_gamma   90.00000000
_symmetry_Int_Tables_number   1
_chemical_formula_structural   HgTeO3F
_chemical_formula_sum   'Hg4 Te4 O12 F4'
_cell_volume   400.48820612
_cell_formula_units_Z   4
loop_
 _symmetry_equiv_pos_site_id
 _symmetry_equiv_pos_as_xyz
  1  'x, y, z'
loop_
 _atom_site_type_symbol
 _atom_site_label
 _atom_site_symmetry_multiplicity
 _atom_site_fract_x
 _atom_site_fract_y
 _atom_site_fract_z
 _atom_site_occupancy
  Hg  Hg0  1  0.38539099  0.20400350  0.63990069  1
  Hg  Hg1  1  0.61460901  0.70400350  0.36009931  1
  Hg  Hg2  1  0.38539099  0.70400350  0.86009931  1
  Hg  Hg3  1  0.61460901  0.20400350  0.13990069  1
  Te  Te4  1  0.80748511  0.04863695  0.61445422  1
  Te  Te5  1  0.19251489  0.54863695  0.38554578  1
  Te  Te6  1  0.80748511  0.54863695  0.88554578  1
  Te  Te7  1  0.19251489  0.04863695  0.11445422  1
  O  O8  1  0.57785863  0.98400744  0.67394561  1
  O  O9  1  0.42214137  0.48400744  0.32605439  1
  O  O10  1  0.57785863  0.48400744  0.82605439  1
  O  O11  1  0.42214137  0.98400744  0.17394561  1
  O  O12  1  0.79531458  0.43620975  0.11309543  1
  O  O13  1  0.20468542  0.93620975  0.88690457  1
  O  O14  1  0.79531458  0.93620975  0.38690457  1
  O  O15  1  0.20468542  0.43620975  0.61309543  1
  O  O16  1  0.88173784  0.26353784  0.78691887  1
  O  O17  1  0.11826216  0.76353784  0.21308113  1
  O  O18  1  0.88173784  0.76353784  0.71308113  1
  O  O19  1  0.11826216  0.26353784  0.28691887  1
  F  F20  1  0.73494235  0.31792452  0.49713816  1
  F  F21  1  0.26505765  0.81792452  0.50286184  1
  F  F22  1  0.73494235  0.81792452  0.00286184  1
  F  F23  1  0.26505765  0.31792452  0.99713816  1
