# generated using pymatgen
data_Co2RuO4
_symmetry_space_group_name_H-M   'P 1'
_cell_length_a   6.11004671
_cell_length_b   6.14215843
_cell_length_c   10.36587966
_cell_angle_alpha   107.30083322
_cell_angle_beta   87.54346285
_cell_angle_gamma   59.82477950
_symmetry_Int_Tables_number   1
_chemical_formula_structural   Co2RuO4
_chemical_formula_sum   'Co8 Ru4 O16'
_cell_volume   312.24884699
_cell_formula_units_Z   4
loop_
 _symmetry_equiv_pos_site_id
 _symmetry_equiv_pos_as_xyz
  1  'x, y, z'
loop_
 _atom_site_type_symbol
 _atom_site_label
 _atom_site_symmetry_multiplicity
 _atom_site_fract_x
 _atom_site_fract_y
 _atom_site_fract_z
 _atom_site_occupancy
  Co  Co0  1  0.61974348  0.72272321  0.12203549  1
  Co  Co1  1  0.06112714  0.87740158  0.31340598  1
  Co  Co2  1  0.00771219  0.97040724  0.00364300  1
  Co  Co3  1  0.56153324  0.37462892  0.31219915  1
  Co  Co4  1  0.11881790  0.77564932  0.62146296  1
  Co  Co5  1  0.50499253  0.02449851  0.50446220  1
  Co  Co6  1  0.56432317  0.37656230  0.81103913  1
  Co  Co7  1  0.06040872  0.37749021  0.81255558  1
  Ru  Ru8  1  0.31463573  0.34218258  0.06164277  1
  Ru  Ru9  1  0.06134800  0.37588200  0.31240942  1
  Ru  Ru10  1  0.81225767  0.40268985  0.56080565  1
  Ru  Ru11  1  0.56164474  0.87967635  0.81494857  1
  O  O12  1  0.94691781  0.60663183  0.19122532  1
  O  O13  1  0.41883044  0.58471284  0.18344913  1
  O  O14  1  0.43831647  0.12388199  0.19102046  1
  O  O15  1  0.17150444  0.61680508  0.41933668  1
  O  O16  1  0.95217692  0.13340595  0.20564983  1
  O  O17  1  0.68433429  0.62511324  0.43198398  1
  O  O18  1  0.17817717  0.14457758  0.43449189  1
  O  O19  1  0.69932521  0.16536109  0.44087929  1
  O  O20  1  0.44723306  0.64109639  0.69095355  1
  O  O21  1  0.93519852  0.62947570  0.69093918  1
  O  O22  1  0.92465172  0.17478486  0.68127241  1
  O  O23  1  0.67555648  0.62999019  0.91992416  1
  O  O24  1  0.44667862  0.12476116  0.70679722  1
  O  O25  1  0.20659982  0.57006356  0.94272448  1
  O  O26  1  0.68265806  0.11350010  0.93359060  1
  O  O27  1  0.18515045  0.12294439  0.93489094  1
