# generated using pymatgen
data_VF5
_symmetry_space_group_name_H-M   'P 1'
_cell_length_a   7.85386091
_cell_length_b   5.37724881
_cell_length_c   5.38000468
_cell_angle_alpha   70.71567230
_cell_angle_beta   78.44585240
_cell_angle_gamma   104.96486153
_symmetry_Int_Tables_number   1
_chemical_formula_structural   VF5
_chemical_formula_sum   'V2 F10'
_cell_volume   196.76499722
_cell_formula_units_Z   2
loop_
 _symmetry_equiv_pos_site_id
 _symmetry_equiv_pos_as_xyz
  1  'x, y, z'
loop_
 _atom_site_type_symbol
 _atom_site_label
 _atom_site_symmetry_multiplicity
 _atom_site_fract_x
 _atom_site_fract_y
 _atom_site_fract_z
 _atom_site_occupancy
  V  V0  1  0.96338871  0.95216559  0.01304702  1
  V  V1  1  0.46300178  0.47736467  0.98652486  1
  F  F2  1  0.05159644  0.81159888  0.28354787  1
  F  F3  1  0.12866482  0.88200107  0.79583000  1
  F  F4  1  0.38537522  0.58677613  0.25064175  1
  F  F5  1  0.25892119  0.34736277  0.91216804  1
  F  F6  1  0.55069439  0.83523033  0.75614429  1
  F  F7  1  0.46797479  0.17969957  0.24785002  1
  F  F8  1  0.75930852  0.67400074  0.08763398  1
  F  F9  1  0.62928187  0.42634119  0.75213779  1
  F  F10  1  0.88422317  0.13895866  0.19847334  1
  F  F11  1  0.96802110  0.21744140  0.71036102  1
