# generated using pymatgen
data_Li2Bi5B3O13
_symmetry_space_group_name_H-M   'P 1'
_cell_length_a   10.75979907
_cell_length_b   3.73047836
_cell_length_c   16.39682276
_cell_angle_alpha   90.00000000
_cell_angle_beta   103.79503749
_cell_angle_gamma   90.00000000
_symmetry_Int_Tables_number   1
_chemical_formula_structural   Li2Bi5B3O13
_chemical_formula_sum   'Li4 Bi10 B6 O26'
_cell_volume   639.17077683
_cell_formula_units_Z   2
loop_
 _symmetry_equiv_pos_site_id
 _symmetry_equiv_pos_as_xyz
  1  'x, y, z'
loop_
 _atom_site_type_symbol
 _atom_site_label
 _atom_site_symmetry_multiplicity
 _atom_site_fract_x
 _atom_site_fract_y
 _atom_site_fract_z
 _atom_site_occupancy
  Li  Li0  1  0.21349138  0.25000000  0.73207406  1
  Li  Li1  1  0.39005886  0.75000000  0.94486376  1
  Li  Li2  1  0.60994114  0.25000000  0.05513624  1
  Li  Li3  1  0.78650862  0.75000000  0.26792594  1
  Bi  Bi4  1  0.14783451  0.25000000  0.99413315  1
  Bi  Bi5  1  0.03376305  0.25000000  0.37632277  1
  Bi  Bi6  1  0.18346437  0.75000000  0.20040755  1
  Bi  Bi7  1  0.35942077  0.75000000  0.43785173  1
  Bi  Bi8  1  0.47149916  0.75000000  0.70175135  1
  Bi  Bi9  1  0.52850084  0.25000000  0.29824865  1
  Bi  Bi10  1  0.64057923  0.25000000  0.56214827  1
  Bi  Bi11  1  0.81653563  0.25000000  0.79959245  1
  Bi  Bi12  1  0.96623695  0.75000000  0.62367723  1
  Bi  Bi13  1  0.85216549  0.75000000  0.00586685  1
  B  B14  1  0.09494609  0.75000000  0.81598812  1
  B  B15  1  0.21489054  0.25000000  0.57654530  1
  B  B16  1  0.59549346  0.75000000  0.89724258  1
  B  B17  1  0.40450654  0.25000000  0.10275742  1
  B  B18  1  0.78510946  0.75000000  0.42345470  1
  B  B19  1  0.90505391  0.25000000  0.18401188  1
  O  O20  1  0.17623460  0.75000000  0.89422710  1
  O  O21  1  0.08929312  0.25000000  0.58469989  1
  O  O22  1  0.14400726  0.75000000  0.74432902  1
  O  O23  1  0.03995089  0.25000000  0.19758573  1
  O  O24  1  0.13868602  0.75000000  0.33832383  1
  O  O25  1  0.23903351  0.25000000  0.49703322  1
  O  O26  1  0.31317564  0.25000000  0.64973562  1
  O  O27  1  0.08262895  0.75000000  0.05863250  1
  O  O28  1  0.47424618  0.75000000  0.84721618  1
  O  O29  1  0.61790835  0.75000000  0.98412080  1
  O  O30  1  0.29328617  0.25000000  0.13743494  1
  O  O31  1  0.39676249  0.75000000  0.29631416  1
  O  O32  1  0.51515346  0.75000000  0.56859118  1
  O  O33  1  0.48484654  0.25000000  0.43140882  1
  O  O34  1  0.60323751  0.25000000  0.70368584  1
  O  O35  1  0.70671383  0.75000000  0.86256506  1
  O  O36  1  0.38209165  0.25000000  0.01587920  1
  O  O37  1  0.52575382  0.25000000  0.15278382  1
  O  O38  1  0.91737105  0.25000000  0.94136750  1
  O  O39  1  0.68682436  0.75000000  0.35026438  1
  O  O40  1  0.76096649  0.75000000  0.50296678  1
  O  O41  1  0.86131398  0.25000000  0.66167617  1
  O  O42  1  0.96004911  0.75000000  0.80241427  1
  O  O43  1  0.85599274  0.25000000  0.25567098  1
  O  O44  1  0.91070788  0.75000000  0.41530011  1
  O  O45  1  0.82376540  0.25000000  0.10577290  1
