# generated using pymatgen
data_Na2LaPCO7
_symmetry_space_group_name_H-M   'P 1'
_cell_length_a   9.46693809
_cell_length_b   7.18551795
_cell_length_c   5.29258998
_cell_angle_alpha   90.00000000
_cell_angle_beta   91.08998845
_cell_angle_gamma   90.00000000
_symmetry_Int_Tables_number   1
_chemical_formula_structural   Na2LaPCO7
_chemical_formula_sum   'Na4 La2 P2 C2 O14'
_cell_volume   359.96251187
_cell_formula_units_Z   2
loop_
 _symmetry_equiv_pos_site_id
 _symmetry_equiv_pos_as_xyz
  1  'x, y, z'
loop_
 _atom_site_type_symbol
 _atom_site_label
 _atom_site_symmetry_multiplicity
 _atom_site_fract_x
 _atom_site_fract_y
 _atom_site_fract_z
 _atom_site_occupancy
  Na  Na0  1  0.20250480  0.49511200  0.22679121  1
  Na  Na1  1  0.20250480  0.00488800  0.22679121  1
  Na  Na2  1  0.79749520  0.50488800  0.77320879  1
  Na  Na3  1  0.79749520  0.99511200  0.77320879  1
  La  La4  1  0.38499381  0.75000000  0.76398869  1
  La  La5  1  0.61500619  0.25000000  0.23601131  1
  P  P6  1  0.40930568  0.25000000  0.71180995  1
  P  P7  1  0.59069432  0.75000000  0.28819005  1
  C  C8  1  0.07715504  0.75000000  0.72962121  1
  C  C9  1  0.92284496  0.25000000  0.27037879  1
  O  O10  1  0.05558942  0.25000000  0.29404500  1
  O  O11  1  0.14293592  0.75000000  0.95090504  1
  O  O12  1  0.16103809  0.75000000  0.53147788  1
  O  O13  1  0.35121885  0.07445952  0.84362336  1
  O  O14  1  0.35121885  0.42554048  0.84362336  1
  O  O15  1  0.42378694  0.75000000  0.26138870  1
  O  O16  1  0.37666970  0.25000000  0.42273246  1
  O  O17  1  0.62333030  0.75000000  0.57726754  1
  O  O18  1  0.57621306  0.25000000  0.73861130  1
  O  O19  1  0.64878115  0.57445952  0.15637664  1
  O  O20  1  0.64878115  0.92554048  0.15637664  1
  O  O21  1  0.83896191  0.25000000  0.46852212  1
  O  O22  1  0.85706408  0.25000000  0.04909496  1
  O  O23  1  0.94441058  0.75000000  0.70595500  1
