# generated using pymatgen
data_Gd3AsO7
_symmetry_space_group_name_H-M   'P 1'
_cell_length_a   6.44122244
_cell_length_b   6.44122244
_cell_length_c   7.45789978
_cell_angle_alpha   90.00000000
_cell_angle_beta   90.00000000
_cell_angle_gamma   109.38288607
_symmetry_Int_Tables_number   1
_chemical_formula_structural   Gd3AsO7
_chemical_formula_sum   'Gd6 As2 O14'
_cell_volume   291.88583662
_cell_formula_units_Z   2
loop_
 _symmetry_equiv_pos_site_id
 _symmetry_equiv_pos_as_xyz
  1  'x, y, z'
loop_
 _atom_site_type_symbol
 _atom_site_label
 _atom_site_symmetry_multiplicity
 _atom_site_fract_x
 _atom_site_fract_y
 _atom_site_fract_z
 _atom_site_occupancy
  Gd  Gd0  1  0.00178582  0.46491319  0.49800198  1
  Gd  Gd1  1  0.53508681  0.99821418  0.50199802  1
  Gd  Gd2  1  0.48886300  0.48886300  0.75000000  1
  Gd  Gd3  1  0.51113700  0.51113700  0.25000000  1
  Gd  Gd4  1  0.99821418  0.53508681  0.99800198  1
  Gd  Gd5  1  0.46491319  0.00178582  0.00199802  1
  As  As6  1  0.99969881  0.99969881  0.25000000  1
  As  As7  1  0.00030119  0.00030119  0.75000000  1
  O  O8  1  0.05772900  0.94227100  0.00000000  1
  O  O9  1  0.36455836  0.63544164  0.00000000  1
  O  O10  1  0.05678260  0.29924184  0.22024634  1
  O  O11  1  0.70075816  0.94321740  0.77975366  1
  O  O12  1  0.37067049  0.62932951  0.50000000  1
  O  O13  1  0.69451738  0.93303963  0.22340820  1
  O  O14  1  0.06696037  0.30548262  0.77659180  1
  O  O15  1  0.30548262  0.06696037  0.72340820  1
  O  O16  1  0.93303963  0.69451738  0.27659180  1
  O  O17  1  0.62932951  0.37067049  0.00000000  1
  O  O18  1  0.94321740  0.70075816  0.72024634  1
  O  O19  1  0.29924184  0.05678260  0.27975366  1
  O  O20  1  0.63544164  0.36455836  0.50000000  1
  O  O21  1  0.94227100  0.05772900  0.50000000  1
