# generated using pymatgen
data_NaSnPCO7
_symmetry_space_group_name_H-M   'P 1'
_cell_length_a   9.33708844
_cell_length_b   6.61418480
_cell_length_c   5.32021425
_cell_angle_alpha   90.00000000
_cell_angle_beta   87.60279369
_cell_angle_gamma   90.00000000
_symmetry_Int_Tables_number   1
_chemical_formula_structural   NaSnPCO7
_chemical_formula_sum   'Na2 Sn2 P2 C2 O14'
_cell_volume   328.27415291
_cell_formula_units_Z   2
loop_
 _symmetry_equiv_pos_site_id
 _symmetry_equiv_pos_as_xyz
  1  'x, y, z'
loop_
 _atom_site_type_symbol
 _atom_site_label
 _atom_site_symmetry_multiplicity
 _atom_site_fract_x
 _atom_site_fract_y
 _atom_site_fract_z
 _atom_site_occupancy
  Na  Na0  1  0.21582237  0.47981521  0.23907251  1
  Na  Na1  1  0.78417763  0.97981521  0.76092749  1
  Sn  Sn2  1  0.34246120  0.76441143  0.78209272  1
  Sn  Sn3  1  0.65753880  0.26441143  0.21790728  1
  P  P4  1  0.43232426  0.25691741  0.72547439  1
  P  P5  1  0.56767574  0.75691741  0.27452561  1
  C  C6  1  0.07552450  0.74115542  0.72447065  1
  C  C7  1  0.92447550  0.24115542  0.27552935  1
  O  O8  1  0.05419695  0.24567235  0.30774737  1
  O  O9  1  0.13595575  0.74353668  0.94920745  1
  O  O10  1  0.17675232  0.73642509  0.53305235  1
  O  O11  1  0.33572388  0.07391424  0.78781405  1
  O  O12  1  0.34338565  0.44386872  0.80641927  1
  O  O13  1  0.42390426  0.74443548  0.13820652  1
  O  O14  1  0.46877997  0.26769996  0.43526324  1
  O  O15  1  0.53122003  0.76769996  0.56473676  1
  O  O16  1  0.57609574  0.24443548  0.86179348  1
  O  O17  1  0.65661435  0.94386872  0.19358073  1
  O  O18  1  0.66427612  0.57391424  0.21218595  1
  O  O19  1  0.82324768  0.23642509  0.46694765  1
  O  O20  1  0.86404425  0.24353668  0.05079255  1
  O  O21  1  0.94580305  0.74567235  0.69225263  1
