# generated using pymatgen
data_Li3Bi2(BO3)3
_symmetry_space_group_name_H-M   'P 1'
_cell_length_a   9.00552076
_cell_length_b   14.14903715
_cell_length_c   5.88216341
_cell_angle_alpha   90.00000000
_cell_angle_beta   104.15255041
_cell_angle_gamma   90.00000000
_symmetry_Int_Tables_number   1
_chemical_formula_structural   Li3Bi2(BO3)3
_chemical_formula_sum   'Li12 Bi8 B12 O36'
_cell_volume   726.75325576
_cell_formula_units_Z   4
loop_
 _symmetry_equiv_pos_site_id
 _symmetry_equiv_pos_as_xyz
  1  'x, y, z'
loop_
 _atom_site_type_symbol
 _atom_site_label
 _atom_site_symmetry_multiplicity
 _atom_site_fract_x
 _atom_site_fract_y
 _atom_site_fract_z
 _atom_site_occupancy
  Li  Li0  1  0.00567436  0.83500277  0.42513391  1
  Li  Li1  1  0.21563337  0.78512461  0.77917984  1
  Li  Li2  1  0.28436663  0.28512461  0.72082016  1
  Li  Li3  1  0.20515968  0.88835439  0.14467953  1
  Li  Li4  1  0.29484032  0.38835439  0.35532047  1
  Li  Li5  1  0.50567436  0.66499723  0.92513391  1
  Li  Li6  1  0.49432564  0.33500277  0.07486609  1
  Li  Li7  1  0.70515968  0.61164561  0.64467953  1
  Li  Li8  1  0.79484032  0.11164561  0.85532047  1
  Li  Li9  1  0.71563337  0.71487539  0.27917984  1
  Li  Li10  1  0.78436663  0.21487539  0.22082016  1
  Li  Li11  1  0.99432564  0.16499723  0.57486609  1
  Bi  Bi12  1  0.15462399  0.50819715  0.80494611  1
  Bi  Bi13  1  0.19063027  0.16135894  0.14067517  1
  Bi  Bi14  1  0.34537601  0.00819715  0.69505389  1
  Bi  Bi15  1  0.30936973  0.66135894  0.35932483  1
  Bi  Bi16  1  0.69063027  0.33864106  0.64067517  1
  Bi  Bi17  1  0.65462399  0.99180285  0.30494611  1
  Bi  Bi18  1  0.80936973  0.83864106  0.85932483  1
  Bi  Bi19  1  0.84537601  0.49180285  0.19505389  1
  B  B20  1  0.01701743  0.32139308  0.90574698  1
  B  B21  1  0.01965594  0.98311637  0.75354402  1
  B  B22  1  0.03007668  0.33587438  0.41746146  1
  B  B23  1  0.48034406  0.48311637  0.74645598  1
  B  B24  1  0.48298257  0.82139308  0.59425302  1
  B  B25  1  0.53007668  0.16412562  0.91746146  1
  B  B26  1  0.46992332  0.83587438  0.08253854  1
  B  B27  1  0.51701743  0.17860692  0.40574698  1
  B  B28  1  0.51965594  0.51688363  0.25354402  1
  B  B29  1  0.96992332  0.66412562  0.58253854  1
  B  B30  1  0.98034406  0.01688363  0.24645598  1
  B  B31  1  0.98298257  0.67860692  0.09425302  1
  O  O32  1  0.08535254  0.89495342  0.76967956  1
  O  O33  1  0.11084909  0.06415938  0.76937340  1
  O  O34  1  0.17449129  0.33094389  0.97172870  1
  O  O35  1  0.09416653  0.42646199  0.43301619  1
  O  O36  1  0.12892410  0.66768635  0.64157497  1
  O  O37  1  0.05395868  0.76505922  0.14753899  1
  O  O38  1  0.07400203  0.59664560  0.11797947  1
  O  O39  1  0.12157458  0.25653022  0.45161055  1
  O  O40  1  0.13761714  0.00746092  0.27740363  1
  O  O41  1  0.37107590  0.16768635  0.85842503  1
  O  O42  1  0.32550871  0.83094389  0.52827130  1
  O  O43  1  0.38915091  0.56415938  0.73062660  1
  O  O44  1  0.41464746  0.39495342  0.73032044  1
  O  O45  1  0.36238286  0.50746092  0.22259637  1
  O  O46  1  0.37842542  0.75653022  0.04838945  1
  O  O47  1  0.42599797  0.09664560  0.38202053  1
  O  O48  1  0.44604132  0.26505922  0.35246101  1
  O  O49  1  0.40583347  0.92646199  0.06698381  1
  O  O50  1  0.59416653  0.07353801  0.93301619  1
  O  O51  1  0.55395868  0.73494078  0.64753899  1
  O  O52  1  0.57400203  0.90335440  0.61797947  1
  O  O53  1  0.62157458  0.24346978  0.95161055  1
  O  O54  1  0.63761714  0.49253908  0.77740363  1
  O  O55  1  0.58535254  0.60504658  0.26967956  1
  O  O56  1  0.61084909  0.43584062  0.26937340  1
  O  O57  1  0.67449129  0.16905611  0.47172870  1
  O  O58  1  0.62892410  0.83231365  0.14157497  1
  O  O59  1  0.86238286  0.99253908  0.72259637  1
  O  O60  1  0.87842542  0.74346978  0.54838945  1
  O  O61  1  0.92599797  0.40335440  0.88202053  1
  O  O62  1  0.94604132  0.23494078  0.85246101  1
  O  O63  1  0.87107590  0.33231365  0.35842503  1
  O  O64  1  0.90583347  0.57353801  0.56698381  1
  O  O65  1  0.82550871  0.66905611  0.02827130  1
  O  O66  1  0.88915091  0.93584062  0.23062660  1
  O  O67  1  0.91464746  0.10504658  0.23032044  1
