# generated using pymatgen
data_Na3TlPCO7
_symmetry_space_group_name_H-M   'P 1'
_cell_length_a   9.46301925
_cell_length_b   7.21440605
_cell_length_c   5.33310445
_cell_angle_alpha   90.00000000
_cell_angle_beta   90.30824005
_cell_angle_gamma   90.00000000
_symmetry_Int_Tables_number   1
_chemical_formula_structural   Na3TlPCO7
_chemical_formula_sum   'Na6 Tl2 P2 C2 O14'
_cell_volume   364.08610959
_cell_formula_units_Z   2
loop_
 _symmetry_equiv_pos_site_id
 _symmetry_equiv_pos_as_xyz
  1  'x, y, z'
loop_
 _atom_site_type_symbol
 _atom_site_label
 _atom_site_symmetry_multiplicity
 _atom_site_fract_x
 _atom_site_fract_y
 _atom_site_fract_z
 _atom_site_occupancy
  Na  Na0  1  0.08265737  0.25000000  0.75920873  1
  Na  Na1  1  0.25485424  0.00230968  0.24061639  1
  Na  Na2  1  0.25485424  0.49769032  0.24061639  1
  Na  Na3  1  0.74514576  0.50230968  0.75938361  1
  Na  Na4  1  0.74514576  0.99769032  0.75938361  1
  Na  Na5  1  0.91734263  0.75000000  0.24079127  1
  Tl  Tl6  1  0.37074510  0.75000000  0.76057629  1
  Tl  Tl7  1  0.62925490  0.25000000  0.23942371  1
  P  P8  1  0.40144772  0.25000000  0.70334329  1
  P  P9  1  0.59855228  0.75000000  0.29665671  1
  C  C10  1  0.05089133  0.75000000  0.73515933  1
  C  C11  1  0.94910867  0.25000000  0.26484067  1
  O  O12  1  0.08618024  0.25000000  0.28364705  1
  O  O13  1  0.11111446  0.75000000  0.95599817  1
  O  O14  1  0.12679159  0.75000000  0.53001715  1
  O  O15  1  0.31855693  0.07977134  0.81097271  1
  O  O16  1  0.31855693  0.42022866  0.81097271  1
  O  O17  1  0.39013470  0.25000000  0.41207349  1
  O  O18  1  0.43850387  0.75000000  0.22392482  1
  O  O19  1  0.56149613  0.25000000  0.77607518  1
  O  O20  1  0.60986530  0.75000000  0.58792651  1
  O  O21  1  0.68144307  0.57977134  0.18902729  1
  O  O22  1  0.68144307  0.92022866  0.18902729  1
  O  O23  1  0.87320841  0.25000000  0.46998285  1
  O  O24  1  0.88888554  0.25000000  0.04400183  1
  O  O25  1  0.91381976  0.75000000  0.71635295  1
