# generated using pymatgen
data_BaYF5
_symmetry_space_group_name_H-M   'P 1'
_cell_length_a   7.54742042
_cell_length_b   8.76350852
_cell_length_c   11.01930725
_cell_angle_alpha   77.93553210
_cell_angle_beta   75.49964178
_cell_angle_gamma   68.94619753
_symmetry_Int_Tables_number   1
_chemical_formula_structural   BaYF5
_chemical_formula_sum   'Ba6 Y6 F30'
_cell_volume   652.77393298
_cell_formula_units_Z   6
loop_
 _symmetry_equiv_pos_site_id
 _symmetry_equiv_pos_as_xyz
  1  'x, y, z'
loop_
 _atom_site_type_symbol
 _atom_site_label
 _atom_site_symmetry_multiplicity
 _atom_site_fract_x
 _atom_site_fract_y
 _atom_site_fract_z
 _atom_site_occupancy
  Ba  Ba0  1  0.22488314  0.20216258  0.56008128  1
  Ba  Ba1  1  0.29118252  0.49526451  0.22281926  1
  Ba  Ba2  1  0.74030150  0.13846672  0.07009906  1
  Ba  Ba3  1  0.25969850  0.86153328  0.92990094  1
  Ba  Ba4  1  0.70881748  0.50473549  0.77718074  1
  Ba  Ba5  1  0.77511686  0.79783742  0.43991872  1
  Y  Y6  1  0.22839242  0.34550877  0.91610410  1
  Y  Y7  1  0.25727937  0.66449067  0.57297194  1
  Y  Y8  1  0.28355368  0.97869209  0.25886837  1
  Y  Y9  1  0.71644632  0.02130791  0.74113163  1
  Y  Y10  1  0.74272063  0.33550933  0.42702806  1
  Y  Y11  1  0.77160758  0.65449123  0.08389590  1
  F  F12  1  0.01117571  0.11553874  0.38647476  1
  F  F13  1  0.03508151  0.41634250  0.10955295  1
  F  F14  1  0.35852401  0.14171215  0.06865513  1
  F  F15  1  0.35188999  0.18001128  0.31078591  1
  F  F16  1  0.00212704  0.26102384  0.88442104  1
  F  F17  1  0.01075830  0.56134891  0.59993946  1
  F  F18  1  0.06886813  0.01453463  0.14224630  1
  F  F19  1  0.16427661  0.75739109  0.37092893  1
  F  F20  1  0.37486378  0.10896692  0.78563773  1
  F  F21  1  0.39553078  0.43785004  0.45644599  1
  F  F22  1  0.41813953  0.75898126  0.13890122  1
  F  F23  1  0.31997616  0.43490513  0.71407259  1
  F  F24  1  0.65865187  0.47462107  0.03913973  1
  F  F25  1  0.67665615  0.25695661  0.27492212  1
  F  F26  1  0.62557515  0.11670915  0.54021982  1
  F  F27  1  0.37442485  0.88329085  0.45978018  1
  F  F28  1  0.32334385  0.74304339  0.72507788  1
  F  F29  1  0.34134813  0.52537893  0.96086027  1
  F  F30  1  0.68002384  0.56509487  0.28592741  1
  F  F31  1  0.58186047  0.24101874  0.86109878  1
  F  F32  1  0.60446922  0.56214996  0.54355401  1
  F  F33  1  0.62513622  0.89103308  0.21436227  1
  F  F34  1  0.83572339  0.24260891  0.62907107  1
  F  F35  1  0.93113187  0.98546537  0.85775370  1
  F  F36  1  0.98924170  0.43865109  0.40006054  1
  F  F37  1  0.99787296  0.73897616  0.11557896  1
  F  F38  1  0.64811001  0.81998872  0.68921409  1
  F  F39  1  0.64147599  0.85828785  0.93134487  1
  F  F40  1  0.96491849  0.58365750  0.89044705  1
  F  F41  1  0.98882429  0.88446126  0.61352524  1
