# generated using pymatgen
data_LiLa4CoO8
_symmetry_space_group_name_H-M   'P 1'
_cell_length_a   5.34207099
_cell_length_b   13.49705347
_cell_length_c   5.34207099
_cell_angle_alpha   78.58595239
_cell_angle_beta   90.00000000
_cell_angle_gamma   78.58595239
_symmetry_Int_Tables_number   1
_chemical_formula_structural   LiLa4CoO8
_chemical_formula_sum   'Li2 La8 Co2 O16'
_cell_volume   369.78280750
_cell_formula_units_Z   2
loop_
 _symmetry_equiv_pos_site_id
 _symmetry_equiv_pos_as_xyz
  1  'x, y, z'
loop_
 _atom_site_type_symbol
 _atom_site_label
 _atom_site_symmetry_multiplicity
 _atom_site_fract_x
 _atom_site_fract_y
 _atom_site_fract_z
 _atom_site_occupancy
  Li  Li0  1  0.00000000  0.00000000  0.00000000  1
  Li  Li1  1  0.75000000  0.50000000  0.25000000  1
  La  La2  1  0.31841204  0.36317591  0.31841204  1
  La  La3  1  0.18058883  0.63882335  0.18058883  1
  La  La4  1  0.43158796  0.13682409  0.93158796  1
  La  La5  1  0.06841204  0.86317591  0.56841204  1
  La  La6  1  0.56941117  0.86117665  0.06941117  1
  La  La7  1  0.93058883  0.13882335  0.43058883  1
  La  La8  1  0.81941117  0.36117665  0.81941117  1
  La  La9  1  0.68158796  0.63682409  0.68158796  1
  Co  Co10  1  0.50000000  0.00000000  0.50000000  1
  Co  Co11  1  0.25000000  0.50000000  0.75000000  1
  O  O12  1  0.00516969  0.50000000  0.99483031  1
  O  O13  1  0.25516969  0.00000000  0.25516969  1
  O  O14  1  0.74483031  0.00000000  0.25516969  1
  O  O15  1  0.09040419  0.81919262  0.09040419  1
  O  O16  1  0.40999114  0.18001872  0.40999114  1
  O  O17  1  0.00516969  0.50000000  0.50516969  1
  O  O18  1  0.25516969  0.00000000  0.74483031  1
  O  O19  1  0.49483031  0.50000000  0.99483031  1
  O  O20  1  0.84040419  0.31919262  0.34040419  1
  O  O21  1  0.74483031  0.00000000  0.74483031  1
  O  O22  1  0.34000886  0.31998128  0.84000886  1
  O  O23  1  0.49483031  0.50000000  0.50516969  1
  O  O24  1  0.65959581  0.68080738  0.15959581  1
  O  O25  1  0.15999114  0.68001872  0.65999114  1
  O  O26  1  0.59000886  0.81998128  0.59000886  1
  O  O27  1  0.90959581  0.18080738  0.90959581  1
