# generated using pymatgen
data_KV4O10
_symmetry_space_group_name_H-M   'P 1'
_cell_length_a   3.70835267
_cell_length_b   6.09556946
_cell_length_c   20.58032214
_cell_angle_alpha   90.00000000
_cell_angle_beta   90.00000000
_cell_angle_gamma   107.70909431
_symmetry_Int_Tables_number   1
_chemical_formula_structural   KV4O10
_chemical_formula_sum   'K2 V8 O20'
_cell_volume   443.16360113
_cell_formula_units_Z   2
loop_
 _symmetry_equiv_pos_site_id
 _symmetry_equiv_pos_as_xyz
  1  'x, y, z'
loop_
 _atom_site_type_symbol
 _atom_site_label
 _atom_site_symmetry_multiplicity
 _atom_site_fract_x
 _atom_site_fract_y
 _atom_site_fract_z
 _atom_site_occupancy
  K  K0  1  0.39578148  0.79156395  0.25000000  1
  K  K1  1  0.60421852  0.20843605  0.75000000  1
  V  V2  1  0.22818938  0.45637877  0.08110369  1
  V  V3  1  0.22818938  0.45637877  0.41889631  1
  V  V4  1  0.06676912  0.13353724  0.57854176  1
  V  V5  1  0.06676912  0.13353724  0.92145824  1
  V  V6  1  0.93323088  0.86646276  0.07854176  1
  V  V7  1  0.93323088  0.86646276  0.42145824  1
  V  V8  1  0.77181062  0.54362123  0.58110369  1
  V  V9  1  0.77181062  0.54362123  0.91889631  1
  O  O10  1  0.08108167  0.16216435  0.04856601  1
  O  O11  1  0.21345516  0.42691033  0.34019687  1
  O  O12  1  0.21345516  0.42691033  0.15980313  1
  O  O13  1  0.08108167  0.16216435  0.45143399  1
  O  O14  1  0.39892905  0.79785811  0.06347342  1
  O  O15  1  0.05077138  0.10154176  0.65788394  1
  O  O16  1  0.24023420  0.48046740  0.56068460  1
  O  O17  1  0.05077138  0.10154176  0.84211606  1
  O  O18  1  0.24023420  0.48046740  0.93931540  1
  O  O19  1  0.39892905  0.79785811  0.43652658  1
  O  O20  1  0.75976580  0.51953260  0.06068460  1
  O  O21  1  0.94922962  0.89845824  0.15788394  1
  O  O22  1  0.75976580  0.51953260  0.43931540  1
  O  O23  1  0.78654484  0.57308967  0.84019687  1
  O  O24  1  0.94922962  0.89845824  0.34211606  1
  O  O25  1  0.78654484  0.57308967  0.65980313  1
  O  O26  1  0.91891833  0.83783565  0.54856601  1
  O  O27  1  0.91891833  0.83783565  0.95143399  1
  O  O28  1  0.60107095  0.20214189  0.56347342  1
  O  O29  1  0.60107095  0.20214189  0.93652658  1
