# generated using pymatgen
data_Li12Fe3NiP4(CO7)4
_symmetry_space_group_name_H-M   'P 1'
_cell_length_a   8.47152783
_cell_length_b   9.99761666
_cell_length_c   6.43878898
_cell_angle_alpha   90.00000000
_cell_angle_beta   90.00000000
_cell_angle_gamma   85.26408887
_symmetry_Int_Tables_number   1
_chemical_formula_structural   Li12Fe3NiP4(CO7)4
_chemical_formula_sum   'Li12 Fe3 Ni1 P4 C4 O28'
_cell_volume   543.47193847
_cell_formula_units_Z   1
loop_
 _symmetry_equiv_pos_site_id
 _symmetry_equiv_pos_as_xyz
  1  'x, y, z'
loop_
 _atom_site_type_symbol
 _atom_site_label
 _atom_site_symmetry_multiplicity
 _atom_site_fract_x
 _atom_site_fract_y
 _atom_site_fract_z
 _atom_site_occupancy
  Li  Li0  1  0.09311433  0.38124175  0.25000000  1
  Li  Li1  1  0.09626232  0.88172912  0.25000000  1
  Li  Li2  1  0.27509725  0.12246086  0.02243182  1
  Li  Li3  1  0.27509725  0.12246086  0.47756818  1
  Li  Li4  1  0.27566372  0.62518768  0.02298473  1
  Li  Li5  1  0.27566372  0.62518768  0.47701527  1
  Li  Li6  1  0.72536322  0.37798155  0.52215675  1
  Li  Li7  1  0.72536322  0.37798155  0.97784325  1
  Li  Li8  1  0.72505834  0.87427965  0.52074352  1
  Li  Li9  1  0.72505834  0.87427965  0.97925648  1
  Li  Li10  1  0.90594694  0.11933770  0.75000000  1
  Li  Li11  1  0.90473406  0.61840359  0.75000000  1
  Fe  Fe12  1  0.33383795  0.39527101  0.75000000  1
  Fe  Fe13  1  0.33622706  0.89147643  0.75000000  1
  Fe  Fe14  1  0.66680871  0.10616385  0.25000000  1
  Ni  Ni15  1  0.66711288  0.60416371  0.25000000  1
  P  P16  1  0.41298971  0.36127987  0.25000000  1
  P  P17  1  0.41335541  0.85851640  0.25000000  1
  P  P18  1  0.58752486  0.14005349  0.75000000  1
  P  P19  1  0.58830854  0.64096074  0.75000000  1
  C  C20  1  0.03451044  0.35000970  0.75000000  1
  C  C21  1  0.03480721  0.85121570  0.75000000  1
  C  C22  1  0.96591339  0.14945598  0.25000000  1
  C  C23  1  0.96143897  0.64866319  0.25000000  1
  O  O24  1  0.07097268  0.47345769  0.75000000  1
  O  O25  1  0.11244583  0.17909103  0.25000000  1
  O  O26  1  0.07098647  0.97433869  0.75000000  1
  O  O27  1  0.14792472  0.25369072  0.75000000  1
  O  O28  1  0.10704174  0.67958315  0.25000000  1
  O  O29  1  0.14859981  0.75491801  0.75000000  1
  O  O30  1  0.30958444  0.41420627  0.06300991  1
  O  O31  1  0.30958444  0.41420627  0.43699009  1
  O  O32  1  0.30959709  0.91093695  0.06300734  1
  O  O33  1  0.30959709  0.91093695  0.43699266  1
  O  O34  1  0.42124345  0.08837081  0.75000000  1
  O  O35  1  0.43135878  0.20501178  0.25000000  1
  O  O36  1  0.42036401  0.59230358  0.75000000  1
  O  O37  1  0.43278237  0.70142163  0.25000000  1
  O  O38  1  0.56980507  0.29675076  0.75000000  1
  O  O39  1  0.58017086  0.41343496  0.25000000  1
  O  O40  1  0.57177180  0.79759800  0.75000000  1
  O  O41  1  0.57888870  0.91114101  0.25000000  1
  O  O42  1  0.69079480  0.08714915  0.93728926  1
  O  O43  1  0.69079480  0.08714915  0.56271074  1
  O  O44  1  0.69101548  0.58728779  0.56200921  1
  O  O45  1  0.69101548  0.58728779  0.93799079  1
  O  O46  1  0.85215375  0.24592519  0.25000000  1
  O  O47  1  0.88773727  0.32075349  0.75000000  1
  O  O48  1  0.84534404  0.74320397  0.25000000  1
  O  O49  1  0.92932706  0.02618090  0.25000000  1
  O  O50  1  0.88825309  0.82098985  0.75000000  1
  O  O51  1  0.92558804  0.52491375  0.25000000  1
