# generated using pymatgen
data_Li5(CoO2)8
_symmetry_space_group_name_H-M   'P 1'
_cell_length_a   9.98373009
_cell_length_b   5.65450648
_cell_length_c   9.76160875
_cell_angle_alpha   89.90569659
_cell_angle_beta   85.46898094
_cell_angle_gamma   81.98940676
_symmetry_Int_Tables_number   1
_chemical_formula_structural   Li5(CoO2)8
_chemical_formula_sum   'Li10 Co16 O32'
_cell_volume   543.96562995
_cell_formula_units_Z   2
loop_
 _symmetry_equiv_pos_site_id
 _symmetry_equiv_pos_as_xyz
  1  'x, y, z'
loop_
 _atom_site_type_symbol
 _atom_site_label
 _atom_site_symmetry_multiplicity
 _atom_site_fract_x
 _atom_site_fract_y
 _atom_site_fract_z
 _atom_site_occupancy
  Li  Li0  1  0.74284622  0.06053139  0.53170011  1
  Li  Li1  1  0.74519302  0.05556251  0.00586260  1
  Li  Li2  1  0.25452134  0.18710771  0.73257016  1
  Li  Li3  1  0.25402976  0.41452960  0.99328342  1
  Li  Li4  1  0.74979850  0.30974157  0.27338455  1
  Li  Li5  1  0.74414108  0.57108699  0.00409364  1
  Li  Li6  1  0.24959897  0.68575784  0.22876447  1
  Li  Li7  1  0.25554120  0.68604107  0.73253827  1
  Li  Li8  1  0.74777619  0.56550768  0.53436825  1
  Li  Li9  1  0.25850238  0.95359964  0.46378616  1
  Co  Co10  1  0.00710674  0.99815377  0.00041494  1
  Co  Co11  1  0.00088411  0.00307779  0.49758980  1
  Co  Co12  1  0.00635059  0.24974892  0.24998324  1
  Co  Co13  1  0.50129341  0.12412674  0.87360217  1
  Co  Co14  1  0.49994569  0.12462196  0.37576345  1
  Co  Co15  1  0.99505806  0.25329715  0.75153872  1
  Co  Co16  1  0.49894791  0.37450848  0.12664194  1
  Co  Co17  1  0.00714665  0.49847202  0.49850550  1
  Co  Co18  1  -0.00051444  0.50179670  0.99908831  1
  Co  Co19  1  0.49754250  0.37539313  0.62423430  1
  Co  Co20  1  0.99267529  0.75190745  0.24940007  1
  Co  Co21  1  0.99206655  0.74986688  0.75149251  1
  Co  Co22  1  0.49972483  0.62484133  0.87417290  1
  Co  Co23  1  0.50295199  0.62402106  0.37599407  1
  Co  Co24  1  0.49717350  0.87536405  0.12656076  1
  Co  Co25  1  0.50105059  0.87434830  0.62465426  1
  O  O26  1  0.89708743  0.03281100  0.34489759  1
  O  O27  1  0.60152999  0.10108819  0.19810950  1
  O  O28  1  0.39645071  0.14284701  0.55088568  1
  O  O29  1  0.10393128  0.21680194  0.41083730  1
  O  O30  1  0.40175578  0.15048252  0.05004281  1
  O  O31  1  0.10309008  0.22817163  0.90850087  1
  O  O32  1  0.59844209  0.09940952  0.69706349  1
  O  O33  1  0.90074421  0.02326849  0.84572490  1
  O  O34  1  0.10272168  0.48293852  0.15605903  1
  O  O35  1  0.60653072  0.34634562  0.45059845  1
  O  O36  1  0.40249623  0.40265480  0.29792305  1
  O  O37  1  0.09994326  0.48052346  0.66558428  1
  O  O38  1  0.89946756  0.27465384  0.58828179  1
  O  O39  1  0.39299814  0.40099041  0.80142266  1
  O  O40  1  0.60259886  0.34989735  0.95367731  1
  O  O41  1  0.89744041  0.27348482  0.09043563  1
  O  O42  1  0.39666762  0.64699562  0.05287952  1
  O  O43  1  0.10154278  0.72173926  0.90419428  1
  O  O44  1  0.10224700  0.73471339  0.40474971  1
  O  O45  1  0.59783765  0.60129014  0.69804259  1
  O  O46  1  0.89637428  0.52732018  0.84266184  1
  O  O47  1  0.60236994  0.59724955  0.19686465  1
  O  O48  1  0.90024863  0.51780377  0.34414765  1
  O  O49  1  0.39758703  0.65787145  0.55042024  1
  O  O50  1  0.09816859  0.97094601  0.15716320  1
  O  O51  1  0.89598496  0.78001518  0.08399109  1
  O  O52  1  0.39896227  0.89486810  0.30048530  1
  O  O53  1  0.10239502  0.97340314  0.65982815  1
  O  O54  1  0.60073272  0.84897366  0.95478461  1
  O  O55  1  0.60417502  0.85041769  0.45450294  1
  O  O56  1  0.89886594  0.77653646  0.58824925  1
  O  O57  1  0.39725751  0.90047158  0.79700301  1
