# generated using pymatgen
data_MgSO3
_symmetry_space_group_name_H-M   'P 1'
_cell_length_a   7.80003449
_cell_length_b   7.80003449
_cell_length_c   7.80003461
_cell_angle_alpha   109.40732699
_cell_angle_beta   109.40732700
_cell_angle_gamma   109.40733651
_symmetry_Int_Tables_number   1
_chemical_formula_structural   MgSO3
_chemical_formula_sum   'Mg6 S6 O18'
_cell_volume   366.17674883
_cell_formula_units_Z   6
loop_
 _symmetry_equiv_pos_site_id
 _symmetry_equiv_pos_as_xyz
  1  'x, y, z'
loop_
 _atom_site_type_symbol
 _atom_site_label
 _atom_site_symmetry_multiplicity
 _atom_site_fract_x
 _atom_site_fract_y
 _atom_site_fract_z
 _atom_site_occupancy
  Mg  Mg0  1  0.13086237  0.81432881  0.31279269  1
  Mg  Mg1  1  0.18567119  0.68720731  0.86913763  1
  Mg  Mg2  1  0.68720731  0.86913763  0.18567119  1
  Mg  Mg3  1  0.31279269  0.13086237  0.81432881  1
  Mg  Mg4  1  0.81432881  0.31279269  0.13086237  1
  Mg  Mg5  1  0.86913763  0.18567119  0.68720731  1
  S  S6  1  0.52559619  0.85257261  0.70776766  1
  S  S7  1  0.29223234  0.47440381  0.14742739  1
  S  S8  1  0.14742739  0.29223234  0.47440381  1
  S  S9  1  0.85257261  0.70776766  0.52559619  1
  S  S10  1  0.70776766  0.52559619  0.85257261  1
  S  S11  1  0.47440381  0.14742739  0.29223234  1
  O  O12  1  0.06342502  0.84092454  0.73601488  1
  O  O13  1  0.26398512  0.93657498  0.15907546  1
  O  O14  1  0.36320447  0.91461340  0.61358519  1
  O  O15  1  0.12479482  0.51887332  0.18750666  1
  O  O16  1  0.48112668  0.81249334  0.87520518  1
  O  O17  1  0.08538660  0.38641481  0.63679553  1
  O  O18  1  0.38641481  0.63679553  0.08538660  1
  O  O19  1  0.15907546  0.26398512  0.93657498  1
  O  O20  1  0.81249334  0.87520518  0.48112668  1
  O  O21  1  0.18750666  0.12479482  0.51887332  1
  O  O22  1  0.84092454  0.73601488  0.06342502  1
  O  O23  1  0.61358519  0.36320447  0.91461340  1
  O  O24  1  0.91461340  0.61358519  0.36320447  1
  O  O25  1  0.51887332  0.18750666  0.12479482  1
  O  O26  1  0.87520518  0.48112668  0.81249334  1
  O  O27  1  0.63679553  0.08538660  0.38641481  1
  O  O28  1  0.73601488  0.06342502  0.84092454  1
  O  O29  1  0.93657498  0.15907546  0.26398512  1
