# generated using pymatgen
data_Li3CrF6
_symmetry_space_group_name_H-M   'P 1'
_cell_length_a   4.85022889
_cell_length_b   4.85152836
_cell_length_c   8.90933874
_cell_angle_alpha   90.00000000
_cell_angle_beta   90.15859939
_cell_angle_gamma   90.00000000
_symmetry_Int_Tables_number   1
_chemical_formula_structural   Li3CrF6
_chemical_formula_sum   'Li6 Cr2 F12'
_cell_volume   209.64505169
_cell_formula_units_Z   2
loop_
 _symmetry_equiv_pos_site_id
 _symmetry_equiv_pos_as_xyz
  1  'x, y, z'
loop_
 _atom_site_type_symbol
 _atom_site_label
 _atom_site_symmetry_multiplicity
 _atom_site_fract_x
 _atom_site_fract_y
 _atom_site_fract_z
 _atom_site_occupancy
  Li  Li0  1  0.99940867  0.00818585  0.65074798  1
  Li  Li1  1  0.00040251  0.49728282  0.24841843  1
  Li  Li2  1  0.49837218  0.50297622  0.84937707  1
  Li  Li3  1  0.50040051  0.00271318  0.74841843  1
  Li  Li4  1  0.49940867  0.49181415  0.15074798  1
  Li  Li5  1  0.99837218  0.99702378  0.34937707  1
  Cr  Cr6  1  0.00041910  0.99828222  0.99989896  1
  Cr  Cr7  1  0.50041910  0.50171778  0.49989896  1
  F  F8  1  0.20356075  0.18257482  0.83785386  1
  F  F9  1  0.18430867  0.19950944  0.16293285  1
  F  F10  1  0.21592105  0.21459236  0.50002871  1
  F  F11  1  0.28507938  0.71172582  0.00041959  1
  F  F12  1  0.31724667  0.70440967  0.66201124  1
  F  F13  1  0.29640702  0.68141134  0.33686231  1
  F  F14  1  0.68430867  0.30049056  0.66293285  1
  F  F15  1  0.70356075  0.31742518  0.33785386  1
  F  F16  1  0.71592105  0.28540764  0.00002871  1
  F  F17  1  0.78507938  0.78827418  0.50041959  1
  F  F18  1  0.79640702  0.81858866  0.83686231  1
  F  F19  1  0.81724667  0.79559033  0.16201124  1
