# generated using pymatgen
data_Tl2V(SO5)2
_symmetry_space_group_name_H-M   'P 1'
_cell_length_a   4.75569112
_cell_length_b   9.34045597
_cell_length_c   11.81258516
_cell_angle_alpha   90.00000000
_cell_angle_beta   90.00000000
_cell_angle_gamma   100.44707574
_symmetry_Int_Tables_number   1
_chemical_formula_structural   Tl2V(SO5)2
_chemical_formula_sum   'Tl4 V2 S4 O20'
_cell_volume   516.02049577
_cell_formula_units_Z   2
loop_
 _symmetry_equiv_pos_site_id
 _symmetry_equiv_pos_as_xyz
  1  'x, y, z'
loop_
 _atom_site_type_symbol
 _atom_site_label
 _atom_site_symmetry_multiplicity
 _atom_site_fract_x
 _atom_site_fract_y
 _atom_site_fract_z
 _atom_site_occupancy
  Tl  Tl0  1  0.08795886  0.60516837  0.08705851  1
  Tl  Tl1  1  0.91204114  0.39483163  0.58705851  1
  Tl  Tl2  1  0.25735401  0.16583383  0.94072287  1
  Tl  Tl3  1  0.74264599  0.83416617  0.44072287  1
  V  V4  1  0.88222681  0.19714971  0.25121894  1
  V  V5  1  0.11777319  0.80285029  0.75121894  1
  S  S6  1  0.48114664  0.42932995  0.32135421  1
  S  S7  1  0.51885336  0.57067005  0.82135421  1
  S  S8  1  0.67233502  0.04613589  0.69480418  1
  S  S9  1  0.32766498  0.95386411  0.19480418  1
  O  O10  1  0.39395824  0.46429357  0.43446178  1
  O  O11  1  0.60604176  0.53570643  0.93446178  1
  O  O12  1  0.05348485  0.12106537  0.37756742  1
  O  O13  1  0.94651515  0.87893463  0.87756742  1
  O  O14  1  0.80936111  0.23945343  0.11855952  1
  O  O15  1  0.19063889  0.76054657  0.61855952  1
  O  O16  1  0.65407609  0.55042288  0.26121785  1
  O  O17  1  0.34592391  0.44957712  0.76121785  1
  O  O18  1  0.66423984  0.30733466  0.33872325  1
  O  O19  1  0.33576016  0.69266534  0.83872325  1
  O  O20  1  0.83863559  0.92428841  0.67591441  1
  O  O21  1  0.16136441  0.07571159  0.17591441  1
  O  O22  1  0.83007356  0.16475011  0.76288536  1
  O  O23  1  0.16992644  0.83524989  0.26288536  1
  O  O24  1  0.58511492  0.09105834  0.58403750  1
  O  O25  1  0.41488508  0.90894166  0.08403750  1
  O  O26  1  0.40699655  0.98046056  0.76504772  1
  O  O27  1  0.59300345  0.01953944  0.26504772  1
  O  O28  1  0.23021581  0.36698357  0.24704647  1
  O  O29  1  0.76978419  0.63301643  0.74704647  1
