# generated using pymatgen
data_Li3MnF6
_symmetry_space_group_name_H-M   'P 1'
_cell_length_a   4.86037468
_cell_length_b   8.47360369
_cell_length_c   8.78908002
_cell_angle_alpha   60.98335872
_cell_angle_beta   90.70749602
_cell_angle_gamma   90.32290602
_symmetry_Int_Tables_number   1
_chemical_formula_structural   Li3MnF6
_chemical_formula_sum   'Li9 Mn3 F18'
_cell_volume   316.51732373
_cell_formula_units_Z   3
loop_
 _symmetry_equiv_pos_site_id
 _symmetry_equiv_pos_as_xyz
  1  'x, y, z'
loop_
 _atom_site_type_symbol
 _atom_site_label
 _atom_site_symmetry_multiplicity
 _atom_site_fract_x
 _atom_site_fract_y
 _atom_site_fract_z
 _atom_site_occupancy
  Li  Li0  1  0.99287078  0.65939590  0.35457599  1
  Li  Li1  1  0.49969467  0.68885578  0.99852268  1
  Li  Li2  1  0.99645077  0.34312082  0.64454857  1
  Li  Li3  1  0.49190573  0.29023890  0.70063405  1
  Li  Li4  1  0.99614843  0.65304916  0.99477248  1
  Li  Li5  1  0.00926048  0.35328627  0.00521194  1
  Li  Li6  1  0.99826909  0.00969767  0.65096274  1
  Li  Li7  1  0.00702250  0.99262245  0.35265406  1
  Li  Li8  1  0.50891315  0.99296199  0.29088911  1
  Mn  Mn9  1  0.49032045  0.66752061  0.66588621  1
  Mn  Mn10  1  0.51011603  0.33238762  0.33343735  1
  Mn  Mn11  1  0.00005355  0.00065482  0.00010353  1
  F  F12  1  0.20942282  0.88634435  0.89956358  1
  F  F13  1  0.71748857  0.77147253  0.77746390  1
  F  F14  1  0.26175975  0.87707835  0.55830274  1
  F  F15  1  0.24975058  0.56595684  0.89590145  1
  F  F16  1  0.74177760  0.79278291  0.43901510  1
  F  F17  1  0.21649979  0.88445363  0.23518195  1
  F  F18  1  0.79154657  0.78419259  0.10169813  1
  F  F19  1  0.71395350  0.45677126  0.76002866  1
  F  F20  1  0.25558242  0.54652971  0.57532327  1
  F  F21  1  0.20637427  0.21861769  0.89004326  1
  F  F22  1  0.28916942  0.54351021  0.22458805  1
  F  F23  1  0.73920262  0.43598944  0.44526179  1
  F  F24  1  0.75360122  0.45937852  0.10608415  1
  F  F25  1  0.25783156  0.22685146  0.56067585  1
  F  F26  1  0.78129645  0.12141808  0.76597901  1
  F  F27  1  0.27968521  0.21163337  0.23933730  1
  F  F28  1  0.74068450  0.12431295  0.42462730  1
  F  F29  1  0.79335453  0.10897114  0.10873981  1
