# generated using pymatgen
data_Na3Ni2P2(CO7)2
_symmetry_space_group_name_H-M   'P 1'
_cell_length_a   10.22053341
_cell_length_b   10.45959638
_cell_length_c   8.32664555
_cell_angle_alpha   108.18935122
_cell_angle_beta   71.84340643
_cell_angle_gamma   60.03858355
_symmetry_Int_Tables_number   1
_chemical_formula_structural   Na3Ni2P2(CO7)2
_chemical_formula_sum   'Na6 Ni4 P4 C4 O28'
_cell_volume   602.98484547
_cell_formula_units_Z   2
loop_
 _symmetry_equiv_pos_site_id
 _symmetry_equiv_pos_as_xyz
  1  'x, y, z'
loop_
 _atom_site_type_symbol
 _atom_site_label
 _atom_site_symmetry_multiplicity
 _atom_site_fract_x
 _atom_site_fract_y
 _atom_site_fract_z
 _atom_site_occupancy
  Na  Na0  1  0.75627378  0.99462640  0.48620475  1
  Na  Na1  1  0.99894206  0.75391515  0.99802376  1
  Na  Na2  1  0.53106416  0.72496179  0.95642257  1
  Na  Na3  1  0.46893584  0.27503821  0.04357743  1
  Na  Na4  1  0.00105794  0.24608485  0.00197624  1
  Na  Na5  1  0.24372622  0.00537360  0.51379525  1
  Ni  Ni6  1  0.84542634  0.80655270  0.74510593  1
  Ni  Ni7  1  0.65605286  0.69048207  0.25378926  1
  Ni  Ni8  1  0.34394714  0.30951793  0.74621074  1
  Ni  Ni9  1  0.15457366  0.19344730  0.25489407  1
  P  P10  1  0.47643500  0.95131781  0.75293453  1
  P  P11  1  0.98154288  0.44378526  0.74875495  1
  P  P12  1  0.01845712  0.55621474  0.25124505  1
  P  P13  1  0.52356500  0.04868219  0.24706547  1
  C  C14  1  0.94143634  0.98275806  0.75525108  1
  C  C15  1  0.55317128  0.52376151  0.25655931  1
  C  C16  1  0.44682872  0.47623849  0.74344069  1
  C  C17  1  0.05856366  0.01724194  0.24474892  1
  O  O18  1  0.00965859  0.92836185  0.24123925  1
  O  O19  1  0.70471496  0.96920703  0.06073386  1
  O  O20  1  0.97965791  0.59102831  0.74780711  1
  O  O21  1  0.85589895  0.68161097  0.24172175  1
  O  O22  1  0.64016295  0.82385303  0.75706313  1
  O  O23  1  0.51973649  0.90119328  0.24138278  1
  O  O24  1  0.48272992  0.85280480  0.56540898  1
  O  O25  1  0.80084646  0.52194849  0.93625925  1
  O  O26  1  0.99954640  0.32481743  0.56246437  1
  O  O27  1  0.20304780  0.97248859  0.24384564  1
  O  O28  1  0.69456381  0.48169993  0.26001527  1
  O  O29  1  0.46655889  0.66755173  0.25860723  1
  O  O30  1  0.97154225  0.16150965  0.25060622  1
  O  O31  1  0.49293687  0.56647135  0.75077727  1
  O  O32  1  0.50706313  0.43352865  0.24922273  1
  O  O33  1  0.02845775  0.83849035  0.74939378  1
  O  O34  1  0.53344111  0.33244827  0.74139277  1
  O  O35  1  0.30543619  0.51830007  0.73998473  1
  O  O36  1  0.79695220  0.02751141  0.75615436  1
  O  O37  1  0.00045360  0.67518257  0.43753563  1
  O  O38  1  0.19915354  0.47805151  0.06374075  1
  O  O39  1  0.51727008  0.14719520  0.43459102  1
  O  O40  1  0.48026351  0.09880672  0.75861722  1
  O  O41  1  0.35983705  0.17614697  0.24293687  1
  O  O42  1  0.14410105  0.31838903  0.75827825  1
  O  O43  1  0.02034209  0.40897169  0.25219289  1
  O  O44  1  0.29528504  0.03079297  0.93926614  1
  O  O45  1  0.99034141  0.07163815  0.75876075  1
