# generated using pymatgen
data_Li3Cr(CuO2)4
_symmetry_space_group_name_H-M   'P 1'
_cell_length_a   6.32158336
_cell_length_b   6.32158314
_cell_length_c   6.15493499
_cell_angle_alpha   79.31171260
_cell_angle_beta   53.35044626
_cell_angle_gamma   53.17353731
_symmetry_Int_Tables_number   1
_chemical_formula_structural   Li3Cr(CuO2)4
_chemical_formula_sum   'Li3 Cr1 Cu4 O8'
_cell_volume   152.16795233
_cell_formula_units_Z   1
loop_
 _symmetry_equiv_pos_site_id
 _symmetry_equiv_pos_as_xyz
  1  'x, y, z'
loop_
 _atom_site_type_symbol
 _atom_site_label
 _atom_site_symmetry_multiplicity
 _atom_site_fract_x
 _atom_site_fract_y
 _atom_site_fract_z
 _atom_site_occupancy
  Li  Li0  1  0.00000000  0.00000000  0.50000000  1
  Li  Li1  1  0.50000000  0.00000000  0.50000000  1
  Li  Li2  1  0.50000000  0.50000000  0.50000000  1
  Cr  Cr3  1  0.50000000  0.50000000  0.00000000  1
  Cu  Cu4  1  0.00000000  0.50000000  0.50000000  1
  Cu  Cu5  1  0.00000000  0.00000000  0.00000000  1
  Cu  Cu6  1  0.50000000  0.00000000  0.00000000  1
  Cu  Cu7  1  0.00000000  0.50000000  0.00000000  1
  O  O8  1  0.46506976  0.28837366  0.82330290  1
  O  O9  1  0.99875083  0.23189088  0.70516497  1
  O  O10  1  0.52672490  0.70391581  0.70516497  1
  O  O11  1  0.96119355  0.79942293  0.83822938  1
  O  O12  1  0.03880645  0.20057707  0.16177062  1
  O  O13  1  0.47327510  0.29608419  0.29483403  1
  O  O14  1  0.00124917  0.76810912  0.29483403  1
  O  O15  1  0.53493024  0.71162634  0.17669710  1
