# generated using pymatgen
data_Li2Ni3SnO8
_symmetry_space_group_name_H-M   'P 1'
_cell_length_a   5.84613826
_cell_length_b   5.84117119
_cell_length_c   9.53811292
_cell_angle_alpha   89.68523029
_cell_angle_beta   90.15725536
_cell_angle_gamma   119.97189874
_symmetry_Int_Tables_number   1
_chemical_formula_structural   Li2Ni3SnO8
_chemical_formula_sum   'Li4 Ni6 Sn2 O16'
_cell_volume   282.14896562
_cell_formula_units_Z   2
loop_
 _symmetry_equiv_pos_site_id
 _symmetry_equiv_pos_as_xyz
  1  'x, y, z'
loop_
 _atom_site_type_symbol
 _atom_site_label
 _atom_site_symmetry_multiplicity
 _atom_site_fract_x
 _atom_site_fract_y
 _atom_site_fract_z
 _atom_site_occupancy
  Li  Li0  1  0.33341314  0.66635191  0.89102879  1
  Li  Li1  1  0.99989344  0.00050564  0.99518891  1
  Li  Li2  1  0.00010656  0.00061220  0.49518891  1
  Li  Li3  1  0.66658686  0.33293877  0.39102879  1
  Ni  Ni4  1  0.16971924  0.83029594  0.21504886  1
  Ni  Ni5  1  0.16991353  0.33976432  0.21485070  1
  Ni  Ni6  1  0.66055510  0.83026496  0.21487148  1
  Ni  Ni7  1  0.33944490  0.16970986  0.71487148  1
  Ni  Ni8  1  0.83028076  0.66057670  0.71504886  1
  Ni  Ni9  1  0.83008647  0.16985079  0.71485070  1
  Sn  Sn10  1  0.33361201  0.66735586  0.49308665  1
  Sn  Sn11  1  0.66638799  0.33374384  0.99308665  1
  O  O12  1  0.15854807  0.84149710  0.60140576  1
  O  O13  1  0.03365415  0.51598941  0.33523105  1
  O  O14  1  0.33385922  0.66752967  0.11165094  1
  O  O15  1  0.99951228  0.99951881  0.30517465  1
  O  O16  1  0.00048772  0.00000553  0.80517465  1
  O  O17  1  0.15813179  0.31646597  0.60230212  1
  O  O18  1  0.48379196  0.96649860  0.33623792  1
  O  O19  1  0.48316746  0.51668539  0.33539903  1
  O  O20  1  0.31613798  0.15838162  0.10244414  1
  O  O21  1  0.68386202  0.84224363  0.60244414  1
  O  O22  1  0.51620804  0.48270565  0.83623792  1
  O  O23  1  0.51683254  0.03351793  0.83539903  1
  O  O24  1  0.66614078  0.33367045  0.61165094  1
  O  O25  1  0.84145193  0.68294803  0.10140576  1
  O  O26  1  0.96634585  0.48233526  0.83523105  1
  O  O27  1  0.84186821  0.15833418  0.10230212  1
