# generated using pymatgen
data_NaFePCO7
_symmetry_space_group_name_H-M   'P 1'
_cell_length_a   9.21206266
_cell_length_b   6.44809495
_cell_length_c   5.28184382
_cell_angle_alpha   90.00000000
_cell_angle_beta   87.84038046
_cell_angle_gamma   90.00000000
_symmetry_Int_Tables_number   1
_chemical_formula_structural   NaFePCO7
_chemical_formula_sum   'Na2 Fe2 P2 C2 O14'
_cell_volume   313.52002362
_cell_formula_units_Z   2
loop_
 _symmetry_equiv_pos_site_id
 _symmetry_equiv_pos_as_xyz
  1  'x, y, z'
loop_
 _atom_site_type_symbol
 _atom_site_label
 _atom_site_symmetry_multiplicity
 _atom_site_fract_x
 _atom_site_fract_y
 _atom_site_fract_z
 _atom_site_occupancy
  Na  Na0  1  0.24037703  0.47323790  0.23632813  1
  Na  Na1  1  0.75962297  0.97323790  0.76367187  1
  Fe  Fe2  1  0.35588381  0.76557803  0.78915156  1
  Fe  Fe3  1  0.64411619  0.26557803  0.21084844  1
  P  P4  1  0.42957627  0.25662304  0.72319582  1
  P  P5  1  0.57042373  0.75662304  0.27680418  1
  C  C6  1  0.08217735  0.74403153  0.72551028  1
  C  C7  1  0.91782265  0.24403153  0.27448972  1
  O  O8  1  0.05179327  0.24427755  0.30913939  1
  O  O9  1  0.13655047  0.74798651  0.94824615  1
  O  O10  1  0.17905515  0.74159749  0.53960027  1
  O  O11  1  0.33501331  0.06486532  0.78305081  1
  O  O12  1  0.33819645  0.44957735  0.79746990  1
  O  O13  1  0.42716795  0.74559451  0.13137559  1
  O  O14  1  0.47010630  0.26448177  0.43286942  1
  O  O15  1  0.52989370  0.76448177  0.56713058  1
  O  O16  1  0.57283205  0.24559451  0.86862441  1
  O  O17  1  0.66180355  0.94957735  0.20253010  1
  O  O18  1  0.66498669  0.56486532  0.21694919  1
  O  O19  1  0.82094485  0.24159749  0.46039973  1
  O  O20  1  0.86344953  0.24798651  0.05175385  1
  O  O21  1  0.94820673  0.74427755  0.69086061  1
