# generated using pymatgen
data_V2SiO4
_symmetry_space_group_name_H-M   'P 1'
_cell_length_a   5.90727882
_cell_length_b   5.90648185
_cell_length_c   5.86131508
_cell_angle_alpha   60.17625802
_cell_angle_beta   60.18881431
_cell_angle_gamma   60.66772029
_symmetry_Int_Tables_number   1
_chemical_formula_structural   V2SiO4
_chemical_formula_sum   'V4 Si2 O8'
_cell_volume   145.72869001
_cell_formula_units_Z   2
loop_
 _symmetry_equiv_pos_site_id
 _symmetry_equiv_pos_as_xyz
  1  'x, y, z'
loop_
 _atom_site_type_symbol
 _atom_site_label
 _atom_site_symmetry_multiplicity
 _atom_site_fract_x
 _atom_site_fract_y
 _atom_site_fract_z
 _atom_site_occupancy
  V  V0  1  0.49997956  0.00001510  0.50000332  1
  V  V1  1  0.50006094  0.49995444  0.00005112  1
  V  V2  1  0.99995908  0.50002137  0.49998402  1
  V  V3  1  0.49999955  0.49999635  0.49999446  1
  Si  Si4  1  0.12463417  0.12438678  0.12550588  1
  Si  Si5  1  0.87538911  0.87561055  0.87447498  1
  O  O6  1  0.24002612  0.23998427  0.24135603  1
  O  O7  1  0.78107533  0.24011415  0.23895526  1
  O  O8  1  0.24014298  0.78065620  0.23915259  1
  O  O9  1  0.24014900  0.24024351  0.77834652  1
  O  O10  1  0.75984215  0.21934299  0.76085103  1
  O  O11  1  0.75983693  0.75977215  0.22163656  1
  O  O12  1  0.21894454  0.75987456  0.76104260  1
  O  O13  1  0.75996052  0.76002757  0.75864563  1
