# generated using pymatgen
data_Co15O28
_symmetry_space_group_name_H-M   'P 1'
_cell_length_a   8.14510081
_cell_length_b   8.62208700
_cell_length_c   7.62718896
_cell_angle_alpha   105.96886397
_cell_angle_beta   76.75441512
_cell_angle_gamma   75.09303387
_symmetry_Int_Tables_number   1
_chemical_formula_structural   Co15O28
_chemical_formula_sum   'Co15 O28'
_cell_volume   470.99936305
_cell_formula_units_Z   1
loop_
 _symmetry_equiv_pos_site_id
 _symmetry_equiv_pos_as_xyz
  1  'x, y, z'
loop_
 _atom_site_type_symbol
 _atom_site_label
 _atom_site_symmetry_multiplicity
 _atom_site_fract_x
 _atom_site_fract_y
 _atom_site_fract_z
 _atom_site_occupancy
  Co  Co0  1  0.92701893  0.42823391  0.85865580  1
  Co  Co1  1  0.78903015  0.28479907  0.57117868  1
  Co  Co2  1  0.21957258  0.21520342  0.91931289  1
  Co  Co3  1  0.63859682  0.14060654  0.29359935  1
  Co  Co4  1  0.64241228  0.64375152  0.78624054  1
  Co  Co5  1  0.92550507  0.92720952  0.36373798  1
  Co  Co6  1  0.50000000  0.00000000  0.00000000  1
  Co  Co7  1  0.07449493  0.07279048  0.63626202  1
  Co  Co8  1  0.50000000  0.50000000  0.50000000  1
  Co  Co9  1  0.78042742  0.78479658  0.08068711  1
  Co  Co10  1  0.35758772  0.35624848  0.21375946  1
  Co  Co11  1  0.36140318  0.85939346  0.70640065  1
  Co  Co12  1  0.21096985  0.71520093  0.42882132  1
  Co  Co13  1  0.00000000  0.00000000  0.00000000  1
  Co  Co14  1  0.07298107  0.57176609  0.14134420  1
  O  O15  1  0.99151807  0.21123701  0.90499084  1
  O  O16  1  0.84506718  0.08096027  0.61835543  1
  O  O17  1  0.70246345  0.43381280  0.83017338  1
  O  O18  1  0.26339212  0.00662944  0.97181982  1
  O  O19  1  0.86783277  0.63660958  0.81749971  1
  O  O20  1  0.44248292  0.20630965  0.95228585  1
  O  O21  1  0.87292503  0.13047435  0.30011653  1
  O  O22  1  0.98894631  0.71566526  0.40172858  1
  O  O23  1  0.55994881  0.29133690  0.54713970  1
  O  O24  1  0.30341167  0.06645017  0.66310327  1
  O  O25  1  0.72530188  0.49695847  0.52845292  1
  O  O26  1  0.84484899  0.57606200  0.11984772  1
  O  O27  1  0.41714691  0.14564739  0.25808809  1
  O  O28  1  0.41596383  0.65159828  0.75815635  1
  O  O29  1  0.58403517  0.34840172  0.24184365  1
  O  O30  1  0.58285309  0.85435261  0.74191191  1
  O  O31  1  0.15515101  0.42393800  0.88015228  1
  O  O32  1  0.69658833  0.93354983  0.33689673  1
  O  O33  1  0.01105369  0.28433474  0.59827142  1
  O  O34  1  0.27469812  0.50304153  0.47154708  1
  O  O35  1  0.44005119  0.70866310  0.45286030  1
  O  O36  1  0.13216723  0.36339042  0.18250029  1
  O  O37  1  0.12707497  0.86952565  0.69988347  1
  O  O38  1  0.29753655  0.56618720  0.16982662  1
  O  O39  1  0.73660788  0.99337056  0.02818018  1
  O  O40  1  0.55751708  0.79369035  0.04771415  1
  O  O41  1  0.15493282  0.91903973  0.38164457  1
  O  O42  1  0.00848193  0.78876399  0.09500916  1
