# generated using pymatgen
data_LiCoBO3
_symmetry_space_group_name_H-M   'P 1'
_cell_length_a   14.26733633
_cell_length_b   14.26019608
_cell_length_c   3.16536707
_cell_angle_alpha   88.92895254
_cell_angle_beta   90.92010350
_cell_angle_gamma   119.92595298
_symmetry_Int_Tables_number   1
_chemical_formula_structural   LiCoBO3
_chemical_formula_sum   'Li9 Co9 B9 O27'
_cell_volume   558.03016742
_cell_formula_units_Z   9
loop_
 _symmetry_equiv_pos_site_id
 _symmetry_equiv_pos_as_xyz
  1  'x, y, z'
loop_
 _atom_site_type_symbol
 _atom_site_label
 _atom_site_symmetry_multiplicity
 _atom_site_fract_x
 _atom_site_fract_y
 _atom_site_fract_z
 _atom_site_occupancy
  Li  Li0  1  0.09438803  0.87713776  0.51077520  1
  Li  Li1  1  0.11774263  0.56604693  0.48139511  1
  Li  Li2  1  0.44872759  0.88107988  0.56232554  1
  Li  Li3  1  0.12185591  0.21666771  0.50718213  1
  Li  Li4  1  0.43335496  0.55232039  0.45126564  1
  Li  Li5  1  0.45351388  0.25534044  0.50262707  1
  Li  Li6  1  0.78291743  0.90589554  0.49110941  1
  Li  Li7  1  0.80142513  0.54660438  0.48879027  1
  Li  Li8  1  0.74396644  0.19806029  0.50207652  1
  Co  Co9  1  0.25078939  0.81309862  0.05590083  1
  Co  Co10  1  0.18519066  0.43640296  0.99854731  1
  Co  Co11  1  0.22598437  0.10834484  0.01234829  1
  Co  Co12  1  0.56216504  0.75012299  0.95198970  1
  Co  Co13  1  0.57637942  0.47075483  0.97193271  1
  Co  Co14  1  0.52878747  0.10580059  0.02540796  1
  Co  Co15  1  0.88142908  0.77402359  0.98656044  1
  Co  Co16  1  0.89306735  0.42285465  0.98742612  1
  Co  Co17  1  0.89153723  0.11776384  0.00842575  1
  B  B18  1  0.00862344  0.66193869  0.00328551  1
  B  B19  1  0.33308129  0.66696817  0.00023785  1
  B  B20  1  0.33720186  0.34696811  0.99260844  1
  B  B21  1  0.65296149  0.99096225  0.00764949  1
  B  B22  1  0.33162122  0.01512139  0.53104776  1
  B  B23  1  0.68272463  0.66818829  0.46677198  1
  B  B24  1  0.66600884  0.33309054  0.99732575  1
  B  B25  1  0.99965691  0.99965109  0.00485102  1
  B  B26  1  0.98370722  0.31621856  0.50249494  1
  O  O27  1  0.01750454  0.91232791  0.00226075  1
  O  O28  1  0.01672234  0.56918574  0.96625420  1
  O  O29  1  0.09956940  0.76109112  0.09607735  1
  O  O30  1  0.31960414  0.91317704  0.56059947  1
  O  O31  1  0.08557404  0.40615225  0.50076582  1
  O  O32  1  0.22582020  0.58763908  0.01155200  1
  O  O33  1  0.36190133  0.77261931  0.08453680  1
  O  O34  1  0.08679973  0.10474471  0.01704750  1
  O  O35  1  0.55222441  0.98245680  0.05601024  1
  O  O36  1  0.23753278  0.33795210  0.07806038  1
  O  O37  1  0.41125408  0.64078003  0.90549904  1
  O  O38  1  0.66104158  0.90124197  0.89454539  1
  O  O39  1  0.34430878  0.25420370  0.94858969  1
  O  O40  1  0.42973718  0.44822908  0.95773642  1
  O  O41  1  0.24032438  0.02625686  0.51599499  1
  O  O42  1  0.59287057  0.68054908  0.45085347  1
  O  O43  1  0.66831313  0.56427461  0.47013677  1
  O  O44  1  0.43535020  0.10446211  0.51674778  1
  O  O45  1  0.89448722  0.98187150  0.99490734  1
  O  O46  1  0.78492726  0.75940155  0.47974550  1
  O  O47  1  0.56718609  0.32981307  0.00224412  1
  O  O48  1  0.66936521  0.23748824  0.99981084  1
  O  O49  1  0.76128706  0.43186133  0.98960984  1
  O  O50  1  0.90865795  0.65508074  0.95369181  1
  O  O51  1  0.74587712  0.09007921  0.06414415  1
  O  O52  1  0.89420556  0.33051997  0.49626694  1
  O  O53  1  0.97321381  0.21402156  0.50977463  1
