# generated using pymatgen
data_Li2Cr2(SO4)3
_symmetry_space_group_name_H-M   'P 1'
_cell_length_a   8.11811397
_cell_length_b   8.11811397
_cell_length_c   9.27424527
_cell_angle_alpha   65.46000066
_cell_angle_beta   114.53999934
_cell_angle_gamma   115.50345818
_symmetry_Int_Tables_number   1
_chemical_formula_structural   Li2Cr2(SO4)3
_chemical_formula_sum   'Li4 Cr4 S6 O24'
_cell_volume   480.55121961
_cell_formula_units_Z   2
loop_
 _symmetry_equiv_pos_site_id
 _symmetry_equiv_pos_as_xyz
  1  'x, y, z'
loop_
 _atom_site_type_symbol
 _atom_site_label
 _atom_site_symmetry_multiplicity
 _atom_site_fract_x
 _atom_site_fract_y
 _atom_site_fract_z
 _atom_site_occupancy
  Li  Li0  1  0.32730540  0.86326791  0.54988719  1
  Li  Li1  1  0.13673209  0.67269460  0.04988719  1
  Li  Li2  1  0.86326791  0.32730540  0.95011281  1
  Li  Li3  1  0.67269460  0.13673209  0.45011281  1
  Cr  Cr4  1  0.63348234  0.86795253  0.98012514  1
  Cr  Cr5  1  0.13204747  0.36651766  0.48012514  1
  Cr  Cr6  1  0.86795253  0.63348234  0.51987486  1
  Cr  Cr7  1  0.36651766  0.13204747  0.01987486  1
  S  S8  1  0.24485286  0.54532244  0.82417201  1
  S  S9  1  0.45467756  0.75514714  0.32417201  1
  S  S10  1  0.94642041  0.94642041  0.75000000  1
  S  S11  1  0.05357959  0.05357959  0.25000000  1
  S  S12  1  0.54532244  0.24485286  0.67582799  1
  S  S13  1  0.75514714  0.45467756  0.17582799  1
  O  O14  1  0.13454368  0.95769116  0.88484916  1
  O  O15  1  0.04230884  0.86545632  0.38484916  1
  O  O16  1  0.12974913  0.50330493  0.93086766  1
  O  O17  1  0.38943104  0.73961790  0.81492668  1
  O  O18  1  0.12551799  0.55984116  0.64603894  1
  O  O19  1  0.49669507  0.87025087  0.43086766  1
  O  O20  1  0.79532965  0.90988280  0.81628704  1
  O  O21  1  0.33662668  0.40024520  0.87846433  1
  O  O22  1  0.26038210  0.61056896  0.31492668  1
  O  O23  1  0.44015884  0.87448201  0.14603894  1
  O  O24  1  0.09011720  0.20467035  0.31628704  1
  O  O25  1  0.40024520  0.33662668  0.62153567  1
  O  O26  1  0.59975480  0.66337332  0.37846433  1
  O  O27  1  0.90988280  0.79532965  0.68371296  1
  O  O28  1  0.55984116  0.12551799  0.85396106  1
  O  O29  1  0.73961790  0.38943104  0.68507332  1
  O  O30  1  0.66337332  0.59975480  0.12153567  1
  O  O31  1  0.20467035  0.09011720  0.18371296  1
  O  O32  1  0.50330493  0.12974913  0.56913234  1
  O  O33  1  0.87448201  0.44015884  0.35396106  1
  O  O34  1  0.61056896  0.26038210  0.18507332  1
  O  O35  1  0.87025087  0.49669507  0.06913234  1
  O  O36  1  0.95769116  0.13454368  0.61515084  1
  O  O37  1  0.86545632  0.04230884  0.11515084  1
