# generated using pymatgen
data_VWO4
_symmetry_space_group_name_H-M   'P 1'
_cell_length_a   4.57206124
_cell_length_b   4.92036043
_cell_length_c   12.85431508
_cell_angle_alpha   90.00000000
_cell_angle_beta   110.93885059
_cell_angle_gamma   90.00000000
_symmetry_Int_Tables_number   1
_chemical_formula_structural   VWO4
_chemical_formula_sum   'V4 W4 O16'
_cell_volume   270.07679642
_cell_formula_units_Z   4
loop_
 _symmetry_equiv_pos_site_id
 _symmetry_equiv_pos_as_xyz
  1  'x, y, z'
loop_
 _atom_site_type_symbol
 _atom_site_label
 _atom_site_symmetry_multiplicity
 _atom_site_fract_x
 _atom_site_fract_y
 _atom_site_fract_z
 _atom_site_occupancy
  V  V0  1  0.43593888  0.25121054  0.93569655  1
  V  V1  1  0.43593888  0.24878946  0.43569655  1
  V  V2  1  0.56406112  0.75121054  0.56430345  1
  V  V3  1  0.56406112  0.74878946  0.06430345  1
  W  W4  1  0.17566327  0.25333160  0.67539238  1
  W  W5  1  0.17566327  0.24666840  0.17539238  1
  W  W6  1  0.82433673  0.75333160  0.82460762  1
  W  W7  1  0.82433673  0.74666840  0.32460762  1
  O  O8  1  0.07813272  0.07336133  0.80694358  1
  O  O9  1  0.19382214  0.59014080  0.93890788  1
  O  O10  1  0.07813272  0.42663867  0.30694358  1
  O  O11  1  0.53688535  0.43097822  0.80765357  1
  O  O12  1  0.19382214  0.90985920  0.43890788  1
  O  O13  1  0.68327719  0.91079198  0.93870023  1
  O  O14  1  0.31672281  0.41079198  0.56129977  1
  O  O15  1  0.46311465  0.93097822  0.69234643  1
  O  O16  1  0.53688535  0.06902178  0.30765357  1
  O  O17  1  0.68327719  0.58920802  0.43870023  1
  O  O18  1  0.31672281  0.08920802  0.06129977  1
  O  O19  1  0.80617786  0.09014080  0.56109212  1
  O  O20  1  0.46311465  0.56902178  0.19234643  1
  O  O21  1  0.92186728  0.57336133  0.69305642  1
  O  O22  1  0.80617786  0.40985920  0.06109212  1
  O  O23  1  0.92186728  0.92663867  0.19305642  1
