# generated using pymatgen
data_Na2NiCSO7
_symmetry_space_group_name_H-M   'P 1'
_cell_length_a   8.92099107
_cell_length_b   6.66859088
_cell_length_c   5.23095664
_cell_angle_alpha   90.00000000
_cell_angle_beta   88.82689779
_cell_angle_gamma   90.00000000
_symmetry_Int_Tables_number   1
_chemical_formula_structural   Na2NiCSO7
_chemical_formula_sum   'Na4 Ni2 C2 S2 O14'
_cell_volume   311.12668659
_cell_formula_units_Z   2
loop_
 _symmetry_equiv_pos_site_id
 _symmetry_equiv_pos_as_xyz
  1  'x, y, z'
loop_
 _atom_site_type_symbol
 _atom_site_label
 _atom_site_symmetry_multiplicity
 _atom_site_fract_x
 _atom_site_fract_y
 _atom_site_fract_z
 _atom_site_occupancy
  Na  Na0  1  0.22166292  0.99563162  0.23192219  1
  Na  Na1  1  0.22166292  0.50436838  0.23192219  1
  Na  Na2  1  0.77833708  0.49563162  0.76807781  1
  Na  Na3  1  0.77833708  0.00436838  0.76807781  1
  Ni  Ni4  1  0.35085234  0.75000000  0.77385206  1
  Ni  Ni5  1  0.64914766  0.25000000  0.22614794  1
  C  C6  1  0.07691048  0.75000000  0.72777123  1
  C  C7  1  0.92308952  0.25000000  0.27222877  1
  S  S8  1  0.42185146  0.25000000  0.71421863  1
  S  S9  1  0.57814854  0.75000000  0.28578137  1
  O  O10  1  0.06321638  0.25000000  0.29610044  1
  O  O11  1  0.14277601  0.75000000  0.94964793  1
  O  O12  1  0.17208326  0.75000000  0.53161710  1
  O  O13  1  0.33485522  0.07025653  0.79286275  1
  O  O14  1  0.33485522  0.42974347  0.79286275  1
  O  O15  1  0.42813958  0.75000000  0.16301519  1
  O  O16  1  0.44516804  0.25000000  0.42768698  1
  O  O17  1  0.55483196  0.75000000  0.57231302  1
  O  O18  1  0.57186042  0.25000000  0.83698481  1
  O  O19  1  0.66514478  0.57025653  0.20713725  1
  O  O20  1  0.66514478  0.92974347  0.20713725  1
  O  O21  1  0.82791674  0.25000000  0.46838290  1
  O  O22  1  0.85722399  0.25000000  0.05035207  1
  O  O23  1  0.93678362  0.75000000  0.70389956  1
