# generated using pymatgen
data_ScMn2O5
_symmetry_space_group_name_H-M   'P 1'
_cell_length_a   5.27431717
_cell_length_b   5.27431717
_cell_length_c   9.89138975
_cell_angle_alpha   90.00000000
_cell_angle_beta   90.00000000
_cell_angle_gamma   44.46554443
_symmetry_Int_Tables_number   1
_chemical_formula_structural   ScMn2O5
_chemical_formula_sum   'Sc2 Mn4 O10'
_cell_volume   192.74613292
_cell_formula_units_Z   2
loop_
 _symmetry_equiv_pos_site_id
 _symmetry_equiv_pos_as_xyz
  1  'x, y, z'
loop_
 _atom_site_type_symbol
 _atom_site_label
 _atom_site_symmetry_multiplicity
 _atom_site_fract_x
 _atom_site_fract_y
 _atom_site_fract_z
 _atom_site_occupancy
  Sc  Sc0  1  0.20354991  0.20354991  0.25000000  1
  Sc  Sc1  1  0.79645009  0.79645009  0.75000000  1
  Mn  Mn2  1  0.13826131  0.13826131  0.55585755  1
  Mn  Mn3  1  0.13826131  0.13826131  0.94414245  1
  Mn  Mn4  1  0.86173869  0.86173869  0.05585755  1
  Mn  Mn5  1  0.86173869  0.86173869  0.44414245  1
  O  O6  1  0.04783922  0.04783922  0.11508097  1
  O  O7  1  0.04783922  0.04783922  0.38491903  1
  O  O8  1  0.31249353  0.31249353  0.44570476  1
  O  O9  1  0.31249353  0.31249353  0.05429524  1
  O  O10  1  0.78060322  0.78060322  0.25000000  1
  O  O11  1  0.95216078  0.95216078  0.61508097  1
  O  O12  1  0.68750647  0.68750647  0.55429524  1
  O  O13  1  0.21939678  0.21939678  0.75000000  1
  O  O14  1  0.95216078  0.95216078  0.88491903  1
  O  O15  1  0.68750647  0.68750647  0.94570476  1
