# generated using pymatgen
data_Li8Mn3V(PO4)6
_symmetry_space_group_name_H-M   'P 1'
_cell_length_a   9.28255841
_cell_length_b   8.47486394
_cell_length_c   8.41823625
_cell_angle_alpha   60.64087703
_cell_angle_beta   63.84519255
_cell_angle_gamma   91.14458477
_symmetry_Int_Tables_number   1
_chemical_formula_structural   Li8Mn3V(PO4)6
_chemical_formula_sum   'Li8 Mn3 V1 P6 O24'
_cell_volume   493.93661883
_cell_formula_units_Z   1
loop_
 _symmetry_equiv_pos_site_id
 _symmetry_equiv_pos_as_xyz
  1  'x, y, z'
loop_
 _atom_site_type_symbol
 _atom_site_label
 _atom_site_symmetry_multiplicity
 _atom_site_fract_x
 _atom_site_fract_y
 _atom_site_fract_z
 _atom_site_occupancy
  Li  Li0  1  0.86480757  0.26518746  0.80330974  1
  Li  Li1  1  0.90407107  0.94384556  0.36363859  1
  Li  Li2  1  0.85345772  0.66090529  0.07209965  1
  Li  Li3  1  0.59052729  0.79690460  0.67050791  1
  Li  Li4  1  0.40821685  0.20224868  0.33039656  1
  Li  Li5  1  0.14770313  0.33976144  0.92729063  1
  Li  Li6  1  0.09819234  0.05593152  0.63397385  1
  Li  Li7  1  0.13249368  0.73426971  0.19692892  1
  Mn  Mn8  1  0.43765644  0.14818088  0.71564621  1
  Mn  Mn9  1  0.56182424  0.84998689  0.28837643  1
  Mn  Mn10  1  0.03137829  0.35039478  0.31108592  1
  V  V11  1  0.96683479  0.64905649  0.68891794  1
  P  P12  1  0.75448728  0.94852077  0.78546100  1
  P  P13  1  0.75196741  0.55076904  0.50525199  1
  P  P14  1  0.76218113  0.25646762  0.19161618  1
  P  P15  1  0.23787657  0.74558561  0.80859228  1
  P  P16  1  0.24415474  0.45142777  0.49372526  1
  P  P17  1  0.24791666  0.04767273  0.21635710  1
  O  O18  1  0.89540507  0.14845825  0.63991012  1
  O  O19  1  0.82018942  0.50539641  0.65941085  1
  O  O20  1  0.81762358  0.83221448  0.68145956  1
  O  O21  1  0.89646549  0.56536592  0.30328005  1
  O  O22  1  0.90355276  0.21314674  0.25435435  1
  O  O23  1  0.72636460  0.75074482  0.43204317  1
  O  O24  1  0.58907551  0.96678066  0.79274625  1
  O  O25  1  0.59110906  0.39752087  0.61805388  1
  O  O26  1  0.82243996  0.47088530  0.01360984  1
  O  O27  1  0.75601967  0.13252144  0.10793385  1
  O  O28  1  0.59258903  0.20857501  0.38200819  1
  O  O29  1  0.74410215  0.85260452  0.00043676  1
  O  O30  1  0.25391112  0.14525882  0.00294704  1
  O  O31  1  0.40752841  0.79288546  0.61742899  1
  O  O32  1  0.24676401  0.86752609  0.89322640  1
  O  O33  1  0.17779728  0.52900672  0.98561250  1
  O  O34  1  0.40444085  0.60593048  0.37864697  1
  O  O35  1  0.41654166  0.02934902  0.19986288  1
  O  O36  1  0.26716334  0.25126850  0.57543305  1
  O  O37  1  0.09927180  0.78892227  0.74462931  1
  O  O38  1  0.09961639  0.44542881  0.69256422  1
  O  O39  1  0.18932587  0.16050683  0.32319939  1
  O  O40  1  0.17978250  0.49482741  0.33581680  1
  O  O41  1  0.10717524  0.84775834  0.36220941  1
