# generated using pymatgen
data_LiTiFeO4
_symmetry_space_group_name_H-M   'P 1'
_cell_length_a   9.96216182
_cell_length_b   2.99951530
_cell_length_c   10.41519112
_cell_angle_alpha   89.99987085
_cell_angle_beta   89.99790188
_cell_angle_gamma   90.00010858
_symmetry_Int_Tables_number   1
_chemical_formula_structural   LiTiFeO4
_chemical_formula_sum   'Li4 Ti4 Fe4 O16'
_cell_volume   311.22316645
_cell_formula_units_Z   4
loop_
 _symmetry_equiv_pos_site_id
 _symmetry_equiv_pos_as_xyz
  1  'x, y, z'
loop_
 _atom_site_type_symbol
 _atom_site_label
 _atom_site_symmetry_multiplicity
 _atom_site_fract_x
 _atom_site_fract_y
 _atom_site_fract_z
 _atom_site_occupancy
  Li  Li0  1  0.12826074  0.24999998  0.62510834  1
  Li  Li1  1  0.37175422  0.75000021  0.12511146  1
  Li  Li2  1  0.62825234  0.24999987  0.87489157  1
  Li  Li3  1  0.87174025  0.74999924  0.37488390  1
  Ti  Ti4  1  0.22890450  0.74999839  0.35406299  1
  Ti  Ti5  1  0.27109849  0.24999952  0.85405193  1
  Ti  Ti6  1  0.72890703  0.74999959  0.14593674  1
  Ti  Ti7  1  0.77110363  0.25000361  0.64594949  1
  Fe  Fe8  1  0.00633333  0.24999938  0.13124909  1
  Fe  Fe9  1  0.49369118  0.75000435  0.63125639  1
  Fe  Fe10  1  0.50630451  0.25000187  0.36876082  1
  Fe  Fe11  1  0.99368551  0.74999977  0.86874580  1
  O  O12  1  0.10312116  0.24999978  0.95865502  1
  O  O13  1  0.15383617  0.24999931  0.44120838  1
  O  O14  1  0.10321032  0.74999882  0.21547027  1
  O  O15  1  0.15982517  0.75000360  0.75234868  1
  O  O16  1  0.34018205  0.24999961  0.25235141  1
  O  O17  1  0.39679645  0.25000364  0.71546560  1
  O  O18  1  0.34615536  0.75000215  0.94120276  1
  O  O19  1  0.39684374  0.75000171  0.45869124  1
  O  O20  1  0.60312570  0.24999488  0.54133544  1
  O  O21  1  0.65383848  0.25000045  0.05878930  1
  O  O22  1  0.60319736  0.75000072  0.28453629  1
  O  O23  1  0.65982107  0.74999871  0.74765083  1
  O  O24  1  0.84018933  0.24999294  0.24764219  1
  O  O25  1  0.89679926  0.24999871  0.78452912  1
  O  O26  1  0.84615872  0.75000127  0.55879418  1
  O  O27  1  0.89686392  0.74999791  0.04132077  1
