# generated using pymatgen
data_SmI3O10
_symmetry_space_group_name_H-M   'P 1'
_cell_length_a   6.68601483
_cell_length_b   7.46633443
_cell_length_c   10.14485798
_cell_angle_alpha   110.22836119
_cell_angle_beta   90.00000000
_cell_angle_gamma   90.00000000
_symmetry_Int_Tables_number   1
_chemical_formula_structural   SmI3O10
_chemical_formula_sum   'Sm2 I6 O20'
_cell_volume   475.19584965
_cell_formula_units_Z   2
loop_
 _symmetry_equiv_pos_site_id
 _symmetry_equiv_pos_as_xyz
  1  'x, y, z'
loop_
 _atom_site_type_symbol
 _atom_site_label
 _atom_site_symmetry_multiplicity
 _atom_site_fract_x
 _atom_site_fract_y
 _atom_site_fract_z
 _atom_site_occupancy
  Sm  Sm0  1  0.00049476  0.73470210  0.81117233  1
  Sm  Sm1  1  0.50049476  0.26529790  0.18882767  1
  I  I2  1  0.47442598  0.96846085  0.77579127  1
  I  I3  1  0.97442598  0.03153915  0.22420873  1
  I  I4  1  0.02633703  0.33203861  0.96109392  1
  I  I5  1  0.52633703  0.66796139  0.03890608  1
  I  I6  1  0.12859351  0.60613430  0.41830765  1
  I  I7  1  0.62859351  0.39386570  0.58169235  1
  O  O8  1  0.36060354  0.79508666  0.84872232  1
  O  O9  1  0.86060354  0.20491334  0.15127768  1
  O  O10  1  0.71258509  0.84491970  0.72280511  1
  O  O11  1  0.21258509  0.15508030  0.27719489  1
  O  O12  1  0.55202430  0.15166502  0.93935207  1
  O  O13  1  0.05202430  0.84833498  0.06064793  1
  O  O14  1  0.14060959  0.45493905  0.85071052  1
  O  O15  1  0.64060959  0.54506095  0.14928948  1
  O  O16  1  0.09814370  0.08571460  0.86004551  1
  O  O17  1  0.59814370  0.91428540  0.13995449  1
  O  O18  1  0.21782710  0.40222549  0.09943083  1
  O  O19  1  0.71782710  0.59777451  0.90056917  1
  O  O20  1  0.39443717  0.53622317  0.38987109  1
  O  O21  1  0.89443717  0.46377683  0.61012891  1
  O  O22  1  0.14066862  0.79750385  0.33999993  1
  O  O23  1  0.64066862  0.20249615  0.66000007  1
  O  O24  1  0.15809208  0.75314167  0.60367076  1
  O  O25  1  0.65809208  0.24685833  0.39632924  1
  O  O26  1  0.83592753  0.77669996  0.41238865  1
  O  O27  1  0.33592753  0.22330004  0.58761135  1
