# generated using pymatgen
data_Li3FePCO7
_symmetry_space_group_name_H-M   'P 1'
_cell_length_a   4.98070758
_cell_length_b   6.52913640
_cell_length_c   8.71621326
_cell_angle_alpha   99.38080862
_cell_angle_beta   90.15290634
_cell_angle_gamma   90.34446350
_symmetry_Int_Tables_number   1
_chemical_formula_structural   Li3FePCO7
_chemical_formula_sum   'Li6 Fe2 P2 C2 O14'
_cell_volume   279.65122643
_cell_formula_units_Z   2
loop_
 _symmetry_equiv_pos_site_id
 _symmetry_equiv_pos_as_xyz
  1  'x, y, z'
loop_
 _atom_site_type_symbol
 _atom_site_label
 _atom_site_symmetry_multiplicity
 _atom_site_fract_x
 _atom_site_fract_y
 _atom_site_fract_z
 _atom_site_occupancy
  Li  Li0  1  0.08205853  0.45317588  0.11080738  1
  Li  Li1  1  0.68855655  0.09992619  0.27511152  1
  Li  Li2  1  0.70206009  0.54484755  0.33916545  1
  Li  Li3  1  0.10695399  0.70651225  0.73566541  1
  Li  Li4  1  0.11971711  0.15199569  0.79974081  1
  Li  Li5  1  0.72656706  0.79830515  0.96393250  1
  Fe  Fe6  1  0.12370168  0.85453217  0.38768195  1
  Fe  Fe7  1  0.68515601  0.39676164  0.68697226  1
  P  P8  1  0.21304249  0.36100413  0.45344916  1
  P  P9  1  0.59573098  0.89014341  0.62139540  1
  C  C10  1  0.62087504  0.38091414  0.01163263  1
  C  C11  1  0.18784500  0.87053519  0.06309326  1
  O  O12  1  0.99759904  0.80830583  0.15087111  1
  O  O13  1  0.43088541  0.88730902  0.11103175  1
  O  O14  1  0.69713434  0.34524549  0.14778494  1
  O  O15  1  0.08772948  0.15789230  0.36798271  1
  O  O16  1  0.13274885  0.53351444  0.35714006  1
  O  O17  1  0.52513423  0.34608896  0.45807880  1
  O  O18  1  0.69656311  0.83648956  0.45027326  1
  O  O19  1  0.11244631  0.41448609  0.62448801  1
  O  O20  1  0.28357453  0.90492776  0.61652761  1
  O  O21  1  0.72082180  0.09334175  0.70666318  1
  O  O22  1  0.67592904  0.71774670  0.71770440  1
  O  O23  1  0.11156872  0.90624203  0.92722754  1
  O  O24  1  0.37800980  0.36438820  0.96389661  1
  O  O25  1  0.81136679  0.44281346  0.92397529  1
