# generated using pymatgen
data_CdCoO3
_symmetry_space_group_name_H-M   'P 1'
_cell_length_a   6.75818545
_cell_length_b   6.75818545
_cell_length_c   5.09283398
_cell_angle_alpha   93.03975471
_cell_angle_beta   86.96024529
_cell_angle_gamma   96.93809994
_symmetry_Int_Tables_number   1
_chemical_formula_structural   CdCoO3
_chemical_formula_sum   'Cd4 Co4 O12'
_cell_volume   230.32199401
_cell_formula_units_Z   4
loop_
 _symmetry_equiv_pos_site_id
 _symmetry_equiv_pos_as_xyz
  1  'x, y, z'
loop_
 _atom_site_type_symbol
 _atom_site_label
 _atom_site_symmetry_multiplicity
 _atom_site_fract_x
 _atom_site_fract_y
 _atom_site_fract_z
 _atom_site_occupancy
  Cd  Cd0  1  0.18496592  0.59904243  0.77282736  1
  Cd  Cd1  1  0.40095757  0.81503408  0.27282736  1
  Cd  Cd2  1  0.59904243  0.18496592  0.72717264  1
  Cd  Cd3  1  0.81503408  0.40095757  0.22717264  1
  Co  Co4  1  0.75320842  0.75320842  0.75000000  1
  Co  Co5  1  0.08082922  0.08082922  0.75000000  1
  Co  Co6  1  0.24679158  0.24679158  0.25000000  1
  Co  Co7  1  0.91917078  0.91917078  0.25000000  1
  O  O8  1  0.01683474  0.82785162  0.57230039  1
  O  O9  1  0.17214838  0.98316526  0.07230039  1
  O  O10  1  0.49641451  0.75036645  0.86309003  1
  O  O11  1  0.11694210  0.31374370  0.94855797  1
  O  O12  1  0.24963355  0.50358549  0.36309003  1
  O  O13  1  0.68625630  0.88305790  0.44855797  1
  O  O14  1  0.31374370  0.11694210  0.55144203  1
  O  O15  1  0.75036645  0.49641451  0.63690997  1
  O  O16  1  0.88305790  0.68625630  0.05144203  1
  O  O17  1  0.50358549  0.24963355  0.13690997  1
  O  O18  1  0.82785162  0.01683474  0.92769961  1
  O  O19  1  0.98316526  0.17214838  0.42769961  1
