# generated using pymatgen
data_KZnBr3O2
_symmetry_space_group_name_H-M   'P 1'
_cell_length_a   7.07049372
_cell_length_b   9.59091827
_cell_length_c   14.60033098
_cell_angle_alpha   90.00000000
_cell_angle_beta   90.00000000
_cell_angle_gamma   118.30665072
_symmetry_Int_Tables_number   1
_chemical_formula_structural   KZnBr3O2
_chemical_formula_sum   'K4 Zn4 Br12 O8'
_cell_volume   871.69323280
_cell_formula_units_Z   4
loop_
 _symmetry_equiv_pos_site_id
 _symmetry_equiv_pos_as_xyz
  1  'x, y, z'
loop_
 _atom_site_type_symbol
 _atom_site_label
 _atom_site_symmetry_multiplicity
 _atom_site_fract_x
 _atom_site_fract_y
 _atom_site_fract_z
 _atom_site_occupancy
  K  K0  1  0.80546653  0.03415618  0.18644955  1
  K  K1  1  0.69453347  0.46584382  0.68644955  1
  K  K2  1  0.19453347  0.96584382  0.81355045  1
  K  K3  1  0.30546653  0.53415618  0.31355045  1
  Zn  Zn4  1  0.32741385  0.34218072  0.05324332  1
  Zn  Zn5  1  0.17258615  0.15781928  0.55324332  1
  Zn  Zn6  1  0.67258615  0.65781928  0.94675668  1
  Zn  Zn7  1  0.82741385  0.84218072  0.44675668  1
  Br  Br8  1  0.17279990  0.40286358  0.55014566  1
  Br  Br9  1  0.32720010  0.09713642  0.05014566  1
  Br  Br10  1  0.82720010  0.59713642  0.44985434  1
  Br  Br11  1  0.67279990  0.90286358  0.94985434  1
  Br  Br12  1  0.45827106  0.10957200  0.60695940  1
  Br  Br13  1  0.04172894  0.39042800  0.10695940  1
  Br  Br14  1  0.54172894  0.89042800  0.39304060  1
  Br  Br15  1  0.95827106  0.60957200  0.89304060  1
  Br  Br16  1  0.20862959  0.37984697  0.83137069  1
  Br  Br17  1  0.29137041  0.12015303  0.33137069  1
  Br  Br18  1  0.79137041  0.62015303  0.16862931  1
  Br  Br19  1  0.70862959  0.87984697  0.66862931  1
  O  O20  1  0.60144013  0.55100674  0.07545571  1
  O  O21  1  0.89855987  0.94899326  0.57545571  1
  O  O22  1  0.39855987  0.44899326  0.92454429  1
  O  O23  1  0.10144013  0.05100674  0.42454429  1
  O  O24  1  0.22160498  0.23685245  0.26459520  1
  O  O25  1  0.27839502  0.26314755  0.76459520  1
  O  O26  1  0.77839502  0.76314755  0.73540480  1
  O  O27  1  0.72160498  0.73685245  0.23540480  1
