# generated using pymatgen
data_Mn2BeO4
_symmetry_space_group_name_H-M   'P 1'
_cell_length_a   10.12300227
_cell_length_b   5.95877658
_cell_length_c   4.63443549
_cell_angle_alpha   90.00086675
_cell_angle_beta   90.00631339
_cell_angle_gamma   89.99210226
_symmetry_Int_Tables_number   1
_chemical_formula_structural   Mn2BeO4
_chemical_formula_sum   'Mn8 Be4 O16'
_cell_volume   279.55242949
_cell_formula_units_Z   4
loop_
 _symmetry_equiv_pos_site_id
 _symmetry_equiv_pos_as_xyz
  1  'x, y, z'
loop_
 _atom_site_type_symbol
 _atom_site_label
 _atom_site_symmetry_multiplicity
 _atom_site_fract_x
 _atom_site_fract_y
 _atom_site_fract_z
 _atom_site_occupancy
  Mn  Mn0  1  0.00003237  0.99998122  0.00001256  1
  Mn  Mn1  1  0.00002275  0.49997264  0.99999650  1
  Mn  Mn2  1  0.22511755  0.74999958  0.48528497  1
  Mn  Mn3  1  0.27489461  0.25003324  0.98515742  1
  Mn  Mn4  1  0.49996553  0.00001373  0.50000136  1
  Mn  Mn5  1  0.49996681  0.50001300  0.49998076  1
  Mn  Mn6  1  0.72512160  0.74998540  0.01482118  1
  Mn  Mn7  1  0.77484371  0.24999904  0.51465338  1
  Be  Be8  1  0.08777282  0.25003350  0.42280602  1
  Be  Be9  1  0.41222289  0.74997479  0.92280030  1
  Be  Be10  1  0.58779627  0.25003350  0.07717992  1
  Be  Be11  1  0.91221601  0.74996896  0.57721336  1
  O  O12  1  0.06273521  0.74994085  0.74536873  1
  O  O13  1  0.08658157  0.25009399  0.76797416  1
  O  O14  1  0.15366635  0.02812170  0.25732170  1
  O  O15  1  0.15364623  0.47190370  0.25728119  1
  O  O16  1  0.34633572  0.52812648  0.75720128  1
  O  O17  1  0.34632732  0.97186786  0.75725160  1
  O  O18  1  0.41341308  0.74989920  0.26792180  1
  O  O19  1  0.43727976  0.25005433  0.24522919  1
  O  O20  1  0.56268069  0.74996054  0.75473808  1
  O  O21  1  0.58653586  0.25012481  0.73205275  1
  O  O22  1  0.65362976  0.02812973  0.24280405  1
  O  O23  1  0.65362445  0.47189965  0.24283727  1
  O  O24  1  0.84639798  0.52804942  0.74273251  1
  O  O25  1  0.84639511  0.97191529  0.74270885  1
  O  O26  1  0.91347841  0.74988329  0.23203732  1
  O  O27  1  0.93729957  0.25002057  0.25463179  1
