# generated using pymatgen
data_Na5Co2P(CO4)4
_symmetry_space_group_name_H-M   'P 1'
_cell_length_a   9.97715921
_cell_length_b   9.85933297
_cell_length_c   9.97715921
_cell_angle_alpha   60.42123313
_cell_angle_beta   89.11310330
_cell_angle_gamma   119.57876687
_symmetry_Int_Tables_number   1
_chemical_formula_structural   Na5Co2P(CO4)4
_chemical_formula_sum   'Na10 Co4 P2 C8 O32'
_cell_volume   697.36895419
_cell_formula_units_Z   2
loop_
 _symmetry_equiv_pos_site_id
 _symmetry_equiv_pos_as_xyz
  1  'x, y, z'
loop_
 _atom_site_type_symbol
 _atom_site_label
 _atom_site_symmetry_multiplicity
 _atom_site_fract_x
 _atom_site_fract_y
 _atom_site_fract_z
 _atom_site_occupancy
  Na  Na0  1  0.90876220  0.23994159  0.34550839  1
  Na  Na1  1  0.65468050  0.32394049  0.09084385  1
  Na  Na2  1  0.65449261  0.73994159  0.09123780  1
  Na  Na3  1  0.90915615  0.82394049  0.34531950  1
  Na  Na4  1  0.91295456  0.25000000  0.91295456  1
  Na  Na5  1  0.08704544  0.75000000  0.08704544  1
  Na  Na6  1  0.09084385  0.17605951  0.65468050  1
  Na  Na7  1  0.34550839  0.26005841  0.90876220  1
  Na  Na8  1  0.34531950  0.67605951  0.90915615  1
  Na  Na9  1  0.09123780  0.76005841  0.65449261  1
  Co  Co10  1  0.50000000  0.00000000  0.00000000  1
  Co  Co11  1  0.50000000  0.00000000  0.50000000  1
  Co  Co12  1  0.50000000  0.50000000  0.50000000  1
  Co  Co13  1  0.00000000  0.50000000  0.50000000  1
  P  P14  1  0.12426362  0.25000000  0.12426362  1
  P  P15  1  0.87573638  0.75000000  0.87573638  1
  C  C16  1  0.71470727  0.07058610  0.71407168  1
  C  C17  1  0.71755209  0.43345179  0.35388395  1
  C  C18  1  0.35388395  0.06654821  0.71755209  1
  C  C19  1  0.71407168  0.42941390  0.71470727  1
  C  C20  1  0.64611605  0.93345179  0.28244791  1
  C  C21  1  0.28592832  0.57058610  0.28529273  1
  C  C22  1  0.28529273  0.92941390  0.28592832  1
  C  C23  1  0.28244791  0.56654821  0.64611605  1
  O  O24  1  0.65210059  0.04995646  0.13828855  1
  O  O25  1  0.85917952  0.20793037  0.60152877  1
  O  O26  1  0.68970470  0.29117891  0.35039440  1
  O  O27  1  0.40329553  0.03813843  0.31441464  1
  O  O28  1  0.86171145  0.54995646  0.34789941  1
  O  O29  1  0.31498255  0.37844610  0.05621657  1
  O  O30  1  0.05991488  0.11999412  0.06110358  1
  O  O31  1  0.60596199  0.46529364  0.35307880  1
  O  O32  1  0.68959352  0.03693719  0.85917763  1
  O  O33  1  0.35307880  0.03470636  0.60596199  1
  O  O34  1  0.85917763  0.46306281  0.68959352  1
  O  O35  1  0.06110358  0.38000588  0.05991488  1
  O  O36  1  0.05621657  0.12155390  0.31498255  1
  O  O37  1  0.64960560  0.79117891  0.31029530  1
  O  O38  1  0.39847123  0.70793037  0.14082048  1
  O  O39  1  0.68558536  0.53813843  0.59670447  1
  O  O40  1  0.31441464  0.46186157  0.40329553  1
  O  O41  1  0.35039440  0.20882109  0.68970470  1
  O  O42  1  0.60152877  0.29206963  0.85917952  1
  O  O43  1  0.93889642  0.61999412  0.94008512  1
  O  O44  1  0.94378343  0.87844610  0.68501745  1
  O  O45  1  0.14082237  0.53693719  0.31040648  1
  O  O46  1  0.64692120  0.96529364  0.39403801  1
  O  O47  1  0.31040648  0.96306281  0.14082237  1
  O  O48  1  0.39403801  0.53470636  0.64692120  1
  O  O49  1  0.94008512  0.88000588  0.93889642  1
  O  O50  1  0.68501745  0.62155390  0.94378343  1
  O  O51  1  0.13828855  0.45004354  0.65210059  1
  O  O52  1  0.59670447  0.96186157  0.68558536  1
  O  O53  1  0.31029530  0.70882109  0.64960560  1
  O  O54  1  0.14082048  0.79206963  0.39847123  1
  O  O55  1  0.34789941  0.95004354  0.86171145  1
