# generated using pymatgen
data_Na3CuPCO7
_symmetry_space_group_name_H-M   'P 1'
_cell_length_a   9.13290222
_cell_length_b   5.43932271
_cell_length_c   6.35911824
_cell_angle_alpha   90.00000000
_cell_angle_beta   90.00000000
_cell_angle_gamma   92.12800008
_symmetry_Int_Tables_number   1
_chemical_formula_structural   Na3CuPCO7
_chemical_formula_sum   'Na6 Cu2 P2 C2 O14'
_cell_volume   315.68280484
_cell_formula_units_Z   2
loop_
 _symmetry_equiv_pos_site_id
 _symmetry_equiv_pos_as_xyz
  1  'x, y, z'
loop_
 _atom_site_type_symbol
 _atom_site_label
 _atom_site_symmetry_multiplicity
 _atom_site_fract_x
 _atom_site_fract_y
 _atom_site_fract_z
 _atom_site_occupancy
  Na  Na0  1  0.00549837  0.00219951  0.49174077  1
  Na  Na1  1  0.16823164  0.43910762  0.18487067  1
  Na  Na2  1  0.49037230  0.50293387  0.48631514  1
  Na  Na3  1  0.50962770  0.49706613  0.98631514  1
  Na  Na4  1  0.83176836  0.56089238  0.68487067  1
  Na  Na5  1  0.99450163  0.99780049  0.99174077  1
  Cu  Cu6  1  0.29182252  0.95039711  0.74723799  1
  Cu  Cu7  1  0.70817748  0.04960289  0.24723799  1
  P  P8  1  0.34921991  0.96037953  0.24202083  1
  P  P9  1  0.65078009  0.03962047  0.74202083  1
  C  C10  1  0.14202790  0.50305521  0.73737865  1
  C  C11  1  0.85797210  0.49694479  0.23737865  1
  O  O12  1  0.04046914  0.33137384  0.74261552  1
  O  O13  1  0.09808957  0.73498747  0.74973944  1
  O  O14  1  0.25612414  0.05464679  0.05137747  1
  O  O15  1  0.25630206  0.02206695  0.44055787  1
  O  O16  1  0.27871022  0.46513626  0.72669138  1
  O  O17  1  0.37097491  0.68390484  0.22312035  1
  O  O18  1  0.49656969  0.11359401  0.25093193  1
  O  O19  1  0.50343031  0.88640599  0.75093193  1
  O  O20  1  0.62902509  0.31609516  0.72312035  1
  O  O21  1  0.72128978  0.53486374  0.22669138  1
  O  O22  1  0.74369794  0.97793305  0.94055787  1
  O  O23  1  0.74387586  0.94535321  0.55137747  1
  O  O24  1  0.90191043  0.26501253  0.24973944  1
  O  O25  1  0.95953086  0.66862616  0.24261552  1
