# generated using pymatgen
data_LiV3O8
_symmetry_space_group_name_H-M   'P 1'
_cell_length_a   6.83572559
_cell_length_b   3.64520321
_cell_length_c   12.25958002
_cell_angle_alpha   90.00000000
_cell_angle_beta   108.31342391
_cell_angle_gamma   90.00000000
_symmetry_Int_Tables_number   1
_chemical_formula_structural   LiV3O8
_chemical_formula_sum   'Li2 V6 O16'
_cell_volume   290.00746310
_cell_formula_units_Z   2
loop_
 _symmetry_equiv_pos_site_id
 _symmetry_equiv_pos_as_xyz
  1  'x, y, z'
loop_
 _atom_site_type_symbol
 _atom_site_label
 _atom_site_symmetry_multiplicity
 _atom_site_fract_x
 _atom_site_fract_y
 _atom_site_fract_z
 _atom_site_occupancy
  Li  Li0  1  0.49995390  0.75000000  0.31969165  1
  Li  Li1  1  0.57955209  0.25000000  0.05071824  1
  V  V2  1  0.06396642  0.25000000  0.79825194  1
  V  V3  1  0.15641504  0.75000000  0.46470363  1
  V  V4  1  0.19761961  0.25000000  0.07743008  1
  V  V5  1  0.79491858  0.75000000  0.91668354  1
  V  V6  1  0.84492066  0.25000000  0.53607547  1
  V  V7  1  0.93882472  0.75000000  0.20044288  1
  O  O8  1  0.01162876  0.75000000  0.82734942  1
  O  O9  1  0.28126924  0.25000000  0.95608631  1
  O  O10  1  0.06520083  0.25000000  0.45960619  1
  O  O11  1  0.22139802  0.25000000  0.72434208  1
  O  O12  1  0.19457289  0.75000000  0.32365028  1
  O  O13  1  0.38316293  0.75000000  0.55639661  1
  O  O14  1  0.12031930  0.75000000  0.07606840  1
  O  O15  1  0.57797536  0.75000000  0.81599683  1
  O  O16  1  0.42317337  0.25000000  0.18226406  1
  O  O17  1  0.87836902  0.25000000  0.93265022  1
  O  O18  1  0.61641517  0.25000000  0.43695050  1
  O  O19  1  0.81320012  0.25000000  0.67365829  1
  O  O20  1  0.77893768  0.75000000  0.27624392  1
  O  O21  1  0.93344757  0.75000000  0.54038370  1
  O  O22  1  0.71540883  0.75000000  0.04853564  1
  O  O23  1  0.98104989  0.25000000  0.17279010  1
