# generated using pymatgen
data_Li4Mn3Cr5O16
_symmetry_space_group_name_H-M   'P 1'
_cell_length_a   5.85221597
_cell_length_b   5.84629672
_cell_length_c   9.45069622
_cell_angle_alpha   90.00691361
_cell_angle_beta   89.54352772
_cell_angle_gamma   119.97298043
_symmetry_Int_Tables_number   1
_chemical_formula_structural   Li4Mn3Cr5O16
_chemical_formula_sum   'Li4 Mn3 Cr5 O16'
_cell_volume   280.08878471
_cell_formula_units_Z   1
loop_
 _symmetry_equiv_pos_site_id
 _symmetry_equiv_pos_as_xyz
  1  'x, y, z'
loop_
 _atom_site_type_symbol
 _atom_site_label
 _atom_site_symmetry_multiplicity
 _atom_site_fract_x
 _atom_site_fract_y
 _atom_site_fract_z
 _atom_site_occupancy
  Li  Li0  1  0.34046664  0.67023457  0.89234448  1
  Li  Li1  1  0.99359263  0.99683950  0.99874946  1
  Li  Li2  1  0.99856096  0.99928697  0.49611392  1
  Li  Li3  1  0.67143199  0.33574629  0.39154610  1
  Mn  Mn4  1  0.65969051  0.82985986  0.21527832  1
  Mn  Mn5  1  0.83122081  0.66195889  0.71443375  1
  Mn  Mn6  1  0.83121910  0.16928321  0.71442642  1
  Cr  Cr7  1  0.16791765  0.83029448  0.21115872  1
  Cr  Cr8  1  0.32648336  0.66325521  0.48660314  1
  Cr  Cr9  1  0.16796992  0.33767083  0.21116069  1
  Cr  Cr10  1  0.33767273  0.16886166  0.71390839  1
  Cr  Cr11  1  0.66338674  0.33168312  0.98613791  1
  O  O12  1  0.15504656  0.83247988  0.60050257  1
  O  O13  1  0.04138644  0.52072488  0.33870186  1
  O  O14  1  0.34527941  0.67262177  0.10390521  1
  O  O15  1  0.99004508  0.99504115  0.31001352  1
  O  O16  1  0.99021040  0.99516412  0.81153005  1
  O  O17  1  0.15508542  0.32262459  0.60052460  1
  O  O18  1  0.48333225  0.96161899  0.33829932  1
  O  O19  1  0.48333776  0.52174180  0.33829698  1
  O  O20  1  0.32865358  0.16427738  0.10321438  1
  O  O21  1  0.67533125  0.83765742  0.60382453  1
  O  O22  1  0.52593688  0.48650159  0.83932986  1
  O  O23  1  0.52588235  0.03944190  0.83929346  1
  O  O24  1  0.67778486  0.33886024  0.60769736  1
  O  O25  1  0.83468285  0.67208074  0.10191881  1
  O  O26  1  0.96374788  0.48192785  0.83703507  1
  O  O27  1  0.83464299  0.16256013  0.10189011  1
