# generated using pymatgen
data_Li4TiMn(WO6)2
_symmetry_space_group_name_H-M   'P 1'
_cell_length_a   5.38764461
_cell_length_b   10.77371816
_cell_length_c   9.48028486
_cell_angle_alpha   28.36551069
_cell_angle_beta   51.43205046
_cell_angle_gamma   56.73101005
_symmetry_Int_Tables_number   1
_chemical_formula_structural   Li4TiMn(WO6)2
_chemical_formula_sum   'Li4 Ti1 Mn1 W2 O12'
_cell_volume   204.40910179
_cell_formula_units_Z   1
loop_
 _symmetry_equiv_pos_site_id
 _symmetry_equiv_pos_as_xyz
  1  'x, y, z'
loop_
 _atom_site_type_symbol
 _atom_site_label
 _atom_site_symmetry_multiplicity
 _atom_site_fract_x
 _atom_site_fract_y
 _atom_site_fract_z
 _atom_site_occupancy
  Li  Li0  1  0.28508140  0.00122694  0.29231114  1
  Li  Li1  1  0.29612609  0.49856238  0.28835806  1
  Li  Li2  1  0.77325900  0.00009644  0.76538672  1
  Li  Li3  1  0.76668697  0.50012432  0.77408927  1
  Ti  Ti4  1  0.01074751  0.00186090  0.00689440  1
  Mn  Mn5  1  0.00153648  0.49895857  0.00299587  1
  W  W6  1  0.49761961  0.00073541  0.50602331  1
  W  W7  1  0.51187008  0.49900092  0.50324176  1
  O  O8  1  0.36041376  0.29875141  0.13494032  1
  O  O9  1  0.23794732  0.11875040  0.62675006  1
  O  O10  1  0.13084269  0.31906698  0.72914602  1
  O  O11  1  0.86193505  0.19689598  0.23902009  1
  O  O12  1  0.36541682  0.80452160  0.13045773  1
  O  O13  1  0.73441126  0.38368705  0.36318973  1
  O  O14  1  0.24328192  0.61690156  0.63052402  1
  O  O15  1  0.62131017  0.18611385  0.86662942  1
  O  O16  1  0.13467779  0.80762460  0.74302317  1
  O  O17  1  0.86648407  0.69037426  0.24330294  1
  O  O18  1  0.73666225  0.88621722  0.36276573  1
  O  O19  1  0.63488976  0.69052920  0.86215121  1
