# generated using pymatgen
data_Li2Ti3VO8
_symmetry_space_group_name_H-M   'P 1'
_cell_length_a   5.94849380
_cell_length_b   5.94753718
_cell_length_c   9.81210977
_cell_angle_alpha   90.04442993
_cell_angle_beta   90.03222758
_cell_angle_gamma   119.99040306
_symmetry_Int_Tables_number   1
_chemical_formula_structural   Li2Ti3VO8
_chemical_formula_sum   'Li4 Ti6 V2 O16'
_cell_volume   300.66218357
_cell_formula_units_Z   2
loop_
 _symmetry_equiv_pos_site_id
 _symmetry_equiv_pos_as_xyz
  1  'x, y, z'
loop_
 _atom_site_type_symbol
 _atom_site_label
 _atom_site_symmetry_multiplicity
 _atom_site_fract_x
 _atom_site_fract_y
 _atom_site_fract_z
 _atom_site_occupancy
  Li  Li0  1  0.33353013  0.66690311  0.89223334  1
  Li  Li1  1  0.99955261  0.99947317  0.99876572  1
  Li  Li2  1  0.99936082  0.99948677  0.49877341  1
  Li  Li3  1  0.66700818  0.33360241  0.39220879  1
  Ti  Ti4  1  0.16851593  0.83218196  0.21526484  1
  Ti  Ti5  1  0.16854624  0.33674477  0.21543561  1
  Ti  Ti6  1  0.66369548  0.83210074  0.21493459  1
  Ti  Ti7  1  0.33639806  0.16831441  0.71513167  1
  Ti  Ti8  1  0.83176356  0.66357242  0.71519451  1
  Ti  Ti9  1  0.83181237  0.16835326  0.71534308  1
  V  V10  1  0.33317904  0.66635966  0.48559273  1
  V  V11  1  0.66630905  0.33315715  0.98556748  1
  O  O12  1  0.15751569  0.84153776  0.60724193  1
  O  O13  1  0.03461316  0.51727384  0.32931000  1
  O  O14  1  0.33298489  0.66636583  0.10607928  1
  O  O15  1  0.00091658  0.00066207  0.31523840  1
  O  O16  1  0.00097832  0.00081965  0.81525368  1
  O  O17  1  0.15759665  0.31591426  0.60733163  1
  O  O18  1  0.48310242  0.96514139  0.32975391  1
  O  O19  1  0.48321648  0.51779452  0.32955435  1
  O  O20  1  0.31575234  0.15753683  0.10730351  1
  O  O21  1  0.68387678  0.84179342  0.60715359  1
  O  O22  1  0.51796792  0.48348084  0.82946639  1
  O  O23  1  0.51767779  0.03466313  0.82936576  1
  O  O24  1  0.66623554  0.33307155  0.60609577  1
  O  O25  1  0.84149618  0.68376193  0.10725455  1
  O  O26  1  0.96509773  0.48290991  0.82985736  1
  O  O27  1  0.84130105  0.15732124  0.10713209  1
