# generated using pymatgen
data_Mn5Co3O16
_symmetry_space_group_name_H-M   'P 1'
_cell_length_a   5.67623899
_cell_length_b   5.69631744
_cell_length_c   8.78202477
_cell_angle_alpha   89.99091636
_cell_angle_beta   90.69883019
_cell_angle_gamma   120.14081877
_symmetry_Int_Tables_number   1
_chemical_formula_structural   Mn5Co3O16
_chemical_formula_sum   'Mn5 Co3 O16'
_cell_volume   245.53844349
_cell_formula_units_Z   1
loop_
 _symmetry_equiv_pos_site_id
 _symmetry_equiv_pos_as_xyz
  1  'x, y, z'
loop_
 _atom_site_type_symbol
 _atom_site_label
 _atom_site_symmetry_multiplicity
 _atom_site_fract_x
 _atom_site_fract_y
 _atom_site_fract_z
 _atom_site_occupancy
  Mn  Mn0  1  0.33360478  0.66710433  0.48451783  1
  Mn  Mn1  1  0.66377674  0.83167615  0.21282638  1
  Mn  Mn2  1  0.66590006  0.33263471  0.98621180  1
  Mn  Mn3  1  0.83167557  0.66487340  0.71190739  1
  Mn  Mn4  1  0.83177933  0.16696684  0.71193001  1
  Co  Co5  1  0.16625453  0.83211661  0.20760101  1
  Co  Co6  1  0.16605093  0.33445781  0.20767240  1
  Co  Co7  1  0.33322530  0.16669798  0.70652357  1
  O  O8  1  0.17049680  0.84071953  0.60326136  1
  O  O9  1  0.04292849  0.52164339  0.33313794  1
  O  O10  1  0.32939613  0.66473126  0.10005461  1
  O  O11  1  0.00614865  0.00325000  0.31728256  1
  O  O12  1  0.00416434  0.00213061  0.81939733  1
  O  O13  1  0.17063435  0.33029754  0.60342517  1
  O  O14  1  0.47480479  0.96028565  0.33925512  1
  O  O15  1  0.47443482  0.51448012  0.33961340  1
  O  O16  1  0.32881262  0.16426132  0.10766007  1
  O  O17  1  0.66965237  0.83493913  0.59812546  1
  O  O18  1  0.51352470  0.47349548  0.83882065  1
  O  O19  1  0.51327691  0.03967145  0.83867305  1
  O  O20  1  0.66567837  0.33282021  0.59930029  1
  O  O21  1  0.84019435  0.66982885  0.10301477  1
  O  O22  1  0.96291003  0.48158327  0.84314367  1
  O  O23  1  0.84067305  0.16953237  0.10236515  1
