# generated using pymatgen
data_Na6Co2P(CO4)4
_symmetry_space_group_name_H-M   'P 1'
_cell_length_a   9.86786875
_cell_length_b   9.86786955
_cell_length_c   9.86786923
_cell_angle_alpha   60.00000043
_cell_angle_beta   59.99999828
_cell_angle_gamma   59.99999937
_symmetry_Int_Tables_number   1
_chemical_formula_structural   Na6Co2P(CO4)4
_chemical_formula_sum   'Na12 Co4 P2 C8 O32'
_cell_volume   679.44631176
_cell_formula_units_Z   2
loop_
 _symmetry_equiv_pos_site_id
 _symmetry_equiv_pos_as_xyz
  1  'x, y, z'
loop_
 _atom_site_type_symbol
 _atom_site_label
 _atom_site_symmetry_multiplicity
 _atom_site_fract_x
 _atom_site_fract_y
 _atom_site_fract_z
 _atom_site_occupancy
  Na  Na0  1  0.08362554  0.66637446  0.08362554  1
  Na  Na1  1  0.08362554  0.08362554  0.66637446  1
  Na  Na2  1  0.08362554  0.66637446  0.66637446  1
  Na  Na3  1  0.66637446  0.08362554  0.08362554  1
  Na  Na4  1  0.33362554  0.91637446  0.33362554  1
  Na  Na5  1  0.33362554  0.33362554  0.91637446  1
  Na  Na6  1  0.66637446  0.66637446  0.08362554  1
  Na  Na7  1  0.66637446  0.08362554  0.66637446  1
  Na  Na8  1  0.91637446  0.33362554  0.33362554  1
  Na  Na9  1  0.33362554  0.91637446  0.91637446  1
  Na  Na10  1  0.91637446  0.33362554  0.91637446  1
  Na  Na11  1  0.91637446  0.91637446  0.33362554  1
  Co  Co12  1  0.00000000  0.50000000  0.50000000  1
  Co  Co13  1  0.50000000  0.00000000  0.50000000  1
  Co  Co14  1  0.50000000  0.50000000  0.00000000  1
  Co  Co15  1  0.50000000  0.50000000  0.50000000  1
  P  P16  1  0.12500000  0.12500000  0.12500000  1
  P  P17  1  0.87500000  0.87500000  0.87500000  1
  C  C18  1  0.28430556  0.28430556  0.28430556  1
  C  C19  1  0.28430556  0.28430556  0.64708332  1
  C  C20  1  0.28430556  0.64708332  0.28430556  1
  C  C21  1  0.64708332  0.28430556  0.28430556  1
  C  C22  1  0.35291668  0.71569444  0.71569444  1
  C  C23  1  0.71569444  0.35291668  0.71569444  1
  C  C24  1  0.71569444  0.71569444  0.35291668  1
  C  C25  1  0.71569444  0.71569444  0.71569444  1
  O  O26  1  0.06045070  0.06045070  0.06045070  1
  O  O27  1  0.06045070  0.06045070  0.31864889  1
  O  O28  1  0.06045070  0.31864889  0.06045070  1
  O  O29  1  0.31864889  0.06045070  0.06045070  1
  O  O30  1  0.14099943  0.40042758  0.30886027  1
  O  O31  1  0.30886027  0.14099943  0.40042758  1
  O  O32  1  0.14099943  0.30886027  0.64971272  1
  O  O33  1  0.40042758  0.30886027  0.14099943  1
  O  O34  1  0.14099943  0.64971272  0.40042758  1
  O  O35  1  0.30886027  0.64971272  0.14099943  1
  O  O36  1  0.40042758  0.14099943  0.64971272  1
  O  O37  1  0.30886027  0.40042758  0.64971272  1
  O  O38  1  0.64971272  0.14099943  0.30886027  1
  O  O39  1  0.40042758  0.64971272  0.30886027  1
  O  O40  1  0.64971272  0.40042758  0.14099943  1
  O  O41  1  0.35028728  0.69113973  0.59957242  1
  O  O42  1  0.64971272  0.30886027  0.40042758  1
  O  O43  1  0.35028728  0.59957242  0.85900057  1
  O  O44  1  0.59957242  0.35028728  0.69113973  1
  O  O45  1  0.35028728  0.85900057  0.69113973  1
  O  O46  1  0.69113973  0.59957242  0.35028728  1
  O  O47  1  0.59957242  0.85900057  0.35028728  1
  O  O48  1  0.69113973  0.35028728  0.85900057  1
  O  O49  1  0.85900057  0.35028728  0.59957242  1
  O  O50  1  0.59957242  0.69113973  0.85900057  1
  O  O51  1  0.85900057  0.69113973  0.35028728  1
  O  O52  1  0.69113973  0.85900057  0.59957242  1
  O  O53  1  0.85900057  0.59957242  0.69113973  1
  O  O54  1  0.68135111  0.93954930  0.93954930  1
  O  O55  1  0.93954930  0.68135111  0.93954930  1
  O  O56  1  0.93954930  0.93954930  0.68135111  1
  O  O57  1  0.93954930  0.93954930  0.93954930  1
