# generated using pymatgen
data_Dy2P4O13
_symmetry_space_group_name_H-M   'P 1'
_cell_length_a   6.88380847
_cell_length_b   6.88380847
_cell_length_c   13.00046531
_cell_angle_alpha   76.07037525
_cell_angle_beta   103.92962475
_cell_angle_gamma   120.91256143
_symmetry_Int_Tables_number   1
_chemical_formula_structural   Dy2P4O13
_chemical_formula_sum   'Dy4 P8 O26'
_cell_volume   507.90475607
_cell_formula_units_Z   2
loop_
 _symmetry_equiv_pos_site_id
 _symmetry_equiv_pos_as_xyz
  1  'x, y, z'
loop_
 _atom_site_type_symbol
 _atom_site_label
 _atom_site_symmetry_multiplicity
 _atom_site_fract_x
 _atom_site_fract_y
 _atom_site_fract_z
 _atom_site_occupancy
  Dy  Dy0  1  0.31044451  0.69400721  0.95002028  1
  Dy  Dy1  1  0.30599279  0.68955549  0.45002028  1
  Dy  Dy2  1  0.69400721  0.31044451  0.54997972  1
  Dy  Dy3  1  0.68955549  0.30599279  0.04997972  1
  P  P4  1  0.23980428  0.77327001  0.65966192  1
  P  P5  1  0.22672999  0.76019572  0.15966192  1
  P  P6  1  0.16014047  0.13709143  0.86603814  1
  P  P7  1  0.13709143  0.16014047  0.63396186  1
  P  P8  1  0.86290857  0.83985953  0.36603814  1
  P  P9  1  0.83985953  0.86290857  0.13396186  1
  P  P10  1  0.77327001  0.23980428  0.84033808  1
  P  P11  1  0.76019572  0.22672999  0.34033808  1
  O  O12  1  0.12318945  0.89792074  0.89708347  1
  O  O13  1  0.10169262  0.90774736  0.65319593  1
  O  O14  1  0.10207926  0.87681055  0.39708347  1
  O  O15  1  0.09225264  0.89830738  0.15319593  1
  O  O16  1  0.30660799  0.70532294  0.77591114  1
  O  O17  1  0.07600097  0.57463403  0.59492307  1
  O  O18  1  0.43734948  0.92548856  0.59329797  1
  O  O19  1  0.32518877  0.31644048  0.93975878  1
  O  O20  1  0.29467706  0.69339201  0.27591114  1
  O  O21  1  0.42536597  0.92399903  0.09492307  1
  O  O22  1  0.07451144  0.56265052  0.09329797  1
  O  O23  1  0.24492980  0.24492980  0.75000000  1
  O  O24  1  0.31644048  0.32518877  0.56024122  1
  O  O25  1  0.68355952  0.67481123  0.43975878  1
  O  O26  1  0.75507020  0.75507020  0.25000000  1
  O  O27  1  0.92548856  0.43734948  0.90670203  1
  O  O28  1  0.57463403  0.07600097  0.90507693  1
  O  O29  1  0.70532294  0.30660799  0.72408886  1
  O  O30  1  0.67481123  0.68355952  0.06024122  1
  O  O31  1  0.56265052  0.07451144  0.40670203  1
  O  O32  1  0.92399903  0.42536597  0.40507693  1
  O  O33  1  0.69339201  0.29467706  0.22408886  1
  O  O34  1  0.90774736  0.10169262  0.84680407  1
  O  O35  1  0.89792074  0.12318945  0.60291653  1
  O  O36  1  0.89830738  0.09225264  0.34680407  1
  O  O37  1  0.87681055  0.10207926  0.10291653  1
