# generated using pymatgen
data_Mn5Cr(PO4)6
_symmetry_space_group_name_H-M   'P 1'
_cell_length_a   8.61114529
_cell_length_b   8.56346237
_cell_length_c   8.56346206
_cell_angle_alpha   60.00000026
_cell_angle_beta   60.18300684
_cell_angle_gamma   60.18299911
_symmetry_Int_Tables_number   1
_chemical_formula_structural   Mn5Cr(PO4)6
_chemical_formula_sum   'Mn5 Cr1 P6 O24'
_cell_volume   447.75502300
_cell_formula_units_Z   1
loop_
 _symmetry_equiv_pos_site_id
 _symmetry_equiv_pos_as_xyz
  1  'x, y, z'
loop_
 _atom_site_type_symbol
 _atom_site_label
 _atom_site_symmetry_multiplicity
 _atom_site_fract_x
 _atom_site_fract_y
 _atom_site_fract_z
 _atom_site_occupancy
  Mn  Mn0  1  0.99894283  0.00035272  0.00035272  1
  Mn  Mn1  1  0.06916794  0.64361069  0.64361069  1
  Mn  Mn2  1  0.50167597  0.49944101  0.49944101  1
  Mn  Mn3  1  0.43076707  0.85641131  0.85641131  1
  Mn  Mn4  1  0.93184501  0.35605166  0.35605166  1
  Cr  Cr5  1  0.57326149  0.14224617  0.14224617  1
  P  P6  1  0.24925882  0.25012434  0.54060561  1
  P  P7  1  0.24925882  0.96001123  0.25012434  1
  P  P8  1  0.24925882  0.54060561  0.96001123  1
  P  P9  1  0.75113790  0.46061269  0.03861828  1
  P  P10  1  0.75113790  0.03861828  0.74963113  1
  P  P11  1  0.75113790  0.74963113  0.46061269  1
  O  O12  1  0.06530859  0.12003712  0.30152962  1
  O  O13  1  0.06530859  0.51312567  0.12003712  1
  O  O14  1  0.06530859  0.30152962  0.51312567  1
  O  O15  1  0.23625567  0.08523423  0.73791512  1
  O  O16  1  0.43101277  0.19686743  0.38210728  1
  O  O17  1  0.26045447  0.42004445  0.55630617  1
  O  O18  1  0.23625567  0.94059498  0.08523423  1
  O  O19  1  0.26045447  0.76319491  0.42004445  1
  O  O20  1  0.56741898  0.62073862  0.01053470  1
  O  O21  1  0.26045447  0.55630617  0.76319491  1
  O  O22  1  0.76453798  0.26513825  0.05562753  1
  O  O23  1  0.56741898  0.01053470  0.80130771  1
  O  O24  1  0.43101277  0.99001252  0.19686743  1
  O  O25  1  0.23625567  0.73791512  0.94059498  1
  O  O26  1  0.73825822  0.44491194  0.23470185  1
  O  O27  1  0.43101277  0.38210728  0.99001252  1
  O  O28  1  0.73825822  0.23470185  0.58212799  1
  O  O29  1  0.76453798  0.05562753  0.91469624  1
  O  O30  1  0.73825822  0.58212799  0.44491194  1
  O  O31  1  0.56741898  0.80130771  0.62073862  1
  O  O32  1  0.76453798  0.91469624  0.26513825  1
  O  O33  1  0.93447017  0.69448730  0.49326364  1
  O  O34  1  0.93447017  0.49326364  0.87777890  1
  O  O35  1  0.93447017  0.87777890  0.69448730  1
