# generated using pymatgen
data_NaCoAsCO7
_symmetry_space_group_name_H-M   'P 1'
_cell_length_a   9.24573375
_cell_length_b   6.23489849
_cell_length_c   5.33174995
_cell_angle_alpha   90.00000000
_cell_angle_beta   86.86502628
_cell_angle_gamma   90.00000000
_symmetry_Int_Tables_number   1
_chemical_formula_structural   NaCoAsCO7
_chemical_formula_sum   'Na2 Co2 As2 C2 O14'
_cell_volume   306.89521988
_cell_formula_units_Z   2
loop_
 _symmetry_equiv_pos_site_id
 _symmetry_equiv_pos_as_xyz
  1  'x, y, z'
loop_
 _atom_site_type_symbol
 _atom_site_label
 _atom_site_symmetry_multiplicity
 _atom_site_fract_x
 _atom_site_fract_y
 _atom_site_fract_z
 _atom_site_occupancy
  Na  Na0  1  0.23012790  0.47849783  0.23573024  1
  Na  Na1  1  0.76987210  0.97849783  0.76426976  1
  Co  Co2  1  0.33243495  0.75840537  0.78599708  1
  Co  Co3  1  0.66756505  0.25840537  0.21400292  1
  As  As4  1  0.43877874  0.25240693  0.71702461  1
  As  As5  1  0.56122126  0.75240693  0.28297539  1
  C  C6  1  0.08134777  0.74631300  0.72620395  1
  C  C7  1  0.91865223  0.24631300  0.27379605  1
  O  O8  1  0.04888691  0.24592950  0.30793539  1
  O  O9  1  0.14095873  0.74998069  0.94469990  1
  O  O10  1  0.18644064  0.74502090  0.54507533  1
  O  O11  1  0.31341174  0.04973127  0.78783465  1
  O  O12  1  0.31845561  0.45714653  0.79845044  1
  O  O13  1  0.40710204  0.74610960  0.12133515  1
  O  O14  1  0.47897291  0.26830837  0.39644552  1
  O  O15  1  0.52102709  0.76830837  0.60355448  1
  O  O16  1  0.59289796  0.24610960  0.87866485  1
  O  O17  1  0.68154439  0.95714653  0.20154956  1
  O  O18  1  0.68658826  0.54973127  0.21216535  1
  O  O19  1  0.81355936  0.24502090  0.45492467  1
  O  O20  1  0.85904127  0.24998069  0.05530010  1
  O  O21  1  0.95111309  0.74592950  0.69206461  1
