# generated using pymatgen
data_K2CePCO7
_symmetry_space_group_name_H-M   'P 1'
_cell_length_a   10.09522180
_cell_length_b   7.39265863
_cell_length_c   5.81201540
_cell_angle_alpha   90.00000000
_cell_angle_beta   92.45187279
_cell_angle_gamma   90.00000000
_symmetry_Int_Tables_number   1
_chemical_formula_structural   K2CePCO7
_chemical_formula_sum   'K4 Ce2 P2 C2 O14'
_cell_volume   433.35668368
_cell_formula_units_Z   2
loop_
 _symmetry_equiv_pos_site_id
 _symmetry_equiv_pos_as_xyz
  1  'x, y, z'
loop_
 _atom_site_type_symbol
 _atom_site_label
 _atom_site_symmetry_multiplicity
 _atom_site_fract_x
 _atom_site_fract_y
 _atom_site_fract_z
 _atom_site_occupancy
  K  K0  1  0.21638156  0.00951274  0.24281853  1
  K  K1  1  0.21638156  0.49048726  0.24281853  1
  K  K2  1  0.78361744  0.50951274  0.75718147  1
  K  K3  1  0.78361744  0.99048726  0.75718147  1
  Ce  Ce4  1  0.37373980  0.75000000  0.77740891  1
  Ce  Ce5  1  0.62626020  0.25000000  0.22259109  1
  P  P6  1  0.42571432  0.25000000  0.70839548  1
  P  P7  1  0.57428568  0.75000000  0.29160452  1
  C  C8  1  0.08828158  0.75000000  0.72852543  1
  C  C9  1  0.91171842  0.25000000  0.27147457  1
  O  O10  1  0.03593507  0.25000000  0.29880017  1
  O  O11  1  0.15023560  0.75000000  0.93289891  1
  O  O12  1  0.16794113  0.75000000  0.55232914  1
  O  O13  1  0.35329659  0.07623018  0.78480777  1
  O  O14  1  0.35329659  0.42376982  0.78480777  1
  O  O15  1  0.42881272  0.75000000  0.18323508  1
  O  O16  1  0.43340701  0.25000000  0.43931363  1
  O  O17  1  0.56659299  0.75000000  0.56068637  1
  O  O18  1  0.57118728  0.25000000  0.81676492  1
  O  O19  1  0.64670341  0.57623018  0.21519223  1
  O  O20  1  0.64670341  0.92376982  0.21519223  1
  O  O21  1  0.83205887  0.25000000  0.44767086  1
  O  O22  1  0.84976440  0.25000000  0.06710109  1
  O  O23  1  0.96406493  0.75000000  0.70119983  1
