# generated using pymatgen
data_K2PrPCO7
_symmetry_space_group_name_H-M   'P 1'
_cell_length_a   10.03574648
_cell_length_b   7.39595767
_cell_length_c   5.82477138
_cell_angle_alpha   90.00000000
_cell_angle_beta   93.08139889
_cell_angle_gamma   90.00000000
_symmetry_Int_Tables_number   1
_chemical_formula_structural   K2PrPCO7
_chemical_formula_sum   'K4 Pr2 P2 C2 O14'
_cell_volume   431.71249047
_cell_formula_units_Z   2
loop_
 _symmetry_equiv_pos_site_id
 _symmetry_equiv_pos_as_xyz
  1  'x, y, z'
loop_
 _atom_site_type_symbol
 _atom_site_label
 _atom_site_symmetry_multiplicity
 _atom_site_fract_x
 _atom_site_fract_y
 _atom_site_fract_z
 _atom_site_occupancy
  K  K0  1  0.21906402  0.00949629  0.24157668  1
  K  K1  1  0.21906402  0.49050371  0.24157668  1
  K  K2  1  0.78093598  0.50949629  0.75842332  1
  K  K3  1  0.78093598  0.99050371  0.75842332  1
  Pr  Pr4  1  0.37090099  0.75000000  0.77562125  1
  Pr  Pr5  1  0.62909901  0.25000000  0.22437875  1
  P  P6  1  0.42472411  0.25000000  0.70944384  1
  P  P7  1  0.57527589  0.75000000  0.29055616  1
  C  C8  1  0.08293685  0.75000000  0.73053257  1
  C  C9  1  0.91706315  0.25000000  0.26946743  1
  O  O10  1  0.04198479  0.25000000  0.29739454  1
  O  O11  1  0.14612949  0.75000000  0.93482429  1
  O  O12  1  0.16204330  0.75000000  0.55393046  1
  O  O13  1  0.35182807  0.07594852  0.78292610  1
  O  O14  1  0.35182807  0.42405148  0.78292610  1
  O  O15  1  0.42895961  0.75000000  0.17685096  1
  O  O16  1  0.43492164  0.25000000  0.44180987  1
  O  O17  1  0.56507836  0.75000000  0.55819013  1
  O  O18  1  0.57104039  0.25000000  0.82314904  1
  O  O19  1  0.64817193  0.57594852  0.21707390  1
  O  O20  1  0.64817193  0.92405148  0.21707390  1
  O  O21  1  0.83795670  0.25000000  0.44606954  1
  O  O22  1  0.85387051  0.25000000  0.06517571  1
  O  O23  1  0.95801521  0.75000000  0.70260546  1
