# generated using pymatgen
data_Y2HfO5
_symmetry_space_group_name_H-M   'P 1'
_cell_length_a   10.75468282
_cell_length_b   3.74445947
_cell_length_c   11.62966592
_cell_angle_alpha   90.00000000
_cell_angle_beta   90.00000000
_cell_angle_gamma   90.00000000
_symmetry_Int_Tables_number   1
_chemical_formula_structural   Y2HfO5
_chemical_formula_sum   'Y8 Hf4 O20'
_cell_volume   468.33215827
_cell_formula_units_Z   4
loop_
 _symmetry_equiv_pos_site_id
 _symmetry_equiv_pos_as_xyz
  1  'x, y, z'
loop_
 _atom_site_type_symbol
 _atom_site_label
 _atom_site_symmetry_multiplicity
 _atom_site_fract_x
 _atom_site_fract_y
 _atom_site_fract_z
 _atom_site_occupancy
  Y  Y0  1  0.12196277  0.25000000  0.22390164  1
  Y  Y1  1  0.13035829  0.25000000  0.56077564  1
  Y  Y2  1  0.36964171  0.75000000  0.06077564  1
  Y  Y3  1  0.37803723  0.75000000  0.72390164  1
  Y  Y4  1  0.62196277  0.25000000  0.27609836  1
  Y  Y5  1  0.63035829  0.25000000  0.93922436  1
  Y  Y6  1  0.86964171  0.75000000  0.43922436  1
  Y  Y7  1  0.87803723  0.75000000  0.77609836  1
  Hf  Hf8  1  0.17014244  0.25000000  0.88568522  1
  Hf  Hf9  1  0.32985756  0.75000000  0.38568522  1
  Hf  Hf10  1  0.67014244  0.25000000  0.61431478  1
  Hf  Hf11  1  0.82985756  0.75000000  0.11431478  1
  O  O12  1  0.00432502  0.75000000  0.60463271  1
  O  O13  1  0.99468323  0.25000000  0.84375180  1
  O  O14  1  0.22984860  0.25000000  0.05144438  1
  O  O15  1  0.24500616  0.75000000  0.88854967  1
  O  O16  1  0.24938086  0.75000000  0.22948365  1
  O  O17  1  0.25061914  0.25000000  0.72948365  1
  O  O18  1  0.25499384  0.25000000  0.38854967  1
  O  O19  1  0.27015140  0.75000000  0.55144438  1
  O  O20  1  0.50531677  0.75000000  0.34375180  1
  O  O21  1  0.49567498  0.25000000  0.10463271  1
  O  O22  1  0.50432502  0.75000000  0.89536729  1
  O  O23  1  0.49468323  0.25000000  0.65624820  1
  O  O24  1  0.72984860  0.25000000  0.44855562  1
  O  O25  1  0.74500616  0.75000000  0.61145033  1
  O  O26  1  0.74938086  0.75000000  0.27051635  1
  O  O27  1  0.75061914  0.25000000  0.77051635  1
  O  O28  1  0.75499384  0.25000000  0.11145033  1
  O  O29  1  0.77015140  0.75000000  0.94855562  1
  O  O30  1  0.00531677  0.75000000  0.15624820  1
  O  O31  1  0.99567498  0.25000000  0.39536729  1
