# generated using pymatgen
data_Li2AlFeO4
_symmetry_space_group_name_H-M   'P 1'
_cell_length_a   5.33127368
_cell_length_b   5.96842228
_cell_length_c   10.90250787
_cell_angle_alpha   90.00000000
_cell_angle_beta   71.90222802
_cell_angle_gamma   90.00000000
_symmetry_Int_Tables_number   1
_chemical_formula_structural   Li2AlFeO4
_chemical_formula_sum   'Li8 Al4 Fe4 O16'
_cell_volume   329.74768682
_cell_formula_units_Z   4
loop_
 _symmetry_equiv_pos_site_id
 _symmetry_equiv_pos_as_xyz
  1  'x, y, z'
loop_
 _atom_site_type_symbol
 _atom_site_label
 _atom_site_symmetry_multiplicity
 _atom_site_fract_x
 _atom_site_fract_y
 _atom_site_fract_z
 _atom_site_occupancy
  Li  Li0  1  0.06436868  0.33826996  0.80811862  1
  Li  Li1  1  0.06436868  0.16173004  0.30811862  1
  Li  Li2  1  0.30169770  0.15695573  0.56801466  1
  Li  Li3  1  0.30169770  0.34304427  0.06801466  1
  Li  Li4  1  0.69830230  0.65695573  0.93198534  1
  Li  Li5  1  0.69830230  0.84304427  0.43198534  1
  Li  Li6  1  0.93563132  0.83826996  0.69188138  1
  Li  Li7  1  0.93563132  0.66173004  0.19188138  1
  Al  Al8  1  0.17913304  0.83071398  0.94178944  1
  Al  Al9  1  0.17913304  0.66928602  0.44178944  1
  Al  Al10  1  0.82086696  0.33071398  0.55821056  1
  Al  Al11  1  0.82086696  0.16928602  0.05821056  1
  Fe  Fe12  1  0.56847707  0.17373523  0.81673928  1
  Fe  Fe13  1  0.43152293  0.67373523  0.68326072  1
  Fe  Fe14  1  0.56847707  0.32626477  0.31673928  1
  Fe  Fe15  1  0.43152293  0.82626477  0.18326072  1
  O  O16  1  0.08392008  0.67738852  0.82056947  1
  O  O17  1  0.08392008  0.82261148  0.32056947  1
  O  O18  1  0.17939384  0.14061184  0.93988580  1
  O  O19  1  0.17939384  0.35938816  0.43988580  1
  O  O20  1  0.30597609  0.81454047  0.55575768  1
  O  O21  1  0.45907293  0.34505954  0.68612825  1
  O  O22  1  0.30597609  0.68545953  0.05575768  1
  O  O23  1  0.45907293  0.15494046  0.18612825  1
  O  O24  1  0.54092707  0.84505954  0.81387175  1
  O  O25  1  0.69402391  0.31454047  0.94424232  1
  O  O26  1  0.54092707  0.65494046  0.31387175  1
  O  O27  1  0.69402391  0.18545953  0.44424232  1
  O  O28  1  0.82060616  0.64061184  0.56011420  1
  O  O29  1  0.82060616  0.85938816  0.06011420  1
  O  O30  1  0.91607992  0.17738852  0.67943053  1
  O  O31  1  0.91607992  0.32261148  0.17943053  1
