# generated using pymatgen
data_Na2FeSiCO7
_symmetry_space_group_name_H-M   'P 1'
_cell_length_a   9.21102208
_cell_length_b   6.51124823
_cell_length_c   5.29347552
_cell_angle_alpha   90.00000000
_cell_angle_beta   89.30571902
_cell_angle_gamma   90.00000000
_symmetry_Int_Tables_number   1
_chemical_formula_structural   Na2FeSiCO7
_chemical_formula_sum   'Na4 Fe2 Si2 C2 O14'
_cell_volume   317.45421637
_cell_formula_units_Z   2
loop_
 _symmetry_equiv_pos_site_id
 _symmetry_equiv_pos_as_xyz
  1  'x, y, z'
loop_
 _atom_site_type_symbol
 _atom_site_label
 _atom_site_symmetry_multiplicity
 _atom_site_fract_x
 _atom_site_fract_y
 _atom_site_fract_z
 _atom_site_occupancy
  Na  Na0  1  0.23721254  0.49389223  0.23561631  1
  Na  Na1  1  0.23721254  0.00610777  0.23561631  1
  Na  Na2  1  0.76278746  0.50610777  0.76438369  1
  Na  Na3  1  0.76278746  0.99389223  0.76438369  1
  Fe  Fe4  1  0.36080515  0.75000000  0.79125301  1
  Fe  Fe5  1  0.63919485  0.25000000  0.20874699  1
  Si  Si6  1  0.43100985  0.25000000  0.70665367  1
  Si  Si7  1  0.56899015  0.75000000  0.29334633  1
  C  C8  1  0.07713020  0.75000000  0.72522313  1
  C  C9  1  0.92286980  0.25000000  0.27477687  1
  O  O10  1  0.05962070  0.25000000  0.28549375  1
  O  O11  1  0.14421860  0.75000000  0.94139856  1
  O  O12  1  0.16186514  0.75000000  0.52778445  1
  O  O13  1  0.33216402  0.04830839  0.77957394  1
  O  O14  1  0.33216402  0.45169161  0.77957394  1
  O  O15  1  0.41384581  0.75000000  0.14688240  1
  O  O16  1  0.46156211  0.25000000  0.39641023  1
  O  O17  1  0.53843789  0.75000000  0.60358977  1
  O  O18  1  0.58615419  0.25000000  0.85311760  1
  O  O19  1  0.66783598  0.54830839  0.22042606  1
  O  O20  1  0.66783598  0.95169161  0.22042606  1
  O  O21  1  0.83813486  0.25000000  0.47221555  1
  O  O22  1  0.85578140  0.25000000  0.05860144  1
  O  O23  1  0.94037930  0.75000000  0.71450625  1
