# generated using pymatgen
data_Li4Co3Sn5O16
_symmetry_space_group_name_H-M   'P 1'
_cell_length_a   6.08109023
_cell_length_b   6.16383843
_cell_length_c   9.82617407
_cell_angle_alpha   89.38948327
_cell_angle_beta   89.35839102
_cell_angle_gamma   120.58527100
_symmetry_Int_Tables_number   1
_chemical_formula_structural   Li4Co3Sn5O16
_chemical_formula_sum   'Li4 Co3 Sn5 O16'
_cell_volume   316.99364162
_cell_formula_units_Z   1
loop_
 _symmetry_equiv_pos_site_id
 _symmetry_equiv_pos_as_xyz
  1  'x, y, z'
loop_
 _atom_site_type_symbol
 _atom_site_label
 _atom_site_symmetry_multiplicity
 _atom_site_fract_x
 _atom_site_fract_y
 _atom_site_fract_z
 _atom_site_occupancy
  Li  Li0  1  0.34390769  0.67777253  0.88739550  1
  Li  Li1  1  0.96052591  0.97845730  0.98581802  1
  Li  Li2  1  0.97737589  0.98518808  0.50121170  1
  Li  Li3  1  0.67148523  0.33927360  0.40786489  1
  Co  Co4  1  0.65869238  0.82899847  0.21584067  1
  Co  Co5  1  0.83038838  0.65799689  0.71443773  1
  Co  Co6  1  0.83216877  0.16850892  0.71288867  1
  Sn  Sn7  1  0.16900285  0.83159397  0.21483384  1
  Sn  Sn8  1  0.34375956  0.66660087  0.50098048  1
  Sn  Sn9  1  0.16826123  0.33729173  0.21549191  1
  Sn  Sn10  1  0.33931936  0.16660599  0.71415955  1
  Sn  Sn11  1  0.68165538  0.34329110  0.98073464  1
  O  O12  1  0.15510882  0.83180049  0.59412363  1
  O  O13  1  0.03153393  0.51432493  0.34475249  1
  O  O14  1  0.35293564  0.67812419  0.10571923  1
  O  O15  1  0.97842289  0.98728274  0.31309426  1
  O  O16  1  0.98871935  0.97791971  0.80494556  1
  O  O17  1  0.16364115  0.31592202  0.58850971  1
  O  O18  1  0.49545579  0.96251308  0.33633791  1
  O  O19  1  0.49594259  0.53191419  0.33407128  1
  O  O20  1  0.32281346  0.16474897  0.09466026  1
  O  O21  1  0.67388401  0.82387778  0.60443622  1
  O  O22  1  0.53119269  0.49741562  0.83776491  1
  O  O23  1  0.51606444  0.03744247  0.85015692  1
  O  O24  1  0.67696803  0.35232160  0.60764822  1
  O  O25  1  0.83003630  0.67902360  0.10327614  1
  O  O26  1  0.97589912  0.50769262  0.83608231  1
  O  O27  1  0.83483917  0.15639555  0.10059934  1
