# generated using pymatgen
data_Er2TiO5
_symmetry_space_group_name_H-M   'P 1'
_cell_length_a   7.44975546
_cell_length_b   3.60780209
_cell_length_c   15.43841780
_cell_angle_alpha   90.00000000
_cell_angle_beta   90.00000000
_cell_angle_gamma   90.00000000
_symmetry_Int_Tables_number   1
_chemical_formula_structural   Er2TiO5
_chemical_formula_sum   'Er8 Ti4 O20'
_cell_volume   414.94211166
_cell_formula_units_Z   4
loop_
 _symmetry_equiv_pos_site_id
 _symmetry_equiv_pos_as_xyz
  1  'x, y, z'
loop_
 _atom_site_type_symbol
 _atom_site_label
 _atom_site_symmetry_multiplicity
 _atom_site_fract_x
 _atom_site_fract_y
 _atom_site_fract_z
 _atom_site_occupancy
  Er  Er0  1  0.10088577  0.25000000  0.08405772  1
  Er  Er1  1  0.16203658  0.25000000  0.73748868  1
  Er  Er2  1  0.33796342  0.75000000  0.23748868  1
  Er  Er3  1  0.39911423  0.75000000  0.58405772  1
  Er  Er4  1  0.60088577  0.25000000  0.41594228  1
  Er  Er5  1  0.66203658  0.25000000  0.76251132  1
  Er  Er6  1  0.83796342  0.75000000  0.26251132  1
  Er  Er7  1  0.89911423  0.75000000  0.91594228  1
  Ti  Ti8  1  0.11411542  0.25000000  0.42330462  1
  Ti  Ti9  1  0.38588458  0.75000000  0.92330462  1
  Ti  Ti10  1  0.61411542  0.25000000  0.07669538  1
  Ti  Ti11  1  0.88588458  0.75000000  0.57669538  1
  O  O12  1  0.06926814  0.75000000  0.17418236  1
  O  O13  1  0.07394384  0.75000000  0.45313246  1
  O  O14  1  0.12197690  0.75000000  0.64845466  1
  O  O15  1  0.15693253  0.75000000  0.99493391  1
  O  O16  1  0.24597197  0.25000000  0.32209444  1
  O  O17  1  0.25402803  0.75000000  0.82209444  1
  O  O18  1  0.34306747  0.25000000  0.49493391  1
  O  O19  1  0.37802310  0.25000000  0.14845466  1
  O  O20  1  0.42605616  0.25000000  0.95313246  1
  O  O21  1  0.43073186  0.25000000  0.67418236  1
  O  O22  1  0.56926814  0.75000000  0.32581764  1
  O  O23  1  0.57394384  0.75000000  0.04686754  1
  O  O24  1  0.62197690  0.75000000  0.85154534  1
  O  O25  1  0.65693253  0.75000000  0.50506609  1
  O  O26  1  0.74597197  0.25000000  0.17790556  1
  O  O27  1  0.75402803  0.75000000  0.67790556  1
  O  O28  1  0.84306747  0.25000000  0.00506609  1
  O  O29  1  0.87802310  0.25000000  0.35154534  1
  O  O30  1  0.92605616  0.25000000  0.54686754  1
  O  O31  1  0.93073186  0.25000000  0.82581764  1
