# generated using pymatgen
data_Mn5V(PO4)6
_symmetry_space_group_name_H-M   'P 1'
_cell_length_a   8.63716212
_cell_length_b   8.61227979
_cell_length_c   8.61227955
_cell_angle_alpha   60.00000361
_cell_angle_beta   60.09525259
_cell_angle_gamma   60.09525404
_symmetry_Int_Tables_number   1
_chemical_formula_structural   Mn5V(PO4)6
_chemical_formula_sum   'Mn5 V1 P6 O24'
_cell_volume   453.64498382
_cell_formula_units_Z   1
loop_
 _symmetry_equiv_pos_site_id
 _symmetry_equiv_pos_as_xyz
  1  'x, y, z'
loop_
 _atom_site_type_symbol
 _atom_site_label
 _atom_site_symmetry_multiplicity
 _atom_site_fract_x
 _atom_site_fract_y
 _atom_site_fract_z
 _atom_site_occupancy
  Mn  Mn0  1  0.00077224  0.99974225  0.99974225  1
  Mn  Mn1  1  0.07049749  0.64316750  0.64316750  1
  Mn  Mn2  1  0.50271935  0.49909355  0.49909355  1
  Mn  Mn3  1  0.43253981  0.85582040  0.85582040  1
  Mn  Mn4  1  0.93157378  0.35614241  0.35614241  1
  V  V5  1  0.56947366  0.14350911  0.14350911  1
  P  P6  1  0.24907913  0.24981014  0.54237607  1
  P  P7  1  0.24907913  0.95873467  0.24981014  1
  P  P8  1  0.24907913  0.54237607  0.95873467  1
  P  P9  1  0.75073776  0.45941650  0.04097226  1
  P  P10  1  0.75073776  0.04097226  0.74887448  1
  P  P11  1  0.75073776  0.74887448  0.45941650  1
  O  O12  1  0.06567888  0.11594685  0.30459335  1
  O  O13  1  0.06567888  0.51378093  0.11594685  1
  O  O14  1  0.06567888  0.30459335  0.51378093  1
  O  O15  1  0.23594899  0.08457854  0.73723506  1
  O  O16  1  0.43045229  0.18768936  0.38202321  1
  O  O17  1  0.27012712  0.41395655  0.55197254  1
  O  O18  1  0.23594899  0.94223741  0.08457854  1
  O  O19  1  0.27012712  0.76394379  0.41395655  1
  O  O20  1  0.56690581  0.61775765  0.01155501  1
  O  O21  1  0.27012712  0.55197254  0.76394379  1
  O  O22  1  0.75949608  0.26267516  0.06157286  1
  O  O23  1  0.56690581  0.01155501  0.80378254  1
  O  O24  1  0.43045229  -0.00016486  0.18768936  1
  O  O25  1  0.23594899  0.73723506  0.94223741  1
  O  O26  1  0.73431425  0.44095659  0.23776145  1
  O  O27  1  0.43045229  0.38202321  -0.00016486  1
  O  O28  1  0.73431425  0.23776145  0.58696772  1
  O  O29  1  0.75949608  0.06157286  0.91625591  1
  O  O30  1  0.73431425  0.58696772  0.44095659  1
  O  O31  1  0.56690581  0.80378254  0.61775765  1
  O  O32  1  0.75949608  0.91625591  0.26267516  1
  O  O33  1  0.93473393  0.69575264  0.48629066  1
  O  O34  1  0.93473393  0.48629066  0.88322277  1
  O  O35  1  0.93473393  0.88322277  0.69575264  1
