# generated using pymatgen
data_LiFe2P2HO8
_symmetry_space_group_name_H-M   'P 1'
_cell_length_a   5.05438851
_cell_length_b   8.57133913
_cell_length_c   7.76696864
_cell_angle_alpha   90.00000000
_cell_angle_beta   104.31322439
_cell_angle_gamma   90.00000000
_symmetry_Int_Tables_number   1
_chemical_formula_structural   LiFe2P2HO8
_chemical_formula_sum   'Li2 Fe4 P4 H2 O16'
_cell_volume   326.04242613
_cell_formula_units_Z   2
loop_
 _symmetry_equiv_pos_site_id
 _symmetry_equiv_pos_as_xyz
  1  'x, y, z'
loop_
 _atom_site_type_symbol
 _atom_site_label
 _atom_site_symmetry_multiplicity
 _atom_site_fract_x
 _atom_site_fract_y
 _atom_site_fract_z
 _atom_site_occupancy
  Li  Li0  1  0.00490320  0.99863674  0.49266654  1
  Li  Li1  1  0.49509680  0.49863674  0.00733346  1
  Fe  Fe2  1  0.12624525  0.34677559  0.66873756  1
  Fe  Fe3  1  0.37375475  0.84677559  0.83126244  1
  Fe  Fe4  1  0.60922417  0.15256006  0.17910725  1
  Fe  Fe5  1  0.89077583  0.65256006  0.32089275  1
  P  P6  1  0.12861267  0.35179511  0.27760584  1
  P  P7  1  0.37138733  0.85179511  0.22239416  1
  P  P8  1  0.63940329  0.14908350  0.77317603  1
  P  P9  1  0.86059671  0.64908350  0.72682397  1
  H  H10  1  0.52873302  0.51898947  0.50737919  1
  H  H11  1  0.97126698  0.01898947  0.99262081  1
  O  O12  1  0.08145298  0.53480379  0.82422158  1
  O  O13  1  0.01022154  0.19630108  0.32585829  1
  O  O14  1  0.14756498  0.82762441  0.32361205  1
  O  O15  1  0.25317078  0.44248281  0.45881426  1
  O  O16  1  0.41854702  0.03480379  0.67577842  1
  O  O17  1  0.51313807  0.30036889  0.82380973  1
  O  O18  1  0.24682922  0.94248281  0.04118574  1
  O  O19  1  0.35243502  0.32762441  0.17638795  1
  O  O20  1  0.63573289  0.67438158  0.82390096  1
  O  O21  1  0.77539244  0.06782313  0.96540638  1
  O  O22  1  0.48977846  0.69630108  0.17414171  1
  O  O23  1  0.60330248  0.95737685  0.32864093  1
  O  O24  1  0.72460756  0.56782313  0.53459362  1
  O  O25  1  0.86426711  0.17438158  0.67609904  1
  O  O26  1  0.98686193  0.80036889  0.67619027  1
  O  O27  1  0.89669752  0.45737685  0.17135907  1
