# generated using pymatgen
data_Cr3Sb(PO4)6
_symmetry_space_group_name_H-M   'P 1'
_cell_length_a   8.81707041
_cell_length_b   8.81707114
_cell_length_c   8.81707104
_cell_angle_alpha   58.27678374
_cell_angle_beta   58.27678557
_cell_angle_gamma   58.27678324
_symmetry_Int_Tables_number   1
_chemical_formula_structural   Cr3Sb(PO4)6
_chemical_formula_sum   'Cr3 Sb1 P6 O24'
_cell_volume   465.55326334
_cell_formula_units_Z   1
loop_
 _symmetry_equiv_pos_site_id
 _symmetry_equiv_pos_as_xyz
  1  'x, y, z'
loop_
 _atom_site_type_symbol
 _atom_site_label
 _atom_site_symmetry_multiplicity
 _atom_site_fract_x
 _atom_site_fract_y
 _atom_site_fract_z
 _atom_site_occupancy
  Cr  Cr0  1  0.14312908  0.14312908  0.14312908  1
  Cr  Cr1  1  0.35614005  0.35614005  0.35614005  1
  Cr  Cr2  1  0.64209248  0.64209248  0.64209248  1
  Sb  Sb3  1  0.85709999  0.85709999  0.85709999  1
  P  P4  1  0.03613542  0.74913228  0.46074093  1
  P  P5  1  0.46074093  0.03613542  0.74913228  1
  P  P6  1  0.74913228  0.46074093  0.03613542  1
  P  P7  1  0.25261307  0.53191785  0.96595314  1
  P  P8  1  0.53191785  0.96595314  0.25261307  1
  P  P9  1  0.96595314  0.25261307  0.53191785  1
  O  O10  1  0.13718001  0.27981297  0.50640359  1
  O  O11  1  0.27981297  0.50640359  0.13718001  1
  O  O12  1  0.06362995  0.92259871  0.28005071  1
  O  O13  1  0.50640359  0.13718001  0.27981297  1
  O  O14  1  0.21797136  0.57595189  0.43407792  1
  O  O15  1  0.01873496  0.77171761  0.63449862  1
  O  O16  1  0.28005071  0.06362995  0.92259871  1
  O  O17  1  0.43407792  0.21797136  0.57595189  1
  O  O18  1  0.57595189  0.43407792  0.21797136  1
  O  O19  1  0.21826658  0.36536725  0.99187340  1
  O  O20  1  0.07710289  0.71911265  0.94325557  1
  O  O21  1  0.36536725  0.99187340  0.21826658  1
  O  O22  1  0.63449862  0.01873496  0.77171761  1
  O  O23  1  0.92259871  0.28005071  0.06362995  1
  O  O24  1  0.77171761  0.63449862  0.01873496  1
  O  O25  1  0.42479670  0.56019487  0.78478350  1
  O  O26  1  0.56019487  0.78478350  0.42479670  1
  O  O27  1  0.71911265  0.94325557  0.07710289  1
  O  O28  1  0.99187340  0.21826658  0.36536725  1
  O  O29  1  0.78478350  0.42479670  0.56019487  1
  O  O30  1  0.49293709  0.86269400  0.72203090  1
  O  O31  1  0.94325557  0.07710289  0.71911265  1
  O  O32  1  0.72203090  0.49293709  0.86269400  1
  O  O33  1  0.86269400  0.72203090  0.49293709  1
