# generated using pymatgen
data_K2SmPCO7
_symmetry_space_group_name_H-M   'P 1'
_cell_length_a   10.03556563
_cell_length_b   7.27377864
_cell_length_c   5.82937260
_cell_angle_alpha   90.00000000
_cell_angle_beta   92.55092487
_cell_angle_gamma   90.00000000
_symmetry_Int_Tables_number   1
_chemical_formula_structural   K2SmPCO7
_chemical_formula_sum   'K4 Sm2 P2 C2 O14'
_cell_volume   425.10202808
_cell_formula_units_Z   2
loop_
 _symmetry_equiv_pos_site_id
 _symmetry_equiv_pos_as_xyz
  1  'x, y, z'
loop_
 _atom_site_type_symbol
 _atom_site_label
 _atom_site_symmetry_multiplicity
 _atom_site_fract_x
 _atom_site_fract_y
 _atom_site_fract_z
 _atom_site_occupancy
  K  K0  1  0.21647655  0.48944109  0.24557308  1
  K  K1  1  0.21647655  0.01055891  0.24557308  1
  K  K2  1  0.78352345  0.51055891  0.75442692  1
  K  K3  1  0.78352345  0.98944109  0.75442692  1
  Sm  Sm4  1  0.37260911  0.75000000  0.78105324  1
  Sm  Sm5  1  0.62739089  0.25000000  0.21894676  1
  P  P6  1  0.42821245  0.25000000  0.70915227  1
  P  P7  1  0.57178755  0.75000000  0.29084773  1
  C  C8  1  0.09149211  0.75000000  0.73049021  1
  C  C9  1  0.90850789  0.25000000  0.26950979  1
  O  O10  1  0.03366612  0.25000000  0.30326853  1
  O  O11  1  0.15107776  0.75000000  0.93603739  1
  O  O12  1  0.17357300  0.75000000  0.55735424  1
  O  O13  1  0.35356782  0.07316675  0.77852090  1
  O  O14  1  0.35356782  0.42683325  0.77852090  1
  O  O15  1  0.42867996  0.75000000  0.16920974  1
  O  O16  1  0.44347888  0.25000000  0.44283932  1
  O  O17  1  0.55652112  0.75000000  0.55716068  1
  O  O18  1  0.57132004  0.25000000  0.83079026  1
  O  O19  1  0.64643218  0.57316675  0.22147910  1
  O  O20  1  0.64643218  0.92683325  0.22147910  1
  O  O21  1  0.82642700  0.25000000  0.44264576  1
  O  O22  1  0.84892224  0.25000000  0.06396261  1
  O  O23  1  0.96633388  0.75000000  0.69673147  1
