# generated using pymatgen
data_CsH5S2(NO3)2
_symmetry_space_group_name_H-M   'P 1'
_cell_length_a   5.35728582
_cell_length_b   6.33261540
_cell_length_c   25.18530700
_cell_angle_alpha   90.00000000
_cell_angle_beta   90.00000000
_cell_angle_gamma   90.00000000
_symmetry_Int_Tables_number   1
_chemical_formula_structural   CsH5S2(NO3)2
_chemical_formula_sum   'Cs4 H20 S8 N8 O24'
_cell_volume   854.42742399
_cell_formula_units_Z   4
loop_
 _symmetry_equiv_pos_site_id
 _symmetry_equiv_pos_as_xyz
  1  'x, y, z'
loop_
 _atom_site_type_symbol
 _atom_site_label
 _atom_site_symmetry_multiplicity
 _atom_site_fract_x
 _atom_site_fract_y
 _atom_site_fract_z
 _atom_site_occupancy
  Cs  Cs0  1  0.09547505  0.02164314  0.84659456  1
  Cs  Cs1  1  0.40452495  0.97835686  0.34659456  1
  Cs  Cs2  1  0.59547505  0.47835686  0.15340544  1
  Cs  Cs3  1  0.90452495  0.52164314  0.65340544  1
  H  H4  1  0.04353836  0.63941896  0.24861321  1
  H  H5  1  0.06942783  0.04813543  0.08311507  1
  H  H6  1  0.09473825  0.84483914  0.03697409  1
  H  H7  1  0.11181117  0.10204082  0.01614990  1
  H  H8  1  0.22918691  0.47427754  0.28230229  1
  H  H9  1  0.27081309  0.52572246  0.78230229  1
  H  H10  1  0.38818883  0.89795918  0.51614990  1
  H  H11  1  0.40526175  0.15516086  0.53697409  1
  H  H12  1  0.43057217  0.95186457  0.58311507  1
  H  H13  1  0.45646164  0.36058104  0.74861321  1
  H  H14  1  0.54353836  0.86058104  0.75138679  1
  H  H15  1  0.56942783  0.45186457  0.91688493  1
  H  H16  1  0.59473825  0.65516086  0.96302591  1
  H  H17  1  0.61181117  0.39796018  0.98385010  1
  H  H18  1  0.72918691  0.02572246  0.71769771  1
  H  H19  1  0.77081309  0.97427754  0.21769771  1
  H  H20  1  0.88818883  0.60204082  0.48385010  1
  H  H21  1  0.90526175  0.34483914  0.46302591  1
  H  H22  1  0.93057217  0.54813543  0.41688493  1
  H  H23  1  0.95646164  0.13941896  0.25138679  1
  S  S24  1  0.15756815  0.98560650  0.18334712  1
  S  S25  1  0.19899612  0.49524021  0.96643397  1
  S  S26  1  0.30100388  0.50475979  0.46643397  1
  S  S27  1  0.34243185  0.01439350  0.68334712  1
  S  S28  1  0.65756815  0.51439350  0.81665288  1
  S  S29  1  0.69899612  0.00475979  0.03356603  1
  S  S30  1  0.80100388  0.99524021  0.53356603  1
  S  S31  1  0.84243185  0.48560650  0.31665288  1
  N  N32  1  0.03180480  0.99856669  0.04351112  1
  N  N33  1  0.05160627  0.49592129  0.26766309  1
  N  N34  1  0.44839373  0.50407871  0.76766309  1
  N  N35  1  0.46819520  0.00143331  0.54351112  1
  N  N36  1  0.53180480  0.50143331  0.95648888  1
  N  N37  1  0.55160627  0.00407871  0.73233691  1
  N  N38  1  0.94839373  0.99592129  0.23233691  1
  N  N39  1  0.96819520  0.49856669  0.45648888  1
  O  O40  1  0.10731556  0.15698470  0.14424828  1
  O  O41  1  0.10137711  0.98428534  0.71010727  1
  O  O42  1  0.11896619  0.77576405  0.16021088  1
  O  O43  1  0.11086544  0.64043074  0.92647932  1
  O  O44  1  0.14294476  0.27242952  0.95711264  1
  O  O45  1  0.16859793  0.56165355  0.02146286  1
  O  O46  1  0.33140207  0.43834645  0.52146286  1
  O  O47  1  0.35705524  0.72757048  0.45711264  1
  O  O48  1  0.38913456  0.35956926  0.42647932  1
  O  O49  1  0.38103381  0.22423595  0.66021088  1
  O  O50  1  0.39862289  0.01571466  0.21010727  1
  O  O51  1  0.39268444  0.84301530  0.64424828  1
  O  O52  1  0.60731556  0.34301530  0.85575172  1
  O  O53  1  0.60137711  0.51571466  0.28989273  1
  O  O54  1  0.61896619  0.72423595  0.83978912  1
  O  O55  1  0.61086544  0.85956926  0.07352068  1
  O  O56  1  0.64294476  0.22757048  0.04288736  1
  O  O57  1  0.66859793  0.93834645  0.97853714  1
  O  O58  1  0.83140207  0.06165355  0.47853714  1
  O  O59  1  0.85705524  0.77242952  0.54288736  1
  O  O60  1  0.88913456  0.14043074  0.57352068  1
  O  O61  1  0.88103381  0.27576405  0.33978912  1
  O  O62  1  0.89862289  0.48428534  0.78989273  1
  O  O63  1  0.89268444  0.65698470  0.35575172  1
