# generated using pymatgen
data_Ta7InO19
_symmetry_space_group_name_H-M   'P 1'
_cell_length_a   6.25051371
_cell_length_b   6.25060853
_cell_length_c   20.20885293
_cell_angle_alpha   89.99984405
_cell_angle_beta   89.99972504
_cell_angle_gamma   120.00015915
_symmetry_Int_Tables_number   1
_chemical_formula_structural   Ta7InO19
_chemical_formula_sum   'Ta14 In2 O38'
_cell_volume   683.76932054
_cell_formula_units_Z   2
loop_
 _symmetry_equiv_pos_site_id
 _symmetry_equiv_pos_as_xyz
  1  'x, y, z'
loop_
 _atom_site_type_symbol
 _atom_site_label
 _atom_site_symmetry_multiplicity
 _atom_site_fract_x
 _atom_site_fract_y
 _atom_site_fract_z
 _atom_site_occupancy
  Ta  Ta0  1  0.36030235  0.36174344  0.15560858  1
  Ta  Ta1  1  0.36030084  0.36174279  0.34439820  1
  Ta  Ta2  1  0.63828064  0.63971844  0.65559350  1
  Ta  Ta3  1  0.63826299  0.63970301  0.84438504  1
  Ta  Ta4  1  0.36030590  0.99855765  0.84436434  1
  Ta  Ta5  1  0.36030933  0.99856699  0.65557848  1
  Ta  Ta6  1  0.66663617  0.33325224  0.49999933  1
  Ta  Ta7  1  0.66663102  0.33337963  0.99999706  1
  Ta  Ta8  1  0.63826651  0.99855840  0.15562395  1
  Ta  Ta9  1  0.63827277  0.99856592  0.34441728  1
  Ta  Ta10  1  0.00144893  0.63970722  0.15562897  1
  Ta  Ta11  1  0.00144724  0.63971698  0.34442127  1
  Ta  Ta12  1  0.00145199  0.36173627  0.84438838  1
  Ta  Ta13  1  0.00145076  0.36174048  0.65560068  1
  In  In14  1  0.33326792  0.66680256  0.00000019  1
  In  In15  1  0.33327322  0.66647321  0.50000289  1
  O  O16  1  0.99923728  0.75279574  0.65291485  1
  O  O17  1  0.99923206  0.75281211  0.84708519  1
  O  O18  1  0.03888117  0.62519864  0.24998234  1
  O  O19  1  0.24722285  0.00078082  0.34708130  1
  O  O20  1  0.24720670  0.00077615  0.15291516  1
  O  O21  1  0.03887136  0.41367107  0.75002300  1
  O  O22  1  0.99923049  0.24643731  0.15291104  1
  O  O23  1  0.99923442  0.24643302  0.34708421  1
  O  O24  1  0.37481951  0.96112962  0.75001345  1
  O  O25  1  0.33333153  0.66667266  0.13487293  1
  O  O26  1  0.33333896  0.66668131  0.86512477  1
  O  O27  1  0.33334073  0.66665616  0.63487601  1
  O  O28  1  0.33333978  0.66665860  0.36512157  1
  O  O29  1  0.58635322  0.96115148  0.24998023  1
  O  O30  1  0.24721384  0.24643007  0.65291897  1
  O  O31  1  0.24722602  0.24644506  0.84708487  1
  O  O32  1  0.37481460  0.41368181  0.24997460  1
  O  O33  1  0.42770548  0.39087120  0.05498874  1
  O  O34  1  0.42768803  0.39081349  0.44500577  1
  O  O35  1  0.75356965  0.00077871  0.84709019  1
  O  O36  1  0.75357143  0.00078506  0.65291435  1
  O  O37  1  0.58635057  0.62520443  0.75002087  1
  O  O38  1  0.60913816  0.57229220  0.94501008  1
  O  O39  1  0.60912635  0.57223954  0.55499679  1
  O  O40  1  0.75356318  0.75278139  0.15291304  1
  O  O41  1  0.75357554  0.75279535  0.34708555  1
  O  O42  1  0.42770431  0.03683430  0.55499472  1
  O  O43  1  0.42769244  0.03687815  0.94501297  1
  O  O44  1  0.66667515  0.33333993  0.33584382  1
  O  O45  1  0.66667862  0.33333942  0.83584652  1
  O  O46  1  0.66667913  0.33334276  0.66415451  1
  O  O47  1  0.66666898  0.33333472  0.16415262  1
  O  O48  1  0.60912572  0.03688960  0.05499157  1
  O  O49  1  0.60913757  0.03683860  0.44500389  1
  O  O50  1  0.96313168  0.57231716  0.05498936  1
  O  O51  1  0.96313641  0.57224425  0.44500323  1
  O  O52  1  0.96314481  0.39081758  0.55499501  1
  O  O53  1  0.96313067  0.39088828  0.94500977  1
