# generated using pymatgen
data_Li5V2Fe3O10
_symmetry_space_group_name_H-M   'P 1'
_cell_length_a   5.16595031
_cell_length_b   5.21108393
_cell_length_c   7.88753240
_cell_angle_alpha   109.92046606
_cell_angle_beta   102.70176588
_cell_angle_gamma   99.62090473
_symmetry_Int_Tables_number   1
_chemical_formula_structural   Li5V2Fe3O10
_chemical_formula_sum   'Li5 V2 Fe3 O10'
_cell_volume   187.83990726
_cell_formula_units_Z   1
loop_
 _symmetry_equiv_pos_site_id
 _symmetry_equiv_pos_as_xyz
  1  'x, y, z'
loop_
 _atom_site_type_symbol
 _atom_site_label
 _atom_site_symmetry_multiplicity
 _atom_site_fract_x
 _atom_site_fract_y
 _atom_site_fract_z
 _atom_site_occupancy
  Li  Li0  1  0.22086199  0.90988150  0.40666006  1
  Li  Li1  1  0.39323949  0.29200378  0.78531665  1
  Li  Li2  1  0.50000000  0.50000000  0.50000000  1
  Li  Li3  1  0.60676051  0.70799622  0.21468335  1
  Li  Li4  1  0.77913801  0.09011850  0.59333994  1
  V  V5  1  0.08984261  0.69512779  0.68096065  1
  V  V6  1  0.91015739  0.30487221  0.31903935  1
  Fe  Fe7  1  0.00000000  0.50000000  0.00000000  1
  Fe  Fe8  1  0.69233337  0.89492854  0.89106283  1
  Fe  Fe9  1  0.30766663  0.10507146  0.10893717  1
  O  O10  1  0.04683176  0.07874026  0.85178775  1
  O  O11  1  0.34396325  0.71542234  0.93546118  1
  O  O12  1  0.13734415  0.30665981  0.54277030  1
  O  O13  1  0.22937676  0.47913931  0.24354193  1
  O  O14  1  0.44157955  0.89114641  0.65995774  1
  O  O15  1  0.55842045  0.10885359  0.34004226  1
  O  O16  1  0.77062324  0.52086069  0.75645807  1
  O  O17  1  0.86265585  0.69334019  0.45722970  1
  O  O18  1  0.65603675  0.28457766  0.06453882  1
  O  O19  1  0.95316824  0.92125974  0.14821225  1
