# generated using pymatgen
data_Na2CoCSO7
_symmetry_space_group_name_H-M   'P 1'
_cell_length_a   8.98631775
_cell_length_b   6.72854293
_cell_length_c   5.30252308
_cell_angle_alpha   90.00000000
_cell_angle_beta   88.89396158
_cell_angle_gamma   90.00000000
_symmetry_Int_Tables_number   1
_chemical_formula_structural   Na2CoCSO7
_chemical_formula_sum   'Na4 Co2 C2 S2 O14'
_cell_volume   320.55639312
_cell_formula_units_Z   2
loop_
 _symmetry_equiv_pos_site_id
 _symmetry_equiv_pos_as_xyz
  1  'x, y, z'
loop_
 _atom_site_type_symbol
 _atom_site_label
 _atom_site_symmetry_multiplicity
 _atom_site_fract_x
 _atom_site_fract_y
 _atom_site_fract_z
 _atom_site_occupancy
  Na  Na0  1  0.22058812  0.50577671  0.23066482  1
  Na  Na1  1  0.22058812  0.99422329  0.23066482  1
  Na  Na2  1  0.77941188  0.49422329  0.76933518  1
  Na  Na3  1  0.77941188  0.00577671  0.76933518  1
  Co  Co4  1  0.35093986  0.75000000  0.76571178  1
  Co  Co5  1  0.64906014  0.25000000  0.23428822  1
  C  C6  1  0.07584150  0.75000000  0.72788033  1
  C  C7  1  0.92415850  0.25000000  0.27211967  1
  S  S8  1  0.42204824  0.25000000  0.71058582  1
  S  S9  1  0.57795176  0.75000000  0.28941418  1
  O  O10  1  0.06377077  0.25000000  0.28707001  1
  O  O11  1  0.14576126  0.75000000  0.94397822  1
  O  O12  1  0.16689784  0.75000000  0.52981877  1
  O  O13  1  0.33625797  0.07088767  0.78850297  1
  O  O14  1  0.33625797  0.42911333  0.78850297  1
  O  O15  1  0.42839767  0.75000000  0.17048955  1
  O  O16  1  0.44234901  0.25000000  0.42677019  1
  O  O17  1  0.55765099  0.75000000  0.57322981  1
  O  O18  1  0.57160233  0.25000000  0.82951045  1
  O  O19  1  0.66374203  0.57088667  0.21149703  1
  O  O20  1  0.66374203  0.92911333  0.21149703  1
  O  O21  1  0.83310216  0.25000000  0.47018123  1
  O  O22  1  0.85423874  0.25000000  0.05602178  1
  O  O23  1  0.93622923  0.75000000  0.71292999  1
