# generated using pymatgen
data_Na3Li3Mn2P2(CO7)2
_symmetry_space_group_name_H-M   'P 1'
_cell_length_a   8.76739985
_cell_length_b   6.72374407
_cell_length_c   10.16680973
_cell_angle_alpha   90.25843040
_cell_angle_beta   89.25749955
_cell_angle_gamma   89.36208200
_symmetry_Int_Tables_number   1
_chemical_formula_structural   Na3Li3Mn2P2(CO7)2
_chemical_formula_sum   'Na6 Li6 Mn4 P4 C4 O28'
_cell_volume   599.23695861
_cell_formula_units_Z   2
loop_
 _symmetry_equiv_pos_site_id
 _symmetry_equiv_pos_as_xyz
  1  'x, y, z'
loop_
 _atom_site_type_symbol
 _atom_site_label
 _atom_site_symmetry_multiplicity
 _atom_site_fract_x
 _atom_site_fract_y
 _atom_site_fract_z
 _atom_site_occupancy
  Na  Na0  1  0.08309683  0.24853087  0.87892735  1
  Na  Na1  1  0.08324783  0.24620371  0.37890760  1
  Na  Na2  1  0.25374144  0.99948964  0.62495698  1
  Na  Na3  1  0.25439845  0.50055307  0.12423137  1
  Na  Na4  1  0.74546868  0.50142381  0.87635535  1
  Na  Na5  1  0.74517142  0.50162239  0.37612067  1
  Li  Li6  1  0.26775081  0.48334100  0.61824061  1
  Li  Li7  1  0.26809089  0.01679240  0.11912863  1
  Li  Li8  1  0.73286767  0.98372549  0.88304002  1
  Li  Li9  1  0.73229934  0.98357126  0.38391688  1
  Li  Li10  1  0.91435307  0.75308073  0.62419842  1
  Li  Li11  1  0.91487278  0.76569041  0.12417529  1
  Mn  Mn12  1  0.35975679  0.75100063  0.88881702  1
  Mn  Mn13  1  0.35990991  0.74750541  0.38881086  1
  Mn  Mn14  1  0.64279030  0.24479712  0.61149067  1
  Mn  Mn15  1  0.64252620  0.24646582  0.11129714  1
  P  P16  1  0.41223998  0.24886869  0.85129206  1
  P  P17  1  0.41206096  0.24064921  0.35150466  1
  P  P18  1  0.59402190  0.74884255  0.64874599  1
  P  P19  1  0.59344678  0.75794954  0.14867194  1
  C  C20  1  0.04687242  0.75687176  0.86600728  1
  C  C21  1  0.04673810  0.75868436  0.36631854  1
  C  C22  1  0.94570884  0.25555070  0.63282767  1
  C  C23  1  0.94596992  0.24011832  0.13265077  1
  O  O24  1  0.09266656  0.27534085  0.64204990  1
  O  O25  1  0.09368940  0.22674945  0.14169263  1
  O  O26  1  0.09401524  0.75036218  0.98736818  1
  O  O27  1  0.09414251  0.75213990  0.48758048  1
  O  O28  1  0.14584818  0.74710075  0.76903211  1
  O  O29  1  0.14550691  0.74975353  0.26924072  1
  O  O30  1  0.31523200  0.06714030  0.89499258  1
  O  O31  1  0.32498644  0.43654530  0.90253022  1
  O  O32  1  0.31623557  0.06170345  0.39968505  1
  O  O33  1  0.32335068  0.43114863  0.39854416  1
  O  O34  1  0.42041378  0.25915768  0.69738949  1
  O  O35  1  0.42894349  0.73421059  0.59449482  1
  O  O36  1  0.42016379  0.23588260  0.19753858  1
  O  O37  1  0.42784430  0.76788972  0.09464181  1
  O  O38  1  0.57717509  0.23379513  0.90355983  1
  O  O39  1  0.58036925  0.76868670  0.80183519  1
  O  O40  1  0.57721661  0.23450665  0.40385159  1
  O  O41  1  0.58072525  0.77047299  0.30215216  1
  O  O42  1  0.69309559  0.56314011  0.61172444  1
  O  O43  1  0.68458174  0.92813656  0.59309192  1
  O  O44  1  0.68089766  0.56448073  0.10841228  1
  O  O45  1  0.69461009  0.92968322  0.09582071  1
  O  O46  1  0.86033883  0.24214464  0.73768328  1
  O  O47  1  0.86008272  0.24472441  0.23775326  1
  O  O48  1  0.88194167  0.24800253  0.51814788  1
  O  O49  1  0.88205430  0.24994793  0.01830310  1
  O  O50  1  0.90337566  0.77272799  0.83988349  1
  O  O51  1  0.90309638  0.77309757  0.34036837  1
