# generated using pymatgen
data_PrB4ClO8
_symmetry_space_group_name_H-M   'P 1'
_cell_length_a   6.56486047
_cell_length_b   6.56486047
_cell_length_c   9.74109130
_cell_angle_alpha   97.96835127
_cell_angle_beta   97.96835127
_cell_angle_gamma   119.63903662
_symmetry_Int_Tables_number   1
_chemical_formula_structural   PrB4ClO8
_chemical_formula_sum   'Pr2 B8 Cl2 O16'
_cell_volume   350.73944229
_cell_formula_units_Z   2
loop_
 _symmetry_equiv_pos_site_id
 _symmetry_equiv_pos_as_xyz
  1  'x, y, z'
loop_
 _atom_site_type_symbol
 _atom_site_label
 _atom_site_symmetry_multiplicity
 _atom_site_fract_x
 _atom_site_fract_y
 _atom_site_fract_z
 _atom_site_occupancy
  Pr  Pr0  1  0.78566058  0.20026957  0.50237438  1
  Pr  Pr1  1  0.20026957  0.78566058  0.00237438  1
  B  B2  1  0.23911382  0.13460070  0.57768380  1
  B  B3  1  0.13460070  0.23911382  0.07768380  1
  B  B4  1  0.85201394  0.36036698  0.15076699  1
  B  B5  1  0.36036698  0.85201394  0.65076699  1
  B  B6  1  0.94251029  0.75849312  0.62714488  1
  B  B7  1  0.75849312  0.94251029  0.12714488  1
  B  B8  1  0.56605270  0.49593796  0.06418897  1
  B  B9  1  0.49593796  0.56605270  0.56418897  1
  Cl  Cl10  1  0.31281497  0.95520816  0.30625154  1
  Cl  Cl11  1  0.95520816  0.31281497  0.80625154  1
  O  O12  1  0.10074186  0.66773990  0.59444604  1
  O  O13  1  0.66773990  0.10074186  0.09444604  1
  O  O14  1  0.69669107  0.55402901  0.55946681  1
  O  O15  1  0.55402901  0.69669107  0.05946681  1
  O  O16  1  0.00008679  0.97272561  0.56922449  1
  O  O17  1  0.97272561  0.00008679  0.06922449  1
  O  O18  1  0.35277394  0.27743541  0.04988729  1
  O  O19  1  0.27743541  0.35277394  0.54988729  1
  O  O20  1  0.78527612  0.51174608  0.08236368  1
  O  O21  1  0.51174608  0.78527612  0.58236368  1
  O  O22  1  0.41853346  0.08994157  0.61920132  1
  O  O23  1  0.08994157  0.41853346  0.11920132  1
  O  O24  1  0.99921993  0.81349926  0.78230611  1
  O  O25  1  0.81349926  0.99921993  0.28230611  1
  O  O26  1  0.85979528  0.39272191  0.30149372  1
  O  O27  1  0.39272191  0.85979528  0.80149372  1
