# generated using pymatgen
data_Li2TiCr3O8
_symmetry_space_group_name_H-M   'P 1'
_cell_length_a   5.90255925
_cell_length_b   5.90230843
_cell_length_c   9.43517415
_cell_angle_alpha   90.00413257
_cell_angle_beta   89.99780443
_cell_angle_gamma   119.99795950
_symmetry_Int_Tables_number   1
_chemical_formula_structural   Li2TiCr3O8
_chemical_formula_sum   'Li4 Ti2 Cr6 O16'
_cell_volume   284.67657736
_cell_formula_units_Z   2
loop_
 _symmetry_equiv_pos_site_id
 _symmetry_equiv_pos_as_xyz
  1  'x, y, z'
loop_
 _atom_site_type_symbol
 _atom_site_label
 _atom_site_symmetry_multiplicity
 _atom_site_fract_x
 _atom_site_fract_y
 _atom_site_fract_z
 _atom_site_occupancy
  Li  Li0  1  0.33337207  0.66678424  0.89085350  1
  Li  Li1  1  0.00001128  0.99994491  0.99472543  1
  Li  Li2  1  0.99998661  0.99993071  0.49472865  1
  Li  Li3  1  0.66662535  0.33341175  0.39085449  1
  Ti  Ti4  1  0.33338490  0.66663927  0.49780114  1
  Ti  Ti5  1  0.66661651  0.33325182  0.99780327  1
  Cr  Cr6  1  0.17194536  0.82806351  0.21687389  1
  Cr  Cr7  1  0.17189010  0.34382202  0.21671561  1
  Cr  Cr8  1  0.65622344  0.82812305  0.21663948  1
  Cr  Cr9  1  0.34377429  0.17191487  0.71664690  1
  Cr  Cr10  1  0.82806069  0.65611257  0.71685465  1
  Cr  Cr11  1  0.82812039  0.17193674  0.71671196  1
  O  O12  1  0.16748378  0.83239764  0.59618889  1
  O  O13  1  0.04020149  0.52018917  0.34207293  1
  O  O14  1  0.33318516  0.66672521  0.10413602  1
  O  O15  1  0.00018195  0.99997004  0.30146541  1
  O  O16  1  0.99982663  0.99980274  0.80146370  1
  O  O17  1  0.16750387  0.33506544  0.59613554  1
  O  O18  1  0.47979212  0.95979939  0.34208081  1
  O  O19  1  0.47979624  0.52013861  0.34205098  1
  O  O20  1  0.33505149  0.16749846  0.09618944  1
  O  O21  1  0.66494878  0.83245193  0.59618886  1
  O  O22  1  0.52020266  0.48000020  0.84207884  1
  O  O23  1  0.52020208  0.04034666  0.84204726  1
  O  O24  1  0.66680423  0.33352401  0.60414132  1
  O  O25  1  0.83251744  0.66491375  0.09618953  1
  O  O26  1  0.95979717  0.47998118  0.84206937  1
  O  O27  1  0.83249394  0.16756112  0.09613213  1
