# generated using pymatgen
data_Na3Ni2P2(CO7)2
_symmetry_space_group_name_H-M   'P 1'
_cell_length_a   8.92845789
_cell_length_b   8.28425482
_cell_length_c   8.29977543
_cell_angle_alpha   76.87455931
_cell_angle_beta   89.85183783
_cell_angle_gamma   91.70715318
_symmetry_Int_Tables_number   1
_chemical_formula_structural   Na3Ni2P2(CO7)2
_chemical_formula_sum   'Na6 Ni4 P4 C4 O28'
_cell_volume   597.56716092
_cell_formula_units_Z   2
loop_
 _symmetry_equiv_pos_site_id
 _symmetry_equiv_pos_as_xyz
  1  'x, y, z'
loop_
 _atom_site_type_symbol
 _atom_site_label
 _atom_site_symmetry_multiplicity
 _atom_site_fract_x
 _atom_site_fract_y
 _atom_site_fract_z
 _atom_site_occupancy
  Na  Na0  1  0.74179951  0.09706280  0.86015153  1
  Na  Na1  1  0.75609386  0.62201848  0.37704340  1
  Na  Na2  1  0.75140093  0.38038709  0.13296280  1
  Na  Na3  1  0.24859907  0.61961191  0.86703720  1
  Na  Na4  1  0.24390614  0.37798152  0.62295660  1
  Na  Na5  1  0.25820049  0.90293720  0.13984847  1
  Ni  Ni6  1  0.65261929  0.01716146  0.23822897  1
  Ni  Ni7  1  0.65609610  0.51924877  0.73341812  1
  Ni  Ni8  1  0.34738071  0.98283854  0.76177103  1
  Ni  Ni9  1  0.34390390  0.48075123  0.26658188  1
  P  P10  1  0.57198922  0.23734257  0.51354938  1
  P  P11  1  0.57579401  0.73021521  0.02126822  1
  P  P12  1  0.42420599  0.26978479  0.97873178  1
  P  P13  1  0.42801078  0.76265743  0.48645062  1
  C  C14  1  0.92529954  0.47863185  0.76697320  1
  C  C15  1  0.92452702  0.98695561  0.26985498  1
  C  C16  1  0.07547298  0.01304439  0.73014502  1
  C  C17  1  0.07470046  0.52136815  0.23302680  1
  O  O18  1  0.93821591  0.03478338  0.71608795  1
  O  O19  1  0.93691879  0.54181038  0.21490415  1
  O  O20  1  0.86771106  0.59475899  0.65603316  1
  O  O21  1  0.86573564  0.10202213  0.15676297  1
  O  O22  1  0.82343970  0.38419676  0.85987497  1
  O  O23  1  0.82592827  0.89474358  0.36664284  1
  O  O24  1  0.67363044  0.66399963  0.89951361  1
  O  O25  1  0.66681326  0.18545030  0.37987041  1
  O  O26  1  0.67649890  0.36687329  0.56935961  1
  O  O27  1  0.67609294  0.86109838  0.07874570  1
  O  O28  1  0.57247140  0.19658376  0.05181954  1
  O  O29  1  0.57747993  0.68929878  0.55377781  1
  O  O30  1  0.53584645  0.09323165  0.66435506  1
  O  O31  1  0.53853917  0.58361542  0.17360922  1
  O  O32  1  0.46146083  0.41638458  0.82639078  1
  O  O33  1  0.46415355  0.90676835  0.33564494  1
  O  O34  1  0.42752860  0.80341624  0.94818046  1
  O  O35  1  0.42252007  0.31070122  0.44622219  1
  O  O36  1  0.32390706  0.13890162  0.92125430  1
  O  O37  1  0.33318674  0.81454970  0.62012959  1
  O  O38  1  0.32636956  0.33600037  0.10048639  1
  O  O39  1  0.32350210  0.63312671  0.43064039  1
  O  O40  1  0.17407173  0.10525642  0.63335716  1
  O  O41  1  0.17656030  0.61580324  0.14012503  1
  O  O42  1  0.13228894  0.40524101  0.34396684  1
  O  O43  1  0.13426436  0.89797787  0.84323703  1
  O  O44  1  0.06308121  0.45818962  0.78509585  1
  O  O45  1  0.06178409  0.96521662  0.28391205  1
