# generated using pymatgen
data_Pb3BrO3
_symmetry_space_group_name_H-M   'P 1'
_cell_length_a   5.94449597
_cell_length_b   7.10592942
_cell_length_c   16.42855788
_cell_angle_alpha   90.00000000
_cell_angle_beta   90.00000000
_cell_angle_gamma   90.00000000
_symmetry_Int_Tables_number   1
_chemical_formula_structural   Pb3BrO3
_chemical_formula_sum   'Pb12 Br4 O12'
_cell_volume   693.96148655
_cell_formula_units_Z   4
loop_
 _symmetry_equiv_pos_site_id
 _symmetry_equiv_pos_as_xyz
  1  'x, y, z'
loop_
 _atom_site_type_symbol
 _atom_site_label
 _atom_site_symmetry_multiplicity
 _atom_site_fract_x
 _atom_site_fract_y
 _atom_site_fract_z
 _atom_site_occupancy
  Pb  Pb0  1  0.50000000  0.32479979  0.17913596  1
  Pb  Pb1  1  0.50000000  0.67520021  0.67913596  1
  Pb  Pb2  1  0.50000000  0.80814716  0.11040338  1
  Pb  Pb3  1  0.50000000  0.19185284  0.61040338  1
  Pb  Pb4  1  0.50000000  0.52325193  0.43467579  1
  Pb  Pb5  1  0.50000000  0.47674807  0.93467579  1
  Pb  Pb6  1  0.00000000  0.52484787  0.07927645  1
  Pb  Pb7  1  0.00000000  0.47515213  0.57927645  1
  Pb  Pb8  1  0.00000000  0.70900600  0.28147674  1
  Pb  Pb9  1  0.00000000  0.29099400  0.78147674  1
  Pb  Pb10  1  0.00000000  0.81160885  0.90812880  1
  Pb  Pb11  1  0.00000000  0.18839115  0.40812880  1
  Br  Br12  1  0.00000000  0.14189477  0.10606625  1
  Br  Br13  1  0.00000000  0.85810523  0.60606625  1
  Br  Br14  1  0.50000000  0.05805484  0.83071867  1
  Br  Br15  1  0.50000000  0.94194516  0.33071867  1
  O  O16  1  0.24068757  0.30998540  0.50833027  1
  O  O17  1  0.75931243  0.30998540  0.50833027  1
  O  O18  1  0.75931243  0.69001460  0.00833027  1
  O  O19  1  0.24068757  0.69001460  0.00833027  1
  O  O20  1  0.24343405  0.58580826  0.17585031  1
  O  O21  1  0.75656595  0.58580826  0.17585031  1
  O  O22  1  0.75656595  0.41419174  0.67585031  1
  O  O23  1  0.24343405  0.41419174  0.67585031  1
  O  O24  1  0.00000000  0.48250750  0.36912779  1
  O  O25  1  0.00000000  0.51749250  0.86912779  1
  O  O26  1  0.50000000  0.32930830  0.04796902  1
  O  O27  1  0.50000000  0.67069170  0.54796902  1
