# generated using pymatgen
data_Li5V3P8O29
_symmetry_space_group_name_H-M   'P 1'
_cell_length_a   9.82885918
_cell_length_b   9.79095658
_cell_length_c   14.07992490
_cell_angle_alpha   90.43266327
_cell_angle_beta   90.28594344
_cell_angle_gamma   60.26670498
_symmetry_Int_Tables_number   1
_chemical_formula_structural   Li5V3P8O29
_chemical_formula_sum   'Li10 V6 P16 O58'
_cell_volume   1176.54158092
_cell_formula_units_Z   2
loop_
 _symmetry_equiv_pos_site_id
 _symmetry_equiv_pos_as_xyz
  1  'x, y, z'
loop_
 _atom_site_type_symbol
 _atom_site_label
 _atom_site_symmetry_multiplicity
 _atom_site_fract_x
 _atom_site_fract_y
 _atom_site_fract_z
 _atom_site_occupancy
  Li  Li0  1  0.76883172  0.90415084  0.56023768  1
  Li  Li1  1  0.91410477  0.31449225  0.56471841  1
  Li  Li2  1  0.67561601  0.66278386  0.88824642  1
  Li  Li3  1  0.76854648  0.31801613  0.05638520  1
  Li  Li4  1  0.32081873  0.90977363  0.06076532  1
  Li  Li5  1  0.68802546  0.22300542  0.44369168  1
  Li  Li6  1  0.32441899  0.76877292  0.56143845  1
  Li  Li7  1  0.32857237  0.32332437  0.10706309  1
  Li  Li8  1  0.09095383  0.68127866  0.43850306  1
  Li  Li9  1  0.97586098  0.97358742  0.99625047  1
  V  V10  1  0.56839661  0.43686136  0.24900938  1
  V  V11  1  0.43027126  0.56918395  0.75200045  1
  V  V12  1  0.56529467  0.00447279  0.75357023  1
  V  V13  1  0.43295336  0.00203538  0.25075249  1
  V  V14  1  0.99684028  0.57046275  0.24590034  1
  V  V15  1  0.00411643  0.42957277  0.75174578  1
  P  P16  1  0.91168356  0.77907786  0.84117112  1
  P  P17  1  0.76619627  0.91394813  0.34062894  1
  P  P18  1  0.91501025  0.31970756  0.34381822  1
  P  P19  1  0.66307401  0.67087559  0.12705189  1
  P  P20  1  0.66664812  0.66579709  0.62946341  1
  P  P21  1  0.77306619  0.31832119  0.84188854  1
  P  P22  1  0.67942844  0.23209452  0.65973082  1
  P  P23  1  0.31537663  0.91282255  0.84548631  1
  P  P24  1  0.68944400  0.08845467  0.15693173  1
  P  P25  1  0.31709083  0.77135953  0.34357151  1
  P  P26  1  0.22466163  0.68692286  0.16020587  1
  P  P27  1  0.33595360  0.33635467  0.36930021  1
  P  P28  1  0.33322169  0.33488850  0.87145363  1
  P  P29  1  0.08465150  0.68258601  0.65745937  1
  P  P30  1  0.23062143  0.08247695  0.66105962  1
  P  P31  1  0.08528412  0.22328692  0.15957864  1
  O  O32  1  0.99843806  0.75414975  0.56635291  1
  O  O33  1  0.91798309  0.75183052  0.33689300  1
  O  O34  1  0.79181834  0.00830915  0.07493906  1
  O  O35  1  0.73898213  0.91943786  0.83235356  1
  O  O36  1  0.89929783  0.62795212  0.83389277  1
  O  O37  1  0.80722719  0.67163539  0.16850736  1
  O  O38  1  0.90750373  0.47749914  0.31998149  1
  O  O39  1  0.98592644  0.22176916  0.08015844  1
  O  O40  1  0.91695179  0.34258822  0.83266013  1
  O  O41  1  0.66715045  0.81599249  0.67426643  1
  O  O42  1  0.62262518  0.89513501  0.32086010  1
  O  O43  1  0.81500751  0.51435674  0.66754414  1
  O  O44  1  0.65737520  0.66025791  0.02095910  1
  O  O45  1  0.66391470  0.67444520  0.52364496  1
  O  O46  1  0.66368407  0.51822501  0.16887782  1
  O  O47  1  0.48031905  0.89905610  0.82977199  1
  O  O48  1  0.51057924  0.81897463  0.16432292  1
  O  O49  1  0.74480696  0.34182292  0.33443478  1
  O  O50  1  0.78777354  0.21033049  0.75068625  1
  O  O51  1  0.76100064  0.23717994  0.57104153  1
  O  O52  1  0.77760876  0.23480114  0.93058341  1
  O  O53  1  0.62710714  0.48300584  0.82855634  1
  O  O54  1  0.51534661  0.66867106  0.66866089  1
  O  O55  1  0.65682172  0.26401702  0.16175690  1
  O  O56  1  0.47638570  0.61900956  0.31853787  1
  O  O57  1  0.34061019  0.91233016  0.33810362  1
  O  O58  1  0.78201906  0.01469198  0.25565046  1
  O  O59  1  0.75345459  0.99912811  0.43254435  1
  O  O60  1  0.24063444  0.98696242  0.57694663  1
  O  O61  1  0.66094583  0.08271410  0.66004091  1
  O  O62  1  0.52185764  0.38137473  0.67612549  1
  O  O63  1  0.34302500  0.74307963  0.83589356  1
  O  O64  1  0.48605068  0.33676607  0.32338144  1
  O  O65  1  0.37777853  0.52324446  0.17048670  1
  O  O66  1  0.22061403  0.78426817  0.07887543  1
  O  O67  1  0.25186807  0.74826349  0.43404436  1
  O  O68  1  0.20261836  0.78291224  0.25814485  1
  O  O69  1  0.24961329  0.66481056  0.65951953  1
  O  O70  1  0.48293733  0.18174089  0.82626636  1
  O  O71  1  0.52744909  0.09822518  0.16356089  1
  O  O72  1  0.33850583  0.47741842  0.83018688  1
  O  O73  1  0.34475516  0.32561338  0.97704230  1
  O  O74  1  0.35530893  0.32662758  0.47396741  1
  O  O75  1  0.18650205  0.48607102  0.33346616  1
  O  O76  1  0.38280837  0.09064556  0.68051263  1
  O  O77  1  0.34001325  0.18819580  0.32053310  1
  O  O78  1  0.08742137  0.65213781  0.16188832  1
  O  O79  1  0.99052948  0.79718020  0.74423110  1
  O  O80  1  0.99265644  0.79976458  0.92363589  1
  O  O81  1  0.09352984  0.52422488  0.67881763  1
  O  O82  1  0.19026525  0.33071295  0.82997105  1
  O  O83  1  0.10371049  0.37156903  0.16938124  1
  O  O84  1  0.25260192  0.08018646  0.15827096  1
  O  O85  1  0.23958292  0.98934502  0.93655896  1
  O  O86  1  0.20618589  0.00690122  0.75753307  1
  O  O87  1  0.08713433  0.25027292  0.65993749  1
  O  O88  1  0.98221396  0.25408114  0.43762594  1
  O  O89  1  0.01230106  0.20287533  0.25921188  1
