# generated using pymatgen
data_Li5V3P8O29
_symmetry_space_group_name_H-M   'P 1'
_cell_length_a   9.79806291
_cell_length_b   9.80275812
_cell_length_c   13.90047273
_cell_angle_alpha   89.88382763
_cell_angle_beta   89.89658312
_cell_angle_gamma   60.26161835
_symmetry_Int_Tables_number   1
_chemical_formula_structural   Li5V3P8O29
_chemical_formula_sum   'Li10 V6 P16 O58'
_cell_volume   1159.27511590
_cell_formula_units_Z   2
loop_
 _symmetry_equiv_pos_site_id
 _symmetry_equiv_pos_as_xyz
  1  'x, y, z'
loop_
 _atom_site_type_symbol
 _atom_site_label
 _atom_site_symmetry_multiplicity
 _atom_site_fract_x
 _atom_site_fract_y
 _atom_site_fract_z
 _atom_site_occupancy
  Li  Li0  1  0.91178294  0.77569186  0.05949971  1
  Li  Li1  1  0.76947274  0.90431945  0.56058593  1
  Li  Li2  1  0.91079065  0.31744615  0.55893312  1
  Li  Li3  1  0.66581284  0.66565379  0.88370191  1
  Li  Li4  1  0.77371018  0.31268624  0.06065199  1
  Li  Li5  1  0.31914132  0.90688665  0.06052382  1
  Li  Li6  1  0.67727875  0.22883427  0.43898949  1
  Li  Li7  1  0.32312734  0.77307066  0.55868653  1
  Li  Li8  1  0.09487536  0.67967675  0.43949905  1
  Li  Li9  1  0.09592996  0.22651443  0.94020929  1
  V  V10  1  0.56665704  0.43318900  0.24591488  1
  V  V11  1  0.43157923  0.56602945  0.75394095  1
  V  V12  1  0.56551529  0.00662306  0.75349236  1
  V  V13  1  0.42900465  0.00509856  0.25431186  1
  V  V14  1  0.00056060  0.56719588  0.25072573  1
  V  V15  1  0.99979072  0.43131566  0.74610955  1
  P  P16  1  0.90918286  0.76964756  0.84270205  1
  P  P17  1  0.76753913  0.91412695  0.34273513  1
  P  P18  1  0.91116733  0.31881804  0.34236702  1
  P  P19  1  0.66532226  0.67073191  0.12648955  1
  P  P20  1  0.66504087  0.66876879  0.62678524  1
  P  P21  1  0.77095353  0.31891049  0.84335608  1
  P  P22  1  0.68045347  0.23311512  0.65870499  1
  P  P23  1  0.31714525  0.91225915  0.84332724  1
  P  P24  1  0.68299839  0.08450687  0.15676847  1
  P  P25  1  0.32106168  0.76654946  0.34190099  1
  P  P26  1  0.23041729  0.68389275  0.15752756  1
  P  P27  1  0.33523632  0.33416124  0.37417943  1
  P  P28  1  0.33027575  0.33350444  0.87466267  1
  P  P29  1  0.08675946  0.68384235  0.65825469  1
  P  P30  1  0.23222575  0.08345047  0.65693777  1
  P  P31  1  0.08890578  0.23118517  0.15897263  1
  O  O32  1  0.99598969  0.75817838  0.56774323  1
  O  O33  1  0.91480526  0.74906452  0.34242351  1
  O  O34  1  0.76592558  0.99047281  0.07080670  1
  O  O35  1  0.74132093  0.91685266  0.83303220  1
  O  O36  1  0.88778589  0.62490469  0.82530575  1
  O  O37  1  0.81261783  0.67571933  0.16470138  1
  O  O38  1  0.90310223  0.47883544  0.32142100  1
  O  O39  1  0.00265513  0.23746650  0.06806018  1
  O  O40  1  0.92145708  0.33600385  0.83858530  1
  O  O41  1  0.66940204  0.81649279  0.66928026  1
  O  O42  1  0.61686465  0.90355113  0.32379408  1
  O  O43  1  0.81331830  0.51308137  0.66568199  1
  O  O44  1  0.66190643  0.67167263  0.01784883  1
  O  O45  1  0.66599406  0.67072108  0.51945513  1
  O  O46  1  0.67301844  0.51454054  0.16355836  1
  O  O47  1  0.48371774  0.89582847  0.82546118  1
  O  O48  1  0.51231905  0.81753473  0.16663586  1
  O  O49  1  0.74333061  0.33961260  0.33693196  1
  O  O50  1  0.78997376  0.21148407  0.75089376  1
  O  O51  1  0.76145309  0.23796935  0.56791629  1
  O  O52  1  0.76197327  0.24494973  0.93451012  1
  O  O53  1  0.62784859  0.48619540  0.82605936  1
  O  O54  1  0.51466236  0.66929345  0.66933399  1
  O  O55  1  0.66221234  0.25171837  0.15716762  1
  O  O56  1  0.47939328  0.61881571  0.32440660  1
  O  O57  1  0.34152478  0.91344876  0.33418639  1
  O  O58  1  0.78885881  0.00525730  0.25349917  1
  O  O59  1  0.75274506  0.00191620  0.43438860  1
  O  O60  1  0.24402864  0.98954481  0.57108300  1
  O  O61  1  0.66372274  0.08286290  0.66091309  1
  O  O62  1  0.52163485  0.38124625  0.67396116  1
  O  O63  1  0.34081360  0.74659471  0.84165789  1
  O  O64  1  0.48822356  0.32530485  0.33322562  1
  O  O65  1  0.38092208  0.52280006  0.17566597  1
  O  O66  1  0.23933500  0.76806295  0.07135101  1
  O  O67  1  0.24188589  0.76103531  0.43334879  1
  O  O68  1  0.20591527  0.78713255  0.25385008  1
  O  O69  1  0.25126493  0.66543227  0.65761259  1
  O  O70  1  0.47968670  0.18353521  0.82612005  1
  O  O71  1  0.52327192  0.09309781  0.17759347  1
  O  O72  1  0.33726094  0.47731004  0.82873942  1
  O  O73  1  0.34010007  0.32364137  0.98073358  1
  O  O74  1  0.33539080  0.32672250  0.48098926  1
  O  O75  1  0.18657238  0.48623465  0.33483275  1
  O  O76  1  0.38360937  0.09155270  0.67856389  1
  O  O77  1  0.33279811  0.18526493  0.32615180  1
  O  O78  1  0.08440519  0.66102570  0.16022646  1
  O  O79  1  0.99937950  0.79014232  0.75080214  1
  O  O80  1  0.98988017  0.76536955  0.93346600  1
  O  O81  1  0.09454100  0.52392501  0.67767944  1
  O  O82  1  0.18404310  0.32955579  0.83424623  1
  O  O83  1  0.10207924  0.37803809  0.17585778  1
  O  O84  1  0.25473679  0.08186233  0.16130259  1
  O  O85  1  0.24584135  0.00342974  0.93366430  1
  O  O86  1  0.20610993  0.00552319  0.75398129  1
  O  O87  1  0.08637664  0.25085797  0.65693137  1
  O  O88  1  0.99176854  0.24679440  0.43407198  1
  O  O89  1  0.99937468  0.20904155  0.25036251  1
