# generated using pymatgen
data_MnCu3(PO4)4
_symmetry_space_group_name_H-M   'P 1'
_cell_length_a   4.88253015
_cell_length_b   9.74890536
_cell_length_c   5.94054339
_cell_angle_alpha   90.00000000
_cell_angle_beta   90.00000000
_cell_angle_gamma   89.05663672
_symmetry_Int_Tables_number   1
_chemical_formula_structural   MnCu3(PO4)4
_chemical_formula_sum   'Mn1 Cu3 P4 O16'
_cell_volume   282.72752489
_cell_formula_units_Z   1
loop_
 _symmetry_equiv_pos_site_id
 _symmetry_equiv_pos_as_xyz
  1  'x, y, z'
loop_
 _atom_site_type_symbol
 _atom_site_label
 _atom_site_symmetry_multiplicity
 _atom_site_fract_x
 _atom_site_fract_y
 _atom_site_fract_z
 _atom_site_occupancy
  Mn  Mn0  1  0.93855503  0.28508477  0.25000000  1
  Cu  Cu1  1  0.07082320  0.71502063  0.75000000  1
  Cu  Cu2  1  0.40257501  0.21074865  0.75000000  1
  Cu  Cu3  1  0.57413956  0.78256994  0.25000000  1
  P  P4  1  0.09232367  0.59834754  0.25000000  1
  P  P5  1  0.41721086  0.09632687  0.25000000  1
  P  P6  1  0.57737794  0.89998354  0.75000000  1
  P  P7  1  0.91617680  0.40334997  0.75000000  1
  O  O8  1  0.16236575  0.44282222  0.25000000  1
  O  O9  1  0.23835321  0.67038570  0.04755878  1
  O  O10  1  0.23835321  0.67038570  0.45244122  1
  O  O11  1  0.23205280  0.38335857  0.75000000  1
  O  O12  1  0.26518255  0.88088820  0.75000000  1
  O  O13  1  0.25893953  0.17006316  0.05061594  1
  O  O14  1  0.25893953  0.17006316  0.44938406  1
  O  O15  1  0.35212758  0.94216439  0.25000000  1
  O  O16  1  0.63097563  0.05635818  0.75000000  1
  O  O17  1  0.73365055  0.83029087  0.54788128  1
  O  O18  1  0.73365055  0.83029087  0.95211872  1
  O  O19  1  0.72581066  0.12054629  0.25000000  1
  O  O20  1  0.77737690  0.61491669  0.25000000  1
  O  O21  1  0.77514338  0.33333058  0.54491230  1
  O  O22  1  0.77514338  0.33333058  0.95508770  1
  O  O23  1  0.85275374  0.55937493  0.75000000  1
