# generated using pymatgen
data_LiFeO2
_symmetry_space_group_name_H-M   'P 1'
_cell_length_a   2.97574375
_cell_length_b   2.97574103
_cell_length_c   10.07950964
_cell_angle_alpha   90.00433984
_cell_angle_beta   89.99741552
_cell_angle_gamma   119.99947835
_symmetry_Int_Tables_number   1
_chemical_formula_structural   LiFeO2
_chemical_formula_sum   'Li2 Fe2 O4'
_cell_volume   77.29706102
_cell_formula_units_Z   2
loop_
 _symmetry_equiv_pos_site_id
 _symmetry_equiv_pos_as_xyz
  1  'x, y, z'
loop_
 _atom_site_type_symbol
 _atom_site_label
 _atom_site_symmetry_multiplicity
 _atom_site_fract_x
 _atom_site_fract_y
 _atom_site_fract_z
 _atom_site_occupancy
  Li  Li0  1  0.33330181  0.66670788  0.23995319  1
  Li  Li1  1  0.66668955  0.33340190  0.73984498  1
  Fe  Fe2  1  0.33334866  0.66664015  0.49981040  1
  Fe  Fe3  1  0.66665331  0.33328912  0.99980429  1
  O  O4  1  0.33332251  0.66660412  0.88749276  1
  O  O5  1  0.99999244  0.99998119  0.11386016  1
  O  O6  1  0.00001222  0.99999051  0.61383483  1
  O  O7  1  0.66667950  0.33328514  0.38751938  1
