# generated using pymatgen
data_Li2Cr(Si2O5)3
_symmetry_space_group_name_H-M   'P 1'
_cell_length_a   10.01295378
_cell_length_b   10.01268691
_cell_length_c   14.23952990
_cell_angle_alpha   90.00133198
_cell_angle_beta   89.99908765
_cell_angle_gamma   119.99760745
_symmetry_Int_Tables_number   1
_chemical_formula_structural   Li2Cr(Si2O5)3
_chemical_formula_sum   'Li8 Cr4 Si24 O60'
_cell_volume   1236.37325231
_cell_formula_units_Z   4
loop_
 _symmetry_equiv_pos_site_id
 _symmetry_equiv_pos_as_xyz
  1  'x, y, z'
loop_
 _atom_site_type_symbol
 _atom_site_label
 _atom_site_symmetry_multiplicity
 _atom_site_fract_x
 _atom_site_fract_y
 _atom_site_fract_z
 _atom_site_occupancy
  Li  Li0  1  0.49983323  -0.00000788  0.75001635  1
  Li  Li1  1  0.00000929  0.49984952  0.75000300  1
  Li  Li2  1  0.99998227  0.49983550  0.24999880  1
  Li  Li3  1  0.49986788  0.00000991  0.24998784  1
  Li  Li4  1  0.50012889  0.50014966  0.74999223  1
  Li  Li5  1  0.50017294  0.50016810  0.25000464  1
  Li  Li6  1  0.33330937  0.66669783  0.00000457  1
  Li  Li7  1  0.66669942  0.33339643  0.49998665  1
  Cr  Cr8  1  0.33331449  0.66665853  0.25155362  1
  Cr  Cr9  1  0.66666802  0.33334579  0.75153901  1
  Cr  Cr10  1  0.66666245  0.33334897  0.24847742  1
  Cr  Cr11  1  0.33339678  0.66676905  0.74841095  1
  Si  Si12  1  0.12714741  0.36112867  0.88837289  1
  Si  Si13  1  0.36105962  0.12711870  0.38840603  1
  Si  Si14  1  0.36102411  0.12710701  0.61162345  1
  Si  Si15  1  0.12711661  0.36107625  0.11157680  1
  Si  Si16  1  0.23493576  0.36170462  0.61077461  1
  Si  Si17  1  0.36165095  0.23490617  0.88922805  1
  Si  Si18  1  0.36168741  0.23492381  0.11076021  1
  Si  Si19  1  0.23493645  0.36170317  0.38925947  1
  Si  Si20  1  0.12676106  0.76505251  0.61077580  1
  Si  Si21  1  0.76508931  0.12674441  0.88923430  1
  Si  Si22  1  0.76507192  0.12675713  0.11075179  1
  Si  Si23  1  0.12675051  0.76505684  0.38926889  1
  Si  Si24  1  0.87289414  0.23389826  0.61161845  1
  Si  Si25  1  0.87286598  0.23391314  0.38840711  1
  Si  Si26  1  0.23393461  0.87284980  0.88839624  1
  Si  Si27  1  0.23393297  0.87284796  0.11158873  1
  Si  Si28  1  0.63887888  0.76604173  0.88837328  1
  Si  Si29  1  0.76607101  0.63894361  0.38841473  1
  Si  Si30  1  0.76609080  0.63897264  0.61161755  1
  Si  Si31  1  0.63892139  0.76607203  0.11158251  1
  Si  Si32  1  0.87325235  0.63833967  0.88922825  1
  Si  Si33  1  0.63827108  0.87321697  0.61078042  1
  Si  Si34  1  0.87323612  0.63832425  0.11075835  1
  Si  Si35  1  0.63829244  0.87323057  0.38925608  1
  O  O36  1  0.05144680  0.28509421  0.63323626  1
  O  O37  1  0.28512715  0.05151449  0.86676772  1
  O  O38  1  0.28508839  0.05148763  0.13319499  1
  O  O39  1  0.05146582  0.28509091  0.36680244  1
  O  O40  1  0.28398729  0.23230617  0.63504216  1
  O  O41  1  0.23235142  0.28394515  0.86496098  1
  O  O42  1  0.28397226  0.23230702  0.36499804  1
  O  O43  1  0.23233419  0.28396109  0.13499554  1
  O  O44  1  0.41899326  0.15429035  0.50001448  1
  O  O45  1  0.15426992  0.41897741  -0.00000948  1
  O  O46  1  0.26550882  0.40643699  0.49999715  1
  O  O47  1  0.40645759  0.26550285  -0.00001153  1
  O  O48  1  0.51398433  0.17036585  0.67209041  1
  O  O49  1  0.51398735  0.17038215  0.32792496  1
  O  O50  1  0.17043213  0.51399248  0.82793108  1
  O  O51  1  0.17035105  0.51398664  0.17205387  1
  O  O52  1  0.65770771  0.16890075  0.82530873  1
  O  O53  1  0.16894357  0.65776308  0.67465240  1
  O  O54  1  0.65771317  0.16891151  0.17467099  1
  O  O55  1  0.16886782  0.65770637  0.32533131  1
  O  O56  1  0.76771141  0.05165689  0.36500081  1
  O  O57  1  0.76768975  0.05167720  0.63504992  1
  O  O58  1  0.05161483  0.76764817  0.86495172  1
  O  O59  1  0.05163001  0.76767024  0.13500772  1
  O  O60  1  0.51119018  0.34227858  0.82530638  1
  O  O61  1  0.34227127  0.51118239  0.67469184  1
  O  O62  1  0.51117573  0.34226120  0.17468526  1
  O  O63  1  0.34227121  0.51116659  0.32533405  1
  O  O64  1  0.14090647  0.73448794  0.49999890  1
  O  O65  1  0.73449375  0.14093623  -0.00001149  1
  O  O66  1  0.84572352  0.26469841  0.50001465  1
  O  O67  1  0.26469105  0.84571170  -0.00001623  1
  O  O68  1  0.65636077  0.48598730  0.67207637  1
  O  O69  1  0.65636707  0.48598590  0.32795276  1
  O  O70  1  0.48604316  0.65643057  0.82791510  1
  O  O71  1  0.48599347  0.65636799  0.17205557  1
  O  O72  1  0.94848178  0.23360953  0.86676385  1
  O  O73  1  0.23365385  0.94856227  0.63324117  1
  O  O74  1  0.94850634  0.23360801  0.13319198  1
  O  O75  1  0.23362600  0.94854469  0.36681327  1
  O  O76  1  0.82961072  0.34362098  0.67208676  1
  O  O77  1  0.34360661  0.82960798  0.82791658  1
  O  O78  1  0.82957577  0.34360210  0.32795821  1
  O  O79  1  0.34361272  0.82961085  0.17205691  1
  O  O80  1  0.48887873  0.83110112  0.67465890  1
  O  O81  1  0.83109335  0.48881567  0.82533055  1
  O  O82  1  0.83105081  0.48879634  0.17465922  1
  O  O83  1  0.48882679  0.83111087  0.32532917  1
  O  O84  1  0.73529718  0.58099447  0.50001258  1
  O  O85  1  0.58102204  0.73530375  -0.00000872  1
  O  O86  1  0.59356333  0.85906659  0.49999503  1
  O  O87  1  0.85906616  0.59357133  -0.00000863  1
  O  O88  1  0.71489498  0.76634840  0.36681727  1
  O  O89  1  0.76638986  0.71487028  0.86676336  1
  O  O90  1  0.71489676  0.76633203  0.63323094  1
  O  O91  1  0.76639314  0.71491075  0.13319810  1
  O  O92  1  0.94832620  0.71602836  0.36499989  1
  O  O93  1  0.94831112  0.71600051  0.63505415  1
  O  O94  1  0.71603458  0.94839033  0.86495327  1
  O  O95  1  0.71603960  0.94836808  0.13499626  1
