# generated using pymatgen
data_LiMnPO5
_symmetry_space_group_name_H-M   'P 1'
_cell_length_a   7.10588022
_cell_length_b   6.28844796
_cell_length_c   7.42631987
_cell_angle_alpha   90.00000000
_cell_angle_beta   90.00000000
_cell_angle_gamma   90.00000000
_symmetry_Int_Tables_number   1
_chemical_formula_structural   LiMnPO5
_chemical_formula_sum   'Li4 Mn4 P4 O20'
_cell_volume   331.84479129
_cell_formula_units_Z   4
loop_
 _symmetry_equiv_pos_site_id
 _symmetry_equiv_pos_as_xyz
  1  'x, y, z'
loop_
 _atom_site_type_symbol
 _atom_site_label
 _atom_site_symmetry_multiplicity
 _atom_site_fract_x
 _atom_site_fract_y
 _atom_site_fract_z
 _atom_site_occupancy
  Li  Li0  1  0.00000000  0.00000000  0.00000000  1
  Li  Li1  1  0.00000000  0.50000000  0.00000000  1
  Li  Li2  1  0.50000000  0.00000000  0.50000000  1
  Li  Li3  1  0.50000000  0.50000000  0.50000000  1
  Mn  Mn4  1  0.14075335  0.25000000  0.73028386  1
  Mn  Mn5  1  0.35924665  0.75000000  0.23028386  1
  Mn  Mn6  1  0.64075335  0.25000000  0.76971614  1
  Mn  Mn7  1  0.85924665  0.75000000  0.26971614  1
  P  P8  1  0.12378585  0.75000000  0.61969376  1
  P  P9  1  0.37621415  0.25000000  0.11969376  1
  P  P10  1  0.62378585  0.75000000  0.88030624  1
  P  P11  1  0.87621415  0.25000000  0.38030624  1
  O  O12  1  0.06161669  0.25000000  0.48790815  1
  O  O13  1  0.10784111  0.75000000  0.16106031  1
  O  O14  1  0.12999385  0.55823805  0.74997000  1
  O  O15  1  0.12999385  0.94176195  0.74997000  1
  O  O16  1  0.20101587  0.25000000  0.99471303  1
  O  O17  1  0.29898413  0.75000000  0.49471303  1
  O  O18  1  0.37000615  0.05823805  0.24997000  1
  O  O19  1  0.37000615  0.44176195  0.24997000  1
  O  O20  1  0.39215889  0.25000000  0.66106031  1
  O  O21  1  0.43838331  0.75000000  0.98790815  1
  O  O22  1  0.56161669  0.25000000  0.01209185  1
  O  O23  1  0.60784111  0.75000000  0.33893969  1
  O  O24  1  0.62999385  0.55823805  0.75003000  1
  O  O25  1  0.62999385  0.94176195  0.75003000  1
  O  O26  1  0.70101587  0.25000000  0.50528697  1
  O  O27  1  0.79898413  0.75000000  0.00528697  1
  O  O28  1  0.87000615  0.05823805  0.25003000  1
  O  O29  1  0.87000615  0.44176195  0.25003000  1
  O  O30  1  0.89215889  0.25000000  0.83893969  1
  O  O31  1  0.93838331  0.75000000  0.51209185  1
