# generated using pymatgen
data_Li3CrSiCO7
_symmetry_space_group_name_H-M   'P 1'
_cell_length_a   8.29068154
_cell_length_b   6.45719571
_cell_length_c   5.04445631
_cell_angle_alpha   90.00000000
_cell_angle_beta   85.15097677
_cell_angle_gamma   90.00000000
_symmetry_Int_Tables_number   1
_chemical_formula_structural   Li3CrSiCO7
_chemical_formula_sum   'Li6 Cr2 Si2 C2 O14'
_cell_volume   269.08616921
_cell_formula_units_Z   2
loop_
 _symmetry_equiv_pos_site_id
 _symmetry_equiv_pos_as_xyz
  1  'x, y, z'
loop_
 _atom_site_type_symbol
 _atom_site_label
 _atom_site_symmetry_multiplicity
 _atom_site_fract_x
 _atom_site_fract_y
 _atom_site_fract_z
 _atom_site_occupancy
  Li  Li0  1  0.11031491  0.25000000  0.76533641  1
  Li  Li1  1  0.29244008  0.03604433  0.23320819  1
  Li  Li2  1  0.29244008  0.46395567  0.23320819  1
  Li  Li3  1  0.70755992  0.53604433  0.76679181  1
  Li  Li4  1  0.70755992  0.96395567  0.76679181  1
  Li  Li5  1  0.88968509  0.75000000  0.23466359  1
  Cr  Cr6  1  0.31978221  0.75000000  0.80327486  1
  Cr  Cr7  1  0.68021779  0.25000000  0.19672514  1
  Si  Si8  1  0.42339268  0.25000000  0.71423962  1
  Si  Si9  1  0.57660732  0.75000000  0.28576038  1
  C  C10  1  0.02959732  0.75000000  0.70608527  1
  C  C11  1  0.97040268  0.25000000  0.29391473  1
  O  O12  1  0.11741397  0.25000000  0.35572191  1
  O  O13  1  0.06867010  0.75000000  0.95098497  1
  O  O14  1  0.14979963  0.75000000  0.52281636  1
  O  O15  1  0.30494612  0.05692635  0.81910672  1
  O  O16  1  0.30494612  0.44307365  0.81910672  1
  O  O17  1  0.45585211  0.25000000  0.38582226  1
  O  O18  1  0.40096369  0.75000000  0.16268497  1
  O  O19  1  0.59903631  0.25000000  0.83731503  1
  O  O20  1  0.54414789  0.75000000  0.61417774  1
  O  O21  1  0.69505388  0.55692635  0.18089328  1
  O  O22  1  0.69505388  0.94307365  0.18089328  1
  O  O23  1  0.85020037  0.25000000  0.47718364  1
  O  O24  1  0.93132990  0.25000000  0.04901503  1
  O  O25  1  0.88258603  0.75000000  0.64427809  1
