# generated using pymatgen
data_Li5MnO4
_symmetry_space_group_name_H-M   'P 1'
_cell_length_a   6.62718463
_cell_length_b   6.62718492
_cell_length_c   4.60609652
_cell_angle_alpha   90.00049549
_cell_angle_beta   89.99881888
_cell_angle_gamma   86.88673238
_symmetry_Int_Tables_number   1
_chemical_formula_structural   Li5MnO4
_chemical_formula_sum   'Li10 Mn2 O8'
_cell_volume   201.99924826
_cell_formula_units_Z   2
loop_
 _symmetry_equiv_pos_site_id
 _symmetry_equiv_pos_as_xyz
  1  'x, y, z'
loop_
 _atom_site_type_symbol
 _atom_site_label
 _atom_site_symmetry_multiplicity
 _atom_site_fract_x
 _atom_site_fract_y
 _atom_site_fract_z
 _atom_site_occupancy
  Li  Li0  1  0.03825286  0.95529265  0.77625723  1
  Li  Li1  1  0.21797624  0.27764088  0.67610690  1
  Li  Li2  1  0.27764311  0.21796404  0.17609748  1
  Li  Li3  1  0.45528698  0.53825947  0.72375051  1
  Li  Li4  1  0.48105427  0.98106165  0.74998159  1
  Li  Li5  1  0.53825341  0.45528263  0.22374717  1
  Li  Li6  1  0.71798007  0.77763982  0.32390658  1
  Li  Li7  1  0.77763797  0.71798437  0.82390040  1
  Li  Li8  1  0.95529457  0.03825514  0.27625921  1
  Li  Li9  1  0.98105400  0.48104766  0.24997465  1
  Mn  Mn10  1  0.25371943  0.75371677  0.25001152  1
  Mn  Mn11  1  0.75374146  0.25375322  0.74999390  1
  O  O12  1  0.00670255  0.23686969  0.96288545  1
  O  O13  1  0.23686314  0.00668536  0.46287941  1
  O  O14  1  0.26658922  0.48186500  0.39240502  1
  O  O15  1  0.48188933  0.26660267  0.89239174  1
  O  O16  1  0.50669723  0.73685560  0.03713758  1
  O  O17  1  0.76660189  0.98189824  0.60760195  1
  O  O18  1  0.73686147  0.50671226  0.53711687  1
  O  O19  1  0.98188179  0.76659387  0.10759383  1
