# generated using pymatgen
data_Fe3Co(PO4)4
_symmetry_space_group_name_H-M   'P 1'
_cell_length_a   4.86004633
_cell_length_b   9.93831930
_cell_length_c   5.89075535
_cell_angle_alpha   90.00000000
_cell_angle_beta   90.00000000
_cell_angle_gamma   90.12505613
_symmetry_Int_Tables_number   1
_chemical_formula_structural   Fe3Co(PO4)4
_chemical_formula_sum   'Fe3 Co1 P4 O16'
_cell_volume   284.52688370
_cell_formula_units_Z   1
loop_
 _symmetry_equiv_pos_site_id
 _symmetry_equiv_pos_as_xyz
  1  'x, y, z'
loop_
 _atom_site_type_symbol
 _atom_site_label
 _atom_site_symmetry_multiplicity
 _atom_site_fract_x
 _atom_site_fract_y
 _atom_site_fract_z
 _atom_site_occupancy
  Fe  Fe0  1  0.46834968  0.22655885  0.75000000  1
  Fe  Fe1  1  0.53721385  0.77624248  0.25000000  1
  Fe  Fe2  1  0.96760845  0.27477676  0.25000000  1
  Co  Co3  1  0.06683647  0.71583734  0.75000000  1
  P  P4  1  0.07505156  0.59622051  0.25000000  1
  P  P5  1  0.41571695  0.09656591  0.25000000  1
  P  P6  1  0.58674542  0.89722820  0.75000000  1
  P  P7  1  0.91863134  0.40759312  0.75000000  1
  O  O8  1  0.15440615  0.44805041  0.25000000  1
  O  O9  1  0.22370049  0.67337840  0.04794688  1
  O  O10  1  0.22370049  0.67337840  0.45205312  1
  O  O11  1  0.22847333  0.38433003  0.75000000  1
  O  O12  1  0.27036307  0.87876538  0.75000000  1
  O  O13  1  0.26985093  0.17227927  0.04692203  1
  O  O14  1  0.26985093  0.17227927  0.45307797  1
  O  O15  1  0.34593435  0.94750684  0.25000000  1
  O  O16  1  0.64075113  0.04945651  0.75000000  1
  O  O17  1  0.72960384  0.82609939  0.54463642  1
  O  O18  1  0.72960384  0.82609939  0.95536358  1
  O  O19  1  0.72580155  0.12014429  0.25000000  1
  O  O20  1  0.76558810  0.61549266  0.25000000  1
  O  O21  1  0.77076530  0.33218466  0.54724045  1
  O  O22  1  0.77076530  0.33218466  0.95275955  1
  O  O23  1  0.84468848  0.55734930  0.75000000  1
