# generated using pymatgen
data_Li4Fe(TeO4)3
_symmetry_space_group_name_H-M   'P 1'
_cell_length_a   5.22772543
_cell_length_b   5.04844727
_cell_length_c   8.63835284
_cell_angle_alpha   90.00000000
_cell_angle_beta   90.00000000
_cell_angle_gamma   91.03526091
_symmetry_Int_Tables_number   1
_chemical_formula_structural   Li4Fe(TeO4)3
_chemical_formula_sum   'Li4 Fe1 Te3 O12'
_cell_volume   227.94529678
_cell_formula_units_Z   1
loop_
 _symmetry_equiv_pos_site_id
 _symmetry_equiv_pos_as_xyz
  1  'x, y, z'
loop_
 _atom_site_type_symbol
 _atom_site_label
 _atom_site_symmetry_multiplicity
 _atom_site_fract_x
 _atom_site_fract_y
 _atom_site_fract_z
 _atom_site_occupancy
  Li  Li0  1  0.00000000  0.00000000  0.71248025  1
  Li  Li1  1  0.00000000  0.50000000  0.84840871  1
  Li  Li2  1  0.50000000  0.00000000  0.29932836  1
  Li  Li3  1  0.50000000  0.50000000  0.17803531  1
  Fe  Fe4  1  0.00000000  0.00000000  0.10350750  1
  Te  Te5  1  0.50000000  0.50000000  0.60687926  1
  Te  Te6  1  0.00000000  0.50000000  0.40105091  1
  Te  Te7  1  0.50000000  0.00000000  0.92518667  1
  O  O8  1  0.15479235  0.26476655  0.25632322  1
  O  O9  1  0.16201368  0.29359097  0.57655576  1
  O  O10  1  0.19011167  0.19927068  0.92100803  1
  O  O11  1  0.32255500  0.70706089  0.42793265  1
  O  O12  1  0.32804908  0.79880591  0.08771298  1
  O  O13  1  0.33428385  0.76549147  0.76356988  1
  O  O14  1  0.66571615  0.23450853  0.76356988  1
  O  O15  1  0.67195092  0.20119409  0.08771298  1
  O  O16  1  0.67744500  0.29293911  0.42793265  1
  O  O17  1  0.80988833  0.80072932  0.92100803  1
  O  O18  1  0.83798632  0.70640903  0.57655576  1
  O  O19  1  0.84520765  0.73523345  0.25632322  1
