# generated using pymatgen
data_Li8Fe7(PO4)8
_symmetry_space_group_name_H-M   'P 1'
_cell_length_a   7.75840145
_cell_length_b   7.75840145
_cell_length_c   11.31403575
_cell_angle_alpha   75.05283682
_cell_angle_beta   104.94716318
_cell_angle_gamma   76.23384663
_symmetry_Int_Tables_number   1
_chemical_formula_structural   Li8Fe7(PO4)8
_chemical_formula_sum   'Li8 Fe7 P8 O32'
_cell_volume   600.94665241
_cell_formula_units_Z   1
loop_
 _symmetry_equiv_pos_site_id
 _symmetry_equiv_pos_as_xyz
  1  'x, y, z'
loop_
 _atom_site_type_symbol
 _atom_site_label
 _atom_site_symmetry_multiplicity
 _atom_site_fract_x
 _atom_site_fract_y
 _atom_site_fract_z
 _atom_site_occupancy
  Li  Li0  1  0.25870713  0.25090957  0.51898123  1
  Li  Li1  1  0.49909043  0.49129287  0.51898123  1
  Li  Li2  1  0.74841946  0.75614828  0.49670860  1
  Li  Li3  1  0.99385172  0.00158054  0.49670860  1
  Li  Li4  1  0.74523641  0.76777328  0.99549115  1
  Li  Li5  1  0.98222672  0.00476359  0.99549115  1
  Li  Li6  1  0.49876474  0.48709900  0.99354246  1
  Li  Li7  1  0.26290100  0.25123526  0.99354246  1
  Fe  Fe8  1  0.00882981  0.74117019  0.78223070  1
  Fe  Fe9  1  0.97559835  0.27003136  0.71908985  1
  Fe  Fe10  1  0.47996864  0.77440165  0.71908985  1
  Fe  Fe11  1  0.02750191  0.72249809  0.27968681  1
  Fe  Fe12  1  0.52542753  0.22457247  0.28169323  1
  Fe  Fe13  1  0.49888553  0.75238373  0.22300111  1
  Fe  Fe14  1  0.99761627  0.25111447  0.22300111  1
  P  P15  1  0.27655108  0.96510054  0.90149461  1
  P  P16  1  0.78489946  0.47344892  0.90149461  1
  P  P17  1  0.63792622  0.11207378  0.59847161  1
  P  P18  1  0.13177506  0.61822494  0.58976146  1
  P  P19  1  0.36720019  0.88273148  0.40604500  1
  P  P20  1  0.86726852  0.38279981  0.40604500  1
  P  P21  1  0.21755768  0.53244232  0.09484648  1
  P  P22  1  0.71711865  0.03288135  0.09867234  1
  O  O23  1  0.21039632  0.53960368  0.95407653  1
  O  O24  1  0.71143586  0.03856414  0.96194564  1
  O  O25  1  0.93537284  0.31401710  0.88958130  1
  O  O26  1  0.43598290  0.81462716  0.88958130  1
  O  O27  1  0.25120598  0.17279410  0.82474682  1
  O  O28  1  0.07194212  0.95977626  0.83399943  1
  O  O29  1  0.57720590  0.49879402  0.82474682  1
  O  O30  1  0.79022374  0.67805788  0.83399943  1
  O  O31  1  0.21041874  0.74659164  0.66588510  1
  O  O32  1  0.00340836  0.53958126  0.66588510  1
  O  O33  1  0.50493265  0.03009972  0.66314718  1
  O  O34  1  0.71990028  0.24506735  0.66314718  1
  O  O35  1  0.28233648  0.46766352  0.57857649  1
  O  O36  1  0.80005308  0.94994692  0.59977183  1
  O  O37  1  0.49615883  0.74956557  0.54919827  1
  O  O38  1  0.00043443  0.25384117  0.54919827  1
  O  O39  1  0.50361257  0.24638743  0.45952408  1
  O  O40  1  0.98745429  0.76254571  0.45646008  1
  O  O41  1  0.70649806  0.54452715  0.40439972  1
  O  O42  1  0.20547285  0.04350194  0.40439972  1
  O  O43  1  0.99786428  0.45204038  0.33436600  1
  O  O44  1  0.50597201  0.94849577  0.34108823  1
  O  O45  1  0.29795962  0.75213572  0.33436600  1
  O  O46  1  0.80150423  0.24402799  0.34108823  1
  O  O47  1  0.71812333  0.82931097  0.17369698  1
  O  O48  1  0.21666592  0.32943464  0.16351439  1
  O  O49  1  0.42056536  0.53333408  0.16351439  1
  O  O50  1  0.92068903  0.03187667  0.17369698  1
  O  O51  1  0.05870771  0.69129229  0.09818023  1
  O  O52  1  0.55631365  0.19368635  0.10106229  1
  O  O53  1  0.80057023  0.45272417  0.04338766  1
  O  O54  1  0.29727583  0.94942977  0.04338766  1
