# generated using pymatgen
data_Ti3V2Co(PO4)6
_symmetry_space_group_name_H-M   'P 1'
_cell_length_a   8.57274221
_cell_length_b   8.68717697
_cell_length_c   8.68717701
_cell_angle_alpha   59.99999968
_cell_angle_beta   59.55743246
_cell_angle_gamma   59.55743104
_symmetry_Int_Tables_number   1
_chemical_formula_structural   Ti3V2Co(PO4)6
_chemical_formula_sum   'Ti3 V2 Co1 P6 O24'
_cell_volume   454.38533308
_cell_formula_units_Z   1
loop_
 _symmetry_equiv_pos_site_id
 _symmetry_equiv_pos_as_xyz
  1  'x, y, z'
loop_
 _atom_site_type_symbol
 _atom_site_label
 _atom_site_symmetry_multiplicity
 _atom_site_fract_x
 _atom_site_fract_y
 _atom_site_fract_z
 _atom_site_occupancy
  Ti  Ti0  1  0.06404074  0.64531975  0.64531975  1
  Ti  Ti1  1  0.42769584  0.85743505  0.85743505  1
  Ti  Ti2  1  0.93616282  0.35461239  0.35461239  1
  V  V3  1  0.99665168  0.00111611  0.00111611  1
  V  V4  1  0.49644041  0.50118620  0.50118620  1
  Co  Co5  1  0.57159850  0.14280050  0.14280050  1
  P  P6  1  0.25465693  0.24851142  0.54135019  1
  P  P7  1  0.25465693  0.95548147  0.24851142  1
  P  P8  1  0.25465693  0.54135019  0.95548147  1
  P  P9  1  0.74890782  0.45794560  0.04406335  1
  P  P10  1  0.74890782  0.04406335  0.74908324  1
  P  P11  1  0.74890782  0.74908324  0.45794560  1
  O  O12  1  0.07171682  0.11874390  0.31457948  1
  O  O13  1  0.07171682  0.49495981  0.11874390  1
  O  O14  1  0.07171682  0.31457948  0.49495981  1
  O  O15  1  0.22780408  0.09010856  0.74021358  1
  O  O16  1  0.43741137  0.18411890  0.39108495  1
  O  O17  1  0.26039536  0.41182936  0.56722932  1
  O  O18  1  0.22780408  0.94187378  0.09010856  1
  O  O19  1  0.26039536  0.76054596  0.41182936  1
  O  O20  1  0.56725851  0.61951114  0.99813766  1
  O  O21  1  0.26039536  0.56722932  0.76054596  1
  O  O22  1  0.77844656  0.26524519  0.05265569  1
  O  O23  1  0.56725851  0.99813766  0.81509268  1
  O  O24  1  0.43741137  0.98738478  0.18411890  1
  O  O25  1  0.22780408  0.74021358  0.94187378  1
  O  O26  1  0.72927987  0.44545953  0.23865969  1
  O  O27  1  0.43741137  0.39108495  0.98738478  1
  O  O28  1  0.72927987  0.23865969  0.58660092  1
  O  O29  1  0.77844656  0.05265569  0.90365256  1
  O  O30  1  0.72927987  0.58660092  0.44545953  1
  O  O31  1  0.56725851  0.81509268  0.61951114  1
  O  O32  1  0.77844656  0.90365256  0.26524519  1
  O  O33  1  0.92659170  0.67300935  0.51391359  1
  O  O34  1  0.92659170  0.51391359  0.88648536  1
  O  O35  1  0.92659170  0.88648536  0.67300935  1
