# generated using pymatgen
data_NaLi3Ti2Al2(PO4)6
_symmetry_space_group_name_H-M   'P 1'
_cell_length_a   8.56474180
_cell_length_b   8.56714180
_cell_length_c   8.59721251
_cell_angle_alpha   60.65471769
_cell_angle_beta   90.41700412
_cell_angle_gamma   59.90921961
_symmetry_Int_Tables_number   1
_chemical_formula_structural   NaLi3Ti2Al2(PO4)6
_chemical_formula_sum   'Na1 Li3 Ti2 Al2 P6 O24'
_cell_volume   448.20756253
_cell_formula_units_Z   1
loop_
 _symmetry_equiv_pos_site_id
 _symmetry_equiv_pos_as_xyz
  1  'x, y, z'
loop_
 _atom_site_type_symbol
 _atom_site_label
 _atom_site_symmetry_multiplicity
 _atom_site_fract_x
 _atom_site_fract_y
 _atom_site_fract_z
 _atom_site_occupancy
  Na  Na0  1  0.98142749  0.99721461  0.00077326  1
  Li  Li1  1  0.84799914  0.51400326  0.74019310  1
  Li  Li2  1  0.24721878  0.89669861  0.74854395  1
  Li  Li3  1  0.50057745  0.02631590  0.48948567  1
  Ti  Ti4  1  0.36040904  0.28043857  0.07813242  1
  Ti  Ti5  1  0.14184519  0.71638340  0.42282156  1
  Al  Al6  1  0.85155108  0.29389977  0.56189190  1
  Al  Al7  1  0.64333960  0.71152881  0.93717828  1
  P  P8  1  0.95490362  0.79386658  0.74890367  1
  P  P9  1  0.74820446  0.77991825  0.25797934  1
  P  P10  1  0.54338548  0.49862826  0.75154162  1
  P  P11  1  0.46541452  0.50273388  0.24582609  1
  P  P12  1  0.25243262  0.20695866  0.74793490  1
  P  P13  1  0.03506532  0.21635721  0.25128451  1
  O  O14  1  0.94183271  0.98561867  0.73776594  1
  O  O15  1  0.99103771  0.79002480  0.57469594  1
  O  O16  1  0.91766091  0.80184828  0.25572264  1
  O  O17  1  0.77030748  0.80184985  0.75583297  1
  O  O18  1  0.69774848  0.79009159  0.08124352  1
  O  O19  1  0.87063758  0.42709053  0.06679106  1
  O  O20  1  0.80125487  0.57192583  0.44562566  1
  O  O21  1  0.57965327  0.97446462  0.25632719  1
  O  O22  1  0.73439798  0.34582497  0.74032014  1
  O  O23  1  0.56150152  0.66900490  0.75543545  1
  O  O24  1  0.48282947  0.63927606  0.05539725  1
  O  O25  1  0.63313014  0.37848254  0.41867032  1
  O  O26  1  0.36745917  0.63856804  0.57629612  1
  O  O27  1  0.51357392  0.35758356  0.92941097  1
  O  O28  1  0.44559963  0.32774317  0.25371746  1
  O  O29  1  0.27495322  0.66776660  0.25137205  1
  O  O30  1  0.41527176  0.00632487  0.75480656  1
  O  O31  1  0.21734021  0.41404108  0.57254007  1
  O  O32  1  0.13063965  0.58215042  0.92701584  1
  O  O33  1  0.29101642  0.20318128  0.92572169  1
  O  O34  1  0.22710228  0.19405155  0.25088920  1
  O  O35  1  0.07733486  0.19467152  0.74291559  1
  O  O36  1  0.00779522  0.19967248  0.43357198  1
  O  O37  1  0.05715276  0.02279802  0.25542412  1
