# generated using pymatgen
data_TiFe3Sb2(PO4)6
_symmetry_space_group_name_H-M   'P 1'
_cell_length_a   8.90544727
_cell_length_b   8.90544677
_cell_length_c   8.90544708
_cell_angle_alpha   58.80269916
_cell_angle_beta   58.80269953
_cell_angle_gamma   58.80270256
_symmetry_Int_Tables_number   1
_chemical_formula_structural   TiFe3Sb2(PO4)6
_chemical_formula_sum   'Ti1 Fe3 Sb2 P6 O24'
_cell_volume   485.74937583
_cell_formula_units_Z   1
loop_
 _symmetry_equiv_pos_site_id
 _symmetry_equiv_pos_as_xyz
  1  'x, y, z'
loop_
 _atom_site_type_symbol
 _atom_site_label
 _atom_site_symmetry_multiplicity
 _atom_site_fract_x
 _atom_site_fract_y
 _atom_site_fract_z
 _atom_site_occupancy
  Ti  Ti0  1  0.85478948  0.85478948  0.85478948  1
  Fe  Fe1  1  0.15599327  0.15599327  0.15599327  1
  Fe  Fe2  1  0.35094969  0.35094969  0.35094969  1
  Fe  Fe3  1  0.64806472  0.64806472  0.64806472  1
  Sb  Sb4  1  0.01408483  0.01408483  0.01408483  1
  Sb  Sb5  1  0.50091354  0.50091354  0.50091354  1
  P  P6  1  0.24890306  0.54621222  0.95263524  1
  P  P7  1  0.54621222  0.95263524  0.24890306  1
  P  P8  1  0.95263524  0.24890306  0.54621222  1
  P  P9  1  0.03551725  0.75186488  0.46076934  1
  P  P10  1  0.46076934  0.03551725  0.75186488  1
  P  P11  1  0.75186488  0.46076934  0.03551725  1
  O  O12  1  0.10486338  0.29441471  0.52672769  1
  O  O13  1  0.29441471  0.52672769  0.10486338  1
  O  O14  1  0.05826830  0.92219958  0.26602964  1
  O  O15  1  0.52672769  0.10486338  0.29441471  1
  O  O16  1  0.98458917  0.81809506  0.61537339  1
  O  O17  1  0.22804287  0.59336215  0.44472009  1
  O  O18  1  0.26602964  0.05826830  0.92219958  1
  O  O19  1  0.44472009  0.22804287  0.59336215  1
  O  O20  1  0.20116390  0.38465403  0.98930608  1
  O  O21  1  0.59336215  0.44472009  0.22804287  1
  O  O22  1  0.08146465  0.73374686  0.91985925  1
  O  O23  1  0.38465403  0.98930608  0.20116390  1
  O  O24  1  0.61537339  0.98458917  0.81809506  1
  O  O25  1  0.92219958  0.26602964  0.05826830  1
  O  O26  1  0.41683001  0.56425456  0.76073634  1
  O  O27  1  0.81809506  0.61537339  0.98458917  1
  O  O28  1  0.56425456  0.76073634  0.41683001  1
  O  O29  1  0.73374686  0.91985925  0.08146465  1
  O  O30  1  0.76073634  0.41683001  0.56425456  1
  O  O31  1  0.98930608  0.20116390  0.38465403  1
  O  O32  1  0.48890387  0.88327615  0.69841973  1
  O  O33  1  0.91985925  0.08146465  0.73374686  1
  O  O34  1  0.69841973  0.48890387  0.88327615  1
  O  O35  1  0.88327615  0.69841973  0.48890387  1
