# generated using pymatgen
data_KV5Co(H8O11)2
_symmetry_space_group_name_H-M   'P 1'
_cell_length_a   10.80879687
_cell_length_b   11.20751966
_cell_length_c   8.88515913
_cell_angle_alpha   104.59790222
_cell_angle_beta   108.94814971
_cell_angle_gamma   65.99263634
_symmetry_Int_Tables_number   1
_chemical_formula_structural   KV5Co(H8O11)2
_chemical_formula_sum   'K2 V10 Co2 H32 O44'
_cell_volume   920.95463709
_cell_formula_units_Z   2
loop_
 _symmetry_equiv_pos_site_id
 _symmetry_equiv_pos_as_xyz
  1  'x, y, z'
loop_
 _atom_site_type_symbol
 _atom_site_label
 _atom_site_symmetry_multiplicity
 _atom_site_fract_x
 _atom_site_fract_y
 _atom_site_fract_z
 _atom_site_occupancy
  K  K0  1  0.08413592  0.22005568  0.32016466  1
  K  K1  1  0.91586408  0.77994432  0.67983534  1
  V  V2  1  0.21642303  0.55136939  0.38424287  1
  V  V3  1  0.26605280  0.75448334  0.69674717  1
  V  V4  1  0.44418048  0.27423349  0.35069428  1
  V  V5  1  0.49628252  0.47756879  0.67328242  1
  V  V6  1  0.27493575  0.80284263  0.36601969  1
  V  V7  1  0.72506425  0.19715737  0.63398031  1
  V  V8  1  0.50371748  0.52243121  0.32671758  1
  V  V9  1  0.55581952  0.72576651  0.64930572  1
  V  V10  1  0.73394720  0.24551666  0.30325283  1
  V  V11  1  0.78357697  0.44863061  0.61575713  1
  Co  Co12  1  0.27182196  0.20701711  0.77465757  1
  Co  Co13  1  0.72817804  0.79298289  0.22534243  1
  H  H14  1  0.01098774  0.18315300  0.64822426  1
  H  H15  1  0.10765191  0.16227034  0.95216022  1
  H  H16  1  0.06342327  0.34437341  0.94745080  1
  H  H17  1  0.12896805  0.04123942  0.60817672  1
  H  H18  1  0.29176041  0.04279697  0.97247911  1
  H  H19  1  0.15926064  0.42426696  0.96117693  1
  H  H20  1  0.10071445  0.44152861  0.67490035  1
  H  H21  1  0.23749071  0.39872495  0.60705636  1
  H  H22  1  0.39933606  0.00093455  0.56437784  1
  H  H23  1  0.24344412  0.58136439  0.91566731  1
  H  H24  1  0.44621268  0.12291060  0.57686151  1
  H  H25  1  0.01549759  0.88238476  0.06740783  1
  H  H26  1  0.50437374  0.28828753  0.86393917  1
  H  H27  1  0.16839715  0.63531991  0.05329374  1
  H  H28  1  0.51324922  0.75121010  0.98434428  1
  H  H29  1  0.40267636  0.96325070  0.87434800  1
  H  H30  1  0.59732364  0.03674930  0.12565200  1
  H  H31  1  0.48675078  0.24878990  0.01565572  1
  H  H32  1  0.83160285  0.36468009  0.94670626  1
  H  H33  1  0.49562626  0.71171247  0.13606083  1
  H  H34  1  0.98450241  0.11761524  0.93259217  1
  H  H35  1  0.55378732  0.87708940  0.42313849  1
  H  H36  1  0.75655588  0.41863561  0.08433269  1
  H  H37  1  0.60066394  0.99906545  0.43562216  1
  H  H38  1  0.76250929  0.60127505  0.39294364  1
  H  H39  1  0.89928555  0.55847139  0.32509965  1
  H  H40  1  0.84073936  0.57573304  0.03882307  1
  H  H41  1  0.70823959  0.95720303  0.02752089  1
  H  H42  1  0.87103195  0.95876058  0.39182328  1
  H  H43  1  0.93657673  0.65562659  0.05254920  1
  H  H44  1  0.89234809  0.83772966  0.04783978  1
  H  H45  1  0.98901226  0.81684700  0.35177574  1
  O  O46  1  0.06913477  0.12820934  0.00923249  1
  O  O47  1  0.10870210  0.13763586  0.64173739  1
  O  O48  1  0.15620731  0.33402635  0.94318918  1
  O  O49  1  0.35307378  0.05430416  0.92139772  1
  O  O50  1  0.15942326  0.58858761  0.94263192  1
  O  O51  1  0.17555306  0.36644093  0.63553043  1
  O  O52  1  0.09427121  0.48791221  0.29253566  1
  O  O53  1  0.37449333  0.09831752  0.59580035  1
  O  O54  1  0.15810156  0.65462683  0.56133592  1
  O  O55  1  0.44025333  0.26935953  0.90460290  1
  O  O56  1  0.17723479  0.83776504  0.82886813  1
  O  O57  1  0.32405357  0.21003961  0.26287552  1
  O  O58  1  0.16287185  0.69588599  0.27868948  1
  O  O59  1  0.35293065  0.41029186  0.52177655  1
  O  O60  1  0.19970356  0.86947764  0.54436076  1
  O  O61  1  0.38701931  0.58563524  0.79288232  1
  O  O62  1  0.36231911  0.44639463  0.26076620  1
  O  O63  1  0.55882211  0.16231838  0.50585240  1
  O  O64  1  0.19171394  0.92194359  0.25685448  1
  O  O65  1  0.40449844  0.61880758  0.51466509  1
  O  O66  1  0.59403436  0.33391387  0.76310558  1
  O  O67  1  0.43475434  0.79570668  0.78190947  1
  O  O68  1  0.56524566  0.20429332  0.21809053  1
  O  O69  1  0.40596564  0.66608613  0.23689442  1
  O  O70  1  0.59550156  0.38119242  0.48533491  1
  O  O71  1  0.80828606  0.07805641  0.74314552  1
  O  O72  1  0.44117789  0.83768162  0.49414760  1
  O  O73  1  0.63768089  0.55360537  0.73923380  1
  O  O74  1  0.61298069  0.41436476  0.20711768  1
  O  O75  1  0.80029644  0.13052236  0.45563924  1
  O  O76  1  0.64706935  0.58970814  0.47822345  1
  O  O77  1  0.83712815  0.30411401  0.72131052  1
  O  O78  1  0.67594643  0.78996039  0.73712448  1
  O  O79  1  0.82276521  0.16223496  0.17113187  1
  O  O80  1  0.55974667  0.73064047  0.09539710  1
  O  O81  1  0.84189844  0.34537317  0.43866408  1
  O  O82  1  0.62550667  0.90168248  0.40419965  1
  O  O83  1  0.90572879  0.51208779  0.70746434  1
  O  O84  1  0.82444694  0.63355907  0.36446957  1
  O  O85  1  0.84057674  0.41141239  0.05736808  1
  O  O86  1  0.64692622  0.94569584  0.07860228  1
  O  O87  1  0.84379269  0.66597365  0.05681082  1
  O  O88  1  0.89129790  0.86236414  0.35826361  1
  O  O89  1  0.93086523  0.87179066  0.99076751  1
