# generated using pymatgen
data_Ti3Mn2Nb(PO4)6
_symmetry_space_group_name_H-M   'P 1'
_cell_length_a   8.69164546
_cell_length_b   8.69164572
_cell_length_c   8.69164525
_cell_angle_alpha   60.58613370
_cell_angle_beta   60.58613262
_cell_angle_gamma   60.58613473
_symmetry_Int_Tables_number   1
_chemical_formula_structural   Ti3Mn2Nb(PO4)6
_chemical_formula_sum   'Ti3 Mn2 Nb1 P6 O24'
_cell_volume   470.43859782
_cell_formula_units_Z   1
loop_
 _symmetry_equiv_pos_site_id
 _symmetry_equiv_pos_as_xyz
  1  'x, y, z'
loop_
 _atom_site_type_symbol
 _atom_site_label
 _atom_site_symmetry_multiplicity
 _atom_site_fract_x
 _atom_site_fract_y
 _atom_site_fract_z
 _atom_site_occupancy
  Ti  Ti0  1  0.14540973  0.14540973  0.14540973  1
  Ti  Ti1  1  0.35521088  0.35521088  0.35521088  1
  Ti  Ti2  1  0.64515295  0.64515295  0.64515295  1
  Mn  Mn3  1  0.00095955  0.00095955  0.00095955  1
  Mn  Mn4  1  0.49927031  0.49927031  0.49927031  1
  Nb  Nb5  1  0.85672268  0.85672268  0.85672268  1
  P  P6  1  0.04510763  0.74906298  0.45207474  1
  P  P7  1  0.45207474  0.04510763  0.74906298  1
  P  P8  1  0.25566795  0.53839183  0.95700004  1
  P  P9  1  0.53839183  0.95700004  0.25566795  1
  P  P10  1  0.95700004  0.25566795  0.53839183  1
  P  P11  1  0.74906298  0.45207474  0.04510763  1
  O  O12  1  0.11551859  0.31402980  0.50040126  1
  O  O13  1  0.31402980  0.50040126  0.11551859  1
  O  O14  1  0.06023543  0.91185630  0.26228921  1
  O  O15  1  0.50040126  0.11551859  0.31402980  1
  O  O16  1  0.00733108  0.81176605  0.61023798  1
  O  O17  1  0.23623344  0.58820329  0.43918400  1
  O  O18  1  0.26228921  0.06023543  0.91185630  1
  O  O19  1  0.43918400  0.23623344  0.58820329  1
  O  O20  1  0.19018789  0.38330321  0.99672255  1
  O  O21  1  0.58820329  0.43918400  0.23623344  1
  O  O22  1  0.09327522  0.73215698  0.94144254  1
  O  O23  1  0.38330321  0.99672255  0.19018789  1
  O  O24  1  0.61023798  0.00733108  0.81176605  1
  O  O25  1  0.91185630  0.26228921  0.06023543  1
  O  O26  1  0.41420926  0.55700228  0.76404361  1
  O  O27  1  0.81176605  0.61023798  0.00733108  1
  O  O28  1  0.55700228  0.76404361  0.41420926  1
  O  O29  1  0.73215698  0.94144254  0.09327522  1
  O  O30  1  0.76404361  0.41420926  0.55700228  1
  O  O31  1  0.99672255  0.19018789  0.38330321  1
  O  O32  1  0.49618119  0.88506723  0.68908536  1
  O  O33  1  0.94144254  0.09327522  0.73215698  1
  O  O34  1  0.68908536  0.49618119  0.88506723  1
  O  O35  1  0.88506723  0.68908536  0.49618119  1
