# generated using pymatgen
data_Rb(IO3)3
_symmetry_space_group_name_H-M   'P 1'
_cell_length_a   8.32834507
_cell_length_b   8.24706230
_cell_length_c   8.38405923
_cell_angle_alpha   66.91570931
_cell_angle_beta   71.49757168
_cell_angle_gamma   61.22170965
_symmetry_Int_Tables_number   1
_chemical_formula_structural   Rb(IO3)3
_chemical_formula_sum   'Rb2 I6 O18'
_cell_volume   458.37312005
_cell_formula_units_Z   2
loop_
 _symmetry_equiv_pos_site_id
 _symmetry_equiv_pos_as_xyz
  1  'x, y, z'
loop_
 _atom_site_type_symbol
 _atom_site_label
 _atom_site_symmetry_multiplicity
 _atom_site_fract_x
 _atom_site_fract_y
 _atom_site_fract_z
 _atom_site_occupancy
  Rb  Rb0  1  0.27413110  0.24659200  0.78115888  1
  Rb  Rb1  1  0.72586890  0.75340800  0.21884112  1
  I  I2  1  0.29298329  0.78469686  0.70445633  1
  I  I3  1  0.70701671  0.21530314  0.29554367  1
  I  I4  1  0.76654244  0.22564385  0.76668975  1
  I  I5  1  0.23345756  0.77435615  0.23331025  1
  I  I6  1  0.19127549  0.25392013  0.30592295  1
  I  I7  1  0.80872451  0.74607987  0.69407705  1
  O  O8  1  0.38558657  0.74809605  0.48670761  1
  O  O9  1  0.61441343  0.25190395  0.51329239  1
  O  O10  1  0.52808907  0.15649265  0.27532190  1
  O  O11  1  0.47191093  0.84350735  0.72467810  1
  O  O12  1  0.87705901  0.95845346  0.36628499  1
  O  O13  1  0.12294099  0.04154654  0.63371501  1
  O  O14  1  0.74732554  0.99137417  0.84653219  1
  O  O15  1  0.25267446  0.00862583  0.15346781  1
  O  O16  1  0.13314558  0.81185044  0.04676565  1
  O  O17  1  0.86685442  0.18814956  0.95323435  1
  O  O18  1  0.52461950  0.38413907  0.83011538  1
  O  O19  1  0.47538050  0.61586093  0.16988462  1
  O  O20  1  0.93940414  0.32652031  0.32395891  1
  O  O21  1  0.06059586  0.67347969  0.67604109  1
  O  O22  1  0.21236426  0.40228643  0.07646855  1
  O  O23  1  0.78763574  0.59771357  0.92353145  1
  O  O24  1  0.15970839  0.42550433  0.41805305  1
  O  O25  1  0.84029161  0.57449567  0.58194695  1
