# generated using pymatgen
data_Mg3WO6
_symmetry_space_group_name_H-M   'P 1'
_cell_length_a   5.16964976
_cell_length_b   5.35952403
_cell_length_c   7.70183749
_cell_angle_alpha   90.00000000
_cell_angle_beta   90.23972097
_cell_angle_gamma   90.00000000
_symmetry_Int_Tables_number   1
_chemical_formula_structural   Mg3WO6
_chemical_formula_sum   'Mg6 W2 O12'
_cell_volume   213.39188166
_cell_formula_units_Z   2
loop_
 _symmetry_equiv_pos_site_id
 _symmetry_equiv_pos_as_xyz
  1  'x, y, z'
loop_
 _atom_site_type_symbol
 _atom_site_label
 _atom_site_symmetry_multiplicity
 _atom_site_fract_x
 _atom_site_fract_y
 _atom_site_fract_z
 _atom_site_occupancy
  Mg  Mg0  1  0.00000000  0.50000000  0.50000000  1
  Mg  Mg1  1  0.00947808  0.94865310  0.73791211  1
  Mg  Mg2  1  0.49052192  0.44865310  0.76208789  1
  Mg  Mg3  1  0.50000000  0.00000000  0.00000000  1
  Mg  Mg4  1  0.50947808  0.55134690  0.23791211  1
  Mg  Mg5  1  0.99052192  0.05134690  0.26208789  1
  W  W6  1  0.00000000  0.50000000  0.00000000  1
  W  W7  1  0.50000000  0.00000000  0.50000000  1
  O  O8  1  0.13136414  0.42455677  0.23557519  1
  O  O9  1  0.16917404  0.19763546  0.91649682  1
  O  O10  1  0.18655018  0.17799692  0.55683572  1
  O  O11  1  0.31344982  0.67799692  0.94316428  1
  O  O12  1  0.33082596  0.69763546  0.58350318  1
  O  O13  1  0.36863586  0.92455677  0.26442481  1
  O  O14  1  0.63136414  0.07544323  0.73557519  1
  O  O15  1  0.66917404  0.30236454  0.41649682  1
  O  O16  1  0.68655018  0.32200308  0.05683572  1
  O  O17  1  0.81344982  0.82200308  0.44316428  1
  O  O18  1  0.83082596  0.80236454  0.08350318  1
  O  O19  1  0.86863586  0.57544323  0.76442481  1
