# generated using pymatgen
data_CdH14C5(NCl)3
_symmetry_space_group_name_H-M   'P 1'
_cell_length_a   11.04461875
_cell_length_b   11.04461875
_cell_length_c   12.01098860
_cell_angle_alpha   71.06314618
_cell_angle_beta   71.06314618
_cell_angle_gamma   90.80682915
_symmetry_Int_Tables_number   1
_chemical_formula_structural   CdH14C5(NCl)3
_chemical_formula_sum   'Cd4 H56 C20 N12 Cl12'
_cell_volume   1299.11372744
_cell_formula_units_Z   4
loop_
 _symmetry_equiv_pos_site_id
 _symmetry_equiv_pos_as_xyz
  1  'x, y, z'
loop_
 _atom_site_type_symbol
 _atom_site_label
 _atom_site_symmetry_multiplicity
 _atom_site_fract_x
 _atom_site_fract_y
 _atom_site_fract_z
 _atom_site_occupancy
  Cd  Cd0  1  0.33336140  0.88438413  0.07962989  1
  Cd  Cd1  1  0.11561587  0.66663860  0.42037011  1
  Cd  Cd2  1  0.66663860  0.11561587  0.92037011  1
  Cd  Cd3  1  0.88438413  0.33336140  0.57962989  1
  H  H4  1  0.62933053  0.59012239  0.02347881  1
  H  H5  1  0.40987761  0.37066947  0.47652119  1
  H  H6  1  0.37066947  0.40987761  0.97652119  1
  H  H7  1  0.59012239  0.62933053  0.52347881  1
  H  H8  1  0.65115354  0.52695752  0.90035349  1
  H  H9  1  0.47304248  0.34884646  0.59964651  1
  H  H10  1  0.34884646  0.47304248  0.09964651  1
  H  H11  1  0.52695752  0.65115354  0.40035349  1
  H  H12  1  0.64652969  0.42202219  0.04936990  1
  H  H13  1  0.57797781  0.35347031  0.45063010  1
  H  H14  1  0.35347031  0.57797781  0.95063010  1
  H  H15  1  0.42202219  0.64652969  0.54936990  1
  H  H16  1  0.99407264  0.50954144  0.83462948  1
  H  H17  1  0.49045856  0.00592736  0.66537052  1
  H  H18  1  0.00592736  0.49045856  0.16537052  1
  H  H19  1  0.50954144  0.99407264  0.33462948  1
  H  H20  1  0.85326204  0.39946082  0.87563405  1
  H  H21  1  0.60053918  0.14673796  0.62436595  1
  H  H22  1  0.14673796  0.60053918  0.12436595  1
  H  H23  1  0.39946082  0.85326204  0.37563405  1
  H  H24  1  0.88403341  0.55215301  0.75241808  1
  H  H25  1  0.44784699  0.11596659  0.74758192  1
  H  H26  1  0.11596659  0.44784699  0.24758192  1
  H  H27  1  0.55215301  0.88403341  0.25241808  1
  H  H28  1  0.74758268  0.46667308  0.17894803  1
  H  H29  1  0.53332692  0.25241732  0.32105197  1
  H  H30  1  0.25241732  0.53332692  0.82105197  1
  H  H31  1  0.46667308  0.74758268  0.67894803  1
  H  H32  1  0.77233197  0.55792103  0.26887508  1
  H  H33  1  0.44207897  0.22766803  0.23112492  1
  H  H34  1  0.22766803  0.44207897  0.73112492  1
  H  H35  1  0.55792103  0.77233197  0.76887508  1
  H  H36  1  0.63657916  0.57579816  0.21671273  1
  H  H37  1  0.42420184  0.36342084  0.28328727  1
  H  H38  1  0.36342084  0.42420184  0.78328727  1
  H  H39  1  0.57579816  0.63657916  0.71671273  1
  H  H40  1  0.88606399  0.86294340  0.00376662  1
  H  H41  1  0.13705660  0.11393601  0.49623338  1
  H  H42  1  0.11393601  0.13705660  0.99623338  1
  H  H43  1  0.86294340  0.88606399  0.50376662  1
  H  H44  1  0.76732780  0.80503405  0.15657916  1
  H  H45  1  0.19496595  0.23267220  0.34342084  1
  H  H46  1  0.23267220  0.19496595  0.84342084  1
  H  H47  1  0.80503405  0.76732780  0.65657916  1
  H  H48  1  0.93003035  0.77424731  0.13595428  1
  H  H49  1  0.22575269  0.06996965  0.36404572  1
  H  H50  1  0.06996965  0.22575269  0.86404572  1
  H  H51  1  0.77424731  0.93003035  0.63595428  1
  H  H52  1  0.04704814  0.75880275  0.91416507  1
  H  H53  1  0.24119725  0.95295186  0.58583493  1
  H  H54  1  0.95295186  0.24119725  0.08583493  1
  H  H55  1  0.75880275  0.04704814  0.41416507  1
  H  H56  1  0.01884087  0.72148761  0.79360391  1
  H  H57  1  0.27851239  0.98115913  0.70639609  1
  H  H58  1  0.98115913  0.27851239  0.20639609  1
  H  H59  1  0.72148761  0.01884087  0.29360391  1
  C  C60  1  0.67804376  0.52137127  0.98210918  1
  C  C61  1  0.47862873  0.32195624  0.51789082  1
  C  C62  1  0.32195624  0.47862873  0.01789082  1
  C  C63  1  0.52137127  0.67804376  0.48210918  1
  C  C64  1  0.89193730  0.50154750  0.84480074  1
  C  C65  1  0.49845250  0.10806270  0.65519926  1
  C  C66  1  0.10806270  0.49845250  0.15519926  1
  C  C67  1  0.50154750  0.89193730  0.34480074  1
  C  C68  1  0.73878855  0.56028331  0.19153243  1
  C  C69  1  0.43971669  0.26121145  0.30846757  1
  C  C70  1  0.26121145  0.43971669  0.80846757  1
  C  C71  1  0.56028331  0.73878855  0.69153243  1
  C  C72  1  0.85418940  0.78298227  0.09388265  1
  C  C73  1  0.21701773  0.14581060  0.40611735  1
  C  C74  1  0.14581060  0.21701773  0.90611735  1
  C  C75  1  0.78298227  0.85418940  0.59388265  1
  C  C76  1  0.87451165  0.64382742  0.96770294  1
  C  C77  1  0.35617258  0.12548835  0.53229706  1
  C  C78  1  0.12548835  0.35617258  0.03229706  1
  C  C79  1  0.64382742  0.87451165  0.46770294  1
  N  N80  1  0.81799111  0.55398820  0.93939294  1
  N  N81  1  0.44601180  0.18200889  0.56060706  1
  N  N82  1  0.18200889  0.44601180  0.06060706  1
  N  N83  1  0.55398820  0.81799111  0.43939294  1
  N  N84  1  0.98725135  0.71341147  0.88611941  1
  N  N85  1  0.28658853  0.01274865  0.61388059  1
  N  N86  1  0.01274865  0.28658853  0.11388059  1
  N  N87  1  0.71341147  0.98725135  0.38611941  1
  N  N88  1  0.81982607  0.66304587  0.07760709  1
  N  N89  1  0.33695413  0.18017393  0.42239291  1
  N  N90  1  0.18017393  0.33695413  0.92239291  1
  N  N91  1  0.66304587  0.81982607  0.57760709  1
  Cl  Cl92  1  0.24433115  0.85350572  0.91737509  1
  Cl  Cl93  1  0.14649428  0.75566885  0.58262491  1
  Cl  Cl94  1  0.75566885  0.14649428  0.08262491  1
  Cl  Cl95  1  0.85350572  0.24433115  0.41737509  1
  Cl  Cl96  1  0.33636268  0.66363732  0.25000000  1
  Cl  Cl97  1  0.66363732  0.33636268  0.75000000  1
  Cl  Cl98  1  0.11375230  0.88624770  0.25000000  1
  Cl  Cl99  1  0.88624770  0.11375230  0.75000000  1
  Cl  Cl100  1  0.41769623  0.11917007  0.04479478  1
  Cl  Cl101  1  0.88082993  0.58230377  0.45520522  1
  Cl  Cl102  1  0.58230377  0.88082993  0.95520522  1
  Cl  Cl103  1  0.11917007  0.41769623  0.54479478  1
