# generated using pymatgen
data_Li2Mn3(PO4)3
_symmetry_space_group_name_H-M   'P 1'
_cell_length_a   6.67910773
_cell_length_b   9.16286524
_cell_length_c   8.73217775
_cell_angle_alpha   105.78265018
_cell_angle_beta   71.55649489
_cell_angle_gamma   115.30478728
_symmetry_Int_Tables_number   1
_chemical_formula_structural   Li2Mn3(PO4)3
_chemical_formula_sum   'Li4 Mn6 P6 O24'
_cell_volume   452.44870905
_cell_formula_units_Z   2
loop_
 _symmetry_equiv_pos_site_id
 _symmetry_equiv_pos_as_xyz
  1  'x, y, z'
loop_
 _atom_site_type_symbol
 _atom_site_label
 _atom_site_symmetry_multiplicity
 _atom_site_fract_x
 _atom_site_fract_y
 _atom_site_fract_z
 _atom_site_occupancy
  Li  Li0  1  0.00000000  0.50000000  0.50000000  1
  Li  Li1  1  0.50000000  0.50000000  0.50000000  1
  Li  Li2  1  0.75996974  0.00996974  0.99003026  1
  Li  Li3  1  0.24003026  0.99003026  0.00996974  1
  Mn  Mn4  1  0.74248465  0.38012249  0.06278174  1
  Mn  Mn5  1  0.92514391  0.06278174  0.38012249  1
  Mn  Mn6  1  0.47630369  0.72630369  0.27369631  1
  Mn  Mn7  1  0.52369631  0.27369631  0.72630369  1
  Mn  Mn8  1  0.07485609  0.93721826  0.61987751  1
  Mn  Mn9  1  0.25751535  0.61987751  0.93721826  1
  P  P10  1  0.21263951  0.33794355  0.12317823  1
  P  P11  1  0.49787419  0.12317823  0.33794355  1
  P  P12  1  0.04253048  0.29253048  0.70746952  1
  P  P13  1  0.95746952  0.70746952  0.29253048  1
  P  P14  1  0.50212581  0.87682177  0.66205645  1
  P  P15  1  0.78736049  0.66205645  0.87682177  1
  O  O16  1  0.06266479  0.15955079  0.15811010  1
  O  O17  1  0.56122411  0.15811010  0.15955079  1
  O  O18  1  0.23409462  0.04397081  0.39603711  1
  O  O19  1  0.08615992  0.39603711  0.04397081  1
  O  O20  1  0.56945123  0.67424845  0.00572367  1
  O  O21  1  0.40092545  0.00572367  0.67424845  1
  O  O22  1  0.58840633  0.27844925  0.46217226  1
  O  O23  1  0.27212834  0.46217226  0.27844925  1
  O  O24  1  0.00836375  0.27530821  0.53429484  1
  O  O25  1  0.76735138  0.53429484  0.27530821  1
  O  O26  1  0.13710750  0.17475274  0.73332595  1
  O  O27  1  0.19568072  0.73332595  0.17475274  1
  O  O28  1  0.86289250  0.82524726  0.26667405  1
  O  O29  1  0.80431928  0.26667405  0.82524726  1
  O  O30  1  0.23264862  0.46570516  0.72469179  1
  O  O31  1  0.99163625  0.72469179  0.46570516  1
  O  O32  1  0.41159367  0.72155075  0.53782774  1
  O  O33  1  0.72787166  0.53782774  0.72155075  1
  O  O34  1  0.59907455  0.99427633  0.32575155  1
  O  O35  1  0.43054877  0.32575155  0.99427633  1
  O  O36  1  0.91384008  0.60396289  0.95602919  1
  O  O37  1  0.76590538  0.95602919  0.60396289  1
  O  O38  1  0.93733521  0.84044921  0.84188990  1
  O  O39  1  0.43877589  0.84188990  0.84044921  1
