# generated using pymatgen
data_CrFe2(PO4)3
_symmetry_space_group_name_H-M   'P 1'
_cell_length_a   8.41161372
_cell_length_b   8.41161366
_cell_length_c   8.41161344
_cell_angle_alpha   61.60072124
_cell_angle_beta   61.60072268
_cell_angle_gamma   61.60072410
_symmetry_Int_Tables_number   1
_chemical_formula_structural   CrFe2(PO4)3
_chemical_formula_sum   'Cr2 Fe4 P6 O24'
_cell_volume   435.95692379
_cell_formula_units_Z   2
loop_
 _symmetry_equiv_pos_site_id
 _symmetry_equiv_pos_as_xyz
  1  'x, y, z'
loop_
 _atom_site_type_symbol
 _atom_site_label
 _atom_site_symmetry_multiplicity
 _atom_site_fract_x
 _atom_site_fract_y
 _atom_site_fract_z
 _atom_site_occupancy
  Cr  Cr0  1  0.00000000  0.00000000  0.00000000  1
  Cr  Cr1  1  0.50000000  0.50000000  0.50000000  1
  Fe  Fe2  1  0.14611006  0.14611006  0.14611006  1
  Fe  Fe3  1  0.35388994  0.35388994  0.35388994  1
  Fe  Fe4  1  0.64611006  0.64611006  0.64611006  1
  Fe  Fe5  1  0.85388994  0.85388994  0.85388994  1
  P  P6  1  0.04840018  0.75000000  0.45159982  1
  P  P7  1  0.45159982  0.04840018  0.75000000  1
  P  P8  1  0.75000000  0.45159982  0.04840018  1
  P  P9  1  0.25000000  0.54840018  0.95159982  1
  P  P10  1  0.54840018  0.95159982  0.25000000  1
  P  P11  1  0.95159982  0.25000000  0.54840018  1
  O  O12  1  0.10548080  0.32467457  0.50495305  1
  O  O13  1  0.32467457  0.50495305  0.10548080  1
  O  O14  1  0.06300345  0.90517192  0.24810251  1
  O  O15  1  0.50495305  0.10548080  0.32467457  1
  O  O16  1  0.00495305  0.82467457  0.60548080  1
  O  O17  1  0.25189749  0.59482808  0.43699655  1
  O  O18  1  0.24810251  0.06300345  0.90517192  1
  O  O19  1  0.43699655  0.25189749  0.59482808  1
  O  O20  1  0.17532543  0.39451920  0.99504695  1
  O  O21  1  0.59482808  0.43699655  0.25189749  1
  O  O22  1  0.09482808  0.75189749  0.93699655  1
  O  O23  1  0.39451920  0.99504695  0.17532543  1
  O  O24  1  0.60548080  0.00495305  0.82467457  1
  O  O25  1  0.90517192  0.24810251  0.06300345  1
  O  O26  1  0.40517192  0.56300345  0.74810251  1
  O  O27  1  0.82467457  0.60548080  0.00495305  1
  O  O28  1  0.56300345  0.74810251  0.40517192  1
  O  O29  1  0.75189749  0.93699655  0.09482808  1
  O  O30  1  0.74810251  0.40517192  0.56300345  1
  O  O31  1  0.99504695  0.17532543  0.39451920  1
  O  O32  1  0.49504695  0.89451920  0.67532543  1
  O  O33  1  0.93699655  0.09482808  0.75189749  1
  O  O34  1  0.67532543  0.49504695  0.89451920  1
  O  O35  1  0.89451920  0.67532543  0.49504695  1
