# generated using pymatgen
data_VO2F
_symmetry_space_group_name_H-M   'P 1'
_cell_length_a   5.24034919
_cell_length_b   9.32829866
_cell_length_c   5.30881225
_cell_angle_alpha   107.24920125
_cell_angle_beta   121.40554493
_cell_angle_gamma   71.02992540
_symmetry_Int_Tables_number   1
_chemical_formula_structural   VO2F
_chemical_formula_sum   'V4 O8 F4'
_cell_volume   206.85046954
_cell_formula_units_Z   4
loop_
 _symmetry_equiv_pos_site_id
 _symmetry_equiv_pos_as_xyz
  1  'x, y, z'
loop_
 _atom_site_type_symbol
 _atom_site_label
 _atom_site_symmetry_multiplicity
 _atom_site_fract_x
 _atom_site_fract_y
 _atom_site_fract_z
 _atom_site_occupancy
  V  V0  1  0.95182201  0.99224223  0.98438920  1
  V  V1  1  0.70323651  0.73946259  0.25275148  1
  V  V2  1  0.49761679  0.49463636  0.54655638  1
  V  V3  1  0.24045459  0.24319206  0.77957611  1
  O  O4  1  0.38014763  0.87814348  0.19355900  1
  O  O5  1  0.80344464  0.88201589  0.03988268  1
  O  O6  1  0.30942201  0.38178520  0.54381302  1
  O  O7  1  0.70620223  0.62716890  0.44513826  1
  O  O8  1  0.21380221  0.12856837  0.94372998  1
  O  O9  1  0.55849932  0.62421579  0.87620512  1
  O  O10  1  0.63279800  0.12918023  0.80050483  1
  O  O11  1  0.88400919  0.37343130  0.68709156  1
  F  F12  1  0.13272116  0.62928614  0.29174905  1
  F  F13  1  0.06014745  0.12708907  0.37033810  1
  F  F14  1  0.45863684  0.37672973  0.12129898  1
  F  F15  1  0.96703941  0.87285265  0.62341725  1
