# generated using pymatgen
data_Li2TiNiO4
_symmetry_space_group_name_H-M   'P 1'
_cell_length_a   5.11009252
_cell_length_b   10.27949413
_cell_length_c   9.84173865
_cell_angle_alpha   16.78111667
_cell_angle_beta   29.19211242
_cell_angle_gamma   33.29944194
_symmetry_Int_Tables_number   1
_chemical_formula_structural   Li2TiNiO4
_chemical_formula_sum   'Li2 Ti1 Ni1 O4'
_cell_volume   72.80002183
_cell_formula_units_Z   1
loop_
 _symmetry_equiv_pos_site_id
 _symmetry_equiv_pos_as_xyz
  1  'x, y, z'
loop_
 _atom_site_type_symbol
 _atom_site_label
 _atom_site_symmetry_multiplicity
 _atom_site_fract_x
 _atom_site_fract_y
 _atom_site_fract_z
 _atom_site_occupancy
  Li  Li0  1  0.00000000  0.00000000  0.00000000  1
  Li  Li1  1  0.00000000  0.50000000  0.00000000  1
  Ti  Ti2  1  0.50000000  0.00000000  0.50000000  1
  Ni  Ni3  1  0.50000000  0.50000000  0.50000000  1
  O  O4  1  0.21080213  1.00000000  0.25855033  1
  O  O5  1  0.27647928  0.50000000  0.22658646  1
  O  O6  1  0.78919787  0.00000000  0.74144967  1
  O  O7  1  0.72352072  0.50000000  0.77341354  1
