# generated using pymatgen
data_LiMnCo3O8
_symmetry_space_group_name_H-M   'P 1'
_cell_length_a   5.65097412
_cell_length_b   5.65097410
_cell_length_c   5.94205837
_cell_angle_alpha   118.39233283
_cell_angle_beta   90.00000000
_cell_angle_gamma   59.99999988
_symmetry_Int_Tables_number   1
_chemical_formula_structural   LiMnCo3O8
_chemical_formula_sum   'Li1 Mn1 Co3 O8'
_cell_volume   137.34254299
_cell_formula_units_Z   1
loop_
 _symmetry_equiv_pos_site_id
 _symmetry_equiv_pos_as_xyz
  1  'x, y, z'
loop_
 _atom_site_type_symbol
 _atom_site_label
 _atom_site_symmetry_multiplicity
 _atom_site_fract_x
 _atom_site_fract_y
 _atom_site_fract_z
 _atom_site_occupancy
  Li  Li0  1  0.50000000  0.00000000  0.50000000  1
  Mn  Mn1  1  0.00000000  0.00000000  0.00000000  1
  Co  Co2  1  0.00000000  0.50000000  0.00000000  1
  Co  Co3  1  0.50000000  0.00000000  0.00000000  1
  Co  Co4  1  0.50000000  0.50000000  0.00000000  1
  O  O5  1  0.23598257  0.03711047  0.80112790  1
  O  O6  1  0.23598257  0.52803486  0.80112790  1
  O  O7  1  0.27227959  0.45544083  0.18316224  1
  O  O8  1  0.72690696  0.03711047  0.80112790  1
  O  O9  1  0.27309304  0.96288953  0.19887210  1
  O  O10  1  0.72772041  0.54455917  0.81683776  1
  O  O11  1  0.76401743  0.47196514  0.19887210  1
  O  O12  1  0.76401743  0.96288953  0.19887210  1
