# generated using pymatgen
data_LiVF3
_symmetry_space_group_name_H-M   'P 1'
_cell_length_a   6.16642878
_cell_length_b   6.16642878
_cell_length_c   6.16642878
_cell_angle_alpha   90.00000000
_cell_angle_beta   90.00000000
_cell_angle_gamma   90.00000000
_symmetry_Int_Tables_number   1
_chemical_formula_structural   LiVF3
_chemical_formula_sum   'Li4 V4 F12'
_cell_volume   234.47749177
_cell_formula_units_Z   4
loop_
 _symmetry_equiv_pos_site_id
 _symmetry_equiv_pos_as_xyz
  1  'x, y, z'
loop_
 _atom_site_type_symbol
 _atom_site_label
 _atom_site_symmetry_multiplicity
 _atom_site_fract_x
 _atom_site_fract_y
 _atom_site_fract_z
 _atom_site_occupancy
  Li  Li0  1  0.87529045  0.87529045  0.87529045  1
  Li  Li1  1  0.12470955  0.37529045  0.62470955  1
  Li  Li2  1  0.62470955  0.12470955  0.37529045  1
  Li  Li3  1  0.37529045  0.62470955  0.12470955  1
  V  V4  1  0.16308319  0.16308319  0.16308319  1
  V  V5  1  0.33691681  0.83691681  0.66308319  1
  V  V6  1  0.66308319  0.33691681  0.83691681  1
  V  V7  1  0.83691681  0.66308319  0.33691681  1
  F  F8  1  0.01049085  0.72642694  0.62783473  1
  F  F9  1  0.27357306  0.12783473  0.48950915  1
  F  F10  1  0.12783473  0.48950915  0.27357306  1
  F  F11  1  0.37216527  0.51049085  0.77357306  1
  F  F12  1  0.22642694  0.87216527  0.98950915  1
  F  F13  1  0.48950915  0.27357306  0.12783473  1
  F  F14  1  0.51049085  0.77357306  0.37216527  1
  F  F15  1  0.77357306  0.37216527  0.51049085  1
  F  F16  1  0.62783473  0.01049085  0.72642694  1
  F  F17  1  0.87216527  0.98950915  0.22642694  1
  F  F18  1  0.72642694  0.62783473  0.01049085  1
  F  F19  1  0.98950915  0.22642694  0.87216527  1
