# generated using pymatgen
data_Mn3OF5
_symmetry_space_group_name_H-M   'P 1'
_cell_length_a   7.72521063
_cell_length_b   5.87383065
_cell_length_c   5.85634131
_cell_angle_alpha   70.60481555
_cell_angle_beta   72.11538503
_cell_angle_gamma   72.31035149
_symmetry_Int_Tables_number   1
_chemical_formula_structural   Mn3OF5
_chemical_formula_sum   'Mn6 O2 F10'
_cell_volume   232.43675409
_cell_formula_units_Z   2
loop_
 _symmetry_equiv_pos_site_id
 _symmetry_equiv_pos_as_xyz
  1  'x, y, z'
loop_
 _atom_site_type_symbol
 _atom_site_label
 _atom_site_symmetry_multiplicity
 _atom_site_fract_x
 _atom_site_fract_y
 _atom_site_fract_z
 _atom_site_occupancy
  Mn  Mn0  1  0.83333300  0.66666700  0.66666700  1
  Mn  Mn1  1  0.67174151  0.36248144  0.29762891  1
  Mn  Mn2  1  0.33333300  0.66666700  0.66666700  1
  Mn  Mn3  1  0.15833474  0.34781131  0.33932148  1
  Mn  Mn4  1  0.50833226  0.98552169  0.99401252  1
  Mn  Mn5  1  0.99492449  0.97085256  0.03570409  1
  O  O6  1  0.67544204  0.64963918  0.99598311  1
  O  O7  1  0.99122496  0.68369382  0.33735089  1
  F  F8  1  0.67150510  0.04748655  0.60822123  1
  F  F9  1  0.34126453  0.34821021  0.96803897  1
  F  F10  1  0.29393383  0.89436219  0.90776694  1
  F  F11  1  0.63391231  0.57301308  0.55919837  1
  F  F12  1  0.96733304  0.23284660  0.23385888  1
  F  F13  1  0.69933296  0.10048740  0.09947412  1
  F  F14  1  0.03275369  0.76031992  0.77413463  1
  F  F15  1  0.37273317  0.43897081  0.42556706  1
  F  F16  1  0.32540247  0.98512279  0.36529503  1
  F  F17  1  0.99516090  0.28584645  0.72511277  1
