# generated using pymatgen
data_Li4Co3P4(H3O4)6
_symmetry_space_group_name_H-M   'P 1'
_cell_length_a   7.20206213
_cell_length_b   9.14521892
_cell_length_c   14.78565614
_cell_angle_alpha   90.00000000
_cell_angle_beta   93.84427098
_cell_angle_gamma   90.00000000
_symmetry_Int_Tables_number   1
_chemical_formula_structural   Li4Co3P4(H3O4)6
_chemical_formula_sum   'Li8 Co6 P8 H36 O48'
_cell_volume   971.65768941
_cell_formula_units_Z   2
loop_
 _symmetry_equiv_pos_site_id
 _symmetry_equiv_pos_as_xyz
  1  'x, y, z'
loop_
 _atom_site_type_symbol
 _atom_site_label
 _atom_site_symmetry_multiplicity
 _atom_site_fract_x
 _atom_site_fract_y
 _atom_site_fract_z
 _atom_site_occupancy
  Li  Li0  1  0.28260417  0.00335198  0.85590988  1
  Li  Li1  1  0.28260417  0.49664802  0.35590988  1
  Li  Li2  1  0.44750320  0.60186063  0.78485483  1
  Li  Li3  1  0.44750320  0.89813937  0.28485483  1
  Li  Li4  1  0.55249680  0.10186063  0.71514517  1
  Li  Li5  1  0.55249680  0.39813937  0.21514517  1
  Li  Li6  1  0.71739583  0.50335198  0.64409012  1
  Li  Li7  1  0.71739583  0.99664802  0.14409012  1
  Co  Co8  1  0.02678053  0.24386889  0.50144679  1
  Co  Co9  1  0.02678053  0.25613111  0.00144679  1
  Co  Co10  1  0.50000000  0.00000000  0.50000000  1
  Co  Co11  1  0.50000000  0.50000000  0.00000000  1
  Co  Co12  1  0.97321947  0.74386889  0.99855321  1
  Co  Co13  1  0.97321947  0.75613111  0.49855321  1
  P  P14  1  0.10462528  0.47745945  0.88036611  1
  P  P15  1  0.10462528  0.02254055  0.38036611  1
  P  P16  1  0.25516881  0.52237169  0.57199869  1
  P  P17  1  0.25516881  0.97762831  0.07199869  1
  P  P18  1  0.74483119  0.02237169  0.92800131  1
  P  P19  1  0.74483119  0.47762831  0.42800131  1
  P  P20  1  0.89537472  0.97745945  0.61963389  1
  P  P21  1  0.89537472  0.52254055  0.11963389  1
  H  H22  1  0.14630521  0.75013000  0.82139869  1
  H  H23  1  0.12348736  0.50459692  0.70056302  1
  H  H24  1  0.15621008  0.82155239  0.72546075  1
  H  H25  1  0.17216292  0.15051282  0.70483070  1
  H  H26  1  0.14630521  0.74987000  0.32139869  1
  H  H27  1  0.25421212  0.27033511  0.77121108  1
  H  H28  1  0.12348736  0.99540308  0.20056302  1
  H  H29  1  0.15621008  0.67844761  0.22546075  1
  H  H30  1  0.17216292  0.34948718  0.20483070  1
  H  H31  1  0.25421212  0.22966489  0.27121108  1
  H  H32  1  0.27485914  0.90213224  0.61722516  1
  H  H33  1  0.36426712  0.75558765  0.95016126  1
  H  H34  1  0.27485914  0.59786776  0.11722516  1
  H  H35  1  0.36426712  0.74441235  0.45016126  1
  H  H36  1  0.45650295  0.80898379  0.63142977  1
  H  H37  1  0.57955224  0.75959981  0.94094877  1
  H  H38  1  0.42044776  0.25959981  0.55905123  1
  H  H39  1  0.54349705  0.30898379  0.86857023  1
  H  H40  1  0.45650295  0.69101621  0.13142977  1
  H  H41  1  0.57955224  0.74040019  0.44094877  1
  H  H42  1  0.42044776  0.24040019  0.05905123  1
  H  H43  1  0.54349705  0.19101621  0.36857023  1
  H  H44  1  0.63573288  0.25558765  0.54983874  1
  H  H45  1  0.72514086  0.40213224  0.88277484  1
  H  H46  1  0.63573288  0.24441235  0.04983874  1
  H  H47  1  0.72514086  0.09786776  0.38277484  1
  H  H48  1  0.74578788  0.77033511  0.72878892  1
  H  H49  1  0.82783708  0.65051282  0.79516930  1
  H  H50  1  0.84378992  0.32155239  0.77453925  1
  H  H51  1  0.87651264  0.00459692  0.79943698  1
  H  H52  1  0.74578788  0.72966489  0.22878892  1
  H  H53  1  0.85369479  0.25013000  0.67860131  1
  H  H54  1  0.82783708  0.84948718  0.29516930  1
  H  H55  1  0.84378992  0.17844761  0.27453925  1
  H  H56  1  0.87651264  0.49540308  0.29943698  1
  H  H57  1  0.85369479  0.24987000  0.17860131  1
  O  O58  1  0.01514853  0.63321729  0.88167733  1
  O  O59  1  0.05239101  0.85862771  0.61862498  1
  O  O60  1  0.01514853  0.86678271  0.38167733  1
  O  O61  1  0.08191196  0.53029314  0.63446584  1
  O  O62  1  0.20666261  0.86764259  0.99337217  1
  O  O63  1  0.05239101  0.64137229  0.11862498  1
  O  O64  1  0.21321174  0.46359113  0.79424597  1
  O  O65  1  0.22731225  0.44463988  0.96774288  1
  O  O66  1  0.08191196  0.96970686  0.13446584  1
  O  O67  1  0.22588246  0.81381200  0.78540860  1
  O  O68  1  0.20666261  0.63235741  0.49337217  1
  O  O69  1  0.27042142  0.16576769  0.75431768  1
  O  O70  1  0.21321174  0.03640887  0.29424597  1
  O  O71  1  0.25458203  0.36653093  0.52858809  1
  O  O72  1  0.22731225  0.05536012  0.46774288  1
  O  O73  1  0.22588246  0.68618800  0.28540860  1
  O  O74  1  0.27042142  0.33423231  0.25431768  1
  O  O75  1  0.25458203  0.13346907  0.02858809  1
  O  O76  1  0.46652001  0.69594437  0.92613302  1
  O  O77  1  0.41415946  0.91063721  0.62382443  1
  O  O78  1  0.43485120  0.55717686  0.62779900  1
  O  O79  1  0.46652001  0.80405563  0.42613302  1
  O  O80  1  0.41415946  0.58936279  0.12382443  1
  O  O81  1  0.43485120  0.94282314  0.12779900  1
  O  O82  1  0.56514880  0.05717686  0.87220100  1
  O  O83  1  0.58584054  0.41063721  0.87617557  1
  O  O84  1  0.53347999  0.19594437  0.57386698  1
  O  O85  1  0.56514880  0.44282314  0.37220100  1
  O  O86  1  0.58584054  0.08936279  0.37617557  1
  O  O87  1  0.53347999  0.30405563  0.07386698  1
  O  O88  1  0.74541797  0.86653093  0.97141191  1
  O  O89  1  0.72957858  0.66576769  0.74568232  1
  O  O90  1  0.77411754  0.31381200  0.71459140  1
  O  O91  1  0.77268775  0.94463988  0.53225712  1
  O  O92  1  0.74541797  0.63346907  0.47141191  1
  O  O93  1  0.78678826  0.96359113  0.70575403  1
  O  O94  1  0.72957858  0.83423231  0.24568232  1
  O  O95  1  0.79333739  0.36764259  0.50662783  1
  O  O96  1  0.77411754  0.18618800  0.21459140  1
  O  O97  1  0.91808804  0.03029314  0.86553416  1
  O  O98  1  0.77268775  0.55536012  0.03225712  1
  O  O99  1  0.78678826  0.53640887  0.20575403  1
  O  O100  1  0.94760899  0.35862771  0.88137502  1
  O  O101  1  0.79333739  0.13235741  0.00662783  1
  O  O102  1  0.91808804  0.46970686  0.36553416  1
  O  O103  1  0.98485147  0.13321729  0.61832267  1
  O  O104  1  0.94760899  0.14137229  0.38137502  1
  O  O105  1  0.98485147  0.36678271  0.11832267  1
