# generated using pymatgen
data_Li5Mn6(BO3)6
_symmetry_space_group_name_H-M   'P 1'
_cell_length_a   8.24060666
_cell_length_b   14.74642493
_cell_length_c   6.38054499
_cell_angle_alpha   102.52738319
_cell_angle_beta   90.04245937
_cell_angle_gamma   90.41049818
_symmetry_Int_Tables_number   1
_chemical_formula_structural   Li5Mn6(BO3)6
_chemical_formula_sum   'Li10 Mn12 B12 O36'
_cell_volume   756.87960633
_cell_formula_units_Z   2
loop_
 _symmetry_equiv_pos_site_id
 _symmetry_equiv_pos_as_xyz
  1  'x, y, z'
loop_
 _atom_site_type_symbol
 _atom_site_label
 _atom_site_symmetry_multiplicity
 _atom_site_fract_x
 _atom_site_fract_y
 _atom_site_fract_z
 _atom_site_occupancy
  Li  Li0  1  0.28953699  0.99062578  0.24573952  1
  Li  Li1  1  0.29192200  0.99081620  0.74403968  1
  Li  Li2  1  0.34218325  0.35938792  0.42940281  1
  Li  Li3  1  0.34124528  0.35934115  0.92781565  1
  Li  Li4  1  0.36898779  0.64789884  0.07263975  1
  Li  Li5  1  0.78928138  0.48830858  0.49381629  1
  Li  Li6  1  0.78713300  0.49116475  0.99386642  1
  Li  Li7  1  0.84340237  0.85947113  0.17948799  1
  Li  Li8  1  0.83843675  0.85867340  0.67777843  1
  Li  Li9  1  0.86884589  0.14873912  0.82315047  1
  Mn  Mn10  1  0.13569031  0.51022293  0.75228326  1
  Mn  Mn11  1  0.14277025  0.51018726  0.25797294  1
  Mn  Mn12  1  0.17767517  0.81073557  0.90442401  1
  Mn  Mn13  1  0.17824918  0.80792522  0.40735264  1
  Mn  Mn14  1  0.18254725  0.18148491  0.58978290  1
  Mn  Mn15  1  0.18088786  0.18133002  0.09347055  1
  Mn  Mn16  1  0.64104001  0.01009440  0.50117008  1
  Mn  Mn17  1  0.64100407  0.00973631  0.00826563  1
  Mn  Mn18  1  0.67752271  0.30847553  0.64999946  1
  Mn  Mn19  1  0.67743892  0.30919308  0.15550193  1
  Mn  Mn20  1  0.68166188  0.68111002  0.83410248  1
  Mn  Mn21  1  0.68219286  0.68042645  0.33811907  1
  B  B22  1  0.00296307  0.99740251  0.99288146  1
  B  B23  1  0.00367073  0.99674651  0.50243787  1
  B  B24  1  0.00004625  0.33793481  0.42051236  1
  B  B25  1  0.00089712  0.33627379  0.91735600  1
  B  B26  1  0.99231161  0.66542798  0.58246581  1
  B  B27  1  0.99845513  0.66652885  0.08230647  1
  B  B28  1  0.50103291  0.49707931  0.75313820  1
  B  B29  1  0.50273071  0.49685676  0.24245516  1
  B  B30  1  0.49800258  0.16767668  0.83308404  1
  B  B31  1  0.49257089  0.16517086  0.33135304  1
  B  B32  1  0.50071766  0.83358496  0.16747791  1
  B  B33  1  0.50059540  0.83929428  0.66657432  1
  O  O34  1  0.01427624  0.43228310  0.96461107  1
  O  O35  1  0.02024239  0.43390067  0.47057567  1
  O  O36  1  0.01948820  0.76330949  0.13685344  1
  O  O37  1  0.01316966  0.76237409  0.62906518  1
  O  O38  1  0.12622559  0.60947204  0.55837839  1
  O  O39  1  0.13653396  0.61087245  0.05114193  1
  O  O40  1  0.13472149  0.28105834  0.39167681  1
  O  O41  1  0.13782437  0.28096297  0.89030939  1
  O  O42  1  0.15572182  0.95553335  0.97875541  1
  O  O43  1  0.15536797  0.95364196  0.47385509  1
  O  O44  1  0.33572840  0.12782788  0.31492972  1
  O  O45  1  0.34421815  0.12869996  0.81537891  1
  O  O46  1  0.34907265  0.78958418  0.14932911  1
  O  O47  1  0.34268966  0.80588807  0.65031844  1
  O  O48  1  0.35952951  0.44226288  0.72124936  1
  O  O49  1  0.36317830  0.44039724  0.21934506  1
  O  O50  1  0.49159797  0.59145857  0.81566043  1
  O  O51  1  0.48948789  0.59104076  0.27475071  1
  O  O52  1  0.52476436  0.93502075  0.71744535  1
  O  O53  1  0.51208111  0.92931185  0.21568719  1
  O  O54  1  0.51423541  0.26204603  0.37743372  1
  O  O55  1  0.51822098  0.26464746  0.87990577  1
  O  O56  1  0.62545259  0.10843228  0.30362135  1
  O  O57  1  0.63620337  0.11283444  0.80531839  1
  O  O58  1  0.63911837  0.77945490  0.13508938  1
  O  O59  1  0.63282024  0.78046348  0.63505878  1
  O  O60  1  0.65226110  0.45324348  0.72450352  1
  O  O61  1  0.65502360  0.45439163  0.22688041  1
  O  O62  1  0.83594914  0.62724751  0.56106705  1
  O  O63  1  0.84508970  0.62763859  0.06019142  1
  O  O64  1  0.84337461  0.30308582  0.40021676  1
  O  O65  1  0.84843279  0.29340340  0.89642141  1
  O  O66  1  0.86356812  0.94077878  0.96951258  1
  O  O67  1  0.86316306  0.94127958  0.46991032  1
  O  O68  1  0.99198569  0.09133305  0.56515177  1
  O  O69  1  0.98920530  0.09182313  0.02511012  1
