# generated using pymatgen
data_Li3Mn4(BO3)4
_symmetry_space_group_name_H-M   'P 1'
_cell_length_a   9.09559691
_cell_length_b   9.10434011
_cell_length_c   11.66253526
_cell_angle_alpha   67.43437185
_cell_angle_beta   68.60268291
_cell_angle_gamma   60.04614219
_symmetry_Int_Tables_number   1
_chemical_formula_structural   Li3Mn4(BO3)4
_chemical_formula_sum   'Li9 Mn12 B12 O36'
_cell_volume   754.37683516
_cell_formula_units_Z   3
loop_
 _symmetry_equiv_pos_site_id
 _symmetry_equiv_pos_as_xyz
  1  'x, y, z'
loop_
 _atom_site_type_symbol
 _atom_site_label
 _atom_site_symmetry_multiplicity
 _atom_site_fract_x
 _atom_site_fract_y
 _atom_site_fract_z
 _atom_site_occupancy
  Li  Li0  1  0.22360535  0.05801285  0.66636189  1
  Li  Li1  1  0.36905770  0.25239554  0.16669768  1
  Li  Li2  1  0.04852738  0.88484942  0.17654800  1
  Li  Li3  1  0.41674601  0.59330502  0.41795568  1
  Li  Li4  1  0.52952823  0.38959434  0.67567871  1
  Li  Li5  1  0.71990978  0.57663129  0.17036105  1
  Li  Li6  1  0.93467907  0.08314370  0.90649304  1
  Li  Li7  1  0.76153597  0.91040828  0.41220903  1
  Li  Li8  1  0.88986671  0.70001605  0.65744138  1
  Mn  Mn9  1  0.05374254  0.21847842  0.13156836  1
  Mn  Mn10  1  0.11482335  0.54805025  0.38029239  1
  Mn  Mn11  1  0.29397213  0.08407327  0.88364946  1
  Mn  Mn12  1  0.40124589  0.58872717  0.12196219  1
  Mn  Mn13  1  0.21050771  0.76524071  0.62626215  1
  Mn  Mn14  1  0.57739588  0.05844245  0.63347627  1
  Mn  Mn15  1  0.41159066  0.95742292  0.37909820  1
  Mn  Mn16  1  0.77299667  0.27438306  0.38665660  1
  Mn  Mn17  1  0.58926694  0.43027810  0.88246639  1
  Mn  Mn18  1  0.72249896  0.92262551  0.12845545  1
  Mn  Mn19  1  0.88970976  0.38758511  0.62790114  1
  Mn  Mn20  1  0.92492062  0.73959669  0.89250784  1
  B  B21  1  0.05787496  0.55556251  0.14170962  1
  B  B22  1  0.09434133  0.92202811  0.37325266  1
  B  B23  1  0.24283376  0.40263296  0.61752681  1
  B  B24  1  0.44157583  0.27685818  0.37331886  1
  B  B25  1  0.40044689  0.90846605  0.13570532  1
  B  B26  1  0.73552041  0.24595666  0.12739190  1
  B  B27  1  0.25448973  0.77119739  0.86600763  1
  B  B28  1  0.61893082  0.08546413  0.86893205  1
  B  B29  1  0.56761309  0.73311269  0.62140082  1
  B  B30  1  0.90438951  0.06535431  0.62207815  1
  B  B31  1  0.74968009  0.62519040  0.37433248  1
  B  B32  1  0.94021564  0.40343434  0.87357842  1
  O  O33  1  0.03280486  0.10423124  0.32003097  1
  O  O34  1  0.01198606  0.12507435  0.62647436  1
  O  O35  1  0.13899601  0.38614488  0.13890684  1
  O  O36  1  0.12685021  0.62555294  0.19121442  1
  O  O37  1  0.44914334  0.00647512  0.16912391  1
  O  O38  1  0.08901857  0.48382048  0.56959677  1
  O  O39  1  0.02259160  0.82783686  0.36387616  1
  O  O40  1  0.34657966  0.21384330  0.35471549  1
  O  O41  1  0.06520606  0.28705494  0.94902000  1
  O  O42  1  0.30530282  0.22267052  0.67055547  1
  O  O43  1  0.37128157  0.46330642  0.34738891  1
  O  O44  1  0.23976145  0.98803546  0.09955047  1
  O  O45  1  0.57418414  0.33418112  0.09474489  1
  O  O46  1  0.32349463  0.50164018  0.60748328  1
  O  O47  1  0.23674789  0.84130227  0.43253724  1
  O  O48  1  0.59510978  0.17222907  0.41606301  1
  O  O49  1  0.18878252  0.70970065  0.80896689  1
  O  O50  1  0.50046104  0.73702745  0.13666273  1
  O  O51  1  0.84227340  0.07508404  0.11951829  1
  O  O52  1  0.79154841  0.33629275  0.16553873  1
  O  O53  1  0.18668506  0.94745996  0.85458861  1
  O  O54  1  0.53136733  0.26235793  0.85106731  1
  O  O55  1  0.40231788  0.83964671  0.58982193  1
  O  O56  1  0.66543580  0.54232209  0.36356291  1
  O  O57  1  0.74308340  0.18245737  0.58983794  1
  O  O58  1  0.38005265  0.65005550  0.93386348  1
  O  O59  1  0.61896845  0.55420346  0.66772958  1
  O  O60  1  0.68795208  0.80630723  0.33814304  1
  O  O61  1  0.90513370  0.67003626  0.09710824  1
  O  O62  1  0.90041917  0.52244973  0.42274266  1
  O  O63  1  0.67269393  0.81287303  0.60150892  1
  O  O64  1  0.86725264  0.33071731  0.83531565  1
  O  O65  1  0.56199713  0.99375837  0.83511668  1
  O  O66  1  0.89749646  0.57706572  0.83316700  1
  O  O67  1  0.76848842  0.99144671  0.92024779  1
  O  O68  1  0.95346349  0.88492167  0.64591378  1
