# generated using pymatgen
data_Li3MnF6
_symmetry_space_group_name_H-M   'P 1'
_cell_length_a   5.15101384
_cell_length_b   5.09955917
_cell_length_c   9.64674189
_cell_angle_alpha   87.38333046
_cell_angle_beta   91.33613479
_cell_angle_gamma   119.67333758
_symmetry_Int_Tables_number   1
_chemical_formula_structural   Li3MnF6
_chemical_formula_sum   'Li6 Mn2 F12'
_cell_volume   219.93968253
_cell_formula_units_Z   2
loop_
 _symmetry_equiv_pos_site_id
 _symmetry_equiv_pos_as_xyz
  1  'x, y, z'
loop_
 _atom_site_type_symbol
 _atom_site_label
 _atom_site_symmetry_multiplicity
 _atom_site_fract_x
 _atom_site_fract_y
 _atom_site_fract_z
 _atom_site_occupancy
  Li  Li0  1  0.31316782  0.64430765  0.94887728  1
  Li  Li1  1  0.98738706  0.00659151  0.25091854  1
  Li  Li2  1  0.01368271  0.01920364  0.75093610  1
  Li  Li3  1  0.34085959  0.67500112  0.55143933  1
  Li  Li4  1  0.65814401  0.33455210  0.05134280  1
  Li  Li5  1  0.68628363  0.33004307  0.44877932  1
  Mn  Mn6  1  0.33246972  0.66672567  0.24970629  1
  Mn  Mn7  1  0.66771451  0.33414400  0.74977230  1
  F  F8  1  0.04152841  0.67825244  0.36676976  1
  F  F9  1  0.31993598  0.96398328  0.13145730  1
  F  F10  1  0.01085795  0.34228678  0.12528340  1
  F  F11  1  0.33509839  0.36061139  0.36627322  1
  F  F12  1  0.65905833  0.97790212  0.37627352  1
  F  F13  1  0.34221757  0.32003129  0.87625918  1
  F  F14  1  0.63109249  0.67001462  0.13327913  1
  F  F15  1  0.36800300  0.03793965  0.63311469  1
  F  F16  1  0.67946253  0.64362874  0.63142753  1
  F  F17  1  0.95896191  0.63772629  0.86679910  1
  F  F18  1  0.66547470  0.02628344  0.86601777  1
  F  F19  1  0.98839869  0.33077323  0.62527243  1
