# generated using pymatgen
data_Mn3(OF2)2
_symmetry_space_group_name_H-M   'P 1'
_cell_length_a   7.42711785
_cell_length_b   5.69017881
_cell_length_c   5.79744850
_cell_angle_alpha   72.56348440
_cell_angle_beta   73.49017873
_cell_angle_gamma   73.43655775
_symmetry_Int_Tables_number   1
_chemical_formula_structural   Mn3(OF2)2
_chemical_formula_sum   'Mn6 O4 F8'
_cell_volume   218.69555729
_cell_formula_units_Z   2
loop_
 _symmetry_equiv_pos_site_id
 _symmetry_equiv_pos_as_xyz
  1  'x, y, z'
loop_
 _atom_site_type_symbol
 _atom_site_label
 _atom_site_symmetry_multiplicity
 _atom_site_fract_x
 _atom_site_fract_y
 _atom_site_fract_z
 _atom_site_occupancy
  Mn  Mn0  1  0.83675844  0.69798499  0.68002349  1
  Mn  Mn1  1  0.68130360  0.30726333  0.36788778  1
  Mn  Mn2  1  0.31869640  0.69273667  0.63211222  1
  Mn  Mn3  1  0.16324156  0.30201501  0.31997651  1
  Mn  Mn4  1  0.50000000  0.00000000  0.00000000  1
  Mn  Mn5  1  0.00000000  0.00000000  0.00000000  1
  O  O6  1  0.66230809  0.01966181  0.67100617  1
  O  O7  1  0.97008773  0.20356374  0.23184903  1
  O  O8  1  0.02991227  0.79643626  0.76815097  1
  O  O9  1  0.33769191  0.98033819  0.32899383  1
  F  F10  1  0.34225494  0.37854145  0.93762372  1
  F  F11  1  0.29329456  0.91172797  0.89581921  1
  F  F12  1  0.63529446  0.58413775  0.57557434  1
  F  F13  1  0.70670544  0.08827203  0.10418079  1
  F  F14  1  0.36470554  0.41586225  0.42442566  1
  F  F15  1  0.65774506  0.62145855  0.06237628  1
  F  F16  1  0.98916831  0.33119188  0.70396676  1
  F  F17  1  0.01083169  0.66880812  0.29603324  1
