# generated using pymatgen
data_V6O7F5
_symmetry_space_group_name_H-M   'P 1'
_cell_length_a   7.35759017
_cell_length_b   5.59559114
_cell_length_c   5.59559114
_cell_angle_alpha   71.86246797
_cell_angle_beta   73.43166504
_cell_angle_gamma   73.43166504
_symmetry_Int_Tables_number   1
_chemical_formula_structural   V6O7F5
_chemical_formula_sum   'V6 O7 F5'
_cell_volume   204.89915362
_cell_formula_units_Z   1
loop_
 _symmetry_equiv_pos_site_id
 _symmetry_equiv_pos_as_xyz
  1  'x, y, z'
loop_
 _atom_site_type_symbol
 _atom_site_label
 _atom_site_symmetry_multiplicity
 _atom_site_fract_x
 _atom_site_fract_y
 _atom_site_fract_z
 _atom_site_occupancy
  V  V0  1  0.82805938  0.69301790  0.69301790  1
  V  V1  1  0.66804792  0.33739902  0.33739902  1
  V  V2  1  0.31580225  0.65299175  0.65299175  1
  V  V3  1  0.19147176  0.30428469  0.30428469  1
  V  V4  1  0.50668612  0.99211473  0.99211473  1
  V  V5  1  0.00427331  0.00356692  0.00356692  1
  O  O6  1  0.66197461  0.04366070  0.63918762  1
  O  O7  1  0.33566239  0.35361575  0.96333882  1
  O  O8  1  0.97204158  0.23536619  0.23536619  1
  O  O9  1  0.02912810  0.78101828  0.78101828  1
  O  O10  1  0.35304340  0.42917035  0.42917035  1
  O  O11  1  0.66197461  0.63918762  0.04366070  1
  O  O12  1  0.33566239  0.96333882  0.35361575  1
  F  F13  1  0.63052767  0.57308156  0.57308156  1
  F  F14  1  0.29975640  0.88920983  0.88920983  1
  F  F15  1  0.70839536  0.10129817  0.10129817  1
  F  F16  1  0.99874738  0.30926955  0.69840915  1
  F  F17  1  0.99874738  0.69840915  0.30926955  1
