# generated using pymatgen
data_Li5Mn6(BO3)6
_symmetry_space_group_name_H-M   'P 1'
_cell_length_a   8.25832029
_cell_length_b   14.68826574
_cell_length_c   6.36345935
_cell_angle_alpha   102.51041488
_cell_angle_beta   90.00000000
_cell_angle_gamma   89.55327895
_symmetry_Int_Tables_number   1
_chemical_formula_structural   Li5Mn6(BO3)6
_chemical_formula_sum   'Li10 Mn12 B12 O36'
_cell_volume   753.53889144
_cell_formula_units_Z   2
loop_
 _symmetry_equiv_pos_site_id
 _symmetry_equiv_pos_as_xyz
  1  'x, y, z'
loop_
 _atom_site_type_symbol
 _atom_site_label
 _atom_site_symmetry_multiplicity
 _atom_site_fract_x
 _atom_site_fract_y
 _atom_site_fract_z
 _atom_site_occupancy
  Li  Li0  1  0.29072651  0.99127031  0.24563516  1
  Li  Li1  1  0.28943191  0.99168763  0.74584432  1
  Li  Li2  1  0.34159626  0.35974030  0.92986965  1
  Li  Li3  1  0.36772657  0.64893055  0.07446528  1
  Li  Li4  1  0.36956625  0.65014756  0.57507378  1
  Li  Li5  1  0.79012812  0.49136851  0.49568426  1
  Li  Li6  1  0.79038736  0.49171383  0.99585641  1
  Li  Li7  1  0.84143168  0.85971154  0.17985627  1
  Li  Li8  1  0.86845971  0.15011562  0.82505781  1
  Li  Li9  1  0.86898967  0.14913462  0.32456681  1
  Mn  Mn10  1  0.13756956  0.50131976  0.74846287  1
  Mn  Mn11  1  0.13756956  0.50131976  0.25285789  1
  Mn  Mn12  1  0.16597787  0.81497719  0.90459030  1
  Mn  Mn13  1  0.16597787  0.81497719  0.41038690  1
  Mn  Mn14  1  0.19549824  0.18405311  0.58957562  1
  Mn  Mn15  1  0.19549824  0.18405311  0.09447749  1
  Mn  Mn16  1  0.63758120  0.00139153  0.50268384  1
  Mn  Mn17  1  0.63758120  0.00139153  0.99870769  1
  Mn  Mn18  1  0.66581320  0.31502857  0.65404714  1
  Mn  Mn19  1  0.66581320  0.31502857  0.16098143  1
  Mn  Mn20  1  0.69551841  0.68412109  0.83924419  1
  Mn  Mn21  1  0.69551841  0.68412109  0.34487690  1
  B  B22  1  0.00167727  0.00197412  0.00475935  1
  B  B23  1  0.00167727  0.00197412  0.49721477  1
  B  B24  1  0.99557686  0.33166163  0.41583131  1
  B  B25  1  0.99654673  0.33341961  0.91670980  1
  B  B26  1  0.00403838  0.66439410  0.58219755  1
  B  B27  1  -0.00001524  0.66601300  0.08300700  1
  B  B28  1  0.50181805  0.50199163  0.75551062  1
  B  B29  1  0.50181805  0.50199163  0.24648100  1
  B  B30  1  0.50026749  0.16615593  0.83307797  1
  B  B31  1  0.50369142  0.16405883  0.33202941  1
  B  B32  1  0.49603344  0.83292798  0.16646399  1
  B  B33  1  0.49620086  0.83221017  0.66610558  1
  O  O34  1  0.01049250  0.42984092  0.96492096  1
  O  O35  1  0.01147108  0.42778310  0.46389205  1
  O  O36  1  0.01508634  0.76294957  0.13147428  1
  O  O37  1  0.02208399  0.75941980  0.62970940  1
  O  O38  1  0.13976675  0.60546347  0.55273223  1
  O  O39  1  0.13572700  0.60881647  0.05440874  1
  O  O40  1  0.12745562  0.27227105  0.38613602  1
  O  O41  1  0.13702598  0.27894519  0.88947310  1
  O  O42  1  0.15597151  0.96050914  0.98075344  1
  O  O43  1  0.15597151  0.96050914  0.47975571  1
  O  O44  1  0.34782462  0.12581341  0.31290621  1
  O  O45  1  0.34523452  0.12758269  0.81379185  1
  O  O46  1  0.34513564  0.79106779  0.14553340  1
  O  O47  1  0.34221458  0.79355739  0.64677869  1
  O  O48  1  0.36603452  0.44805606  0.74223452  1
  O  O49  1  0.36603452  0.44805606  0.20582254  1
  O  O50  1  0.48895173  0.59955423  0.79877573  1
  O  O51  1  0.48895173  0.59955423  0.30077851  1
  O  O52  1  0.51241822  0.92859873  0.71429937  1
  O  O53  1  0.50948165  0.92913077  0.21456588  1
  O  O54  1  0.52168441  0.25919034  0.37959517  1
  O  O55  1  0.51551546  0.26295386  0.88147693  1
  O  O56  1  0.63900106  0.10514654  0.30257327  1
  O  O57  1  0.63638840  0.10890632  0.80445366  1
  O  O58  1  0.63675673  0.77853820  0.13926910  1
  O  O59  1  0.62786272  0.77287167  0.63643584  1
  O  O60  1  0.65605475  0.46051543  0.73069883  1
  O  O61  1  0.65605475  0.46051543  0.22981660  1
  O  O62  1  0.84854842  0.62583730  0.56291865  1
  O  O63  1  0.84463306  0.62766945  0.06383473  1
  O  O64  1  0.84176490  0.29259291  0.39629596  1
  O  O65  1  0.84545739  0.29192996  0.89596498  1
  O  O66  1  0.86593726  0.94802002  0.99151764  1
  O  O67  1  0.86593726  0.94802002  0.45650237  1
  O  O68  1  0.98887642  0.09952630  0.55241578  1
  O  O69  1  0.98887642  0.09952630  0.04711051  1
