# generated using pymatgen
data_Na2Ti2O5
_symmetry_space_group_name_H-M   'P 1'
_cell_length_a   8.86482665
_cell_length_b   5.42743457
_cell_length_c   11.95519545
_cell_angle_alpha   90.00000000
_cell_angle_beta   90.00000000
_cell_angle_gamma   90.00000000
_symmetry_Int_Tables_number   1
_chemical_formula_structural   Na2Ti2O5
_chemical_formula_sum   'Na8 Ti8 O20'
_cell_volume   575.20350615
_cell_formula_units_Z   4
loop_
 _symmetry_equiv_pos_site_id
 _symmetry_equiv_pos_as_xyz
  1  'x, y, z'
loop_
 _atom_site_type_symbol
 _atom_site_label
 _atom_site_symmetry_multiplicity
 _atom_site_fract_x
 _atom_site_fract_y
 _atom_site_fract_z
 _atom_site_occupancy
  Na  Na0  1  0.06599713  0.54157355  0.22743310  1
  Na  Na1  1  0.18953733  0.62384603  0.69537283  1
  Na  Na2  1  0.31046267  0.12384603  0.19537283  1
  Na  Na3  1  0.43400287  0.04157355  0.72743310  1
  Na  Na4  1  0.56599713  0.54157355  0.27256690  1
  Na  Na5  1  0.68953733  0.62384603  0.80462717  1
  Na  Na6  1  0.81046267  0.12384603  0.30462717  1
  Na  Na7  1  0.93400287  0.04157355  0.77256690  1
  Ti  Ti8  1  0.04825678  0.51343633  0.92948830  1
  Ti  Ti9  1  0.10651589  0.15052686  0.51793785  1
  Ti  Ti10  1  0.39348411  0.65052686  0.01793785  1
  Ti  Ti11  1  0.45174322  0.01343633  0.42948830  1
  Ti  Ti12  1  0.54825678  0.51343633  0.57051170  1
  Ti  Ti13  1  0.60651589  0.15052686  0.98206215  1
  Ti  Ti14  1  0.89348411  0.65052686  0.48206215  1
  Ti  Ti15  1  0.95174322  0.01343633  0.07051170  1
  O  O16  1  0.04488521  0.11122830  0.19195042  1
  O  O17  1  0.02267418  0.17398191  0.94361636  1
  O  O18  1  0.07124510  0.49014947  0.52296914  1
  O  O19  1  0.16324195  0.05780417  0.65286037  1
  O  O20  1  0.25023026  0.08662437  0.40827333  1
  O  O21  1  0.24976974  0.58662437  0.90827333  1
  O  O22  1  0.33675805  0.55780417  0.15286037  1
  O  O23  1  0.42875490  0.99014947  0.02296914  1
  O  O24  1  0.47732582  0.67398191  0.44361636  1
  O  O25  1  0.45511479  0.61122830  0.69195042  1
  O  O26  1  0.54488521  0.11122830  0.30804958  1
  O  O27  1  0.52267418  0.17398191  0.55638364  1
  O  O28  1  0.57124510  0.49014947  0.97703086  1
  O  O29  1  0.66324195  0.05780417  0.84713963  1
  O  O30  1  0.75023026  0.08662437  0.09172667  1
  O  O31  1  0.74976974  0.58662437  0.59172667  1
  O  O32  1  0.83675805  0.55780417  0.34713963  1
  O  O33  1  0.92875490  0.99014947  0.47703086  1
  O  O34  1  0.97732582  0.67398191  0.05638364  1
  O  O35  1  0.95511479  0.61122830  0.80804958  1
