# generated using pymatgen
data_KH6Rh(N3O4)2
_symmetry_space_group_name_H-M   'P 1'
_cell_length_a   7.03813644
_cell_length_b   12.06786244
_cell_length_c   13.56152695
_cell_angle_alpha   90.00000000
_cell_angle_beta   90.00000000
_cell_angle_gamma   90.00000000
_symmetry_Int_Tables_number   1
_chemical_formula_structural   KH6Rh(N3O4)2
_chemical_formula_sum   'K4 H24 Rh4 N24 O32'
_cell_volume   1151.85184993
_cell_formula_units_Z   4
loop_
 _symmetry_equiv_pos_site_id
 _symmetry_equiv_pos_as_xyz
  1  'x, y, z'
loop_
 _atom_site_type_symbol
 _atom_site_label
 _atom_site_symmetry_multiplicity
 _atom_site_fract_x
 _atom_site_fract_y
 _atom_site_fract_z
 _atom_site_occupancy
  K  K0  1  0.69029294  0.63627514  0.02154715  1
  K  K1  1  0.80970706  0.36372486  0.52154715  1
  K  K2  1  0.19029294  0.86372486  0.97845285  1
  K  K3  1  0.30970706  0.13627514  0.47845285  1
  H  H4  1  0.09112050  0.39199624  0.27931968  1
  H  H5  1  0.40887950  0.60800376  0.77931968  1
  H  H6  1  0.59112050  0.10800376  0.72068032  1
  H  H7  1  0.90887950  0.89199624  0.22068032  1
  H  H8  1  0.11390084  0.45641555  0.17129172  1
  H  H9  1  0.38609916  0.54358445  0.67129172  1
  H  H10  1  0.61390084  0.04358445  0.82870828  1
  H  H11  1  0.88609916  0.95641555  0.32870828  1
  H  H12  1  0.93764504  0.49188258  0.24816991  1
  H  H13  1  0.56235496  0.50811742  0.74816991  1
  H  H14  1  0.43764504  0.00811742  0.75183009  1
  H  H15  1  0.06235496  0.99188258  0.25183009  1
  H  H16  1  0.38319319  0.77613798  0.36945925  1
  H  H17  1  0.11680681  0.22386202  0.86945925  1
  H  H18  1  0.88319319  0.72386202  0.63054075  1
  H  H19  1  0.61680681  0.27613798  0.13054075  1
  H  H20  1  0.56550268  0.69154676  0.34262665  1
  H  H21  1  0.93449732  0.30845324  0.84262665  1
  H  H22  1  0.06550268  0.80845324  0.65737335  1
  H  H23  1  0.43449732  0.19154676  0.15737335  1
  H  H24  1  0.45193385  0.67900912  0.44973289  1
  H  H25  1  0.04806615  0.32099088  0.94973289  1
  H  H26  1  0.95193385  0.82099088  0.55026711  1
  H  H27  1  0.54806615  0.17900912  0.05026711  1
  Rh  Rh28  1  0.25679612  0.58214670  0.30991677  1
  Rh  Rh29  1  0.24320388  0.41785330  0.80991677  1
  Rh  Rh30  1  0.75679612  0.91785330  0.69008323  1
  Rh  Rh31  1  0.74320388  0.08214670  0.19008323  1
  N  N32  1  0.20649876  0.69141479  0.19548721  1
  N  N33  1  0.29350124  0.30858521  0.69548721  1
  N  N34  1  0.70649876  0.80858521  0.80451279  1
  N  N35  1  0.79350124  0.19141479  0.30451279  1
  N  N36  1  0.31783647  0.47028969  0.42207413  1
  N  N37  1  0.18216353  0.52971031  0.92207413  1
  N  N38  1  0.81783647  0.02971031  0.57792587  1
  N  N39  1  0.68216353  0.97028969  0.07792587  1
  N  N40  1  0.03019732  0.64416008  0.38776007  1
  N  N41  1  0.46980268  0.35583992  0.88776007  1
  N  N42  1  0.53019732  0.85583992  0.61223993  1
  N  N43  1  0.96980268  0.14416008  0.11223993  1
  N  N44  1  0.48362309  0.52323683  0.22705109  1
  N  N45  1  0.01637691  0.47676317  0.72705109  1
  N  N46  1  0.98362309  0.97676317  0.77294891  1
  N  N47  1  0.51637691  0.02323683  0.27294891  1
  N  N48  1  0.07655730  0.46649272  0.24367979  1
  N  N49  1  0.42344270  0.53350728  0.74367979  1
  N  N50  1  0.57655730  0.03350728  0.75632021  1
  N  N51  1  0.92344270  0.96649272  0.25632021  1
  N  N52  1  0.43529416  0.69738634  0.37634964  1
  N  N53  1  0.06470584  0.30261366  0.87634964  1
  N  N54  1  0.93529416  0.80261366  0.62365036  1
  N  N55  1  0.56470584  0.19738634  0.12365036  1
  O  O56  1  0.91352025  0.57978016  0.42721424  1
  O  O57  1  0.58647975  0.42021984  0.92721424  1
  O  O58  1  0.41352025  0.92021984  0.57278576  1
  O  O59  1  0.08647975  0.07978016  0.07278576  1
  O  O60  1  0.01156772  0.74702753  0.39407835  1
  O  O61  1  0.48843228  0.25297247  0.89407835  1
  O  O62  1  0.51156772  0.75297247  0.60592165  1
  O  O63  1  0.98843228  0.24702753  0.10592165  1
  O  O64  1  0.22123203  0.38345612  0.43120371  1
  O  O65  1  0.27876797  0.61654388  0.93120371  1
  O  O66  1  0.72123203  0.11654388  0.56879629  1
  O  O67  1  0.77876797  0.88345612  0.06879629  1
  O  O68  1  0.04247504  0.70309872  0.16129279  1
  O  O69  1  0.45752496  0.29690128  0.66129279  1
  O  O70  1  0.54247504  0.79690128  0.83870721  1
  O  O71  1  0.95752496  0.20309872  0.33870721  1
  O  O72  1  0.45430674  0.45212536  0.16175281  1
  O  O73  1  0.04569326  0.54787464  0.66175281  1
  O  O74  1  0.95430674  0.04787464  0.83824719  1
  O  O75  1  0.54569326  0.95212536  0.33824719  1
  O  O76  1  0.45545445  0.48872286  0.47822253  1
  O  O77  1  0.04454555  0.51127714  0.97822253  1
  O  O78  1  0.95545445  0.01127714  0.52177747  1
  O  O79  1  0.54454555  0.98872286  0.02177747  1
  O  O80  1  0.34299186  0.74513446  0.15957650  1
  O  O81  1  0.15700814  0.25486554  0.65957650  1
  O  O82  1  0.84299186  0.75486554  0.84042350  1
  O  O83  1  0.65700814  0.24513446  0.34042350  1
  O  O84  1  0.64666613  0.56417206  0.23778746  1
  O  O85  1  0.85333387  0.43582794  0.73778746  1
  O  O86  1  0.14666613  0.93582794  0.76221254  1
  O  O87  1  0.35333387  0.06417206  0.26221254  1
