# generated using pymatgen
data_Fe3OF5
_symmetry_space_group_name_H-M   'P 1'
_cell_length_a   7.31584886
_cell_length_b   5.79605226
_cell_length_c   5.79605226
_cell_angle_alpha   74.14564917
_cell_angle_beta   74.15262589
_cell_angle_gamma   74.15262589
_symmetry_Int_Tables_number   1
_chemical_formula_structural   Fe3OF5
_chemical_formula_sum   'Fe6 O2 F10'
_cell_volume   222.14274113
_cell_formula_units_Z   2
loop_
 _symmetry_equiv_pos_site_id
 _symmetry_equiv_pos_as_xyz
  1  'x, y, z'
loop_
 _atom_site_type_symbol
 _atom_site_label
 _atom_site_symmetry_multiplicity
 _atom_site_fract_x
 _atom_site_fract_y
 _atom_site_fract_z
 _atom_site_occupancy
  Fe  Fe0  1  0.83647836  0.67079566  0.67079566  1
  Fe  Fe1  1  0.66666700  0.33333300  0.33333300  1
  Fe  Fe2  1  0.32089669  0.64567148  0.64567148  1
  Fe  Fe3  1  0.16666700  0.33333300  0.33333300  1
  Fe  Fe4  1  0.49685564  0.99587034  0.99587034  1
  Fe  Fe5  1  0.01243731  0.02099552  0.02099552  1
  O  O6  1  0.95031859  0.25157129  0.25157129  1
  O  O7  1  0.38301441  0.41509571  0.41509571  1
  F  F8  1  0.66666700  0.03582269  0.63084431  1
  F  F9  1  0.31734179  0.35730284  0.97907026  1
  F  F10  1  0.30894989  0.88062747  0.88062747  1
  F  F11  1  0.64132272  0.55980049  0.55980049  1
  F  F12  1  0.02438311  0.78603953  0.78603953  1
  F  F13  1  0.69201028  0.10686551  0.10686551  1
  F  F14  1  0.31734179  0.97907026  0.35730284  1
  F  F15  1  0.66666700  0.63084431  0.03582269  1
  F  F16  1  0.01599221  0.30936416  0.68759574  1
  F  F17  1  0.01599221  0.68759574  0.30936416  1
