# generated using pymatgen
data_Li4V(TeO4)3
_symmetry_space_group_name_H-M   'P 1'
_cell_length_a   5.22390736
_cell_length_b   5.04803514
_cell_length_c   8.74833040
_cell_angle_alpha   90.00000000
_cell_angle_beta   90.00000000
_cell_angle_gamma   92.99368077
_symmetry_Int_Tables_number   1
_chemical_formula_structural   Li4V(TeO4)3
_chemical_formula_sum   'Li4 V1 Te3 O12'
_cell_volume   230.38273329
_cell_formula_units_Z   1
loop_
 _symmetry_equiv_pos_site_id
 _symmetry_equiv_pos_as_xyz
  1  'x, y, z'
loop_
 _atom_site_type_symbol
 _atom_site_label
 _atom_site_symmetry_multiplicity
 _atom_site_fract_x
 _atom_site_fract_y
 _atom_site_fract_z
 _atom_site_occupancy
  Li  Li0  1  0.00000000  0.00000000  0.70435139  1
  Li  Li1  1  0.00000000  0.50000000  0.85144558  1
  Li  Li2  1  0.50000000  0.00000000  0.29851661  1
  Li  Li3  1  0.50000000  0.50000000  0.18688016  1
  V  V4  1  0.00000000  0.00000000  0.10281649  1
  Te  Te5  1  0.00000000  0.50000000  0.39920246  1
  Te  Te6  1  0.50000000  0.00000000  0.92444468  1
  Te  Te7  1  0.50000000  0.50000000  0.60091346  1
  O  O8  1  0.14480079  0.26136654  0.24952421  1
  O  O9  1  0.14634080  0.28471450  0.56178574  1
  O  O10  1  0.18912571  0.20414479  0.93924747  1
  O  O11  1  0.33096988  0.69933337  0.41557036  1
  O  O12  1  0.31971617  0.80651015  0.09479495  1
  O  O13  1  0.32069700  0.77782897  0.77533135  1
  O  O14  1  0.67930300  0.22217103  0.77533135  1
  O  O15  1  0.68028383  0.19348985  0.09479495  1
  O  O16  1  0.66903012  0.30066663  0.41557036  1
  O  O17  1  0.81087429  0.79585521  0.93924747  1
  O  O18  1  0.85365920  0.71528550  0.56178574  1
  O  O19  1  0.85519921  0.73863346  0.24952421  1
