# generated using pymatgen
data_Li9Mn10O20
_symmetry_space_group_name_H-M   'P 1'
_cell_length_a   5.13076116
_cell_length_b   8.21172404
_cell_length_c   10.58464358
_cell_angle_alpha   112.50109564
_cell_angle_beta   101.21513106
_cell_angle_gamma   68.82356989
_symmetry_Int_Tables_number   1
_chemical_formula_structural   Li9Mn10O20
_chemical_formula_sum   'Li9 Mn10 O20'
_cell_volume   383.36520606
_cell_formula_units_Z   1
loop_
 _symmetry_equiv_pos_site_id
 _symmetry_equiv_pos_as_xyz
  1  'x, y, z'
loop_
 _atom_site_type_symbol
 _atom_site_label
 _atom_site_symmetry_multiplicity
 _atom_site_fract_x
 _atom_site_fract_y
 _atom_site_fract_z
 _atom_site_occupancy
  Li  Li0  1  0.22187323  0.55952216  0.75108676  1
  Li  Li1  1  0.20463811  0.58265601  0.25752339  1
  Li  Li2  1  0.39161668  0.23178694  0.26009274  1
  Li  Li3  1  0.50726500  0.49218275  0.98869243  1
  Li  Li4  1  0.49752520  0.49719566  0.50432454  1
  Li  Li5  1  0.60421963  0.76787689  0.74052468  1
  Li  Li6  1  0.81935801  0.39722337  0.74653398  1
  Li  Li7  1  0.79262516  0.42062681  0.24984150  1
  Li  Li8  1  0.61526964  0.77654021  0.24415837  1
  Mn  Mn9  1  0.98902151  0.00194847  0.74842005  1
  Mn  Mn10  1  0.99916230  0.00690944  0.25001041  1
  Mn  Mn11  1  0.10262847  0.31070225  0.49966510  1
  Mn  Mn12  1  0.10745079  0.31283169  0.99911960  1
  Mn  Mn13  1  0.69350956  0.11256590  0.99782667  1
  Mn  Mn14  1  0.30462275  0.89297130  0.50074970  1
  Mn  Mn15  1  0.68765055  0.10586114  0.49919939  1
  Mn  Mn16  1  0.30558163  0.89876621  0.00297599  1
  Mn  Mn17  1  0.89554291  0.69136608  0.00257883  1
  Mn  Mn18  1  0.89737952  0.68551763  0.50175338  1
  O  O19  1  0.02731207  0.11949382  0.62235005  1
  O  O20  1  0.04429959  0.12819508  0.12521771  1
  O  O21  1  0.12934372  0.47567145  0.88873338  1
  O  O22  1  0.35116056  0.04752276  0.90392629  1
  O  O23  1  0.13692936  0.46860266  0.38113782  1
  O  O24  1  0.35105654  0.06952561  0.38358700  1
  O  O25  1  0.21085488  0.76334391  0.62603751  1
  O  O26  1  0.44773787  0.33763223  0.60655975  1
  O  O27  1  0.22379652  0.77867264  0.11405508  1
  O  O28  1  0.45004594  0.33456628  0.11476343  1
  O  O29  1  0.54223318  0.67490146  0.88759513  1
  O  O30  1  0.79678733  0.24337509  0.88051798  1
  O  O31  1  0.55171458  0.67081340  0.38080373  1
  O  O32  1  0.78306287  0.24033053  0.37253748  1
  O  O33  1  0.64644481  0.92119543  0.61251660  1
  O  O34  1  0.86359572  0.52995750  0.61877265  1
  O  O35  1  0.64447038  0.93232281  0.11813174  1
  O  O36  1  0.86731213  0.53859601  0.11850779  1
  O  O37  1  0.95286340  0.88411890  0.88000056  1
  O  O38  1  0.96042791  0.87837652  0.37150781  1
