# generated using pymatgen
data_SrCa2I6
_symmetry_space_group_name_H-M   'P 1'
_cell_length_a   8.97765546
_cell_length_b   7.34006045
_cell_length_c   24.36211478
_cell_angle_alpha   90.00000000
_cell_angle_beta   80.96577220
_cell_angle_gamma   90.00000000
_symmetry_Int_Tables_number   1
_chemical_formula_structural   SrCa2I6
_chemical_formula_sum   'Sr4 Ca8 I24'
_cell_volume   1585.46373238
_cell_formula_units_Z   4
loop_
 _symmetry_equiv_pos_site_id
 _symmetry_equiv_pos_as_xyz
  1  'x, y, z'
loop_
 _atom_site_type_symbol
 _atom_site_label
 _atom_site_symmetry_multiplicity
 _atom_site_fract_x
 _atom_site_fract_y
 _atom_site_fract_z
 _atom_site_occupancy
  Sr  Sr0  1  0.11063704  0.00454424  0.58615718  1
  Sr  Sr1  1  0.11063704  0.49545576  0.08615718  1
  Sr  Sr2  1  0.88936296  0.50454424  0.91384282  1
  Sr  Sr3  1  0.88936296  0.99545576  0.41384282  1
  Ca  Ca4  1  0.25484871  0.48662407  0.75147612  1
  Ca  Ca5  1  0.39684790  0.98586385  0.91561513  1
  Ca  Ca6  1  0.25484871  0.01337593  0.25147612  1
  Ca  Ca7  1  0.39684790  0.51413615  0.41561513  1
  Ca  Ca8  1  0.60315210  0.48586385  0.58438487  1
  Ca  Ca9  1  0.74515129  -0.01337593  0.74852388  1
  Ca  Ca10  1  0.60315210  0.01413615  0.08438487  1
  Ca  Ca11  1  0.74515129  0.51337593  0.24852388  1
  I  I12  1  -0.01040156  0.74981016  0.80123163  1
  I  I13  1  0.18580125  0.25700229  0.86052516  1
  I  I14  1  0.12501506  0.75103882  0.97406267  1
  I  I15  1  -0.01040156  0.75018984  0.30123163  1
  I  I16  1  0.18580125  0.24299771  0.36052516  1
  I  I17  1  0.12501506  0.74896118  0.47406267  1
  I  I18  1  0.38598391  0.25920007  0.52086617  1
  I  I19  1  0.32617940  0.71546640  0.64251725  1
  I  I20  1  0.51727000  0.23704128  0.69133965  1
  I  I21  1  0.48273000  0.73704128  0.80866035  1
  I  I22  1  0.38598391  0.24079993  0.02086617  1
  I  I23  1  0.67382060  0.21546640  0.85748275  1
  I  I24  1  0.32617940  0.78453360  0.14251725  1
  I  I25  1  0.61401609  0.75920007  0.97913383  1
  I  I26  1  0.51727000  0.26295872  0.19133965  1
  I  I27  1  0.48273000  0.76295872  0.30866035  1
  I  I28  1  0.67382060  0.28453360  0.35748275  1
  I  I29  1  0.61401609  0.74079993  0.47913383  1
  I  I30  1  0.87498494  0.25103882  0.52593733  1
  I  I31  1  0.81419875  0.75700229  0.63947484  1
  I  I32  1  0.01040156  0.24981016  0.69876837  1
  I  I33  1  0.87498494  0.24896118  0.02593733  1
  I  I34  1  0.81419875  0.74299771  0.13947484  1
  I  I35  1  0.01040156  0.25018984  0.19876837  1
