# generated using pymatgen
data_Lu4Al2O9
_symmetry_space_group_name_H-M   'P 1'
_cell_length_a   7.21616103
_cell_length_b   10.30681320
_cell_length_c   11.04983383
_cell_angle_alpha   90.00000000
_cell_angle_beta   108.06756442
_cell_angle_gamma   90.00000000
_symmetry_Int_Tables_number   1
_chemical_formula_structural   Lu4Al2O9
_chemical_formula_sum   'Lu16 Al8 O36'
_cell_volume   781.31463451
_cell_formula_units_Z   4
loop_
 _symmetry_equiv_pos_site_id
 _symmetry_equiv_pos_as_xyz
  1  'x, y, z'
loop_
 _atom_site_type_symbol
 _atom_site_label
 _atom_site_symmetry_multiplicity
 _atom_site_fract_x
 _atom_site_fract_y
 _atom_site_fract_z
 _atom_site_occupancy
  Lu  Lu0  1  0.09261788  0.37103497  0.94040588  1
  Lu  Lu1  1  0.09261788  0.12896503  0.44040588  1
  Lu  Lu2  1  0.22479564  0.59605758  0.69490461  1
  Lu  Lu3  1  0.26654975  0.11217042  0.78478850  1
  Lu  Lu4  1  0.22479564  0.90394242  0.19490461  1
  Lu  Lu5  1  0.41575575  0.88318328  0.58980513  1
  Lu  Lu6  1  0.26654975  0.38782958  0.28478850  1
  Lu  Lu7  1  0.58424425  0.38318328  0.91019487  1
  Lu  Lu8  1  0.41575575  0.61681672  0.08980513  1
  Lu  Lu9  1  0.73345025  0.61217042  0.71521150  1
  Lu  Lu10  1  0.58424425  0.11681672  0.41019487  1
  Lu  Lu11  1  0.77520436  0.09605758  0.80509539  1
  Lu  Lu12  1  0.73345025  0.88782958  0.21521150  1
  Lu  Lu13  1  0.77520436  0.40394242  0.30509539  1
  Lu  Lu14  1  0.90738212  0.87103497  0.55959412  1
  Lu  Lu15  1  0.90738212  0.62896503  0.05959412  1
  Al  Al16  1  0.04976778  0.82409221  0.87560797  1
  Al  Al17  1  0.04976778  0.67590779  0.37560797  1
  Al  Al18  1  0.41179268  0.31842538  0.61273234  1
  Al  Al19  1  0.58820732  0.81842538  0.88726766  1
  Al  Al20  1  0.41179268  0.18157462  0.11273234  1
  Al  Al21  1  0.58820732  0.68157462  0.38726766  1
  Al  Al22  1  0.95023222  0.32409221  0.62439203  1
  Al  Al23  1  0.95023222  0.17590779  0.12439203  1
  O  O24  1  0.06610472  0.99174083  0.85609394  1
  O  O25  1  0.02364103  0.74181091  0.72979208  1
  O  O26  1  0.16740486  0.99911030  0.60888074  1
  O  O27  1  0.17760366  0.26937236  0.61406765  1
  O  O28  1  0.31079121  0.50670282  0.89279607  1
  O  O29  1  0.06610472  0.50825917  0.35609394  1
  O  O30  1  0.02364103  0.75818909  0.22979208  1
  O  O31  1  0.38302015  0.23984494  0.95769824  1
  O  O32  1  0.18813831  0.73574823  0.52419578  1
  O  O33  1  0.46644019  0.72779718  0.75157772  1
  O  O34  1  0.16740486  0.50088970  0.10888074  1
  O  O35  1  0.17760366  0.23062764  0.11406765  1
  O  O36  1  0.52614353  0.97717447  0.83130678  1
  O  O37  1  0.31079121  0.99329718  0.39279607  1
  O  O38  1  0.47385647  0.47717447  0.66869322  1
  O  O39  1  0.38302015  0.26015506  0.45769824  1
  O  O40  1  0.53355981  0.22779718  0.74842228  1
  O  O41  1  0.18813831  0.76425177  0.02419578  1
  O  O42  1  0.81186169  0.23574823  0.97580422  1
  O  O43  1  0.46644019  0.77220282  0.25157772  1
  O  O44  1  0.61697985  0.73984494  0.54230176  1
  O  O45  1  0.52614353  0.52282553  0.33130678  1
  O  O46  1  0.68920879  0.00670282  0.60720393  1
  O  O47  1  0.47385647  0.02282553  0.16869322  1
  O  O48  1  0.82239634  0.76937236  0.88593235  1
  O  O49  1  0.83259514  0.49911030  0.89111926  1
  O  O50  1  0.53355981  0.27220282  0.24842228  1
  O  O51  1  0.81186169  0.26425177  0.47580422  1
  O  O52  1  0.61697985  0.76015506  0.04230176  1
  O  O53  1  0.97635897  0.24181091  0.77020792  1
  O  O54  1  0.93389528  0.49174083  0.64390606  1
  O  O55  1  0.68920879  0.49329718  0.10720393  1
  O  O56  1  0.82239634  0.73062764  0.38593235  1
  O  O57  1  0.83259514  0.00088970  0.39111926  1
  O  O58  1  0.97635897  0.25818909  0.27020792  1
  O  O59  1  0.93389528  0.00825917  0.14390606  1
