# generated using pymatgen
data_Li3Mn4(BO3)4
_symmetry_space_group_name_H-M   'P 1'
_cell_length_a   9.05916247
_cell_length_b   9.15737415
_cell_length_c   11.53486527
_cell_angle_alpha   89.77250392
_cell_angle_beta   68.32214056
_cell_angle_gamma   60.09859558
_symmetry_Int_Tables_number   1
_chemical_formula_structural   Li3Mn4(BO3)4
_chemical_formula_sum   'Li9 Mn12 B12 O36'
_cell_volume   751.33542638
_cell_formula_units_Z   3
loop_
 _symmetry_equiv_pos_site_id
 _symmetry_equiv_pos_as_xyz
  1  'x, y, z'
loop_
 _atom_site_type_symbol
 _atom_site_label
 _atom_site_symmetry_multiplicity
 _atom_site_fract_x
 _atom_site_fract_y
 _atom_site_fract_z
 _atom_site_occupancy
  Li  Li0  1  0.35021305  0.34890005  0.15033272  1
  Li  Li1  1  0.29093425  0.36083729  0.91111067  1
  Li  Li2  1  0.62770456  0.18391983  0.39028690  1
  Li  Li3  1  0.65985214  0.17344911  0.66677150  1
  Li  Li4  1  0.98747877  0.01484134  0.17176861  1
  Li  Li5  1  0.30128424  0.83626986  0.40806877  1
  Li  Li6  1  0.33707510  0.80622480  0.66081300  1
  Li  Li7  1  0.66892333  0.67790853  0.16975387  1
  Li  Li8  1  0.97121539  0.50404036  0.67310589  1
  Mn  Mn9  1  0.03866419  0.13327715  0.63750147  1
  Mn  Mn10  1  0.03296863  0.32594347  0.13507587  1
  Mn  Mn11  1  0.28747940  0.99968514  0.89245679  1
  Mn  Mn12  1  0.26676508  0.20628322  0.37635479  1
  Mn  Mn13  1  0.34300475  0.48330105  0.62865862  1
  Mn  Mn14  1  0.36018280  0.66664671  0.12193841  1
  Mn  Mn15  1  0.66602320  0.36072476  0.87933742  1
  Mn  Mn16  1  0.66275819  0.50772892  0.38967417  1
  Mn  Mn17  1  0.66166467  0.85374837  0.62992954  1
  Mn  Mn18  1  0.67646009  0.99878705  0.13041188  1
  Mn  Mn19  1  0.94734416  0.68905276  0.88502955  1
  Mn  Mn20  1  0.98000894  0.83207242  0.37861577  1
  B  B21  1  0.35938210  0.15231749  0.60613511  1
  B  B22  1  0.02903745  0.65837796  0.12401674  1
  B  B23  1  0.62503514  0.02860264  0.86903927  1
  B  B24  1  0.33264186  0.50687477  0.36630630  1
  B  B25  1  0.02330062  0.81223496  0.62410099  1
  B  B26  1  0.70073937  0.32597403  0.13144435  1
  B  B27  1  0.30765808  0.65520374  0.86626637  1
  B  B28  1  0.98406321  0.16800642  0.37567025  1
  B  B29  1  0.68360565  0.50145353  0.64127120  1
  B  B30  1  0.34682688  0.99361053  0.13824335  1
  B  B31  1  0.98967479  0.33112236  0.87465719  1
  B  B32  1  0.61843388  0.86523723  0.38536401  1
  O  O33  1  0.20381057  0.05014657  0.09675876  1
  O  O34  1  0.13093748  0.08557372  0.41649190  1
  O  O35  1  0.37416580  0.12046036  0.18082026  1
  O  O36  1  0.20537452  0.24612956  0.57147793  1
  O  O37  1  0.14416344  0.48140920  0.10515944  1
  O  O38  1  0.12632114  0.26652675  0.92108144  1
  O  O39  1  0.56229336  0.01998483  0.34563982  1
  O  O40  1  0.27054722  0.40841482  0.33660949  1
  O  O41  1  0.46908504  0.21448337  0.60565468  1
  O  O42  1  0.06823217  0.76961590  0.17113386  1
  O  O43  1  0.05904178  0.66177012  0.66581109  1
  O  O44  1  0.57337098  0.39406918  0.07248810  1
  O  O45  1  0.76099842  0.16436571  0.15419829  1
  O  O46  1  0.56614729  0.19628500  0.85759545  1
  O  O47  1  0.45925453  0.44339761  0.42013523  1
  O  O48  1  0.26773895  0.66877318  0.33580083  1
  O  O49  1  0.24396664  0.55749618  0.83442675  1
  O  O50  1  0.89227707  0.08978577  0.36695258  1
  O  O51  1  0.14214043  0.87161927  0.60330356  1
  O  O52  1  0.75052392  0.43282634  0.16906606  1
  O  O53  1  0.74861354  0.34236568  0.68472562  1
  O  O54  1  0.54648015  0.54874917  0.59651102  1
  O  O55  1  0.45376790  0.82545052  0.13868960  1
  O  O56  1  0.24884327  0.81622072  0.84394582  1
  O  O57  1  0.43377156  0.58439534  0.92311838  1
  O  O58  1  0.94588679  0.32481925  0.34395634  1
  O  O59  1  0.93567407  0.21937045  0.84392532  1
  O  O60  1  0.56196561  0.75789722  0.36481675  1
  O  O61  1  0.75523382  0.60022672  0.64158826  1
  O  O62  1  0.38939368  0.99757224  0.64310137  1
  O  O63  1  0.87358160  0.72832576  0.09534492  1
  O  O64  1  0.90745477  0.49294812  0.85403091  1
  O  O65  1  0.74482557  0.81430286  0.44345335  1
  O  O66  1  0.56741043  0.93860591  0.81310393  1
  O  O67  1  0.86610005  0.90630455  0.59606225  1
  O  O68  1  0.73084147  0.94541517  0.93449527  1
