# generated using pymatgen
data_Ti3V2Ni(PO4)6
_symmetry_space_group_name_H-M   'P 1'
_cell_length_a   8.53711015
_cell_length_b   8.65683811
_cell_length_c   8.65683830
_cell_angle_alpha   59.99999773
_cell_angle_beta   59.53498112
_cell_angle_gamma   59.53498202
_symmetry_Int_Tables_number   1
_chemical_formula_structural   Ti3V2Ni(PO4)6
_chemical_formula_sum   'Ti3 V2 Ni1 P6 O24'
_cell_volume   449.18568029
_cell_formula_units_Z   1
loop_
 _symmetry_equiv_pos_site_id
 _symmetry_equiv_pos_as_xyz
  1  'x, y, z'
loop_
 _atom_site_type_symbol
 _atom_site_label
 _atom_site_symmetry_multiplicity
 _atom_site_fract_x
 _atom_site_fract_y
 _atom_site_fract_z
 _atom_site_occupancy
  Ti  Ti0  1  0.06411886  0.64529371  0.64529371  1
  Ti  Ti1  1  0.42631966  0.85789345  0.85789345  1
  Ti  Ti2  1  0.93565011  0.35478330  0.35478330  1
  V  V3  1  -0.00297682  0.00099261  0.00099261  1
  V  V4  1  0.49560231  0.50146590  0.50146590  1
  Ni  Ni5  1  0.57532905  0.14155732  0.14155732  1
  P  P6  1  0.25597395  0.24832595  0.54056188  1
  P  P7  1  0.25597395  0.95513822  0.24832595  1
  P  P8  1  0.25597395  0.54056188  0.95513822  1
  P  P9  1  0.74834604  0.45730924  0.04483724  1
  P  P10  1  0.74834604  0.04483724  0.74950749  1
  P  P11  1  0.74834604  0.74950749  0.45730924  1
  O  O12  1  0.07147752  0.11910993  0.31519441  1
  O  O13  1  0.07147752  0.49421814  0.11910993  1
  O  O14  1  0.07147752  0.31519441  0.49421814  1
  O  O15  1  0.22704860  0.08969205  0.74012816  1
  O  O16  1  0.43918148  0.18520273  0.38995446  1
  O  O17  1  0.26011217  0.41191629  0.56840692  1
  O  O18  1  0.22704860  0.94313119  0.08969205  1
  O  O19  1  0.26011217  0.75956462  0.41191629  1
  O  O20  1  0.56602099  0.61979311  -0.00165129  1
  O  O21  1  0.26011217  0.56840692  0.75956462  1
  O  O22  1  0.78012715  0.26429818  0.05210203  1
  O  O23  1  0.56602099  -0.00165129  0.81583718  1
  O  O24  1  0.43918148  0.98566133  0.18520273  1
  O  O25  1  0.22704860  0.74012816  0.94313119  1
  O  O26  1  0.72753566  0.44571238  0.23993959  1
  O  O27  1  0.43918148  0.38995446  0.98566133  1
  O  O28  1  0.72753566  0.23993959  0.58681237  1
  O  O29  1  0.78012715  0.05210203  0.90347264  1
  O  O30  1  0.72753566  0.58681237  0.44571238  1
  O  O31  1  0.56602099  0.81583718  0.61979311  1
  O  O32  1  0.78012715  0.90347265  0.26429818  1
  O  O33  1  0.92616371  0.67179640  0.51508460  1
  O  O34  1  0.92616371  0.51508460  0.88695529  1
  O  O35  1  0.92616371  0.88695529  0.67179640  1
