# generated using pymatgen
data_SrCa2I6
_symmetry_space_group_name_H-M   'P 1'
_cell_length_a   7.29812559
_cell_length_b   27.05966343
_cell_length_c   8.09377065
_cell_angle_alpha   90.00000000
_cell_angle_beta   90.00000000
_cell_angle_gamma   90.00000000
_symmetry_Int_Tables_number   1
_chemical_formula_structural   SrCa2I6
_chemical_formula_sum   'Sr4 Ca8 I24'
_cell_volume   1598.39685722
_cell_formula_units_Z   4
loop_
 _symmetry_equiv_pos_site_id
 _symmetry_equiv_pos_as_xyz
  1  'x, y, z'
loop_
 _atom_site_type_symbol
 _atom_site_label
 _atom_site_symmetry_multiplicity
 _atom_site_fract_x
 _atom_site_fract_y
 _atom_site_fract_z
 _atom_site_occupancy
  Sr  Sr0  1  0.00000000  0.37892967  0.25000000  1
  Sr  Sr1  1  0.00000000  0.62107033  0.75000000  1
  Sr  Sr2  1  0.50000000  0.87892967  0.25000000  1
  Sr  Sr3  1  0.50000000  0.12107033  0.75000000  1
  Ca  Ca4  1  0.00000000  0.04571690  0.25000000  1
  Ca  Ca5  1  0.00000000  0.28673740  0.75000000  1
  Ca  Ca6  1  0.00000000  0.71326260  0.25000000  1
  Ca  Ca7  1  0.00000000  0.95428310  0.75000000  1
  Ca  Ca8  1  0.50000000  0.21326260  0.25000000  1
  Ca  Ca9  1  0.50000000  0.78673740  0.75000000  1
  Ca  Ca10  1  0.50000000  0.54571690  0.25000000  1
  Ca  Ca11  1  0.50000000  0.45428310  0.75000000  1
  I  I12  1  0.23716357  0.03657670  0.57242527  1
  I  I13  1  0.23716357  0.96342330  0.07242527  1
  I  I14  1  0.24959884  0.20730207  0.56793446  1
  I  I15  1  0.24959884  0.79269793  0.06793446  1
  I  I16  1  0.24166177  0.37194590  0.59195165  1
  I  I17  1  0.24166177  0.62805410  0.09195165  1
  I  I18  1  0.25833823  0.12805410  0.09195165  1
  I  I19  1  0.25833823  0.87194590  0.59195165  1
  I  I20  1  0.25040116  0.29269793  0.06793446  1
  I  I21  1  0.25040116  0.70730207  0.56793446  1
  I  I22  1  0.26283643  0.46342330  0.07242527  1
  I  I23  1  0.26283643  0.53657670  0.57242527  1
  I  I24  1  0.73716357  0.53657670  0.92757473  1
  I  I25  1  0.73716357  0.46342330  0.42757473  1
  I  I26  1  0.74959884  0.29269793  0.43206554  1
  I  I27  1  0.74959884  0.70730207  0.93206554  1
  I  I28  1  0.74166177  0.87194590  0.90804835  1
  I  I29  1  0.74166177  0.12805410  0.40804835  1
  I  I30  1  0.75833823  0.37194590  0.90804835  1
  I  I31  1  0.75833823  0.62805410  0.40804835  1
  I  I32  1  0.75040116  0.20730207  0.93206554  1
  I  I33  1  0.75040116  0.79269793  0.43206554  1
  I  I34  1  0.76283643  0.03657670  0.92757473  1
  I  I35  1  0.76283643  0.96342330  0.42757473  1
