# generated using pymatgen
data_Li3Mn4(BO3)4
_symmetry_space_group_name_H-M   'P 1'
_cell_length_a   9.09877930
_cell_length_b   9.12448551
_cell_length_c   11.60714147
_cell_angle_alpha   66.95304519
_cell_angle_beta   68.42101856
_cell_angle_gamma   60.29080302
_symmetry_Int_Tables_number   1
_chemical_formula_structural   Li3Mn4(BO3)4
_chemical_formula_sum   'Li9 Mn12 B12 O36'
_cell_volume   751.74844116
_cell_formula_units_Z   3
loop_
 _symmetry_equiv_pos_site_id
 _symmetry_equiv_pos_as_xyz
  1  'x, y, z'
loop_
 _atom_site_type_symbol
 _atom_site_label
 _atom_site_symmetry_multiplicity
 _atom_site_fract_x
 _atom_site_fract_y
 _atom_site_fract_z
 _atom_site_occupancy
  Li  Li0  1  0.22735091  0.03009061  0.66152561  1
  Li  Li1  1  0.38892024  0.25322370  0.15636631  1
  Li  Li2  1  0.03650933  0.90332699  0.17110144  1
  Li  Li3  1  0.26083129  0.41571899  0.91419329  1
  Li  Li4  1  0.43257820  0.57622984  0.40866182  1
  Li  Li5  1  0.55233918  0.38832691  0.67750066  1
  Li  Li6  1  0.72403198  0.56575778  0.16038986  1
  Li  Li7  1  0.74485272  0.92265036  0.40732439  1
  Li  Li8  1  0.86901295  0.71137431  0.67183754  1
  Mn  Mn9  1  0.07454975  0.23385117  0.13216738  1
  Mn  Mn10  1  0.26087769  0.07068384  0.88561080  1
  Mn  Mn11  1  0.09963000  0.58861567  0.38372323  1
  Mn  Mn12  1  0.55753970  0.09474692  0.62897937  1
  Mn  Mn13  1  0.39472064  0.58702522  0.12695289  1
  Mn  Mn14  1  0.79057301  0.26246867  0.38365300  1
  Mn  Mn15  1  0.22192166  0.72064456  0.63026485  1
  Mn  Mn16  1  0.62147440  0.44570195  0.88142159  1
  Mn  Mn17  1  0.39843985  0.94826916  0.38280606  1
  Mn  Mn18  1  0.90886601  0.38290281  0.62798280  1
  Mn  Mn19  1  0.70823002  0.91236162  0.13055686  1
  Mn  Mn20  1  0.91555609  0.76339857  0.88208017  1
  B  B21  1  0.06560860  0.57958060  0.12606841  1
  B  B22  1  0.44679525  0.27222800  0.37302749  1
  B  B23  1  0.24421965  0.39020507  0.62127873  1
  B  B24  1  0.73918278  0.23854894  0.12686268  1
  B  B25  1  0.58665392  0.10735825  0.87668089  1
  B  B26  1  0.09682580  0.92497135  0.37472407  1
  B  B27  1  0.90540865  0.05831750  0.63093471  1
  B  B28  1  0.39684886  0.90630781  0.12735408  1
  B  B29  1  0.26366918  0.74169530  0.86794944  1
  B  B30  1  0.75126239  0.62037369  0.37106725  1
  B  B31  1  0.56565340  0.73973022  0.62996741  1
  B  B32  1  0.94411594  0.41498662  0.87284497  1
  O  O33  1  0.05149279  0.10363682  0.33762298  1
  O  O34  1  0.01090896  0.13000925  0.61915755  1
  O  O35  1  0.16747522  0.41471686  0.10671078  1
  O  O36  1  0.39103288  0.18781932  0.33742377  1
  O  O37  1  0.12296240  0.65573396  0.17369239  1
  O  O38  1  0.29934310  0.20791102  0.65360116  1
  O  O39  1  0.59047923  0.34963196  0.07301624  1
  O  O40  1  0.08044251  0.49753696  0.59438657  1
  O  O41  1  0.80904997  0.06340556  0.14069714  1
  O  O42  1  0.58757137  0.17668184  0.43743920  1
  O  O43  1  0.09883610  0.31910396  0.91537190  1
  O  O44  1  0.37584948  0.45434066  0.34046691  1
  O  O45  1  0.52705592  0.04391428  0.81685612  1
  O  O46  1  0.99795041  0.85699348  0.36485746  1
  O  O47  1  0.35343874  0.46024007  0.61226425  1
  O  O48  1  0.80302959  0.31581420  0.16871832  1
  O  O49  1  0.23693564  0.98621541  0.09194041  1
  O  O50  1  0.74137721  0.17306786  0.59875564  1
  O  O51  1  0.50212457  0.73634915  0.13079311  1
  O  O52  1  0.51978963  0.28168637  0.86612769  1
  O  O53  1  0.25013384  0.81318456  0.41986461  1
  O  O54  1  0.71587738  0.98149288  0.94454909  1
  O  O55  1  0.19200629  0.66253193  0.83519105  1
  O  O56  1  0.67858745  0.53026758  0.35549513  1
  O  O57  1  0.44450111  0.00872479  0.15953619  1
  O  O58  1  0.62953085  0.55603765  0.69008000  1
  O  O59  1  0.90146501  0.67487924  0.09438945  1
  O  O60  1  0.41259371  0.81898486  0.58673832  1
  O  O61  1  0.19950686  0.91705732  0.84388175  1
  O  O62  1  0.88130683  0.53913640  0.43629027  1
  O  O63  1  0.40404772  0.63458934  0.92777933  1
  O  O64  1  0.68591648  0.80578344  0.32102466  1
  O  O65  1  0.87501544  0.32780572  0.84335098  1
  O  O66  1  0.65561677  0.83418068  0.61074828  1
  O  O67  1  0.85483782  0.59076769  0.85748886  1
  O  O68  1  0.94916466  0.87953293  0.67081339  1
