# generated using pymatgen
data_Na6Cr2C4SO16
_symmetry_space_group_name_H-M   'P 1'
_cell_length_a   9.96695442
_cell_length_b   9.96695422
_cell_length_c   9.96695457
_cell_angle_alpha   89.99999759
_cell_angle_beta   60.00000051
_cell_angle_gamma   59.99999935
_symmetry_Int_Tables_number   1
_chemical_formula_structural   Na6Cr2C4SO16
_chemical_formula_sum   'Na12 Cr4 C8 S2 O32'
_cell_volume   700.11990498
_cell_formula_units_Z   2
loop_
 _symmetry_equiv_pos_site_id
 _symmetry_equiv_pos_as_xyz
  1  'x, y, z'
loop_
 _atom_site_type_symbol
 _atom_site_label
 _atom_site_symmetry_multiplicity
 _atom_site_fract_x
 _atom_site_fract_y
 _atom_site_fract_z
 _atom_site_occupancy
  Na  Na0  1  0.75000000  0.66048059  0.91048059  1
  Na  Na1  1  0.67903982  0.91048059  0.66048059  1
  Na  Na2  1  0.75000000  0.08951941  0.91048059  1
  Na  Na3  1  0.75000000  0.66048059  0.33951941  1
  Na  Na4  1  0.82096018  0.33951941  0.08951941  1
  Na  Na5  1  0.25000000  0.91048059  0.66048059  1
  Na  Na6  1  0.17903982  0.66048059  0.91048059  1
  Na  Na7  1  0.75000000  0.08951941  0.33951941  1
  Na  Na8  1  0.25000000  0.33951941  0.66048059  1
  Na  Na9  1  0.25000000  0.91048059  0.08951941  1
  Na  Na10  1  0.32096018  0.08951941  0.33951941  1
  Na  Na11  1  0.25000000  0.33951941  0.08951941  1
  Cr  Cr12  1  0.50000000  0.50000000  0.50000000  1
  Cr  Cr13  1  0.50000000  0.50000000  0.00000000  1
  Cr  Cr14  1  0.00000000  0.50000000  0.50000000  1
  Cr  Cr15  1  0.00000000  0.00000000  0.50000000  1
  C  C16  1  0.94123869  0.27938066  0.72061934  1
  C  C17  1  0.55876131  0.66185803  0.72061934  1
  C  C18  1  0.94123869  0.27938066  0.33814197  1
  C  C19  1  0.55876131  0.27938066  0.72061934  1
  C  C20  1  0.44123869  0.72061934  0.27938066  1
  C  C21  1  0.05876131  0.72061934  0.66185803  1
  C  C22  1  0.44123869  0.33814197  0.27938066  1
  C  C23  1  0.05876131  0.72061934  0.27938066  1
  S  S24  1  0.75000000  0.87500000  0.12500000  1
  S  S25  1  0.25000000  0.12500000  0.87500000  1
  O  O26  1  0.93936603  0.86165458  0.66342450  1
  O  O27  1  0.93936603  0.69897939  0.39720947  1
  O  O28  1  0.80176992  0.39720947  0.86165458  1
  O  O29  1  0.69823008  0.66342450  0.69897939  1
  O  O30  1  0.96444511  0.13834542  0.69897939  1
  O  O31  1  0.87281011  0.93640505  0.06359495  1
  O  O32  1  0.96444511  0.39720947  0.33657550  1
  O  O33  1  0.62718989  0.93640505  0.30921516  1
  O  O34  1  0.87281011  0.69078484  0.06359495  1
  O  O35  1  0.43936603  0.66342450  0.86165458  1
  O  O36  1  0.53555489  0.66342450  0.60279053  1
  O  O37  1  0.62718989  0.93640505  0.06359495  1
  O  O38  1  0.53555489  0.30102061  0.86165458  1
  O  O39  1  0.80176992  0.30102061  0.33657550  1
  O  O40  1  0.69823008  0.13834542  0.60279053  1
  O  O41  1  0.56063397  0.60279053  0.30102061  1
  O  O42  1  0.43936603  0.39720947  0.69897939  1
  O  O43  1  0.30176992  0.86165458  0.39720947  1
  O  O44  1  0.19823008  0.69897939  0.66342450  1
  O  O45  1  0.46444511  0.69897939  0.13834542  1
  O  O46  1  0.37281011  0.06359495  0.93640505  1
  O  O47  1  0.46444511  0.33657550  0.39720947  1
  O  O48  1  0.56063397  0.33657550  0.13834542  1
  O  O49  1  0.37281011  0.06359495  0.69078484  1
  O  O50  1  0.12718989  0.30921516  0.93640505  1
  O  O51  1  0.03555489  0.60279053  0.66342450  1
  O  O52  1  0.12718989  0.06359495  0.93640505  1
  O  O53  1  0.03555489  0.86165458  0.30102061  1
  O  O54  1  0.30176992  0.33657550  0.30102061  1
  O  O55  1  0.19823008  0.60279053  0.13834542  1
  O  O56  1  0.06063397  0.30102061  0.60279053  1
  O  O57  1  0.06063397  0.13834542  0.33657550  1
