# generated using pymatgen
data_Li3MnP2H2O9
_symmetry_space_group_name_H-M   'P 1'
_cell_length_a   7.03942777
_cell_length_b   8.05346119
_cell_length_c   6.82303414
_cell_angle_alpha   88.22192490
_cell_angle_beta   90.00000000
_cell_angle_gamma   64.08459945
_symmetry_Int_Tables_number   1
_chemical_formula_structural   Li3MnP2H2O9
_chemical_formula_sum   'Li6 Mn2 P4 H4 O18'
_cell_volume   347.70525919
_cell_formula_units_Z   2
loop_
 _symmetry_equiv_pos_site_id
 _symmetry_equiv_pos_as_xyz
  1  'x, y, z'
loop_
 _atom_site_type_symbol
 _atom_site_label
 _atom_site_symmetry_multiplicity
 _atom_site_fract_x
 _atom_site_fract_y
 _atom_site_fract_z
 _atom_site_occupancy
  Li  Li0  1  0.62363048  0.75273904  0.69879858  1
  Li  Li1  1  0.00000000  0.50000000  0.50000000  1
  Li  Li2  1  0.50000000  0.50000000  0.50000000  1
  Li  Li3  1  0.37636952  0.24726096  0.30120142  1
  Li  Li4  1  0.23413773  0.00000000  0.00000000  1
  Li  Li5  1  0.76586227  0.00000000  1.00000000  1
  Mn  Mn6  1  0.00000000  0.50000000  0.00000000  1
  Mn  Mn7  1  0.50000000  0.50000000  0.00000000  1
  P  P8  1  0.11931408  0.76137284  0.67794761  1
  P  P9  1  0.60682443  0.78635115  0.23579393  1
  P  P10  1  0.39317557  0.21364885  0.76420607  1
  P  P11  1  0.88068592  0.23862716  0.32205239  1
  H  H12  1  0.05000107  0.89999686  0.35451775  1
  H  H13  1  0.18695217  0.62609567  0.21611314  1
  H  H14  1  0.81304783  0.37390433  0.78388686  1
  H  H15  1  0.94999893  0.10000314  0.64548225  1
  O  O16  1  0.02443026  0.95113948  0.77652136  1
  O  O17  1  0.50205750  0.99588500  0.24164117  1
  O  O18  1  0.11250146  0.77499708  0.44489777  1
  O  O19  1  0.35593845  0.65394610  0.73075511  1
  O  O20  1  0.99011645  0.65394610  0.73075511  1
  O  O21  1  0.66196416  0.67607168  0.43160617  1
  O  O22  1  0.81386871  0.73523456  0.11102710  1
  O  O23  1  0.45089673  0.73523456  0.11102710  1
  O  O24  1  0.75953514  0.48093073  0.86932879  1
  O  O25  1  0.24046486  0.51906927  0.13067121  1
  O  O26  1  0.18613129  0.26476544  0.88897290  1
  O  O27  1  0.54910327  0.26476544  0.88897290  1
  O  O28  1  0.33803584  0.32392832  0.56839383  1
  O  O29  1  0.64406155  0.34605390  0.26924489  1
  O  O30  1  0.00988355  0.34605390  0.26924489  1
  O  O31  1  0.88749854  0.22500292  0.55510223  1
  O  O32  1  0.49794250  0.00411500  0.75835883  1
  O  O33  1  0.97556974  0.04886052  0.22347864  1
