# generated using pymatgen
data_Fe3OF5
_symmetry_space_group_name_H-M   'P 1'
_cell_length_a   4.83578775
_cell_length_b   14.45084106
_cell_length_c   3.17908018
_cell_angle_alpha   89.99974361
_cell_angle_beta   90.00002487
_cell_angle_gamma   90.00586132
_symmetry_Int_Tables_number   1
_chemical_formula_structural   Fe3OF5
_chemical_formula_sum   'Fe6 O2 F10'
_cell_volume   222.15793708
_cell_formula_units_Z   2
loop_
 _symmetry_equiv_pos_site_id
 _symmetry_equiv_pos_as_xyz
  1  'x, y, z'
loop_
 _atom_site_type_symbol
 _atom_site_label
 _atom_site_symmetry_multiplicity
 _atom_site_fract_x
 _atom_site_fract_y
 _atom_site_fract_z
 _atom_site_occupancy
  Fe  Fe0  1  0.01564606  0.00428106  0.00000164  1
  Fe  Fe1  1  0.98942725  0.33384755  0.99999936  1
  Fe  Fe2  1  0.03221457  0.65698126  0.99999658  1
  Fe  Fe3  1  0.46789867  0.15677985  0.49999949  1
  Fe  Fe4  1  0.48433077  0.50423558  0.49999920  1
  Fe  Fe5  1  0.51046889  0.83408554  0.50000016  1
  O  O6  1  0.19120403  0.60448030  0.49999881  1
  O  O7  1  0.30903337  0.10462460  0.00000115  1
  F  F8  1  0.20652679  0.26669558  0.50000021  1
  F  F9  1  0.20432987  0.92954022  0.50000235  1
  F  F10  1  0.29328754  0.76658607  0.00000053  1
  F  F11  1  0.29586438  0.42960190  0.00000250  1
  F  F12  1  0.68924244  0.23093904  0.99999795  1
  F  F13  1  0.70823560  0.57077569  0.99999898  1
  F  F14  1  0.71102888  0.90238462  0.99999776  1
  F  F15  1  0.79160529  0.07087021  0.50000441  1
  F  F16  1  0.78875928  0.40245113  0.49999873  1
  F  F17  1  0.81089632  0.73083780  0.50000019  1
