# generated using pymatgen
data_Cu2CO5
_symmetry_space_group_name_H-M   'P 1'
_cell_length_a   2.99668175
_cell_length_b   8.96475036
_cell_length_c   12.67693572
_cell_angle_alpha   90.00000000
_cell_angle_beta   90.00000000
_cell_angle_gamma   95.45835793
_symmetry_Int_Tables_number   1
_chemical_formula_structural   Cu2CO5
_chemical_formula_sum   'Cu8 C4 O20'
_cell_volume   339.01535245
_cell_formula_units_Z   4
loop_
 _symmetry_equiv_pos_site_id
 _symmetry_equiv_pos_as_xyz
  1  'x, y, z'
loop_
 _atom_site_type_symbol
 _atom_site_label
 _atom_site_symmetry_multiplicity
 _atom_site_fract_x
 _atom_site_fract_y
 _atom_site_fract_z
 _atom_site_occupancy
  Cu  Cu0  1  0.89671789  0.00323047  0.22177926  1
  Cu  Cu1  1  0.10328211  0.49676953  0.72177926  1
  Cu  Cu2  1  0.10328211  0.99676953  0.77822074  1
  Cu  Cu3  1  0.89671789  0.50323047  0.27822074  1
  Cu  Cu4  1  0.38768011  0.73420021  0.11826239  1
  Cu  Cu5  1  0.61231989  0.76579979  0.61826239  1
  Cu  Cu6  1  0.61231989  0.26579979  0.88173761  1
  Cu  Cu7  1  0.38768011  0.23420021  0.38173761  1
  C  C8  1  0.46249198  0.77438195  0.36926848  1
  C  C9  1  0.53750802  0.72561805  0.86926848  1
  C  C10  1  0.53750802  0.22561805  0.63073152  1
  C  C11  1  0.46249198  0.27438195  0.13073152  1
  O  O12  1  0.29108066  0.63475275  0.36876498  1
  O  O13  1  0.70891934  0.86524725  0.86876498  1
  O  O14  1  0.70891934  0.36524725  0.63123502  1
  O  O15  1  0.29108066  0.13475275  0.13123502  1
  O  O16  1  0.45733489  0.84720390  0.27819876  1
  O  O17  1  0.54266511  0.65279610  0.77819876  1
  O  O18  1  0.54266511  0.15279610  0.72180124  1
  O  O19  1  0.45733489  0.34720390  0.22180124  1
  O  O20  1  0.63827404  0.83506901  0.44996530  1
  O  O21  1  0.36172596  0.66493099  0.94996530  1
  O  O22  1  0.36172596  0.16493099  0.55003470  1
  O  O23  1  0.63827404  0.33506901  0.05003470  1
  O  O24  1  0.86794810  0.60818087  0.15163102  1
  O  O25  1  0.13205190  0.89181913  0.65163102  1
  O  O26  1  0.13205190  0.39181913  0.84836898  1
  O  O27  1  0.86794810  0.10818087  0.34836898  1
  O  O28  1  0.91358894  0.86840065  0.10427989  1
  O  O29  1  0.08641106  0.63159935  0.60427989  1
  O  O30  1  0.08641106  0.13159935  0.89572011  1
  O  O31  1  0.91358894  0.36840065  0.39572011  1
