# generated using pymatgen
data_Ti3VCo2(PO4)6
_symmetry_space_group_name_H-M   'P 1'
_cell_length_a   8.63896486
_cell_length_b   8.67202227
_cell_length_c   8.67202240
_cell_angle_alpha   59.99999619
_cell_angle_beta   59.87333194
_cell_angle_gamma   59.87333393
_symmetry_Int_Tables_number   1
_chemical_formula_structural   Ti3VCo2(PO4)6
_chemical_formula_sum   'Ti3 V1 Co2 P6 O24'
_cell_volume   458.51476522
_cell_formula_units_Z   1
loop_
 _symmetry_equiv_pos_site_id
 _symmetry_equiv_pos_as_xyz
  1  'x, y, z'
loop_
 _atom_site_type_symbol
 _atom_site_label
 _atom_site_symmetry_multiplicity
 _atom_site_fract_x
 _atom_site_fract_y
 _atom_site_fract_z
 _atom_site_occupancy
  Ti  Ti0  1  0.07184336  0.64271888  0.64271888  1
  Ti  Ti1  1  0.42866019  0.85711294  0.85711294  1
  Ti  Ti2  1  0.92863594  0.35712102  0.35712102  1
  V  V3  1  0.57539869  0.14153344  0.14153344  1
  Co  Co4  1  -0.00009087  0.00003029  0.00003029  1
  Co  Co5  1  0.49767056  0.50077648  0.50077648  1
  P  P6  1  0.25165819  0.24929148  0.54102167  1
  P  P7  1  0.25165819  0.95802766  0.24929148  1
  P  P8  1  0.25165819  0.54102167  0.95802766  1
  P  P9  1  0.75029101  0.45766992  0.04245192  1
  P  P10  1  0.75029101  0.04245192  0.74958714  1
  P  P11  1  0.75029101  0.74958714  0.45766992  1
  O  O12  1  0.06967124  0.12130100  0.31009757  1
  O  O13  1  0.06967124  0.49893019  0.12130100  1
  O  O14  1  0.06967123  0.31009757  0.49893019  1
  O  O15  1  0.23363241  0.08559752  0.73689094  1
  O  O16  1  0.43021939  0.19042248  0.38461136  1
  O  O17  1  0.25972073  0.41322697  0.56266541  1
  O  O18  1  0.23363241  0.94387913  0.08559752  1
  O  O19  1  0.25972073  0.76438790  0.41322697  1
  O  O20  1  0.57012391  0.62001376  0.99742874  1
  O  O21  1  0.25972073  0.56266541  0.76438790  1
  O  O22  1  0.77047453  0.26485417  0.05459492  1
  O  O23  1  0.57012391  0.99742874  0.81243358  1
  O  O24  1  0.43021939  0.99474677  0.19042248  1
  O  O25  1  0.23363241  0.73689094  0.94387913  1
  O  O26  1  0.73468028  0.44504398  0.23496606  1
  O  O27  1  0.43021939  0.38461136  0.99474677  1
  O  O28  1  0.73468028  0.23496606  0.58530968  1
  O  O29  1  0.77047453  0.05459492  0.91007638  1
  O  O30  1  0.73468028  0.58530968  0.44504398  1
  O  O31  1  0.57012391  0.81243358  0.62001376  1
  O  O32  1  0.77047453  0.91007638  0.26485417  1
  O  O33  1  0.92882335  0.68510202  0.50477334  1
  O  O34  1  0.92882335  0.50477334  0.88130128  1
  O  O35  1  0.92882335  0.88130128  0.68510202  1
