# generated using pymatgen
data_Li3Mn4(BO3)4
_symmetry_space_group_name_H-M   'P 1'
_cell_length_a   9.08967275
_cell_length_b   9.15360425
_cell_length_c   10.38581858
_cell_angle_alpha   89.78278129
_cell_angle_beta   91.33648179
_cell_angle_gamma   59.99962436
_symmetry_Int_Tables_number   1
_chemical_formula_structural   Li3Mn4(BO3)4
_chemical_formula_sum   'Li9 Mn12 B12 O36'
_cell_volume   748.03643025
_cell_formula_units_Z   3
loop_
 _symmetry_equiv_pos_site_id
 _symmetry_equiv_pos_as_xyz
  1  'x, y, z'
loop_
 _atom_site_type_symbol
 _atom_site_label
 _atom_site_symmetry_multiplicity
 _atom_site_fract_x
 _atom_site_fract_y
 _atom_site_fract_z
 _atom_site_occupancy
  Li  Li0  1  0.22446669  0.39059765  0.90610018  1
  Li  Li1  1  0.44230586  0.27059060  0.68040799  1
  Li  Li2  1  0.43892650  0.30913803  0.14934123  1
  Li  Li3  1  0.88911280  0.05220571  0.39667653  1
  Li  Li4  1  0.11375047  0.92188658  0.64545104  1
  Li  Li5  1  0.10016108  0.95738812  0.17839443  1
  Li  Li6  1  0.56627565  0.72059847  0.41445759  1
  Li  Li7  1  0.76771449  0.59806719  0.67516693  1
  Li  Li8  1  0.78324828  0.61969849  0.15877514  1
  Mn  Mn9  1  0.22008859  0.03677207  0.88056118  1
  Mn  Mn10  1  0.12159125  0.27284038  0.13471401  1
  Mn  Mn11  1  0.51581808  0.09407129  0.38471217  1
  Mn  Mn12  1  0.09052129  0.60074208  0.62463352  1
  Mn  Mn13  1  0.58030888  0.40004311  0.88363764  1
  Mn  Mn14  1  0.24024544  0.68683518  0.37828910  1
  Mn  Mn15  1  0.79118544  0.25923136  0.63333066  1
  Mn  Mn16  1  0.44279916  0.63490661  0.12043186  1
  Mn  Mn17  1  0.91028909  0.38947815  0.38783631  1
  Mn  Mn18  1  0.44393145  0.94308805  0.63896328  1
  Mn  Mn19  1  0.86973811  0.73426664  0.88032353  1
  Mn  Mn20  1  0.75163604  0.96136423  0.13287203  1
  B  B21  1  0.22803639  0.03988126  0.37920759  1
  B  B22  1  0.11372932  0.27006387  0.63101535  1
  B  B23  1  0.54461911  0.07004607  0.88847337  1
  B  B24  1  0.10847036  0.61837557  0.13093045  1
  B  B25  1  0.21847632  0.69969943  0.86127267  1
  B  B26  1  0.56539170  0.40058377  0.36792148  1
  B  B27  1  0.45396517  0.59568386  0.62457527  1
  B  B28  1  0.78364306  0.28292932  0.13067790  1
  B  B29  1  0.90131717  0.37703056  0.87768202  1
  B  B30  1  0.44101721  0.94976189  0.12563496  1
  B  B31  1  0.87348554  0.74501588  0.36707657  1
  B  B32  1  0.77046336  0.94630989  0.61800117  1
  O  O33  1  0.17545972  0.09985353  0.65899404  1
  O  O34  1  0.26880258  0.01191837  0.09374405  1
  O  O35  1  0.06941352  0.29179804  0.92217617  1
  O  O36  1  0.15437800  0.20806434  0.33917200  1
  O  O37  1  0.21409239  0.34142104  0.63514516  1
  O  O38  1  0.49549995  0.06608138  0.15709175  1
  O  O39  1  0.59633933  0.05138572  0.59058775  1
  O  O40  1  0.19969088  0.44989455  0.10735860  1
  O  O41  1  0.47107480  0.24162194  0.87459725  1
  O  O42  1  0.03630251  0.67666969  0.42227342  1
  O  O43  1  0.13091915  0.61515666  0.82943439  1
  O  O44  1  0.47263272  0.32639688  0.33638371  1
  O  O45  1  0.87968530  0.00638908  0.59538419  1
  O  O46  1  0.18895724  0.70352145  0.18572169  1
  O  O47  1  0.52947054  0.43708500  0.68902066  1
  O  O48  1  0.61568229  0.37293370  0.07633172  1
  O  O49  1  0.28902918  0.65726428  0.57048296  1
  O  O50  1  0.85968430  0.11241134  0.15123001  1
  O  O51  1  0.15549912  0.86341771  0.82863480  1
  O  O52  1  0.72764632  0.31525624  0.42305386  1
  O  O53  1  0.37512796  0.60965355  0.92801318  1
  O  O54  1  0.48753275  0.57720527  0.34007855  1
  O  O55  1  0.82292672  0.28015643  0.84587909  1
  O  O56  1  0.13963268  0.95376109  0.37067194  1
  O  O57  1  0.53860646  0.68211816  0.61210218  1
  O  O58  1  0.85896251  0.37699403  0.16617632  1
  O  O59  1  0.93932182  0.37322942  0.59729812  1
  O  O60  1  0.55289783  0.78178182  0.12833270  1
  O  O61  1  0.80969818  0.54751897  0.86120537  1
  O  O62  1  0.39741372  0.95802741  0.42266779  1
  O  O63  1  0.46851609  0.98289310  0.84057887  1
  O  O64  1  0.79766744  0.64920260  0.35770232  1
  O  O65  1  0.82864730  0.78259211  0.66546396  1
  O  O66  1  0.93529666  0.71215427  0.09859473  1
  O  O67  1  0.70876669  0.97454668  0.94743948  1
  O  O68  1  0.78795897  0.91552577  0.32441208  1
