# generated using pymatgen
data_K8Li3Cr4O16
_symmetry_space_group_name_H-M   'P 1'
_cell_length_a   5.67314960
_cell_length_b   8.29442103
_cell_length_c   11.12346680
_cell_angle_alpha   91.20526791
_cell_angle_beta   84.58621883
_cell_angle_gamma   89.79551490
_symmetry_Int_Tables_number   1
_chemical_formula_structural   K8Li3Cr4O16
_chemical_formula_sum   'K8 Li3 Cr4 O16'
_cell_volume   520.96197790
_cell_formula_units_Z   1
loop_
 _symmetry_equiv_pos_site_id
 _symmetry_equiv_pos_as_xyz
  1  'x, y, z'
loop_
 _atom_site_type_symbol
 _atom_site_label
 _atom_site_symmetry_multiplicity
 _atom_site_fract_x
 _atom_site_fract_y
 _atom_site_fract_z
 _atom_site_occupancy
  K  K0  1  0.21097654  0.99454862  0.16127307  1
  K  K1  1  0.18573989  0.26232079  0.63347304  1
  K  K2  1  0.28333450  0.47573898  0.32854506  1
  K  K3  1  0.69985511  0.23552772  0.14056326  1
  K  K4  1  0.29770778  0.76391914  0.87198288  1
  K  K5  1  0.71242888  0.50110097  0.67513558  1
  K  K6  1  0.81551206  0.75231010  0.37863314  1
  K  K7  1  0.76705769  0.01165346  0.79563105  1
  Li  Li8  1  0.28674403  0.52711649  0.06834234  1
  Li  Li9  1  0.21332926  0.02679644  0.43024404  1
  Li  Li10  1  0.70956407  0.47197576  0.93285655  1
  Cr  Cr11  1  0.20218750  0.27981431  0.93362874  1
  Cr  Cr12  1  0.30158349  0.77638523  0.56412133  1
  Cr  Cr13  1  0.71035411  0.21567253  0.44104140  1
  Cr  Cr14  1  0.79023288  0.72054825  0.06482172  1
  O  O15  1  0.06239061  0.69559602  0.12262939  1
  O  O16  1  0.16969420  0.30479737  0.09050347  1
  O  O17  1  0.13640550  0.93310248  0.61562977  1
  O  O18  1  0.17647771  0.59979922  0.59623248  1
  O  O19  1  0.33897266  0.79568228  0.41321060  1
  O  O20  1  0.43964560  0.18555391  0.37950262  1
  O  O21  1  0.31059832  0.09017804  0.90316971  1
  O  O22  1  0.60989297  0.55800619  0.10882044  1
  O  O23  1  0.38670488  0.44059439  0.88876692  1
  O  O24  1  0.68251506  0.90864541  0.09893977  1
  O  O25  1  0.55901737  0.78588409  0.62277384  1
  O  O26  1  0.66779740  0.20262710  0.59607508  1
  O  O27  1  0.79772973  0.41236644  0.41344687  1
  O  O28  1  0.91413512  0.07402866  0.37654703  1
  O  O29  1  0.82122950  0.69846556  0.90703033  1
  O  O30  1  0.93522758  0.30615403  0.87202849  1
