# generated using pymatgen
data_S
_symmetry_space_group_name_H-M   'P 1'
_cell_length_a   6.67754049
_cell_length_b   16.64397353
_cell_length_c   16.70245250
_cell_angle_alpha   93.12901929
_cell_angle_beta   90.00000000
_cell_angle_gamma   90.00000000
_symmetry_Int_Tables_number   1
_chemical_formula_structural   S
_chemical_formula_sum   S56
_cell_volume   1853.55655621
_cell_formula_units_Z   56
loop_
 _symmetry_equiv_pos_site_id
 _symmetry_equiv_pos_as_xyz
  1  'x, y, z'
loop_
 _atom_site_type_symbol
 _atom_site_label
 _atom_site_symmetry_multiplicity
 _atom_site_fract_x
 _atom_site_fract_y
 _atom_site_fract_z
 _atom_site_occupancy
  S  S0  1  0.91562132  0.51639215  0.21348556  1
  S  S1  1  0.41562132  0.98360785  0.28651444  1
  S  S2  1  0.08437868  0.48360785  0.78651444  1
  S  S3  1  0.58437868  0.01639215  0.71348556  1
  S  S4  1  0.18619179  0.61738806  0.57314482  1
  S  S5  1  0.68619179  0.88261194  0.92685518  1
  S  S6  1  0.81380821  0.38261194  0.42685518  1
  S  S7  1  0.31380821  0.11738806  0.07314482  1
  S  S8  1  0.87481015  0.82145043  0.58261643  1
  S  S9  1  0.37481015  0.67854957  0.91738357  1
  S  S10  1  0.12518985  0.17854957  0.41738357  1
  S  S11  1  0.62518985  0.32145043  0.08261643  1
  S  S12  1  0.86858463  0.61656078  0.55816814  1
  S  S13  1  0.36858463  0.88343922  0.94183186  1
  S  S14  1  0.13141537  0.38343922  0.44183186  1
  S  S15  1  0.63141537  0.11656078  0.05816814  1
  S  S16  1  0.75482862  0.78023639  0.68054009  1
  S  S17  1  0.25482862  0.71976361  0.81945991  1
  S  S18  1  0.24517138  0.21976361  0.31945991  1
  S  S19  1  0.74517138  0.28023639  0.18054009  1
  S  S20  1  0.74882063  0.64600505  0.66398660  1
  S  S21  1  0.24882063  0.85399495  0.83601340  1
  S  S22  1  0.25117937  0.35399495  0.33601340  1
  S  S23  1  0.75117937  0.14600505  0.16398660  1
  S  S24  1  0.82665290  0.57317012  0.11382772  1
  S  S25  1  0.32665290  0.92682988  0.38617228  1
  S  S26  1  0.17334710  0.42682988  0.88617228  1
  S  S27  1  0.67334710  0.07317012  0.61382772  1
  S  S28  1  0.85094896  0.59186814  0.31119896  1
  S  S29  1  0.35094896  0.90813186  0.18880104  1
  S  S30  1  0.14905104  0.40813186  0.68880104  1
  S  S31  1  0.64905104  0.09186814  0.81119896  1
  S  S32  1  0.50831408  0.56079018  0.11732197  1
  S  S33  1  0.00831408  0.93920982  0.38267803  1
  S  S34  1  0.49168592  0.43920982  0.88267803  1
  S  S35  1  0.99168592  0.06079018  0.61732197  1
  S  S36  1  0.53335335  0.57993709  0.32170735  1
  S  S37  1  0.03335335  0.92006291  0.17829265  1
  S  S38  1  0.46664665  0.42006291  0.67829265  1
  S  S39  1  0.96664665  0.07993709  0.82170735  1
  S  S40  1  0.39636736  0.66734888  0.15094748  1
  S  S41  1  0.89636736  0.83265112  0.34905252  1
  S  S42  1  0.60363264  0.33265112  0.84905252  1
  S  S43  1  0.10363264  0.16734888  0.65094748  1
  S  S44  1  0.41218382  0.67977896  0.28471106  1
  S  S45  1  0.91218382  0.82022104  0.21528894  1
  S  S46  1  0.58781618  0.32022104  0.71528894  1
  S  S47  1  0.08781618  0.17977896  0.78471106  1
  S  S48  1  0.26894905  0.71987121  0.51937537  1
  S  S49  1  0.76894905  0.78012879  0.98062463  1
  S  S50  1  0.73105095  0.28012879  0.48062463  1
  S  S51  1  0.23105095  0.21987121  0.01937537  1
  S  S52  1  0.19274715  0.81535971  0.59601235  1
  S  S53  1  0.69274715  0.68464029  0.90398765  1
  S  S54  1  0.80725285  0.18464029  0.40398765  1
  S  S55  1  0.30725285  0.31535971  0.09601235  1
