# generated using pymatgen
data_Li3Mn4(BO3)4
_symmetry_space_group_name_H-M   'P 1'
_cell_length_a   9.08358288
_cell_length_b   9.12635803
_cell_length_c   11.53110446
_cell_angle_alpha   89.84625567
_cell_angle_beta   68.11350192
_cell_angle_gamma   60.13167397
_symmetry_Int_Tables_number   1
_chemical_formula_structural   Li3Mn4(BO3)4
_chemical_formula_sum   'Li9 Mn12 B12 O36'
_cell_volume   749.06033843
_cell_formula_units_Z   3
loop_
 _symmetry_equiv_pos_site_id
 _symmetry_equiv_pos_as_xyz
  1  'x, y, z'
loop_
 _atom_site_type_symbol
 _atom_site_label
 _atom_site_symmetry_multiplicity
 _atom_site_fract_x
 _atom_site_fract_y
 _atom_site_fract_z
 _atom_site_occupancy
  Li  Li0  1  0.30418660  0.36621680  0.17205506  1
  Li  Li1  1  0.63116123  0.18152558  0.40219551  1
  Li  Li2  1  0.68083989  0.13527134  0.65101177  1
  Li  Li3  1  0.99401726  0.00020254  0.16968957  1
  Li  Li4  1  0.28062482  0.86987921  0.41711665  1
  Li  Li5  1  0.31531490  0.82575740  0.67269420  1
  Li  Li6  1  0.67829106  0.68905072  0.15412194  1
  Li  Li7  1  0.63439962  0.68723185  0.90206133  1
  Li  Li8  1  0.99629016  0.49566958  0.67813893  1
  Mn  Mn9  1  0.01110048  0.16432302  0.63775364  1
  Mn  Mn10  1  0.00624432  0.31218111  0.13219348  1
  Mn  Mn11  1  0.28943943  0.01858182  0.87743823  1
  Mn  Mn12  1  0.27980116  0.21100842  0.38359666  1
  Mn  Mn13  1  0.37299314  0.46855930  0.63366339  1
  Mn  Mn14  1  0.36903490  0.66349524  0.12684152  1
  Mn  Mn15  1  0.62994300  0.33358581  0.88369428  1
  Mn  Mn16  1  0.64431046  0.53160888  0.38772446  1
  Mn  Mn17  1  0.67761208  0.80491817  0.62452843  1
  Mn  Mn18  1  0.67584531  0.01813898  0.12347590  1
  Mn  Mn19  1  0.99509724  0.69654080  0.88386738  1
  Mn  Mn20  1  0.99183459  0.80167225  0.37875584  1
  B  B21  1  0.36127065  0.14902472  0.61936844  1
  B  B22  1  0.02055537  0.65328105  0.13497641  1
  B  B23  1  0.64663556  0.98648637  0.86249895  1
  B  B24  1  0.31728146  0.52449053  0.37436539  1
  B  B25  1  0.03872687  0.80636980  0.62345199  1
  B  B26  1  0.68618818  0.33289556  0.13212680  1
  B  B27  1  0.31644302  0.66785938  0.87510077  1
  B  B28  1  0.97799386  0.16218735  0.36775375  1
  B  B29  1  0.69250405  0.48067147  0.63082923  1
  B  B30  1  0.35845052  0.99915800  0.12315456  1
  B  B31  1  0.95594609  0.36201241  0.88816963  1
  B  B32  1  0.62782368  0.87289330  0.36935343  1
  O  O33  1  0.20214154  0.05740801  0.09482709  1
  O  O34  1  0.10837106  0.11388586  0.41773704  1
  O  O35  1  0.39142217  0.11860055  0.16243398  1
  O  O36  1  0.20578604  0.24390953  0.59197093  1
  O  O37  1  0.08164721  0.48814711  0.14406130  1
  O  O38  1  0.07699420  0.27838312  0.94839235  1
  O  O39  1  0.57650286  0.02896675  0.33189458  1
  O  O40  1  0.22752339  0.45052894  0.35635504  1
  O  O41  1  0.48416857  0.20357256  0.59817377  1
  O  O42  1  0.07774615  0.74940614  0.18429260  1
  O  O43  1  0.07732550  0.66786126  0.68647665  1
  O  O44  1  0.53777402  0.39197093  0.09613734  1
  O  O45  1  0.78506336  0.16462745  0.13920309  1
  O  O46  1  0.59998323  0.14215610  0.83316628  1
  O  O47  1  0.45234809  0.45160610  0.42120683  1
  O  O48  1  0.26179312  0.69146658  0.34414644  1
  O  O49  1  0.26383682  0.55521641  0.84624366  1
  O  O50  1  0.90344291  0.06494032  0.36216905  1
  O  O51  1  0.12874575  0.89285621  0.60902725  1
  O  O52  1  0.73025513  0.45203997  0.16215110  1
  O  O53  1  0.72959420  0.32074118  0.65835879  1
  O  O54  1  0.54351453  0.57571468  0.59447166  1
  O  O55  1  0.47390647  0.82266646  0.10727134  1
  O  O56  1  0.23022778  0.83212720  0.85747616  1
  O  O57  1  0.45356192  0.60566516  0.92111597  1
  O  O58  1  0.92178480  0.31562094  0.31911915  1
  O  O59  1  0.90448135  0.26663931  0.83862873  1
  O  O60  1  0.55288832  0.77893459  0.35498268  1
  O  O61  1  0.79323551  0.54912112  0.63746861  1
  O  O62  1  0.39032032  0.99944505  0.66543651  1
  O  O63  1  0.89450436  0.74317565  0.08043703  1
  O  O64  1  0.90025225  0.52819779  0.87333363  1
  O  O65  1  0.75926453  0.80737633  0.42140030  1
  O  O66  1  0.58315272  0.88881510  0.82952671  1
  O  O67  1  0.90713446  0.84920678  0.57203565  1
  O  O68  1  0.76308341  0.91834199  0.92609020  1
