# generated using pymatgen
data_Mn6O5F7
_symmetry_space_group_name_H-M   'P 1'
_cell_length_a   7.90982583
_cell_length_b   5.73949074
_cell_length_c   5.73949074
_cell_angle_alpha   67.41616398
_cell_angle_beta   68.52441912
_cell_angle_gamma   68.52441912
_symmetry_Int_Tables_number   1
_chemical_formula_structural   Mn6O5F7
_chemical_formula_sum   'Mn6 O5 F7'
_cell_volume   216.03190471
_cell_formula_units_Z   1
loop_
 _symmetry_equiv_pos_site_id
 _symmetry_equiv_pos_as_xyz
  1  'x, y, z'
loop_
 _atom_site_type_symbol
 _atom_site_label
 _atom_site_symmetry_multiplicity
 _atom_site_fract_x
 _atom_site_fract_y
 _atom_site_fract_z
 _atom_site_occupancy
  Mn  Mn0  1  0.83333300  0.66157106  0.67176294  1
  Mn  Mn1  1  0.66812042  0.32668461  0.33636918  1
  Mn  Mn2  1  0.33333300  0.69070854  0.64262446  1
  Mn  Mn3  1  0.15841482  0.33696523  0.34688617  1
  Mn  Mn4  1  0.50825118  0.98644783  0.99636877  1
  Mn  Mn5  1  0.99854658  0.99696482  0.00664939  1
  O  O6  1  0.66988191  0.02245068  0.63839847  1
  O  O7  1  0.33333300  0.98618598  0.34714702  1
  O  O8  1  0.67057589  0.62621366  0.03280605  1
  O  O9  1  0.99609011  0.30052795  0.70711934  1
  O  O10  1  0.99678509  0.69493453  0.31088232  1
  F  F11  1  0.33333300  0.37156652  0.96176648  1
  F  F12  1  0.29383064  0.89974601  0.89612621  1
  F  F13  1  0.62170934  0.55989845  0.56206413  1
  F  F14  1  0.96277564  0.22663705  0.22931157  1
  F  F15  1  0.70389136  0.10402143  0.10669695  1
  F  F16  1  0.04495766  0.77126987  0.77343555  1
  F  F17  1  0.37283636  0.43720679  0.43358799  1
