# generated using pymatgen
data_LiMnP2HO7
_symmetry_space_group_name_H-M   'P 1'
_cell_length_a   5.23237907
_cell_length_b   8.22198869
_cell_length_c   12.91549867
_cell_angle_alpha   89.99819791
_cell_angle_beta   90.00031732
_cell_angle_gamma   80.43166793
_symmetry_Int_Tables_number   1
_chemical_formula_structural   LiMnP2HO7
_chemical_formula_sum   'Li4 Mn4 P8 H4 O28'
_cell_volume   547.90208676
_cell_formula_units_Z   4
loop_
 _symmetry_equiv_pos_site_id
 _symmetry_equiv_pos_as_xyz
  1  'x, y, z'
loop_
 _atom_site_type_symbol
 _atom_site_label
 _atom_site_symmetry_multiplicity
 _atom_site_fract_x
 _atom_site_fract_y
 _atom_site_fract_z
 _atom_site_occupancy
  Li  Li0  1  0.31006373  0.87694904  0.01452135  1
  Li  Li1  1  0.18992504  0.62303841  0.51451972  1
  Li  Li2  1  0.81004995  0.37698269  0.48545458  1
  Li  Li3  1  0.68992529  0.12304248  0.98548649  1
  Mn  Mn4  1  0.89257212  0.98627676  0.37410330  1
  Mn  Mn5  1  0.60742072  0.51370712  0.87409452  1
  Mn  Mn6  1  0.39256749  0.48628876  0.12590979  1
  Mn  Mn7  1  0.10743345  0.01373148  0.62591034  1
  P  P8  1  0.84222932  0.75067920  0.04427012  1
  P  P9  1  0.65776154  0.74930955  0.54426927  1
  P  P10  1  0.46910641  0.72776152  0.33185808  1
  P  P11  1  0.03091116  0.77221876  0.83186681  1
  P  P12  1  0.96908020  0.22777545  0.16813484  1
  P  P13  1  0.53091130  0.27223692  0.66813527  1
  P  P14  1  0.34222760  0.25069330  0.45572533  1
  P  P15  1  0.15776656  0.24932613  0.95573132  1
  H  H16  1  0.62494543  0.88801431  0.18100063  1
  H  H17  1  0.87506420  0.61196534  0.68100037  1
  H  H18  1  0.12492407  0.38803818  0.31899048  1
  H  H19  1  0.37506726  0.11199112  0.81900163  1
  O  O20  1  0.78728198  0.89947376  0.52620982  1
  O  O21  1  0.64122075  0.89185973  0.09894694  1
  O  O22  1  0.59096101  0.87624635  0.29502032  1
  O  O23  1  0.85189318  0.84936301  0.93529996  1
  O  O24  1  0.98568721  0.91459568  0.75759193  1
  O  O25  1  0.39067616  0.77358219  0.59223046  1
  O  O26  1  0.19734341  0.76926793  0.37795620  1
  O  O27  1  0.30266834  0.73073215  0.87796539  1
  O  O28  1  0.64811746  0.65062647  0.43530038  1
  O  O29  1  0.90907246  0.62373470  0.79503061  1
  O  O30  1  0.10930733  0.72641499  0.09224382  1
  O  O31  1  0.85876480  0.60812433  0.59894950  1
  O  O32  1  0.71271756  0.60051584  0.02621434  1
  O  O33  1  0.51431971  0.58539534  0.25759656  1
  O  O34  1  0.48569149  0.41460214  0.74239997  1
  O  O35  1  0.28729723  0.39948700  0.97378666  1
  O  O36  1  0.14122475  0.39187793  0.40104376  1
  O  O37  1  0.89069104  0.27358835  0.90776678  1
  O  O38  1  0.09091363  0.37626385  0.20497048  1
  O  O39  1  0.35190397  0.34937444  0.56469172  1
  O  O40  1  0.69732397  0.26926053  0.12203671  1
  O  O41  1  0.80267292  0.23073218  0.62204036  1
  O  O42  1  0.60930798  0.22641828  0.40775675  1
  O  O43  1  0.01430466  0.08539781  0.24240782  1
  O  O44  1  0.14811401  0.15064272  0.06470298  1
  O  O45  1  0.40905848  0.12375098  0.70497455  1
  O  O46  1  0.35878090  0.10814713  0.90105390  1
  O  O47  1  0.21269778  0.10053365  0.47379009  1
