# generated using pymatgen
data_Ca5BC4Cl3
_symmetry_space_group_name_H-M   'P 1'
_cell_length_a   3.88563368
_cell_length_b   7.29327390
_cell_length_c   18.68898373
_cell_angle_alpha   90.00000000
_cell_angle_beta   90.00000000
_cell_angle_gamma   105.44925026
_symmetry_Int_Tables_number   1
_chemical_formula_structural   Ca5BC4Cl3
_chemical_formula_sum   'Ca10 B2 C8 Cl6'
_cell_volume   510.48981033
_cell_formula_units_Z   2
loop_
 _symmetry_equiv_pos_site_id
 _symmetry_equiv_pos_as_xyz
  1  'x, y, z'
loop_
 _atom_site_type_symbol
 _atom_site_label
 _atom_site_symmetry_multiplicity
 _atom_site_fract_x
 _atom_site_fract_y
 _atom_site_fract_z
 _atom_site_occupancy
  Ca  Ca0  1  0.15595511  0.31191022  0.25000000  1
  Ca  Ca1  1  0.36293390  0.72586780  0.56262670  1
  Ca  Ca2  1  0.05479950  0.10959801  0.64111134  1
  Ca  Ca3  1  0.36293390  0.72586780  0.93737330  1
  Ca  Ca4  1  0.05479950  0.10959801  0.85888866  1
  Ca  Ca5  1  0.63706610  0.27413220  0.06262670  1
  Ca  Ca6  1  0.94520050  0.89040199  0.35888866  1
  Ca  Ca7  1  0.63706610  0.27413220  0.43737330  1
  Ca  Ca8  1  0.84404489  0.68808978  0.75000000  1
  Ca  Ca9  1  0.94520050  0.89040199  0.14111134  1
  B  B10  1  0.46555698  0.93111396  0.75000000  1
  B  B11  1  0.53444302  0.06888604  0.25000000  1
  C  C12  1  0.04184133  0.08368266  0.01171332  1
  C  C13  1  0.04184133  0.08368266  0.48828668  1
  C  C14  1  0.95815867  0.91631734  0.51171332  1
  C  C15  1  0.95815867  0.91631734  0.98828668  1
  C  C16  1  0.45040002  0.90080003  0.67316839  1
  C  C17  1  0.45040002  0.90080003  0.82683161  1
  C  C18  1  0.54959998  0.09919997  0.17316839  1
  C  C19  1  0.54959998  0.09919997  0.32683161  1
  Cl  Cl20  1  0.28419397  0.56838793  0.08539748  1
  Cl  Cl21  1  0.28419397  0.56838793  0.41460252  1
  Cl  Cl22  1  0.19380526  0.38761151  0.75000000  1
  Cl  Cl23  1  0.71580603  0.43161207  0.58539748  1
  Cl  Cl24  1  0.80619474  0.61238849  0.25000000  1
  Cl  Cl25  1  0.71580603  0.43161207  0.91460252  1
