# generated using pymatgen
data_Li5Mn6(BO3)6
_symmetry_space_group_name_H-M   'P 1'
_cell_length_a   6.36852283
_cell_length_b   14.35294043
_cell_length_c   8.85952480
_cell_angle_alpha   89.53438915
_cell_angle_beta   111.06437611
_cell_angle_gamma   90.00000000
_symmetry_Int_Tables_number   1
_chemical_formula_structural   Li5Mn6(BO3)6
_chemical_formula_sum   'Li10 Mn12 B12 O36'
_cell_volume   755.67954186
_cell_formula_units_Z   2
loop_
 _symmetry_equiv_pos_site_id
 _symmetry_equiv_pos_as_xyz
  1  'x, y, z'
loop_
 _atom_site_type_symbol
 _atom_site_label
 _atom_site_symmetry_multiplicity
 _atom_site_fract_x
 _atom_site_fract_y
 _atom_site_fract_z
 _atom_site_occupancy
  Li  Li0  1  0.89496195  0.99201692  0.28992390  1
  Li  Li1  1  0.39510320  0.99096091  0.29020539  1
  Li  Li2  1  0.42116002  0.35965858  0.34232005  1
  Li  Li3  1  0.43420872  0.64982553  0.36841845  1
  Li  Li4  1  0.93435820  0.64936392  0.36871540  1
  Li  Li5  1  0.14469605  0.49217381  0.78939210  1
  Li  Li6  1  0.64537555  0.49084570  0.79075111  1
  Li  Li7  1  0.17112380  0.85966788  0.84224760  1
  Li  Li8  1  0.18405440  0.14851369  0.86810880  1
  Li  Li9  1  0.68451416  0.15091146  0.86902733  1
  Mn  Mn10  1  0.06662001  0.50113007  0.13743838  1
  Mn  Mn11  1  0.57081937  0.50113007  0.13743838  1
  Mn  Mn12  1  0.07981294  0.81509708  0.16609657  1
  Mn  Mn13  1  0.58628363  0.81509708  0.16609657  1
  Mn  Mn14  1  0.60051728  0.18398863  0.19546364  1
  Mn  Mn15  1  0.09494536  0.18398863  0.19546364  1
  Mn  Mn16  1  0.32104746  0.00126423  0.63759722  1
  Mn  Mn17  1  0.81654976  0.00126423  0.63759722  1
  Mn  Mn18  1  0.32960687  0.31521888  0.66588136  1
  Mn  Mn19  1  0.83627449  0.31521888  0.66588136  1
  Mn  Mn20  1  0.34991766  0.68401018  0.69562473  1
  Mn  Mn21  1  0.84570707  0.68401018  0.69562473  1
  B  B22  1  0.00529191  0.00226323  0.00178281  1
  B  B23  1  0.49649090  0.00226323  0.00178281  1
  B  B24  1  0.24939985  0.33339368  0.99880070  1
  B  B25  1  0.74635065  0.33162228  0.99270029  1
  B  B26  1  0.24988948  0.66574709  0.99977895  1
  B  B27  1  0.75229144  0.66412549  0.00458189  1
  B  B28  1  0.25510799  0.50233003  0.50180200  1
  B  B29  1  0.74669301  0.50233003  0.50180200  1
  B  B30  1  0.00236588  0.16403878  0.50473177  1
  B  B31  1  0.49969922  0.16566785  0.49939844  1
  B  B32  1  0.99910354  0.83328137  0.49820607  1
  B  B33  1  0.49670057  0.83173331  0.49340214  1
  O  O34  1  0.75525613  0.42768739  0.01051126  1
  O  O35  1  0.25540034  0.42989334  0.01080068  1
  O  O36  1  0.76169840  0.75929577  0.02339780  1
  O  O37  1  0.25689347  0.76247976  0.01378595  1
  O  O38  1  0.31800372  0.60884106  0.13600844  1
  O  O39  1  0.82004866  0.60509922  0.14009733  1
  O  O40  1  0.31979149  0.27938972  0.13958298  1
  O  O41  1  0.81216763  0.27188039  0.12433527  1
  O  O42  1  0.07764757  0.96078237  0.15590717  1
  O  O43  1  0.57825860  0.96078237  0.15590717  1
  O  O44  1  0.42247011  0.12656144  0.34493921  1
  O  O45  1  0.92450311  0.12623323  0.34900621  1
  O  O46  1  0.41924720  0.79408445  0.33849541  1
  O  O47  1  0.92419701  0.79065910  0.34839401  1
  O  O48  1  0.20236162  0.44842035  0.36631255  1
  O  O49  1  0.66395093  0.44842035  0.36631255  1
  O  O50  1  0.74662329  0.59979042  0.48879138  1
  O  O51  1  0.24216809  0.59979042  0.48879138  1
  O  O52  1  0.50596099  0.92798131  0.51192099  1
  O  O53  1  0.00475574  0.92956200  0.50951248  1
  O  O54  1  0.01181347  0.25933392  0.52362795  1
  O  O55  1  0.50677772  0.26225186  0.51355545  1
  O  O56  1  0.06985171  0.10505969  0.63970341  1
  O  O57  1  0.56810909  0.10871167  0.63621718  1
  O  O58  1  0.06967198  0.77948390  0.63934496  1
  O  O59  1  0.56220137  0.77164879  0.62440274  1
  O  O60  1  0.32771396  0.46084415  0.65596033  1
  O  O61  1  0.82824738  0.46084415  0.65596033  1
  O  O62  1  0.17243835  0.62699341  0.84487670  1
  O  O63  1  0.67459595  0.62592417  0.84919290  1
  O  O64  1  0.17441436  0.29115335  0.84882872  1
  O  O65  1  0.66901295  0.29352749  0.83802591  1
  O  O66  1  0.95171122  0.94829590  0.86625405  1
  O  O67  1  0.41454384  0.94829590  0.86625405  1
  O  O68  1  0.49552805  0.09973213  0.98863617  1
  O  O69  1  0.99310911  0.09973213  0.98863617  1
