# generated using pymatgen
data_Ba2Fe3(P2O9)2
_symmetry_space_group_name_H-M   'P 1'
_cell_length_a   6.67401441
_cell_length_b   10.70029786
_cell_length_c   22.00389814
_cell_angle_alpha   90.00000000
_cell_angle_beta   90.00000000
_cell_angle_gamma   90.00000000
_symmetry_Int_Tables_number   1
_chemical_formula_structural   Ba2Fe3(P2O9)2
_chemical_formula_sum   'Ba8 Fe12 P16 O72'
_cell_volume   1571.38510794
_cell_formula_units_Z   4
loop_
 _symmetry_equiv_pos_site_id
 _symmetry_equiv_pos_as_xyz
  1  'x, y, z'
loop_
 _atom_site_type_symbol
 _atom_site_label
 _atom_site_symmetry_multiplicity
 _atom_site_fract_x
 _atom_site_fract_y
 _atom_site_fract_z
 _atom_site_occupancy
  Ba  Ba0  1  0.60950190  0.00428909  0.17551992  1
  Ba  Ba1  1  0.10950190  0.49571091  0.82448008  1
  Ba  Ba2  1  0.39049810  0.50428909  0.32448008  1
  Ba  Ba3  1  0.89049810  0.99571091  0.67551992  1
  Ba  Ba4  1  0.39049810  0.99571091  0.82448008  1
  Ba  Ba5  1  0.89049810  0.50428909  0.17551992  1
  Ba  Ba6  1  0.60950190  0.49571091  0.67551992  1
  Ba  Ba7  1  0.10950190  0.00428909  0.32448008  1
  Fe  Fe8  1  0.50000000  0.50000000  -0.00000000  1
  Fe  Fe9  1  0.00000000  0.00000000  -0.00000000  1
  Fe  Fe10  1  0.50000000  0.00000000  0.50000000  1
  Fe  Fe11  1  0.00000000  0.50000000  0.50000000  1
  Fe  Fe12  1  0.74895920  0.75008878  0.91687064  1
  Fe  Fe13  1  0.24895920  0.74991122  0.08312936  1
  Fe  Fe14  1  0.25104080  0.25008878  0.58312936  1
  Fe  Fe15  1  0.75104080  0.24991122  0.41687064  1
  Fe  Fe16  1  0.25104080  0.24991122  0.08312936  1
  Fe  Fe17  1  0.75104080  0.25008878  0.91687064  1
  Fe  Fe18  1  0.74895920  0.74991122  0.41687064  1
  Fe  Fe19  1  0.24895920  0.75008878  0.58312936  1
  P  P20  1  0.10414237  0.99977344  0.14549143  1
  P  P21  1  0.60414237  0.50022656  0.85450857  1
  P  P22  1  0.89585763  0.49977344  0.35450857  1
  P  P23  1  0.39585763  0.00022656  0.64549143  1
  P  P24  1  0.89585763  0.00022656  0.85450857  1
  P  P25  1  0.39585763  0.49977344  0.14549143  1
  P  P26  1  0.10414237  0.50022656  0.64549143  1
  P  P27  1  0.60414237  0.99977344  0.35450857  1
  P  P28  1  0.74830794  0.75053609  0.04347334  1
  P  P29  1  0.24830794  0.74946391  0.95652666  1
  P  P30  1  0.25169206  0.25053609  0.45652666  1
  P  P31  1  0.75169206  0.24946391  0.54347334  1
  P  P32  1  0.25169206  0.24946391  0.95652666  1
  P  P33  1  0.75169206  0.25053609  0.04347334  1
  P  P34  1  0.74830794  0.74946391  0.54347334  1
  P  P35  1  0.24830794  0.75053609  0.45652666  1
  O  O36  1  0.29253516  0.35866793  0.00425360  1
  O  O37  1  0.79253516  0.14133207  0.99574640  1
  O  O38  1  0.70746484  0.85866793  0.49574640  1
  O  O39  1  0.20746484  0.64133207  0.50425360  1
  O  O40  1  0.70746484  0.64133207  0.99574640  1
  O  O41  1  0.20746484  0.85866793  0.00425360  1
  O  O42  1  0.29253516  0.14133207  0.50425360  1
  O  O43  1  0.79253516  0.35866793  0.49574640  1
  O  O44  1  0.29003694  0.64029485  0.00414149  1
  O  O45  1  0.79003694  0.85970515  0.99585851  1
  O  O46  1  0.70996306  0.14029485  0.49585851  1
  O  O47  1  0.20996306  0.35970515  0.50414149  1
  O  O48  1  0.70996306  0.35970515  0.99585851  1
  O  O49  1  0.20996306  0.14029485  0.00414149  1
  O  O50  1  0.29003694  0.85970515  0.50414149  1
  O  O51  1  0.79003694  0.64029485  0.49585851  1
  O  O52  1  0.95540751  -0.00009756  0.09094676  1
  O  O53  1  0.45540751  0.50009756  0.90905324  1
  O  O54  1  0.04459249  0.49990244  0.40905324  1
  O  O55  1  0.54459249  0.00009756  0.59094676  1
  O  O56  1  0.04459249  0.00009756  0.90905324  1
  O  O57  1  0.54459249  0.49990244  0.09094676  1
  O  O58  1  0.95540751  0.50009756  0.59094676  1
  O  O59  1  0.45540751  -0.00009756  0.40905324  1
  O  O60  1  0.24550753  0.88457297  0.14124750  1
  O  O61  1  0.74550753  0.61542703  0.85875250  1
  O  O62  1  0.75449247  0.38457297  0.35875250  1
  O  O63  1  0.25449247  0.11542703  0.64124750  1
  O  O64  1  0.75449247  0.11542703  0.85875250  1
  O  O65  1  0.25449247  0.38457297  0.14124750  1
  O  O66  1  0.24550753  0.61542703  0.64124750  1
  O  O67  1  0.74550753  0.88457297  0.35875250  1
  O  O68  1  0.24740736  0.11416946  0.14051713  1
  O  O69  1  0.74740736  0.38583054  0.85948287  1
  O  O70  1  0.75259264  0.61416946  0.35948287  1
  O  O71  1  0.25259264  0.88583054  0.64051713  1
  O  O72  1  0.75259264  0.88583054  0.85948287  1
  O  O73  1  0.25259264  0.61416946  0.14051713  1
  O  O74  1  0.24740736  0.38583054  0.64051713  1
  O  O75  1  0.74740736  0.11416946  0.35948287  1
  O  O76  1  0.99296402  0.00115132  0.20586324  1
  O  O77  1  0.49296402  0.49884868  0.79413676  1
  O  O78  1  0.00703598  0.50115132  0.29413676  1
  O  O79  1  0.50703598  0.99884868  0.70586324  1
  O  O80  1  0.00703598  0.99884868  0.79413676  1
  O  O81  1  0.50703598  0.50115132  0.20586324  1
  O  O82  1  0.99296402  0.49884868  0.70586324  1
  O  O83  1  0.49296402  0.00115132  0.29413676  1
  O  O84  1  0.93358120  0.71996489  0.08184663  1
  O  O85  1  0.43358120  0.78003511  0.91815337  1
  O  O86  1  0.06641880  0.21996489  0.41815337  1
  O  O87  1  0.56641880  0.28003511  0.58184663  1
  O  O88  1  0.06641880  0.28003511  0.91815337  1
  O  O89  1  0.56641880  0.21996489  0.08184663  1
  O  O90  1  0.93358120  0.78003511  0.58184663  1
  O  O91  1  0.43358120  0.71996489  0.41815337  1
  O  O92  1  0.56204500  0.78078261  0.08135748  1
  O  O93  1  0.06204500  0.71921739  0.91864252  1
  O  O94  1  0.43795500  0.28078261  0.41864252  1
  O  O95  1  0.93795500  0.21921739  0.58135748  1
  O  O96  1  0.43795500  0.21921739  0.91864252  1
  O  O97  1  0.93795500  0.28078261  0.08135748  1
  O  O98  1  0.56204500  0.71921739  0.58135748  1
  O  O99  1  0.06204500  0.78078261  0.41864252  1
  O  O100  1  0.73250787  0.75236569  0.20991837  1
  O  O101  1  0.23250787  0.74763431  0.79008163  1
  O  O102  1  0.26749213  0.25236569  0.29008163  1
  O  O103  1  0.76749213  0.24763431  0.70991837  1
  O  O104  1  0.26749213  0.24763431  0.79008163  1
  O  O105  1  0.76749213  0.25236569  0.20991837  1
  O  O106  1  0.73250787  0.74763431  0.70991837  1
  O  O107  1  0.23250787  0.75236569  0.29008163  1
