# generated using pymatgen
data_MnFe2(PO4)3
_symmetry_space_group_name_H-M   'P 1'
_cell_length_a   8.57055654
_cell_length_b   8.57055568
_cell_length_c   8.57055601
_cell_angle_alpha   60.70532950
_cell_angle_beta   60.70533240
_cell_angle_gamma   60.70533490
_symmetry_Int_Tables_number   1
_chemical_formula_structural   MnFe2(PO4)3
_chemical_formula_sum   'Mn2 Fe4 P6 O24'
_cell_volume   452.24216230
_cell_formula_units_Z   2
loop_
 _symmetry_equiv_pos_site_id
 _symmetry_equiv_pos_as_xyz
  1  'x, y, z'
loop_
 _atom_site_type_symbol
 _atom_site_label
 _atom_site_symmetry_multiplicity
 _atom_site_fract_x
 _atom_site_fract_y
 _atom_site_fract_z
 _atom_site_occupancy
  Mn  Mn0  1  0.00000000  0.00000000  0.00000000  1
  Mn  Mn1  1  0.50000000  0.50000000  0.50000000  1
  Fe  Fe2  1  0.14542833  0.14542833  0.14542833  1
  Fe  Fe3  1  0.35457167  0.35457167  0.35457167  1
  Fe  Fe4  1  0.64542833  0.64542833  0.64542833  1
  Fe  Fe5  1  0.85457167  0.85457167  0.85457167  1
  P  P6  1  0.04540019  0.75000000  0.45459981  1
  P  P7  1  0.45459981  0.04540019  0.75000000  1
  P  P8  1  0.75000000  0.45459981  0.04540019  1
  P  P9  1  0.25000000  0.54540019  0.95459981  1
  P  P10  1  0.54540019  0.95459981  0.25000000  1
  P  P11  1  0.95459981  0.25000000  0.54540019  1
  O  O12  1  0.10968612  0.31814755  0.50461548  1
  O  O13  1  0.31814755  0.50461548  0.10968612  1
  O  O14  1  0.05954586  0.91001310  0.25738287  1
  O  O15  1  0.50461548  0.10968612  0.31814755  1
  O  O16  1  0.00461548  0.81814755  0.60968612  1
  O  O17  1  0.24261713  0.58998690  0.44045414  1
  O  O18  1  0.25738287  0.05954586  0.91001310  1
  O  O19  1  0.44045414  0.24261713  0.58998690  1
  O  O20  1  0.18185245  0.39031388  0.99538452  1
  O  O21  1  0.58998690  0.44045414  0.24261713  1
  O  O22  1  0.08998690  0.74261713  0.94045414  1
  O  O23  1  0.39031388  0.99538452  0.18185245  1
  O  O24  1  0.60968612  0.00461548  0.81814755  1
  O  O25  1  0.91001310  0.25738287  0.05954586  1
  O  O26  1  0.41001310  0.55954586  0.75738287  1
  O  O27  1  0.81814755  0.60968612  0.00461548  1
  O  O28  1  0.55954586  0.75738287  0.41001310  1
  O  O29  1  0.74261713  0.94045414  0.08998690  1
  O  O30  1  0.75738287  0.41001310  0.55954586  1
  O  O31  1  0.99538452  0.18185245  0.39031388  1
  O  O32  1  0.49538452  0.89031388  0.68185245  1
  O  O33  1  0.94045414  0.08998690  0.74261713  1
  O  O34  1  0.68185245  0.49538452  0.89031388  1
  O  O35  1  0.89031388  0.68185245  0.49538452  1
