# generated using pymatgen
data_LiFeF3
_symmetry_space_group_name_H-M   'P 1'
_cell_length_a   19.70490550
_cell_length_b   9.13832449
_cell_length_c   5.65255317
_cell_angle_alpha   90.00202938
_cell_angle_beta   90.00770030
_cell_angle_gamma   89.99080838
_symmetry_Int_Tables_number   1
_chemical_formula_structural   LiFeF3
_chemical_formula_sum   'Li16 Fe16 F48'
_cell_volume   1017.85421199
_cell_formula_units_Z   16
loop_
 _symmetry_equiv_pos_site_id
 _symmetry_equiv_pos_as_xyz
  1  'x, y, z'
loop_
 _atom_site_type_symbol
 _atom_site_label
 _atom_site_symmetry_multiplicity
 _atom_site_fract_x
 _atom_site_fract_y
 _atom_site_fract_z
 _atom_site_occupancy
  Li  Li0  1  0.03210360  0.66539077  0.32559597  1
  Li  Li1  1  0.03206268  0.83472322  0.82556785  1
  Li  Li2  1  0.22698376  0.66441257  0.53555827  1
  Li  Li3  1  0.22698211  0.83578311  0.03563857  1
  Li  Li4  1  0.27300628  0.16426262  0.53589122  1
  Li  Li5  1  0.27295215  0.33560428  0.03581660  1
  Li  Li6  1  0.46793645  0.16518405  0.32560580  1
  Li  Li7  1  0.46784487  0.33449076  0.82560152  1
  Li  Li8  1  0.53212784  0.66536728  0.17439244  1
  Li  Li9  1  0.53208183  0.83473187  0.67448193  1
  Li  Li10  1  0.72699339  0.66441133  0.96413181  1
  Li  Li11  1  0.72697018  0.83569092  0.46403163  1
  Li  Li12  1  0.77305952  0.16430003  0.96447247  1
  Li  Li13  1  0.77303668  0.33563174  0.46448576  1
  Li  Li14  1  0.96793638  0.16527965  0.17452290  1
  Li  Li15  1  0.96790286  0.33461450  0.67448929  1
  Fe  Fe16  1  0.12123867  0.96789334  0.33327408  1
  Fe  Fe17  1  0.12126239  0.53232939  0.83350295  1
  Fe  Fe18  1  0.12194295  0.34178078  0.33667823  1
  Fe  Fe19  1  0.12189719  0.15838291  0.83650406  1
  Fe  Fe20  1  0.37810850  0.65826109  0.83653322  1
  Fe  Fe21  1  0.37811684  0.84162175  0.33664525  1
  Fe  Fe22  1  0.37875553  0.03205774  0.83343476  1
  Fe  Fe23  1  0.37874019  0.46768558  0.33324712  1
  Fe  Fe24  1  0.62124141  0.53223670  0.66652205  1
  Fe  Fe25  1  0.62118939  0.96788755  0.16670472  1
  Fe  Fe26  1  0.62186325  0.15835773  0.66339460  1
  Fe  Fe27  1  0.62188565  0.34171232  0.16325360  1
  Fe  Fe28  1  0.87808242  0.65828823  0.66345005  1
  Fe  Fe29  1  0.87807760  0.84164833  0.16344033  1
  Fe  Fe30  1  0.87877130  0.03208740  0.66662931  1
  Fe  Fe31  1  0.87879353  0.46776980  0.16658394  1
  F  F32  1  0.05327685  0.83660506  0.15323662  1
  F  F33  1  0.05326775  0.66351804  0.65325504  1
  F  F34  1  0.06886598  0.16924469  0.18307838  1
  F  F35  1  0.06883103  0.33095477  0.68314966  1
  F  F36  1  0.07113666  0.50779659  0.14967447  1
  F  F37  1  0.07115032  0.99230394  0.64942582  1
  F  F38  1  0.17576553  0.15817972  0.50531779  1
  F  F39  1  0.17571141  0.34203038  0.00518011  1
  F  F40  1  0.17819320  0.01670257  0.01714077  1
  F  F41  1  0.17819671  0.48357261  0.51701825  1
  F  F42  1  0.19386518  0.81418470  0.34826610  1
  F  F43  1  0.19384197  0.68596142  0.84836955  1
  F  F44  1  0.30615397  0.18588788  0.84839637  1
  F  F45  1  0.30610770  0.31392597  0.34825127  1
  F  F46  1  0.32183457  0.51670402  0.01762586  1
  F  F47  1  0.32185359  0.98328452  0.51760376  1
  F  F48  1  0.32425995  0.65808202  0.50540463  1
  F  F49  1  0.32423333  0.84177840  0.00551843  1
  F  F50  1  0.42882223  0.00771626  0.14932623  1
  F  F51  1  0.42877318  0.49204205  0.64938685  1
  F  F52  1  0.43123914  0.66931625  0.18282446  1
  F  F53  1  0.43123183  0.83067506  0.68292431  1
  F  F54  1  0.44673107  0.16326771  0.65321722  1
  F  F55  1  0.44673266  0.33642025  0.15328348  1
  F  F56  1  0.55327385  0.66350095  0.84676298  1
  F  F57  1  0.55325306  0.83654624  0.34689565  1
  F  F58  1  0.56876679  0.16940304  0.31719369  1
  F  F59  1  0.56873427  0.33067722  0.81712059  1
  F  F60  1  0.57117777  0.50785982  0.35051206  1
  F  F61  1  0.57115796  0.99224139  0.85079350  1
  F  F62  1  0.67577395  0.15819243  0.99440566  1
  F  F63  1  0.67574050  0.34188060  0.49447300  1
  F  F64  1  0.67812568  0.01679105  0.48201202  1
  F  F65  1  0.67815102  0.48335964  0.98223649  1
  F  F66  1  0.69384460  0.68605846  0.65156116  1
  F  F67  1  0.69380978  0.81394483  0.15167701  1
  F  F68  1  0.80616573  0.18577856  0.65168676  1
  F  F69  1  0.80622247  0.31411757  0.15170592  1
  F  F70  1  0.82186139  0.51647368  0.48305178  1
  F  F71  1  0.82184021  0.98346419  0.98301048  1
  F  F72  1  0.82426701  0.65802576  0.99479724  1
  F  F73  1  0.82422079  0.84185591  0.49471761  1
  F  F74  1  0.92886675  0.00766389  0.35060682  1
  F  F75  1  0.92890608  0.49227765  0.85043036  1
  F  F76  1  0.93116470  0.66911905  0.31681277  1
  F  F77  1  0.93114922  0.83085678  0.81688549  1
  F  F78  1  0.94674452  0.16337390  0.84685575  1
  F  F79  1  0.94675874  0.33650515  0.34683747  1
