# generated using pymatgen
data_Li5Mn6(BO3)6
_symmetry_space_group_name_H-M   'P 1'
_cell_length_a   8.23058579
_cell_length_b   8.85262438
_cell_length_c   6.37070816
_cell_angle_alpha   68.81342675
_cell_angle_beta   89.88104075
_cell_angle_gamma   62.79666551
_symmetry_Int_Tables_number   1
_chemical_formula_structural   Li5Mn6(BO3)6
_chemical_formula_sum   'Li5 Mn6 B6 O18'
_cell_volume   377.41400593
_cell_formula_units_Z   1
loop_
 _symmetry_equiv_pos_site_id
 _symmetry_equiv_pos_as_xyz
  1  'x, y, z'
loop_
 _atom_site_type_symbol
 _atom_site_label
 _atom_site_symmetry_multiplicity
 _atom_site_fract_x
 _atom_site_fract_y
 _atom_site_fract_z
 _atom_site_occupancy
  Li  Li0  1  0.98472066  0.71827336  0.39082157  1
  Li  Li1  1  0.98042114  0.71751177  0.89166066  1
  Li  Li2  1  0.72268218  0.29572633  0.60221368  1
  Li  Li3  1  0.30077448  0.98138531  0.75961539  1
  Li  Li4  1  0.29948560  0.98096992  0.25953274  1
  Mn  Mn5  1  0.36845592  0.61874641  0.69252277  1
  Mn  Mn6  1  0.36886852  0.61809636  0.18940719  1
  Mn  Mn7  1  0.63116263  0.02095902  0.99264301  1
  Mn  Mn8  1  0.63291210  0.02125444  0.48537642  1
  Mn  Mn9  1  0.00003393  0.36240107  0.31659065  1
  Mn  Mn10  1  0.00000634  0.36259432  0.82051860  1
  B  B11  1  0.66745748  0.66831360  0.41547142  1
  B  B12  1  0.65978244  0.68092847  0.90990770  1
  B  B13  1  0.00779873  0.99230572  0.50841472  1
  B  B14  1  0.33162213  0.33558026  0.58213786  1
  B  B15  1  0.00711028  0.99245033  0.99948041  1
  B  B16  1  0.32496332  0.33130042  0.08424031  1
  O  O17  1  0.92427766  0.87968885  0.56002396  1
  O  O18  1  0.92280262  0.88054733  0.06008543  1
  O  O19  1  0.86042173  0.55982531  0.46973433  1
  O  O20  1  0.85081860  0.56361143  0.96773882  1
  O  O21  1  0.58714665  0.87253484  0.81446205  1
  O  O22  1  0.58305729  0.85993418  0.32038620  1
  O  O23  1  0.89923659  0.18167271  0.42861849  1
  O  O24  1  0.89949115  0.18183936  0.88899401  1
  O  O25  1  0.56021656  0.57954459  0.45924514  1
  O  O26  1  0.53589135  0.61255882  0.94432779  1
  O  O27  1  0.20232443  0.90894211  0.54363095  1
  O  O28  1  0.20178429  0.90829594  0.04884186  1
  O  O29  1  0.52495122  0.22718451  0.63626307  1
  O  O30  1  0.51515611  0.21813902  0.13941714  1
  O  O31  1  0.25404140  0.53006867  0.48474569  1
  O  O32  1  0.25025521  0.52490403  0.98916586  1
  O  O33  1  0.21752427  0.25644548  0.62188528  1
  O  O34  1  0.20597798  0.25551172  0.12185282  1
