# generated using pymatgen
data_Li5Mn6(BO3)6
_symmetry_space_group_name_H-M   'P 1'
_cell_length_a   8.23440244
_cell_length_b   8.25139479
_cell_length_c   6.37353530
_cell_angle_alpha   90.00000000
_cell_angle_beta   90.00000000
_cell_angle_gamma   60.69108928
_symmetry_Int_Tables_number   1
_chemical_formula_structural   Li5Mn6(BO3)6
_chemical_formula_sum   'Li5 Mn6 B6 O18'
_cell_volume   377.61820648
_cell_formula_units_Z   1
loop_
 _symmetry_equiv_pos_site_id
 _symmetry_equiv_pos_as_xyz
  1  'x, y, z'
loop_
 _atom_site_type_symbol
 _atom_site_label
 _atom_site_symmetry_multiplicity
 _atom_site_fract_x
 _atom_site_fract_y
 _atom_site_fract_z
 _atom_site_occupancy
  Li  Li0  1  0.01944026  0.28176140  0.25000000  1
  Li  Li1  1  0.01631017  0.28330851  0.75000000  1
  Li  Li2  1  0.27801101  0.70220444  0.75000000  1
  Li  Li3  1  0.69856984  0.02154805  0.25000000  1
  Li  Li4  1  0.69989426  0.01680044  0.75000000  1
  Mn  Mn5  1  0.63148660  0.38174740  0.00226338  1
  Mn  Mn6  1  0.63148660  0.38174740  0.49773662  1
  Mn  Mn7  1  0.36742348  0.97800352  0.00309580  1
  Mn  Mn8  1  0.36742348  0.97800352  0.49690420  1
  Mn  Mn9  1  0.99963450  0.63823017  0.00203750  1
  Mn  Mn10  1  0.99963450  0.63823017  0.49796250  1
  B  B11  1  0.33348138  0.32805366  0.75000000  1
  B  B12  1  0.33914492  0.32297027  0.25000000  1
  B  B13  1  0.66793692  0.66543643  0.75000000  1
  B  B14  1  0.99270552  0.00768970  0.50609083  1
  B  B15  1  0.99270552  0.00768970  0.99390917  1
  B  B16  1  0.67544422  0.66724920  0.25000000  1
  O  O17  1  0.07626987  0.12034617  0.99899473  1
  O  O18  1  0.07626987  0.12034617  0.50100527  1
  O  O19  1  0.14086669  0.43939896  0.75000000  1
  O  O20  1  0.14804993  0.43883186  0.25000000  1
  O  O21  1  0.41302055  0.13143654  0.25000000  1
  O  O22  1  0.41567083  0.13617053  0.75000000  1
  O  O23  1  0.10145946  0.81828722  0.52010392  1
  O  O24  1  0.10145946  0.81828722  0.97989608  1
  O  O25  1  0.44252017  0.41523766  0.75000000  1
  O  O26  1  0.46214444  0.39215440  0.25000000  1
  O  O27  1  0.79822988  0.09115774  0.99928798  1
  O  O28  1  0.79822988  0.09115774  0.50071202  1
  O  O29  1  0.47432744  0.77526439  0.75000000  1
  O  O30  1  0.48538295  0.77818263  0.25000000  1
  O  O31  1  0.74446127  0.47143784  0.75000000  1
  O  O32  1  0.75163597  0.47317511  0.25000000  1
  O  O33  1  0.78243889  0.74392865  0.75000000  1
  O  O34  1  0.79321328  0.74447517  0.25000000  1
