# generated using pymatgen
data_LiScVO4
_symmetry_space_group_name_H-M   'P 1'
_cell_length_a   6.08487009
_cell_length_b   6.08487009
_cell_length_c   6.08486994
_cell_angle_alpha   62.17670788
_cell_angle_beta   88.63448866
_cell_angle_gamma   120.62542993
_symmetry_Int_Tables_number   1
_chemical_formula_structural   LiScVO4
_chemical_formula_sum   'Li2 Sc2 V2 O8'
_cell_volume   161.00966657
_cell_formula_units_Z   2
loop_
 _symmetry_equiv_pos_site_id
 _symmetry_equiv_pos_as_xyz
  1  'x, y, z'
loop_
 _atom_site_type_symbol
 _atom_site_label
 _atom_site_symmetry_multiplicity
 _atom_site_fract_x
 _atom_site_fract_y
 _atom_site_fract_z
 _atom_site_occupancy
  Li  Li0  1  0.11936207  0.25000000  0.13063793  1
  Li  Li1  1  0.88063793  0.75000000  0.86936207  1
  Sc  Sc2  1  0.50000000  0.00000000  0.00000000  1
  Sc  Sc3  1  0.50000000  0.50000000  0.50000000  1
  V  V4  1  0.50000000  0.00000000  0.50000000  1
  V  V5  1  0.00000000  0.50000000  0.50000000  1
  O  O6  1  0.29099785  0.01624494  0.72524709  1
  O  O7  1  0.24149203  0.51624494  0.27475291  1
  O  O8  1  0.25452834  0.53575957  0.70971209  1
  O  O9  1  0.25452834  0.96424043  0.28123123  1
  O  O10  1  0.74547166  0.03575957  0.71876877  1
  O  O11  1  0.74547166  0.46424043  0.29028791  1
  O  O12  1  0.75850797  0.48375506  0.72524709  1
  O  O13  1  0.70900215  0.98375506  0.27475291  1
