# generated using pymatgen
data_Li5Mn6(BO3)6
_symmetry_space_group_name_H-M   'P 1'
_cell_length_a   6.36567312
_cell_length_b   14.38452119
_cell_length_c   8.82749913
_cell_angle_alpha   90.55548256
_cell_angle_beta   68.86545041
_cell_angle_gamma   90.00000000
_symmetry_Int_Tables_number   1
_chemical_formula_structural   Li5Mn6(BO3)6
_chemical_formula_sum   'Li10 Mn12 B12 O36'
_cell_volume   753.89842994
_cell_formula_units_Z   2
loop_
 _symmetry_equiv_pos_site_id
 _symmetry_equiv_pos_as_xyz
  1  'x, y, z'
loop_
 _atom_site_type_symbol
 _atom_site_label
 _atom_site_symmetry_multiplicity
 _atom_site_fract_x
 _atom_site_fract_y
 _atom_site_fract_z
 _atom_site_occupancy
  Li  Li0  1  0.10456644  0.99005854  0.29086612  1
  Li  Li1  1  0.07881708  0.35840697  0.34236485  1
  Li  Li2  1  0.31504272  0.14859154  0.86991456  1
  Li  Li3  1  0.32967213  0.85806231  0.84065474  1
  Li  Li4  1  0.35521148  0.49173015  0.78957604  1
  Li  Li5  1  0.56475246  0.64939500  0.37049409  1
  Li  Li6  1  0.58036520  0.35888182  0.33927059  1
  Li  Li7  1  0.60399945  0.99068646  0.29200110  1
  Li  Li8  1  0.82954374  0.85899965  0.84091252  1
  Li  Li9  1  0.85299764  0.48835402  0.79400472  1
  Mn  Mn10  1  0.17542512  0.01067200  0.64339499  1
  Mn  Mn11  1  0.15905727  0.30969720  0.67765021  1
  Mn  Mn12  1  0.42400232  0.51080920  0.14363020  1
  Mn  Mn13  1  0.40969170  0.80954346  0.17740451  1
  Mn  Mn14  1  0.15665356  0.68050534  0.68171873  1
  Mn  Mn15  1  0.41166393  0.18068580  0.18122359  1
  Mn  Mn16  1  0.90711249  0.18068580  0.18122359  1
  Mn  Mn17  1  0.66162771  0.68050534  0.68171873  1
  Mn  Mn18  1  0.91290379  0.80954346  0.17740451  1
  Mn  Mn19  1  0.93236748  0.51080920  0.14363020  1
  Mn  Mn20  1  0.66329252  0.30969720  0.67765021  1
  Mn  Mn21  1  0.68117889  0.01067200  0.64339499  1
  B  B22  1  0.00285589  0.99625273  0.00325196  1
  B  B23  1  0.24980415  0.33501278  0.00039171  1
  B  B24  1  0.99985969  0.83730501  0.50028062  1
  B  B25  1  0.00396564  0.16633752  0.49206873  1
  B  B26  1  0.49389116  0.99625273  0.00325196  1
  B  B27  1  0.25307085  0.49643049  0.50341068  1
  B  B28  1  0.50105220  0.16749504  0.49789460  1
  B  B29  1  0.75077580  0.66765547  0.99844939  1
  B  B30  1  0.25415084  0.66624559  0.99169832  1
  B  B31  1  0.49920381  0.83633691  0.50159338  1
  B  B32  1  0.74898825  0.33953785  0.00202451  1
  B  B33  1  0.74351848  0.49643049  0.50341068  1
  O  O34  1  0.08193686  0.12791256  0.33612527  1
  O  O35  1  0.24319856  0.76289438  0.01360289  1
  O  O36  1  0.18082210  0.28073194  0.13835680  1
  O  O37  1  0.18721267  0.60977142  0.12557466  1
  O  O38  1  0.24397526  0.43094845  0.01205048  1
  O  O39  1  0.07831209  0.80309491  0.34337581  1
  O  O40  1  0.17174104  0.45508863  0.65618666  1
  O  O41  1  0.31738581  0.44001830  0.36404706  1
  O  O42  1  0.06914607  0.93981256  0.86379651  1
  O  O43  1  0.42464877  0.95489932  0.15601984  1
  O  O44  1  0.02427507  0.09088382  0.98869210  1
  O  O45  1  0.27415711  0.59111708  0.48885021  1
  O  O46  1  0.43088348  0.78097354  0.63823304  1
  O  O47  1  0.43190289  0.11245921  0.63619422  1
  O  O48  1  0.49235003  0.93238282  0.51530093  1
  O  O49  1  0.32565334  0.29081764  0.84869233  1
  O  O50  1  0.49159930  0.26421127  0.51680040  1
  O  O51  1  0.57532213  0.79277541  0.34935573  1
  O  O52  1  0.57810037  0.12776334  0.34380027  1
  O  O53  1  0.68311006  0.28007406  0.13377988  1
  O  O54  1  0.68119122  0.61373011  0.13761655  1
  O  O55  1  0.74186194  0.76450146  0.01627613  1
  O  O56  1  0.73625407  0.43522766  0.02749086  1
  O  O57  1  0.33223883  0.62822805  0.83552333  1
  O  O58  1  0.73699169  0.59111708  0.48885021  1
  O  O59  1  0.48703283  0.09088382  0.98869210  1
  O  O60  1  0.91933039  0.95489932  0.15601984  1
  O  O61  1  0.56705742  0.93981256  0.86379651  1
  O  O62  1  0.81856712  0.44001830  0.36404706  1
  O  O63  1  0.67207230  0.45508863  0.65618666  1
  O  O64  1  0.93305919  0.77915224  0.63388063  1
  O  O65  1  0.82762474  0.62726754  0.84475152  1
  O  O66  1  0.93672288  0.11056752  0.62655324  1
  O  O67  1  0.99320215  0.26312531  0.51359670  1
  O  O68  1  0.98838581  0.93301255  0.52322938  1
  O  O69  1  0.82793157  0.30649409  0.84413585  1
