# generated using pymatgen
data_MnOF
_symmetry_space_group_name_H-M   'P 1'
_cell_length_a   4.65220767
_cell_length_b   4.61400570
_cell_length_c   9.53219148
_cell_angle_alpha   90.00000000
_cell_angle_beta   90.91155494
_cell_angle_gamma   90.00000000
_symmetry_Int_Tables_number   1
_chemical_formula_structural   MnOF
_chemical_formula_sum   'Mn6 O6 F6'
_cell_volume   204.58557611
_cell_formula_units_Z   6
loop_
 _symmetry_equiv_pos_site_id
 _symmetry_equiv_pos_as_xyz
  1  'x, y, z'
loop_
 _atom_site_type_symbol
 _atom_site_label
 _atom_site_symmetry_multiplicity
 _atom_site_fract_x
 _atom_site_fract_y
 _atom_site_fract_z
 _atom_site_occupancy
  Mn  Mn0  1  0.96763134  0.96422560  0.00024053  1
  Mn  Mn1  1  0.03508343  0.01501773  0.33160188  1
  Mn  Mn2  1  0.03022601  0.01486350  0.66880456  1
  Mn  Mn3  1  0.46491657  0.51501773  0.83506512  1
  Mn  Mn4  1  0.53236866  0.46422560  0.16642647  1
  Mn  Mn5  1  0.46977399  0.51486350  0.49786244  1
  O  O6  1  0.20511803  0.82641484  0.49474115  1
  O  O7  1  0.16748125  0.81139427  0.83536384  1
  O  O8  1  0.33251875  0.31139427  0.33130316  1
  O  O9  1  0.29488197  0.32641484  0.67192585  1
  O  O10  1  0.67810848  0.66392264  0.00008174  1
  O  O11  1  0.82189152  0.16392264  0.16658526  1
  F  F12  1  0.22705147  0.76565607  0.16684534  1
  F  F13  1  0.27294853  0.26565607  0.99982166  1
  F  F14  1  0.73125313  0.71167133  0.33813915  1
  F  F15  1  0.69706553  0.72683502  0.65733954  1
  F  F16  1  0.80293447  0.22683502  0.50932746  1
  F  F17  1  0.76874687  0.21167133  0.82852785  1
