# generated using pymatgen
data_Na2FeO2
_symmetry_space_group_name_H-M   'P 1'
_cell_length_a   3.00172949
_cell_length_b   5.49650549
_cell_length_c   8.50738907
_cell_angle_alpha   90.00000000
_cell_angle_beta   90.00000000
_cell_angle_gamma   105.84631100
_symmetry_Int_Tables_number   1
_chemical_formula_structural   Na2FeO2
_chemical_formula_sum   'Na4 Fe2 O4'
_cell_volume   135.02945087
_cell_formula_units_Z   2
loop_
 _symmetry_equiv_pos_site_id
 _symmetry_equiv_pos_as_xyz
  1  'x, y, z'
loop_
 _atom_site_type_symbol
 _atom_site_label
 _atom_site_symmetry_multiplicity
 _atom_site_fract_x
 _atom_site_fract_y
 _atom_site_fract_z
 _atom_site_occupancy
  Na  Na0  1  0.14366854  0.28733708  0.66735100  1
  Na  Na1  1  0.39124902  0.78249803  0.84710021  1
  Na  Na2  1  0.85633146  0.71266292  0.16735100  1
  Na  Na3  1  0.60875098  0.21750197  0.34710021  1
  Fe  Fe4  1  0.12247432  0.24494863  0.00371041  1
  Fe  Fe5  1  0.87752568  0.75505137  0.50371041  1
  O  O6  1  0.27288747  0.54577494  0.40416558  1
  O  O7  1  0.48479172  0.96958244  0.59256279  1
  O  O8  1  0.72711253  0.45422506  0.90416558  1
  O  O9  1  0.51520828  0.03041756  0.09256279  1
