# generated using pymatgen
data_Li5Mn6(BO3)6
_symmetry_space_group_name_H-M   'P 1'
_cell_length_a   8.33426733
_cell_length_b   14.58509865
_cell_length_c   6.36997466
_cell_angle_alpha   77.38653054
_cell_angle_beta   90.00000118
_cell_angle_gamma   90.15371797
_symmetry_Int_Tables_number   1
_chemical_formula_structural   Li5Mn6(BO3)6
_chemical_formula_sum   'Li10 Mn12 B12 O36'
_cell_volume   755.61888621
_cell_formula_units_Z   2
loop_
 _symmetry_equiv_pos_site_id
 _symmetry_equiv_pos_as_xyz
  1  'x, y, z'
loop_
 _atom_site_type_symbol
 _atom_site_label
 _atom_site_symmetry_multiplicity
 _atom_site_fract_x
 _atom_site_fract_y
 _atom_site_fract_z
 _atom_site_occupancy
  Li  Li0  1  0.28856723  0.99051611  0.25474195  1
  Li  Li1  1  0.33605361  0.35879060  0.07060470  1
  Li  Li2  1  0.34253854  0.35932617  0.57033691  1
  Li  Li3  1  0.36859094  0.65058194  0.92470953  1
  Li  Li4  1  0.36645532  0.65025033  0.42487433  1
  Li  Li5  1  0.78757245  0.49044272  0.50477864  1
  Li  Li6  1  0.83799046  0.85970580  0.82014760  1
  Li  Li7  1  0.84134749  0.85817713  0.32091194  1
  Li  Li8  1  0.86596856  0.14964099  0.67517950  1
  Li  Li9  1  0.86893127  0.15108096  0.17445902  1
  Mn  Mn10  1  0.12550267  0.50647212  0.74900129  1
  Mn  Mn11  1  0.12550267  0.50647212  0.24452759  1
  Mn  Mn12  1  0.18080446  0.81907477  0.59254954  1
  Mn  Mn13  1  0.18080446  0.81907477  0.08837470  1
  Mn  Mn14  1  0.19406808  0.17280353  0.41779960  1
  Mn  Mn15  1  0.19406808  0.17280353  0.90939687  1
  Mn  Mn16  1  0.62558464  0.00656602  0.99489100  1
  Mn  Mn17  1  0.62558464  0.00656602  0.49854298  1
  Mn  Mn18  1  0.68046339  0.31901604  0.84312971  1
  Mn  Mn19  1  0.68046339  0.31901604  0.33785325  1
  Mn  Mn20  1  0.69475688  0.67241845  0.66691738  1
  Mn  Mn21  1  0.69475688  0.67241845  0.16066418  1
  B  B22  1  0.00165997  0.66706619  0.41646691  1
  B  B23  1  0.00454292  0.67111217  0.91444391  1
  B  B24  1  0.00191234  0.33241003  0.58379548  1
  B  B25  1  0.00847287  0.32946940  0.08526580  1
  B  B26  1  0.49245774  0.50020187  0.25517555  1
  B  B27  1  0.49245774  0.50020187  0.74462159  1
  B  B28  1  0.50286112  0.83111184  0.33444408  1
  B  B29  1  0.50296790  0.16697852  0.16651124  1
  B  B30  1  0.50280909  0.17115131  0.66442384  1
  B  B31  1  0.50805106  0.83064222  0.83467889  1
  B  B32  1  0.99234408  0.00009666  0.49442828  1
  B  B33  1  0.99234408  0.00009666  0.00547506  1
  O  O34  1  0.01125910  0.43037011  0.53481495  1
  O  O35  1  0.01937843  0.76368615  0.36815693  1
  O  O36  1  0.02423244  0.76868933  0.86565483  1
  O  O37  1  0.03761566  0.42499983  0.03749959  1
  O  O38  1  0.13688809  0.60885637  0.44557181  1
  O  O39  1  0.13944321  0.61249645  0.94375127  1
  O  O40  1  0.13925751  0.26886829  0.11556586  1
  O  O41  1  0.14151756  0.96000021  0.04000403  1
  O  O42  1  0.14151756  0.96000021  0.49999575  1
  O  O43  1  0.14000679  0.27866263  0.61066868  1
  O  O44  1  0.35061917  0.79073416  0.35463292  1
  O  O45  1  0.35114316  0.13236592  0.68381754  1
  O  O46  1  0.35226107  0.12468991  0.18765555  1
  O  O47  1  0.35445548  0.79309740  0.85345080  1
  O  O48  1  0.35395252  0.44450580  0.27753287  1
  O  O49  1  0.35395252  0.44450580  0.77796132  1
  O  O50  1  0.47786193  0.59823922  0.20196402  1
  O  O51  1  0.47786193  0.59823922  0.69979676  1
  O  O52  1  0.51395247  0.92902659  0.28548620  1
  O  O53  1  0.51992600  0.26406858  0.11796571  1
  O  O54  1  0.52420267  0.26823132  0.61588434  1
  O  O55  1  0.53544522  0.92638010  0.78680995  1
  O  O56  1  0.63667288  0.11171071  0.69414514  1
  O  O57  1  0.63914351  0.10935331  0.19532335  1
  O  O58  1  0.63933606  0.77585933  0.36207084  1
  O  O59  1  0.64048057  0.77142752  0.86428574  1
  O  O60  1  0.64172011  0.46007192  0.28842695  1
  O  O61  1  0.64172011  0.46007192  0.75150013  1
  O  O62  1  0.84967869  0.62529751  0.43735175  1
  O  O63  1  0.85405722  0.63138016  0.93431042  1
  O  O64  1  0.85151623  0.29045391  0.60477304  1
  O  O65  1  0.85338894  0.29326279  0.10336910  1
  O  O66  1  0.85377627  0.94438660  0.52724071  1
  O  O67  1  0.85377627  0.94438660  0.02837369  1
  O  O68  1  0.97758082  0.09810039  0.95032750  1
  O  O69  1  0.97758082  0.09810039  0.45157211  1
