# generated using pymatgen
data_LiVP2HO8
_symmetry_space_group_name_H-M   'P 1'
_cell_length_a   9.73893574
_cell_length_b   7.94483458
_cell_length_c   7.47108704
_cell_angle_alpha   90.00000000
_cell_angle_beta   104.96861866
_cell_angle_gamma   90.00000000
_symmetry_Int_Tables_number   1
_chemical_formula_structural   LiVP2HO8
_chemical_formula_sum   'Li4 V4 P8 H4 O32'
_cell_volume   558.45424915
_cell_formula_units_Z   4
loop_
 _symmetry_equiv_pos_site_id
 _symmetry_equiv_pos_as_xyz
  1  'x, y, z'
loop_
 _atom_site_type_symbol
 _atom_site_label
 _atom_site_symmetry_multiplicity
 _atom_site_fract_x
 _atom_site_fract_y
 _atom_site_fract_z
 _atom_site_occupancy
  Li  Li0  1  0.29290271  0.13023769  0.14420289  1
  Li  Li1  1  0.55058255  0.36905524  0.64713243  1
  Li  Li2  1  0.69941745  0.86905524  0.85286757  1
  Li  Li3  1  0.95709729  0.63023769  0.35579711  1
  V  V4  1  0.24889992  0.50659615  0.99819684  1
  V  V5  1  0.49900899  0.99233286  0.49181121  1
  V  V6  1  0.75099101  0.49233286  0.00818879  1
  V  V7  1  0.00110008  0.00659615  0.50180316  1
  P  P8  1  0.06926102  0.34745055  0.27019202  1
  P  P9  1  0.18073898  0.84745055  0.22980798  1
  P  P10  1  0.31282052  0.15555818  0.76053651  1
  P  P11  1  0.43338639  0.65231707  0.73612327  1
  P  P12  1  0.56035204  0.35278779  0.26676875  1
  P  P13  1  0.68964796  0.85278779  0.23323125  1
  P  P14  1  0.81661361  0.15231707  0.76387673  1
  P  P15  1  0.93717948  0.65555818  0.73946349  1
  H  H16  1  0.26062430  0.50771731  0.50679582  1
  H  H17  1  0.48193136  0.00746837  0.98517583  1
  H  H18  1  0.76806864  0.50746837  0.51482417  1
  H  H19  1  0.98937570  0.00771731  0.99320418  1
  O  O20  1  0.06641603  0.55264989  0.85108471  1
  O  O21  1  0.02200813  0.17315707  0.31800055  1
  O  O22  1  0.07859246  0.82738857  0.35774597  1
  O  O23  1  0.12819577  0.45624520  0.44022238  1
  O  O24  1  0.18358397  0.05264989  0.64891529  1
  O  O25  1  0.26745889  0.32777806  0.81604656  1
  O  O26  1  0.12180423  0.95624520  0.05977762  1
  O  O27  1  0.17140754  0.32738857  0.14225403  1
  O  O28  1  0.33036619  0.67468569  0.85889649  1
  O  O29  1  0.37782444  0.05879999  0.94506235  1
  O  O30  1  0.22799187  0.67315707  0.18199945  1
  O  O31  1  0.31503268  0.94917336  0.34603607  1
  O  O32  1  0.37304713  0.54778708  0.55872084  1
  O  O33  1  0.42181586  0.16981449  0.64245026  1
  O  O34  1  0.48734479  0.82484722  0.68518647  1
  O  O35  1  0.56727884  0.55051242  0.84406200  1
  O  O36  1  0.42907226  0.45164319  0.15050439  1
  O  O37  1  0.50601372  0.17583193  0.30693873  1
  O  O38  1  0.58612809  0.83652921  0.36064922  1
  O  O39  1  0.63061611  0.43948541  0.44872044  1
  O  O40  1  0.68272116  0.05051242  0.65593800  1
  O  O41  1  0.76265521  0.32484722  0.81481353  1
  O  O42  1  0.61938389  0.93948541  0.05127956  1
  O  O43  1  0.66387191  0.33652921  0.13935078  1
  O  O44  1  0.82818414  0.66981449  0.85754974  1
  O  O45  1  0.87695287  0.04778708  0.94127916  1
  O  O46  1  0.74398628  0.67583193  0.19306127  1
  O  O47  1  0.82092774  0.95164319  0.34949561  1
  O  O48  1  0.87217556  0.55879999  0.55493765  1
  O  O49  1  0.91963381  0.17468569  0.64110351  1
  O  O50  1  0.98254111  0.82777806  0.68395344  1
  O  O51  1  0.93496732  0.44917336  0.15396393  1
