# generated using pymatgen
data_Li5V3P8O29
_symmetry_space_group_name_H-M   'P 1'
_cell_length_a   9.80417009
_cell_length_b   9.81731545
_cell_length_c   13.91527931
_cell_angle_alpha   89.97596616
_cell_angle_beta   90.05776824
_cell_angle_gamma   59.96527626
_symmetry_Int_Tables_number   1
_chemical_formula_structural   Li5V3P8O29
_chemical_formula_sum   'Li10 V6 P16 O58'
_cell_volume   1159.50762425
_cell_formula_units_Z   2
loop_
 _symmetry_equiv_pos_site_id
 _symmetry_equiv_pos_as_xyz
  1  'x, y, z'
loop_
 _atom_site_type_symbol
 _atom_site_label
 _atom_site_symmetry_multiplicity
 _atom_site_fract_x
 _atom_site_fract_y
 _atom_site_fract_z
 _atom_site_occupancy
  Li  Li0  1  0.77347386  0.90318777  0.55687116  1
  Li  Li1  1  0.90540967  0.32311519  0.55797346  1
  Li  Li2  1  0.77022626  0.32471027  0.06244700  1
  Li  Li3  1  0.32322590  0.90343184  0.06243469  1
  Li  Li4  1  0.67677925  0.22663408  0.43761295  1
  Li  Li5  1  0.31775349  0.77184152  0.55888664  1
  Li  Li6  1  0.68193014  0.08995161  0.94117759  1
  Li  Li7  1  0.22654956  0.67668464  0.94311615  1
  Li  Li8  1  0.22977626  0.09467438  0.43752274  1
  Li  Li9  1  0.09459992  0.22855942  0.94204836  1
  V  V10  1  0.56611086  0.43366461  0.25180196  1
  V  V11  1  0.43128170  0.56819375  0.74922361  1
  V  V12  1  0.56869107  0.99947719  0.75079724  1
  V  V13  1  0.43381793  0.99967833  0.24785631  1
  V  V14  1  -0.00003694  0.57283292  0.25006828  1
  V  V15  1  0.99996989  0.43716024  0.74997588  1
  P  P16  1  0.91591613  0.77009342  0.84412017  1
  P  P17  1  0.76950336  0.91169833  0.34084276  1
  P  P18  1  0.91341801  0.31986293  0.34225701  1
  P  P19  1  0.66902123  0.66376833  0.12692199  1
  P  P20  1  0.66616152  0.66747122  0.62690411  1
  P  P21  1  0.76876620  0.32031987  0.84193824  1
  P  P22  1  0.68055878  0.23171746  0.65791687  1
  P  P23  1  0.31941034  0.91227096  0.84210533  1
  P  P24  1  0.68213786  0.08818537  0.15701866  1
  P  P25  1  0.31817465  0.77009474  0.34293385  1
  P  P26  1  0.23048283  0.68137480  0.15923559  1
  P  P27  1  0.33099760  0.33250427  0.37310407  1
  P  P28  1  0.33376392  0.33365770  0.87310349  1
  P  P29  1  0.08395309  0.68613130  0.65591937  1
  P  P30  1  0.23119041  0.08912591  0.65806598  1
  P  P31  1  0.08646830  0.23340763  0.15781148  1
  O  O32  1  0.99244872  0.76487376  0.56870135  1
  O  O33  1  0.91659770  0.74486613  0.33608617  1
  O  O34  1  0.75526348  0.00755673  0.06565942  1
  O  O35  1  0.74809599  0.91537841  0.84142686  1
  O  O36  1  0.90521838  0.61803339  0.82301694  1
  O  O37  1  0.81574640  0.66519266  0.17465032  1
  O  O38  1  0.90507538  0.47829631  0.32432415  1
  O  O39  1  0.99704390  0.24365319  0.06767584  1
  O  O40  1  0.91899801  0.33645574  0.83958145  1
  O  O41  1  0.67510233  0.81192645  0.66706834  1
  O  O42  1  0.62094822  0.90080884  0.32481522  1
  O  O43  1  0.81648062  0.51195664  0.67020437  1
  O  O44  1  0.67108168  0.66327518  0.01990500  1
  O  O45  1  0.67193510  0.65980619  0.51981096  1
  O  O46  1  0.67447626  0.51084320  0.16694447  1
  O  O47  1  0.47963285  0.90159503  0.82426331  1
  O  O48  1  0.51457698  0.81289297  0.16568669  1
  O  O49  1  0.74878605  0.33540139  0.34288224  1
  O  O50  1  0.79106177  0.20941872  0.74991556  1
  O  O51  1  0.75876855  0.24190887  0.56760156  1
  O  O52  1  0.76137745  0.24050797  0.93222852  1
  O  O53  1  0.62063123  0.47956603  0.82389980  1
  O  O54  1  0.51301268  0.67385116  0.66726527  1
  O  O55  1  0.66170702  0.25589407  0.16200567  1
  O  O56  1  0.47879136  0.61900305  0.32331692  1
  O  O57  1  0.33873246  0.91751902  0.33769498  1
  O  O58  1  0.79072640  0.00156657  0.24962235  1
  O  O59  1  0.76214420  0.99879585  0.43114067  1
  O  O60  1  0.23863384  0.00183797  0.56784468  1
  O  O61  1  0.66353087  0.08301614  0.65910492  1
  O  O62  1  0.52034653  0.38125278  0.67577250  1
  O  O63  1  0.33646957  0.74654335  0.84091573  1
  O  O64  1  0.48541077  0.32796881  0.33443534  1
  O  O65  1  0.37907788  0.52176515  0.17518878  1
  O  O66  1  0.23774692  0.76108835  0.06883694  1
  O  O67  1  0.24485274  0.76305146  0.43428201  1
  O  O68  1  0.20928337  0.79229955  0.25038743  1
  O  O69  1  0.25187167  0.66348335  0.65860569  1
  O  O70  1  0.48683795  0.18693698  0.83271789  1
  O  O71  1  0.52139112  0.09740487  0.17672165  1
  O  O72  1  0.32473173  0.48715115  0.83297899  1
  O  O73  1  0.32804332  0.33167815  0.98023553  1
  O  O74  1  0.32846584  0.33395836  0.48008094  1
  O  O75  1  0.18438349  0.48083239  0.32528441  1
  O  O76  1  0.37938344  0.10017306  0.67608886  1
  O  O77  1  0.32548348  0.18564075  0.33280943  1
  O  O78  1  0.08356727  0.66141772  0.16397960  1
  O  O79  1  0.00001630  0.79131800  0.75001964  1
  O  O80  1  0.00761127  0.75729630  0.93137527  1
  O  O81  1  0.09460989  0.52327011  0.67701962  1
  O  O82  1  0.18348841  0.32842497  0.82984817  1
  O  O83  1  0.09489106  0.38338104  0.17562281  1
  O  O84  1  0.25146994  0.08426801  0.15706701  1
  O  O85  1  0.24128135  0.00066122  0.93243264  1
  O  O86  1  0.20891334  0.00051082  0.75013133  1
  O  O87  1  0.08094902  0.25544334  0.66039843  1
  O  O88  1  0.00304335  0.24074087  0.43237850  1
  O  O89  1  0.00005107  0.20934349  0.25003193  1
