# generated using pymatgen
data_Li9Mn7V12O48
_symmetry_space_group_name_H-M   'P 1'
_cell_length_a   5.02933568
_cell_length_b   10.20009917
_cell_length_c   17.15220118
_cell_angle_alpha   90.02997908
_cell_angle_beta   89.42363832
_cell_angle_gamma   89.95569456
_symmetry_Int_Tables_number   1
_chemical_formula_structural   Li9Mn7V12O48
_chemical_formula_sum   'Li9 Mn7 V12 O48'
_cell_volume   879.85825796
_cell_formula_units_Z   1
loop_
 _symmetry_equiv_pos_site_id
 _symmetry_equiv_pos_as_xyz
  1  'x, y, z'
loop_
 _atom_site_type_symbol
 _atom_site_label
 _atom_site_symmetry_multiplicity
 _atom_site_fract_x
 _atom_site_fract_y
 _atom_site_fract_z
 _atom_site_occupancy
  Li  Li0  1  0.09735060  0.25053286  0.25066657  1
  Li  Li1  1  0.24777710  0.41747071  0.96769019  1
  Li  Li2  1  0.25714531  0.57955623  0.47205997  1
  Li  Li3  1  0.25865024  0.92059150  0.47246916  1
  Li  Li4  1  0.24493376  0.25535324  0.80420336  1
  Li  Li5  1  0.74851960  0.75328832  0.19176508  1
  Li  Li6  1  0.75388940  0.91870392  0.02937627  1
  Li  Li7  1  0.75260638  0.25270004  0.70090580  1
  Li  Li8  1  0.90216744  0.75018904  0.74852490  1
  Mn  Mn9  1  0.20361524  0.75143845  0.30038570  1
  Mn  Mn10  1  0.23785080  0.06527550  0.97456777  1
  Mn  Mn11  1  0.40396631  0.74932537  0.75053115  1
  Mn  Mn12  1  0.59726223  0.24965854  0.24849138  1
  Mn  Mn13  1  0.76001644  0.06788218  0.52751377  1
  Mn  Mn14  1  0.75822423  0.43258341  0.52733332  1
  Mn  Mn15  1  0.76397994  0.56658307  0.02253200  1
  V  V16  1  0.22533909  0.74713235  0.94356951  1
  V  V17  1  0.22529554  0.02853269  0.65503714  1
  V  V18  1  0.22410409  0.47152736  0.65479512  1
  V  V19  1  0.28867425  0.52491742  0.15309391  1
  V  V20  1  0.28574659  0.97559037  0.15715504  1
  V  V21  1  0.28765892  0.25027342  0.44378920  1
  V  V22  1  0.71239417  0.75040301  0.55899830  1
  V  V23  1  0.71644171  0.47507375  0.84189634  1
  V  V24  1  0.71307102  0.02474777  0.84634610  1
  V  V25  1  0.77338034  0.52779104  0.34348743  1
  V  V26  1  0.77544606  0.97297700  0.34394854  1
  V  V27  1  0.77299686  0.24750336  0.05567274  1
  O  O28  1  0.06298445  0.23360881  0.99522969  1
  O  O29  1  0.06593503  0.61486414  0.36870277  1
  O  O30  1  0.06635961  0.88422695  0.37024769  1
  O  O31  1  0.10516066  0.62610747  0.21277243  1
  O  O32  1  0.08663794  0.87548008  0.21650444  1
  O  O33  1  0.07915712  0.11906082  0.46586502  1
  O  O34  1  0.07821135  0.38091212  0.46600422  1
  O  O35  1  0.08704656  0.01124873  0.07373400  1
  O  O36  1  0.06986808  0.49344497  0.07482308  1
  O  O37  1  0.17270500  0.74735012  0.84273584  1
  O  O38  1  0.17566559  0.62393017  0.70381899  1
  O  O39  1  0.17324622  0.87812222  0.70465669  1
  O  O40  1  0.36455445  0.12298957  0.20772227  1
  O  O41  1  0.36508376  0.37979523  0.20374785  1
  O  O42  1  0.36802269  0.25146569  0.34463663  1
  O  O43  1  0.43845326  0.49829640  0.57273553  1
  O  O44  1  0.44151884  0.00279499  0.57332244  1
  O  O45  1  0.40047233  0.89145153  0.96616285  1
  O  O46  1  0.44780159  0.62403079  0.96758238  1
  O  O47  1  0.39662056  0.12571204  0.71234288  1
  O  O48  1  0.40621306  0.37404013  0.70857476  1
  O  O49  1  0.41960180  0.11102298  0.88031705  1
  O  O50  1  0.44794564  0.38754476  0.87046241  1
  O  O51  1  0.44963879  0.75011879  0.49970046  1
  O  O52  1  0.58342760  0.25024706  0.50868540  1
  O  O53  1  0.57602301  0.60971444  0.12077151  1
  O  O54  1  0.55660238  0.89112615  0.12948094  1
  O  O55  1  0.57070512  0.62606437  0.29160921  1
  O  O56  1  0.56776485  0.87514426  0.29441127  1
  O  O57  1  0.55464899  0.12367492  0.03233358  1
  O  O58  1  0.59983442  0.39217626  0.03407304  1
  O  O59  1  0.59695874  0.01551621  0.42967503  1
  O  O60  1  0.59551138  0.48525186  0.42923804  1
  O  O61  1  0.62750195  0.75177124  0.65831077  1
  O  O62  1  0.63399893  0.62416810  0.79212910  1
  O  O63  1  0.63318740  0.87890499  0.79628056  1
  O  O64  1  0.82809000  0.12244323  0.29238055  1
  O  O65  1  0.82857328  0.37987341  0.29121348  1
  O  O66  1  0.82480789  0.24697258  0.15782678  1
  O  O67  1  0.91983972  0.51262984  0.92832125  1
  O  O68  1  0.93175202  0.99169623  0.92710177  1
  O  O69  1  0.90810622  0.60587148  0.53748084  1
  O  O70  1  0.90920430  0.89436940  0.53728638  1
  O  O71  1  0.89094419  0.12055740  0.78815684  1
  O  O72  1  0.91762328  0.38224697  0.78535132  1
  O  O73  1  0.92615964  0.11216000  0.62170020  1
  O  O74  1  0.92518940  0.38786868  0.62101833  1
  O  O75  1  0.93614227  0.73433246  0.00595268  1
