# generated using pymatgen
data_Li5Mn6(BO3)6
_symmetry_space_group_name_H-M   'P 1'
_cell_length_a   8.29394610
_cell_length_b   10.41850428
_cell_length_c   10.41850376
_cell_angle_alpha   104.52305964
_cell_angle_beta   113.19058722
_cell_angle_gamma   66.80941954
_symmetry_Int_Tables_number   1
_chemical_formula_structural   Li5Mn6(BO3)6
_chemical_formula_sum   'Li10 Mn12 B12 O36'
_cell_volume   755.76779185
_cell_formula_units_Z   2
loop_
 _symmetry_equiv_pos_site_id
 _symmetry_equiv_pos_as_xyz
  1  'x, y, z'
loop_
 _atom_site_type_symbol
 _atom_site_label
 _atom_site_symmetry_multiplicity
 _atom_site_fract_x
 _atom_site_fract_y
 _atom_site_fract_z
 _atom_site_occupancy
  Li  Li0  1  0.29780307  0.48699112  0.76814365  1
  Li  Li1  1  0.98219783  0.02497386  0.72502614  1
  Li  Li2  1  0.98392823  0.27370902  0.97490379  1
  Li  Li3  1  0.29780307  0.98185635  0.26300888  1
  Li  Li4  1  0.29749570  0.73549279  0.01450721  1
  Li  Li5  1  0.71973858  0.11566546  0.13377341  1
  Li  Li6  1  0.71973858  0.61622659  0.63433454  1
  Li  Li7  1  0.71283349  0.36632388  0.38367612  1
  Li  Li8  1  0.97626809  0.52566955  0.22433045  1
  Li  Li9  1  0.98392823  0.77509621  0.47629098  1
  Mn  Mn10  1  0.00299240  0.56780441  0.93436193  1
  Mn  Mn11  1  0.01877365  0.06899731  0.43230737  1
  Mn  Mn12  1  0.01877365  0.31769263  0.68100269  1
  Mn  Mn13  1  0.37392699  0.00533012  0.99389987  1
  Mn  Mn14  1  0.62925548  0.17575275  0.81949086  1
  Mn  Mn15  1  0.00299240  0.81563807  0.18219559  1
  Mn  Mn16  1  0.35743964  0.25186154  0.25134440  1
  Mn  Mn17  1  0.35743964  0.49865560  0.49813846  1
  Mn  Mn18  1  0.37392699  0.75610013  0.74466988  1
  Mn  Mn19  1  0.62925548  0.93050914  0.57424725  1
  Mn  Mn20  1  0.62150777  0.42975814  0.06943133  1
  Mn  Mn21  1  0.62150777  0.68056867  0.32024186  1
  B  B22  1  0.33246789  0.04316861  0.70683139  1
  B  B23  1  0.33404325  0.28880270  0.95711147  1
  B  B24  1  0.00985931  0.00362502  0.00521296  1
  B  B25  1  0.00985931  0.74478704  0.74637498  1
  B  B26  1  0.32600699  0.54097098  0.20902902  1
  B  B27  1  0.33404325  0.79288853  0.46119730  1
  B  B28  1  0.66903594  0.45541556  0.79147937  1
  B  B29  1  0.67807423  0.20490300  0.54509700  1
  B  B30  1  0.65974994  0.70715202  0.04284798  1
  B  B31  1  0.99018762  0.25037131  0.24134170  1
  B  B32  1  0.99018762  0.50865830  0.49962869  1
  B  B33  1  0.66903594  0.95852063  0.29458444  1
  O  O34  1  0.21432243  0.13829562  0.61170438  1
  O  O35  1  0.22090621  0.38898392  0.86455874  1
  O  O36  1  0.17875341  0.18282244  0.28347862  1
  O  O37  1  0.17875341  0.46652138  0.56717756  1
  O  O38  1  0.20398393  0.69843413  0.80796428  1
  O  O39  1  0.52310726  0.00611276  0.74388724  1
  O  O40  1  0.52727435  0.24698249  0.99474687  1
  O  O41  1  0.24720804  0.48339440  0.26660560  1
  O  O42  1  0.25979820  0.98168523  0.76831477  1
  O  O43  1  0.58334604  0.40000394  0.84434566  1
  O  O44  1  0.25689278  0.22860562  0.01360598  1
  O  O45  1  0.25689278  0.73639402  0.52139438  1
  O  O46  1  0.61676890  0.14086470  0.60913530  1
  O  O47  1  0.54169670  0.80334260  0.94665740  1
  O  O48  1  0.22090621  0.88544126  0.36101608  1
  O  O49  1  0.21372088  0.63810525  0.11189475  1
  O  O50  1  0.55712232  0.30099421  0.44900579  1
  O  O51  1  0.55935416  0.05273207  0.19399451  1
  O  O52  1  0.55935416  0.55600549  0.69726793  1
  O  O53  1  0.92287071  0.09833608  0.90421872  1
  O  O54  1  0.20398393  0.94203572  0.05156587  1
  O  O55  1  0.51880357  0.50100296  0.24899704  1
  O  O56  1  0.52727435  0.75525313  0.50301751  1
  O  O57  1  0.86099465  0.41257950  0.83087203  1
  O  O58  1  0.86873958  0.17035640  0.57964360  1
  O  O59  1  0.87566398  0.21716423  0.28780353  1
  O  O60  1  0.87566398  0.46219647  0.53283577  1
  O  O61  1  0.90568648  0.68919561  0.77700304  1
  O  O62  1  0.57893164  0.65073100  0.09926900  1
  O  O63  1  0.58334604  0.90565434  0.34999606  1
  O  O64  1  0.90936125  0.35255368  0.14804193  1
  O  O65  1  0.90936125  0.60195807  0.39744632  1
  O  O66  1  0.92287071  0.84578128  0.65166392  1
  O  O67  1  0.85114458  0.66739604  0.08260396  1
  O  O68  1  0.86099465  0.91912797  0.33742050  1
  O  O69  1  0.90568648  0.97299696  0.06080439  1
