# generated using pymatgen
data_LiFeP3(H7O8)2
_symmetry_space_group_name_H-M   'P 1'
_cell_length_a   7.50737711
_cell_length_b   10.90160481
_cell_length_c   9.01698624
_cell_angle_alpha   107.94075578
_cell_angle_beta   108.87351632
_cell_angle_gamma   79.89314457
_symmetry_Int_Tables_number   1
_chemical_formula_structural   LiFeP3(H7O8)2
_chemical_formula_sum   'Li2 Fe2 P6 H28 O32'
_cell_volume   661.97915808
_cell_formula_units_Z   2
loop_
 _symmetry_equiv_pos_site_id
 _symmetry_equiv_pos_as_xyz
  1  'x, y, z'
loop_
 _atom_site_type_symbol
 _atom_site_label
 _atom_site_symmetry_multiplicity
 _atom_site_fract_x
 _atom_site_fract_y
 _atom_site_fract_z
 _atom_site_occupancy
  Li  Li0  1  0.99020659  0.50843722  0.48694065  1
  Li  Li1  1  0.40932256  0.60994987  0.36238815  1
  Fe  Fe2  1  0.99974842  0.99989375  0.99899607  1
  Fe  Fe3  1  0.58305245  0.40428628  0.62821065  1
  P  P4  1  0.15496150  0.20017957  0.86673872  1
  P  P5  1  0.04031865  0.78713577  0.47026825  1
  P  P6  1  0.29525862  0.92723474  0.77174020  1
  P  P7  1  0.70571313  0.07033050  0.22639640  1
  P  P8  1  0.95502316  0.21254182  0.53218012  1
  P  P9  1  0.84707015  0.79770553  0.13224560  1
  H  H10  1  0.09080144  0.28006509  0.34015300  1
  H  H11  1  0.04816207  0.31646455  0.17626581  1
  H  H12  1  0.28433852  0.39153503  0.73149892  1
  H  H13  1  0.19725620  0.06867363  0.32554514  1
  H  H14  1  0.29904609  0.74890382  0.92079259  1
  H  H15  1  0.32298208  0.53707421  0.77333713  1
  H  H16  1  0.49289321  0.67756991  0.00148985  1
  H  H17  1  0.33970610  0.05887045  0.22493069  1
  H  H18  1  0.41549514  0.18568362  0.60016129  1
  H  H19  1  0.30064810  0.37869393  0.35160952  1
  H  H20  1  0.22100192  0.47401306  0.05205252  1
  H  H21  1  0.62711718  0.13986783  0.68621388  1
  H  H22  1  0.26066168  0.61266606  0.06873481  1
  H  H23  1  0.48346873  0.29747454  0.31263087  1
  H  H24  1  0.51357088  0.68631129  0.68889775  1
  H  H25  1  0.73221352  0.38772675  0.93423580  1
  H  H26  1  0.37708217  0.86088641  0.31293106  1
  H  H27  1  0.77376726  0.52715143  0.94371841  1
  H  H28  1  0.70605332  0.62274609  0.65396242  1
  H  H29  1  0.58537130  0.81599771  0.40217057  1
  H  H30  1  0.65892421  0.94201803  0.77393019  1
  H  H31  1  0.50700558  0.32209568  0.99692518  1
  H  H32  1  0.68103626  0.46621150  0.23414801  1
  H  H33  1  0.70114970  0.25006715  0.07574251  1
  H  H34  1  0.80119809  0.93197781  0.67321024  1
  H  H35  1  0.71912327  0.60944949  0.27369668  1
  H  H36  1  0.95525760  0.68561227  0.82448061  1
  H  H37  1  0.91034573  0.72146839  0.66007965  1
  O  O38  1  0.07578957  0.18209181  0.99107386  1
  O  O39  1  0.24790855  0.32085983  0.89878811  1
  O  O40  1  0.14058674  0.19541239  0.49230574  1
  O  O41  1  0.31027447  0.08116045  0.82256255  1
  O  O42  1  0.07604499  0.35461557  0.29507277  1
  O  O43  1  0.18660754  0.89452324  0.86824395  1
  O  O44  1  0.01344713  0.82013980  0.30094315  1
  O  O45  1  0.14897440  0.65858449  0.47227545  1
  O  O46  1  0.31115236  0.45392638  0.68413746  1
  O  O47  1  0.23734131  0.01338113  0.22963476  1
  O  O48  1  0.35865608  0.66482529  0.94096621  1
  O  O49  1  0.16827851  0.90614155  0.58520604  1
  O  O50  1  0.23204016  0.56055328  0.12936377  1
  O  O51  1  0.54722472  0.20727847  0.63660297  1
  O  O52  1  0.44145600  0.38152165  0.38021175  1
  O  O53  1  0.48949278  0.86183799  0.78225898  1
  O  O54  1  0.51108735  0.13584936  0.21587891  1
  O  O55  1  0.57023922  0.60583120  0.62780535  1
  O  O56  1  0.45384498  0.79362576  0.36315518  1
  O  O57  1  0.76013617  0.43831465  0.86990369  1
  O  O58  1  0.83150135  0.09294329  0.41401174  1
  O  O59  1  0.64269658  0.33332893  0.05207623  1
  O  O60  1  0.76019163  0.98855021  0.76900010  1
  O  O61  1  0.70810321  0.54556292  0.32603716  1
  O  O62  1  0.83943602  0.33996944  0.53431564  1
  O  O63  1  0.98453344  0.17675527  0.69947651  1
  O  O64  1  0.81420977  0.10534232  0.13176141  1
  O  O65  1  0.92810511  0.64686426  0.70586902  1
  O  O66  1  0.69071471  0.91728216  0.17622808  1
  O  O67  1  0.85436357  0.81195123  0.51128171  1
  O  O68  1  0.75206708  0.67698849  0.09395855  1
  O  O69  1  0.92714393  0.81901739  0.00993929  1
