# generated using pymatgen
data_Li2V2(SO4)3
_symmetry_space_group_name_H-M   'P 1'
_cell_length_a   8.78587722
_cell_length_b   8.90338981
_cell_length_c   24.38849105
_cell_angle_alpha   90.00000000
_cell_angle_beta   90.00000000
_cell_angle_gamma   90.00000000
_symmetry_Int_Tables_number   1
_chemical_formula_structural   Li2V2(SO4)3
_chemical_formula_sum   'Li16 V16 S24 O96'
_cell_volume   1907.76751185
_cell_formula_units_Z   8
loop_
 _symmetry_equiv_pos_site_id
 _symmetry_equiv_pos_as_xyz
  1  'x, y, z'
loop_
 _atom_site_type_symbol
 _atom_site_label
 _atom_site_symmetry_multiplicity
 _atom_site_fract_x
 _atom_site_fract_y
 _atom_site_fract_z
 _atom_site_occupancy
  Li  Li0  1  0.03723310  0.62237513  0.29070455  1
  Li  Li1  1  0.03723310  0.87762487  0.79070455  1
  Li  Li2  1  0.14428112  0.93160045  0.00950391  1
  Li  Li3  1  0.14428112  0.56839955  0.50950391  1
  Li  Li4  1  0.35571888  0.06839955  0.50950391  1
  Li  Li5  1  0.35571888  0.43160045  0.00950391  1
  Li  Li6  1  0.46276690  0.12237513  0.29070455  1
  Li  Li7  1  0.46276690  0.37762487  0.79070455  1
  Li  Li8  1  0.53723310  0.62237513  0.20929545  1
  Li  Li9  1  0.53723310  0.87762487  0.70929545  1
  Li  Li10  1  0.64428112  0.56839955  0.99049609  1
  Li  Li11  1  0.64428112  0.93160045  0.49049609  1
  Li  Li12  1  0.85571888  0.43160045  0.49049609  1
  Li  Li13  1  0.85571888  0.06839955  0.99049609  1
  Li  Li14  1  0.96276690  0.12237513  0.20929545  1
  Li  Li15  1  0.96276690  0.37762487  0.70929545  1
  V  V16  1  0.00329217  0.40035543  0.06281566  1
  V  V17  1  0.00329217  0.09964457  0.56281566  1
  V  V18  1  0.99831059  0.79652558  0.17947232  1
  V  V19  1  0.99831059  0.70347442  0.67947232  1
  V  V20  1  0.50168941  0.29652558  0.17947232  1
  V  V21  1  0.50168941  0.20347442  0.67947232  1
  V  V22  1  0.49670783  0.59964457  0.56281566  1
  V  V23  1  0.49670783  0.90035543  0.06281566  1
  V  V24  1  0.50329217  0.40035543  0.43718434  1
  V  V25  1  0.50329217  0.09964457  0.93718434  1
  V  V26  1  0.49831059  0.70347442  0.82052768  1
  V  V27  1  0.49831059  0.79652558  0.32052768  1
  V  V28  1  0.00168941  0.29652558  0.32052768  1
  V  V29  1  0.00168941  0.20347442  0.82052768  1
  V  V30  1  0.99670783  0.90035543  0.43718434  1
  V  V31  1  0.99670783  0.59964457  0.93718434  1
  S  S32  1  0.14410692  0.94670045  0.29952931  1
  S  S33  1  0.14410692  0.55329955  0.79952931  1
  S  S34  1  0.14863170  0.25410294  0.44797166  1
  S  S35  1  0.14863170  0.24589706  0.94797166  1
  S  S36  1  0.19499545  0.09312483  0.11632622  1
  S  S37  1  0.19499545  0.40687517  0.61632622  1
  S  S38  1  0.30500455  0.59312483  0.11632622  1
  S  S39  1  0.30500455  0.90687517  0.61632622  1
  S  S40  1  0.35136830  0.75410294  0.44797166  1
  S  S41  1  0.35136830  0.74589706  0.94797166  1
  S  S42  1  0.35589308  0.44670045  0.29952931  1
  S  S43  1  0.35589308  0.05329955  0.79952931  1
  S  S44  1  0.64410692  0.55329955  0.70047069  1
  S  S45  1  0.64410692  0.94670045  0.20047069  1
  S  S46  1  0.64863170  0.25410294  0.05202834  1
  S  S47  1  0.64863170  0.24589706  0.55202834  1
  S  S48  1  0.69499545  0.09312483  0.38367378  1
  S  S49  1  0.69499545  0.40687517  0.88367378  1
  S  S50  1  0.80500455  0.59312483  0.38367378  1
  S  S51  1  0.80500455  0.90687517  0.88367378  1
  S  S52  1  0.85136830  0.75410294  0.05202834  1
  S  S53  1  0.85136830  0.74589706  0.55202834  1
  S  S54  1  0.85589308  0.44670045  0.20047069  1
  S  S55  1  0.85589308  0.05329955  0.70047069  1
  O  O56  1  0.06524020  0.38948245  0.46566750  1
  O  O57  1  0.06524020  0.11051755  0.96566750  1
  O  O58  1  0.08260705  0.09253481  0.27874750  1
  O  O59  1  0.08260705  0.40746519  0.77874750  1
  O  O60  1  0.08435385  0.11376596  0.47590381  1
  O  O61  1  0.08435385  0.38623404  0.97590381  1
  O  O62  1  0.08897912  0.91323908  0.35479477  1
  O  O63  1  0.08897912  0.58676092  0.85479477  1
  O  O64  1  0.09432804  0.18853126  0.08306502  1
  O  O65  1  0.09432804  0.31146874  0.58306502  1
  O  O66  1  0.09387111  0.82266230  0.26206413  1
  O  O67  1  0.09387111  0.67733770  0.76206413  1
  O  O68  1  0.09801283  0.01034733  0.15691771  1
  O  O69  1  0.09801283  0.48965267  0.65691771  1
  O  O70  1  0.13973383  0.23137321  0.38854575  1
  O  O71  1  0.13973383  0.26862679  0.88854575  1
  O  O72  1  0.18588085  0.45512589  0.29774164  1
  O  O73  1  0.18588085  0.04487411  0.79774164  1
  O  O74  1  0.18964669  0.67880992  0.14634233  1
  O  O75  1  0.18964669  0.82119008  0.64634233  1
  O  O76  1  0.18957615  0.76319161  0.46651289  1
  O  O77  1  0.18957615  0.73680839  0.96651289  1
  O  O78  1  0.23164672  0.01677546  0.57764264  1
  O  O79  1  0.23164672  0.48322454  0.07764264  1
  O  O80  1  0.26835328  0.98322454  0.07764264  1
  O  O81  1  0.26835328  0.51677546  0.57764264  1
  O  O82  1  0.31042385  0.23680839  0.96651289  1
  O  O83  1  0.31042385  0.26319161  0.46651289  1
  O  O84  1  0.31035331  0.17880992  0.14634233  1
  O  O85  1  0.31035331  0.32119008  0.64634233  1
  O  O86  1  0.31411915  0.95512589  0.29774164  1
  O  O87  1  0.31411915  0.54487411  0.79774164  1
  O  O88  1  0.36026617  0.73137321  0.38854575  1
  O  O89  1  0.36026617  0.76862679  0.88854575  1
  O  O90  1  0.40198717  0.51034733  0.15691771  1
  O  O91  1  0.40198717  0.98965267  0.65691771  1
  O  O92  1  0.40612889  0.32266230  0.26206413  1
  O  O93  1  0.40612889  0.17733770  0.76206413  1
  O  O94  1  0.40567196  0.68853126  0.08306502  1
  O  O95  1  0.40567196  0.81146874  0.58306502  1
  O  O96  1  0.41102088  0.08676092  0.85479477  1
  O  O97  1  0.41102088  0.41323908  0.35479477  1
  O  O98  1  0.41564615  0.61376596  0.47590381  1
  O  O99  1  0.41564615  0.88623404  0.97590381  1
  O  O100  1  0.41739295  0.59253481  0.27874750  1
  O  O101  1  0.41739295  0.90746519  0.77874750  1
  O  O102  1  0.43475980  0.61051755  0.96566750  1
  O  O103  1  0.43475980  0.88948245  0.46566750  1
  O  O104  1  0.56524020  0.38948245  0.03433250  1
  O  O105  1  0.56524020  0.11051755  0.53433250  1
  O  O106  1  0.58260705  0.09253481  0.22125250  1
  O  O107  1  0.58260705  0.40746519  0.72125250  1
  O  O108  1  0.58435385  0.11376596  0.02409619  1
  O  O109  1  0.58435385  0.38623404  0.52409619  1
  O  O110  1  0.58897912  0.58676092  0.64520523  1
  O  O111  1  0.58897912  0.91323908  0.14520523  1
  O  O112  1  0.59432804  0.18853126  0.41693498  1
  O  O113  1  0.59432804  0.31146874  0.91693498  1
  O  O114  1  0.59387111  0.82266230  0.23793587  1
  O  O115  1  0.59387111  0.67733770  0.73793587  1
  O  O116  1  0.59801283  0.01034733  0.34308229  1
  O  O117  1  0.59801283  0.48965267  0.84308229  1
  O  O118  1  0.63973483  0.23137321  0.11145425  1
  O  O119  1  0.63973483  0.26862679  0.61145425  1
  O  O120  1  0.68588085  0.45512589  0.20225836  1
  O  O121  1  0.68588085  0.04487411  0.70225836  1
  O  O122  1  0.68964669  0.67880992  0.35365767  1
  O  O123  1  0.68964669  0.82119008  0.85365767  1
  O  O124  1  0.68957615  0.76319161  0.03348711  1
  O  O125  1  0.68957615  0.73680839  0.53348711  1
  O  O126  1  0.73164672  0.48322454  0.42235736  1
  O  O127  1  0.73164672  0.01677546  0.92235736  1
  O  O128  1  0.76835328  0.98322454  0.42235736  1
  O  O129  1  0.76835328  0.51677546  0.92235736  1
  O  O130  1  0.81042385  0.26319161  0.03348711  1
  O  O131  1  0.81042385  0.23680839  0.53348711  1
  O  O132  1  0.81035331  0.17880992  0.35365767  1
  O  O133  1  0.81035331  0.32119008  0.85365767  1
  O  O134  1  0.81411915  0.54487411  0.70225836  1
  O  O135  1  0.81411915  0.95512589  0.20225836  1
  O  O136  1  0.86026517  0.73137321  0.11145425  1
  O  O137  1  0.86026517  0.76862679  0.61145425  1
  O  O138  1  0.90198717  0.51034733  0.34308229  1
  O  O139  1  0.90198717  0.98965267  0.84308229  1
  O  O140  1  0.90612889  0.32266230  0.23793587  1
  O  O141  1  0.90612889  0.17733770  0.73793587  1
  O  O142  1  0.90567196  0.68853126  0.41693498  1
  O  O143  1  0.90567196  0.81146874  0.91693498  1
  O  O144  1  0.91102088  0.41323908  0.14520523  1
  O  O145  1  0.91102088  0.08676092  0.64520523  1
  O  O146  1  0.91564615  0.61376596  0.02409619  1
  O  O147  1  0.91564615  0.88623404  0.52409619  1
  O  O148  1  0.91739295  0.59253481  0.22125250  1
  O  O149  1  0.91739295  0.90746519  0.72125250  1
  O  O150  1  0.93475980  0.61051755  0.53433250  1
  O  O151  1  0.93475980  0.88948245  0.03433250  1
