# generated using pymatgen
data_Li5Mn6(BO3)6
_symmetry_space_group_name_H-M   'P 1'
_cell_length_a   6.36321599
_cell_length_b   14.28378689
_cell_length_c   8.90657303
_cell_angle_alpha   90.13412335
_cell_angle_beta   110.92957818
_cell_angle_gamma   90.00000000
_symmetry_Int_Tables_number   1
_chemical_formula_structural   Li5Mn6(BO3)6
_chemical_formula_sum   'Li10 Mn12 B12 O36'
_cell_volume   756.11100638
_cell_formula_units_Z   2
loop_
 _symmetry_equiv_pos_site_id
 _symmetry_equiv_pos_as_xyz
  1  'x, y, z'
loop_
 _atom_site_type_symbol
 _atom_site_label
 _atom_site_symmetry_multiplicity
 _atom_site_fract_x
 _atom_site_fract_y
 _atom_site_fract_z
 _atom_site_occupancy
  Li  Li0  1  0.89493950  0.99080801  0.28987800  1
  Li  Li1  1  0.92025194  0.35925465  0.34050388  1
  Li  Li2  1  0.42061279  0.35967577  0.34122459  1
  Li  Li3  1  0.43384877  0.64911320  0.36769855  1
  Li  Li4  1  0.93389261  0.64987184  0.36778521  1
  Li  Li5  1  0.14450396  0.49119102  0.78900791  1
  Li  Li6  1  0.17024785  0.85910069  0.84049669  1
  Li  Li7  1  0.67061378  0.85989955  0.84122756  1
  Li  Li8  1  0.18347323  0.14871579  0.86694746  1
  Li  Li9  1  0.68424329  0.15038456  0.86848757  1
  Mn  Mn10  1  0.06044000  0.50571674  0.12585185  1
  Mn  Mn11  1  0.56541184  0.50571674  0.12585185  1
  Mn  Mn12  1  0.09166745  0.81813194  0.17946266  1
  Mn  Mn13  1  0.58779420  0.81813194  0.17946266  1
  Mn  Mn14  1  0.59400338  0.17536646  0.19432902  1
  Mn  Mn15  1  0.10032463  0.17536646  0.19432902  1
  Mn  Mn16  1  0.31519542  0.00573865  0.62601253  1
  Mn  Mn17  1  0.81081611  0.00573865  0.62601253  1
  Mn  Mn18  1  0.34204686  0.31817513  0.67979669  1
  Mn  Mn19  1  0.83774882  0.31817513  0.67979669  1
  Mn  Mn20  1  0.35051918  0.67539091  0.69442004  1
  Mn  Mn21  1  0.84390185  0.67539091  0.69442004  1
  B  B22  1  0.99415575  0.99978000  0.99569199  1
  B  B23  1  0.50153624  0.99978000  0.99569199  1
  B  B24  1  0.25019985  0.33259577  0.00039870  1
  B  B25  1  0.75339651  0.33060504  0.00679301  1
  B  B26  1  0.25041955  0.66706058  0.00083910  1
  B  B27  1  0.75116323  0.67002771  0.00232746  1
  B  B28  1  0.24368933  0.49985902  0.49560663  1
  B  B29  1  0.75191730  0.49985902  0.49560663  1
  B  B30  1  0.00077911  0.16682301  0.50155822  1
  B  B31  1  0.50074180  0.17021514  0.50148459  1
  B  B32  1  0.00128604  0.83134258  0.50257208  1
  B  B33  1  0.50211049  0.83191721  0.50421998  1
  O  O34  1  0.76614054  0.42602283  0.03228108  1
  O  O35  1  0.25584629  0.42990106  0.01169358  1
  O  O36  1  0.76196148  0.76698576  0.02392195  1
  O  O37  1  0.25985297  0.76362023  0.01970495  1
  O  O38  1  0.31775043  0.60858846  0.13549985  1
  O  O39  1  0.81830662  0.61076938  0.13661323  1
  O  O40  1  0.31903289  0.27839238  0.13806678  1
  O  O41  1  0.82016302  0.27183628  0.14032703  1
  O  O42  1  0.05405814  0.95843834  0.14366616  1
  O  O43  1  0.58960802  0.95843834  0.14366616  1
  O  O44  1  0.42450844  0.13294765  0.34901589  1
  O  O45  1  0.92461418  0.12586846  0.34922835  1
  O  O46  1  0.42559659  0.79263158  0.35119417  1
  O  O47  1  0.92571080  0.79040953  0.35142260  1
  O  O48  1  0.18002068  0.44529219  0.35523415  1
  O  O49  1  0.67521347  0.44529219  0.35523415  1
  O  O50  1  0.74144003  0.59774427  0.48190531  1
  O  O51  1  0.24046528  0.59774427  0.48190531  1
  O  O52  1  0.51460657  0.92725247  0.52921314  1
  O  O53  1  0.00723209  0.92876161  0.51446417  1
  O  O54  1  0.01001698  0.26321464  0.52003396  1
  O  O55  1  0.51180962  0.26732773  0.52361924  1
  O  O56  1  0.06819387  0.10816589  0.63638875  1
  O  O57  1  0.56791114  0.11112122  0.63582228  1
  O  O58  1  0.06999905  0.77648050  0.63999710  1
  O  O59  1  0.56906623  0.77379721  0.63813146  1
  O  O60  1  0.30330158  0.45845664  0.64343407  1
  O  O61  1  0.84013349  0.45845664  0.64343407  1
  O  O62  1  0.17393454  0.62680720  0.84786908  1
  O  O63  1  0.67515393  0.63217987  0.85030887  1
  O  O64  1  0.17474946  0.29081378  0.84949891  1
  O  O65  1  0.67673391  0.29215735  0.85346683  1
  O  O66  1  0.93016847  0.94512549  0.85537253  1
  O  O67  1  0.42520506  0.94512549  0.85537253  1
  O  O68  1  0.49074100  0.09761913  0.98181748  1
  O  O69  1  0.99107548  0.09761913  0.98181748  1
