# generated using pymatgen
data_CaFe2(AsO5)2
_symmetry_space_group_name_H-M   'P 1'
_cell_length_a   7.63424532
_cell_length_b   9.07516525
_cell_length_c   11.99909493
_cell_angle_alpha   90.00000000
_cell_angle_beta   90.00000000
_cell_angle_gamma   114.87322644
_symmetry_Int_Tables_number   1
_chemical_formula_structural   CaFe2(AsO5)2
_chemical_formula_sum   'Ca4 Fe8 As8 O40'
_cell_volume   754.20889211
_cell_formula_units_Z   4
loop_
 _symmetry_equiv_pos_site_id
 _symmetry_equiv_pos_as_xyz
  1  'x, y, z'
loop_
 _atom_site_type_symbol
 _atom_site_label
 _atom_site_symmetry_multiplicity
 _atom_site_fract_x
 _atom_site_fract_y
 _atom_site_fract_z
 _atom_site_occupancy
  Ca  Ca0  1  -0.00000000  -0.00000000  0.25000000  1
  Ca  Ca1  1  -0.00000000  -0.00000000  0.75000000  1
  Ca  Ca2  1  0.50000000  0.50000000  0.50000000  1
  Ca  Ca3  1  -0.00000000  0.50000000  -0.00000000  1
  Fe  Fe4  1  0.24491300  0.75713136  0.36906823  1
  Fe  Fe5  1  0.75508700  0.24286864  0.36906823  1
  Fe  Fe6  1  0.48778164  0.24286864  0.13093177  1
  Fe  Fe7  1  0.51221836  0.75713136  0.13093177  1
  Fe  Fe8  1  0.75508700  0.24286864  0.63093177  1
  Fe  Fe9  1  0.24491300  0.75713136  0.63093177  1
  Fe  Fe10  1  0.51221836  0.75713136  0.86906823  1
  Fe  Fe11  1  0.48778164  0.24286864  0.86906823  1
  As  As12  1  0.30062883  0.08919707  0.50000000  1
  As  As13  1  0.69937117  0.91080293  0.50000000  1
  As  As14  1  0.21143176  0.91080293  -0.00000000  1
  As  As15  1  0.78856824  0.08919707  -0.00000000  1
  As  As16  1  0.21312277  0.42624554  0.25000000  1
  As  As17  1  0.78687723  0.57375446  0.25000000  1
  As  As18  1  0.78687723  0.57375446  0.75000000  1
  As  As19  1  0.21312277  0.42624554  0.75000000  1
  O  O20  1  0.78912103  0.03360203  0.38455049  1
  O  O21  1  0.21087897  0.96639797  0.38455049  1
  O  O22  1  0.75551900  0.96639797  0.11544951  1
  O  O23  1  0.24448100  0.03360203  0.11544951  1
  O  O24  1  0.21087897  0.96639797  0.61544951  1
  O  O25  1  0.78912103  0.03360203  0.61544951  1
  O  O26  1  0.24448100  0.03360203  0.88455049  1
  O  O27  1  0.75551900  0.96639797  0.88455049  1
  O  O28  1  0.55426237  0.16852089  0.50000000  1
  O  O29  1  0.44573763  0.83147911  0.50000000  1
  O  O30  1  0.38574148  0.83147911  -0.00000000  1
  O  O31  1  0.61425852  0.16852089  -0.00000000  1
  O  O32  1  0.23884843  0.24544626  0.50000000  1
  O  O33  1  0.76115157  0.75455374  0.50000000  1
  O  O34  1  0.99340217  0.75455374  -0.00000000  1
  O  O35  1  0.00659783  0.24544626  -0.00000000  1
  O  O36  1  0.97256663  0.29823947  0.25838339  1
  O  O37  1  0.02743337  0.70176053  0.25838339  1
  O  O38  1  0.67432716  0.70176053  0.24161661  1
  O  O39  1  0.32567284  0.29823947  0.24161661  1
  O  O40  1  0.02743337  0.70176053  0.74161661  1
  O  O41  1  0.97256663  0.29823947  0.74161661  1
  O  O42  1  0.32567284  0.29823947  0.75838339  1
  O  O43  1  0.67432716  0.70176053  0.75838339  1
  O  O44  1  0.29481164  0.55266209  0.36404392  1
  O  O45  1  0.70518836  0.44733791  0.36404392  1
  O  O46  1  0.74214954  0.44733791  0.13595608  1
  O  O47  1  0.25785046  0.55266209  0.13595608  1
  O  O48  1  0.70518836  0.44733791  0.63595608  1
  O  O49  1  0.29481164  0.55266209  0.63595608  1
  O  O50  1  0.25785046  0.55266209  0.86404392  1
  O  O51  1  0.74214954  0.44733791  0.86404392  1
  O  O52  1  0.91419302  0.33273990  0.50000000  1
  O  O53  1  0.08580698  0.66726010  0.50000000  1
  O  O54  1  0.58145311  0.66726010  -0.00000000  1
  O  O55  1  0.41854689  0.33273990  -0.00000000  1
  O  O56  1  0.42451808  0.84903616  0.25000000  1
  O  O57  1  0.57548192  0.15096384  0.25000000  1
  O  O58  1  0.57548192  0.15096384  0.75000000  1
  O  O59  1  0.42451808  0.84903616  0.75000000  1
