# generated using pymatgen
data_Li4Co2OF7
_symmetry_space_group_name_H-M   'P 1'
_cell_length_a   5.99784464
_cell_length_b   5.96635717
_cell_length_c   5.87146789
_cell_angle_alpha   60.52471411
_cell_angle_beta   90.00000000
_cell_angle_gamma   119.93339790
_symmetry_Int_Tables_number   1
_chemical_formula_structural   Li4Co2OF7
_chemical_formula_sum   'Li4 Co2 O1 F7'
_cell_volume   149.88739419
_cell_formula_units_Z   1
loop_
 _symmetry_equiv_pos_site_id
 _symmetry_equiv_pos_as_xyz
  1  'x, y, z'
loop_
 _atom_site_type_symbol
 _atom_site_label
 _atom_site_symmetry_multiplicity
 _atom_site_fract_x
 _atom_site_fract_y
 _atom_site_fract_z
 _atom_site_occupancy
  Li  Li0  1  0.00444953  0.99660015  0.00169992  1
  Li  Li1  1  0.24972814  0.51909635  0.24045182  1
  Li  Li2  1  0.62974537  0.74970434  0.62514783  1
  Li  Li3  1  0.11612208  0.74311236  0.62844432  1
  Co  Co4  1  0.63787510  0.25029438  0.15057325  1
  Co  Co5  1  0.63787510  0.25029438  0.59913237  1
  O  O6  1  0.85239823  0.24191115  0.37904442  1
  F  F7  1  0.36359953  0.23648618  0.38175691  1
  F  F8  1  0.85498362  0.71977504  0.40020260  1
  F  F9  1  0.86808953  0.26028917  0.86985542  1
  F  F10  1  0.41707602  0.25527582  0.87236209  1
  F  F11  1  0.85498362  0.71977504  0.88002335  1
  F  F12  1  0.38153656  0.77869331  0.37723660  1
  F  F13  1  0.38153656  0.77869331  0.84407009  1
