# generated using pymatgen
data_Li47(NiO4)8
_symmetry_space_group_name_H-M   'P 1'
_cell_length_a   9.40227048
_cell_length_b   9.42323896
_cell_length_c   9.16041492
_cell_angle_alpha   90.07056666
_cell_angle_beta   90.01103912
_cell_angle_gamma   89.79372609
_symmetry_Int_Tables_number   1
_chemical_formula_structural   Li47(NiO4)8
_chemical_formula_sum   'Li47 Ni8 O32'
_cell_volume   811.60542001
_cell_formula_units_Z   1
loop_
 _symmetry_equiv_pos_site_id
 _symmetry_equiv_pos_as_xyz
  1  'x, y, z'
loop_
 _atom_site_type_symbol
 _atom_site_label
 _atom_site_symmetry_multiplicity
 _atom_site_fract_x
 _atom_site_fract_y
 _atom_site_fract_z
 _atom_site_occupancy
  Li  Li0  1  0.85166059  0.63539612  0.11700297  1
  Li  Li1  1  0.35182914  0.86706072  0.11998590  1
  Li  Li2  1  0.88470232  0.39586292  0.11631653  1
  Li  Li3  1  0.38660418  0.10587283  0.11522708  1
  Li  Li4  1  0.63514570  0.38755350  0.12150938  1
  Li  Li5  1  0.13964965  0.11268613  0.12145353  1
  Li  Li6  1  0.11798454  0.64867980  0.13378864  1
  Li  Li7  1  0.62171284  0.85775757  0.11672311  1
  Li  Li8  1  0.89379975  0.87438627  0.13390604  1
  Li  Li9  1  0.38773413  0.62200796  0.13762443  1
  Li  Li10  1  0.62826769  0.11836916  0.16116632  1
  Li  Li11  1  0.12469135  0.38233364  0.16049561  1
  Li  Li12  1  0.62529530  0.61934634  0.33327727  1
  Li  Li13  1  0.12576690  0.88323324  0.34084028  1
  Li  Li14  1  0.39192066  0.12896242  0.36518398  1
  Li  Li15  1  0.89172732  0.37221221  0.36625460  1
  Li  Li16  1  0.11956718  0.14878146  0.36683334  1
  Li  Li17  1  0.61897752  0.35261669  0.36712065  1
  Li  Li18  1  0.13853947  0.61444111  0.37996774  1
  Li  Li19  1  0.63817073  0.88510611  0.37877750  1
  Li  Li20  1  0.88554536  0.89304846  0.38385354  1
  Li  Li21  1  0.38610181  0.60745681  0.38601951  1
  Li  Li22  1  0.85293981  0.13133473  0.38446453  1
  Li  Li23  1  0.35232626  0.36961292  0.38301883  1
  Li  Li24  1  0.64874844  0.63019027  0.60357674  1
  Li  Li25  1  0.15121147  0.87046800  0.61749162  1
  Li  Li26  1  0.61647333  0.39113092  0.61594128  1
  Li  Li27  1  0.11294096  0.10769966  0.61599809  1
  Li  Li28  1  0.35913161  0.11643882  0.61786047  1
  Li  Li29  1  0.86194014  0.38617336  0.61998373  1
  Li  Li30  1  0.37975424  0.65168126  0.63361541  1
  Li  Li31  1  0.88525949  0.85202241  0.63226622  1
  Li  Li32  1  0.10903315  0.62938816  0.63451082  1
  Li  Li33  1  0.60894420  0.87456493  0.64976907  1
  Li  Li34  1  0.87359755  0.11718032  0.66115643  1
  Li  Li35  1  0.37347533  0.38155720  0.65874824  1
  Li  Li36  1  0.88025985  0.61466595  0.84083297  1
  Li  Li37  1  0.39215106  0.88428201  0.84566218  1
  Li  Li38  1  0.60881081  0.36402386  0.86812924  1
  Li  Li39  1  0.10716706  0.12883250  0.86686377  1
  Li  Li40  1  0.37818343  0.14841654  0.86386333  1
  Li  Li41  1  0.87975816  0.34773927  0.86465626  1
  Li  Li42  1  0.35826785  0.60958373  0.88173786  1
  Li  Li43  1  0.84597142  0.88580041  0.88126640  1
  Li  Li44  1  0.11547414  0.60849328  0.88490903  1
  Li  Li45  1  0.63888030  0.10318086  0.88455227  1
  Li  Li46  1  0.14605992  0.36991917  0.88393067  1
  Ni  Ni47  1  0.87908121  0.13273671  0.10118925  1
  Ni  Ni48  1  0.37618258  0.36668302  0.09882617  1
  Ni  Ni49  1  0.87740976  0.63125304  0.40131797  1
  Ni  Ni50  1  0.37820098  0.86987982  0.40239707  1
  Ni  Ni51  1  0.62167827  0.13092852  0.59805658  1
  Ni  Ni52  1  0.12236425  0.37038360  0.59842213  1
  Ni  Ni53  1  0.62353239  0.63991252  0.88727732  1
  Ni  Ni54  1  0.12255847  0.86942190  0.89953484  1
  O  O55  1  0.51582520  0.23707611  0.01102533  1
  O  O56  1  0.01551717  0.26478653  0.01082536  1
  O  O57  1  0.74927994  0.99307756  0.02794279  1
  O  O58  1  0.24081742  0.50895464  0.02020119  1
  O  O59  1  0.99282595  0.01960795  0.25090120  1
  O  O60  1  0.48889892  0.47967665  0.24925243  1
  O  O61  1  0.76638718  0.26439664  0.23590681  1
  O  O62  1  0.26485471  0.24000102  0.23605040  1
  O  O63  1  0.76722630  0.75996932  0.26429104  1
  O  O64  1  0.26590136  0.73970901  0.26478470  1
  O  O65  1  0.99027920  0.51916319  0.25119815  1
  O  O66  1  0.48998670  0.98023165  0.24949768  1
  O  O67  1  0.74243120  0.48945838  0.47937719  1
  O  O68  1  0.24124025  0.01132282  0.47949581  1
  O  O69  1  0.01747994  0.76102930  0.49005317  1
  O  O70  1  0.51564780  0.73881707  0.48930036  1
  O  O71  1  0.48308080  0.26396625  0.51039429  1
  O  O72  1  0.98361842  0.23991642  0.51096774  1
  O  O73  1  0.75908589  0.98899800  0.52158083  1
  O  O74  1  0.25828945  0.51100517  0.52128684  1
  O  O75  1  0.50067290  0.02480344  0.73906074  1
  O  O76  1  0.00951212  0.48167935  0.74921711  1
  O  O77  1  0.73456800  0.25897280  0.73599911  1
  O  O78  1  0.23242216  0.24195832  0.73599830  1
  O  O79  1  0.73818103  0.74385490  0.75833694  1
  O  O80  1  0.23755466  0.74016993  0.76624363  1
  O  O81  1  0.51314471  0.52294369  0.75499460  1
  O  O82  1  0.00781270  0.98132259  0.75177443  1
  O  O83  1  0.26022374  0.00779321  0.98156806  1
  O  O84  1  0.74634165  0.50258549  0.97742528  1
  O  O85  1  0.48834327  0.74080236  0.99261284  1
  O  O86  1  0.98346822  0.73866408  0.98807988  1
