# generated using pymatgen
data_La2IrPd
_symmetry_space_group_name_H-M   'P 1'
_cell_length_a   5.13896678
_cell_length_b   5.13887858
_cell_length_c   5.13892107
_cell_angle_alpha   60.00001497
_cell_angle_beta   59.99996977
_cell_angle_gamma   60.00055289
_symmetry_Int_Tables_number   1
_chemical_formula_structural   La2IrPd
_chemical_formula_sum   'La2 Ir1 Pd1'
_cell_volume   95.96279308
_cell_formula_units_Z   1
loop_
 _symmetry_equiv_pos_site_id
 _symmetry_equiv_pos_as_xyz
  1  'x, y, z'
loop_
 _atom_site_type_symbol
 _atom_site_label
 _atom_site_symmetry_multiplicity
 _atom_site_fract_x
 _atom_site_fract_y
 _atom_site_fract_z
 _atom_site_occupancy
  La  La0  1  0.00000007  0.00000154  0.00000038  1
  La  La1  1  0.49999912  0.49999840  0.49999983  1
  Ir  Ir2  1  0.25000166  0.25000124  0.24999901  1
  Pd  Pd3  1  0.75000014  0.74999982  0.75000178  1
