# generated using pymatgen
data_Li4Ti2Mn3Co3O16
_symmetry_space_group_name_H-M   'P 1'
_cell_length_a   5.75781392
_cell_length_b   5.84164032
_cell_length_c   9.43708123
_cell_angle_alpha   89.20302569
_cell_angle_beta   90.45649271
_cell_angle_gamma   120.32268877
_symmetry_Int_Tables_number   1
_chemical_formula_structural   Li4Ti2Mn3Co3O16
_chemical_formula_sum   'Li4 Ti2 Mn3 Co3 O16'
_cell_volume   273.96628498
_cell_formula_units_Z   1
loop_
 _symmetry_equiv_pos_site_id
 _symmetry_equiv_pos_as_xyz
  1  'x, y, z'
loop_
 _atom_site_type_symbol
 _atom_site_label
 _atom_site_symmetry_multiplicity
 _atom_site_fract_x
 _atom_site_fract_y
 _atom_site_fract_z
 _atom_site_occupancy
  Li  Li0  1  0.33662402  0.67425964  0.89827806  1
  Li  Li1  1  0.01116992  0.00330774  0.99785776  1
  Li  Li2  1  0.00752154  0.00181498  0.49402716  1
  Li  Li3  1  0.66560567  0.33247681  0.38955010  1
  Ti  Ti4  1  0.32588522  0.66012894  0.49290874  1
  Ti  Ti5  1  0.66718709  0.33440578  0.99823090  1
  Mn  Mn6  1  0.65837887  0.82766278  0.21613556  1
  Mn  Mn7  1  0.82708693  0.65678848  0.71669689  1
  Mn  Mn8  1  0.83107537  0.16985391  0.71478451  1
  Co  Co9  1  0.17060544  0.82981663  0.21455992  1
  Co  Co10  1  0.17042920  0.34075751  0.21400016  1
  Co  Co11  1  0.33978758  0.16855480  0.71500693  1
  O  O12  1  0.16614740  0.83295174  0.60052457  1
  O  O13  1  0.04056148  0.51808259  0.33300600  1
  O  O14  1  0.33174079  0.66787495  0.11052320  1
  O  O15  1  0.00320691  0.99968773  0.30642913  1
  O  O16  1  0.99679122  0.99395019  0.80834263  1
  O  O17  1  0.16472599  0.32800995  0.59536563  1
  O  O18  1  0.48187626  0.95919950  0.33645329  1
  O  O19  1  0.47887115  0.51760733  0.33490563  1
  O  O20  1  0.33675086  0.17199859  0.10127031  1
  O  O21  1  0.66111559  0.80738088  0.58771259  1
  O  O22  1  0.51195169  0.47755822  0.83446834  1
  O  O23  1  0.51786697  0.04381225  0.84098160  1
  O  O24  1  0.66831426  0.33734476  0.60908296  1
  O  O25  1  0.82981458  0.67178231  0.10052833  1
  O  O26  1  0.96527496  0.50960107  0.84920251  1
  O  O27  1  0.83363403  0.16363094  0.09700460  1
