# generated using pymatgen
data_CuH6(NCl)2
_symmetry_space_group_name_H-M   'P 1'
_cell_length_a   6.01211970
_cell_length_b   6.49565544
_cell_length_c   6.49565544
_cell_angle_alpha   72.05466464
_cell_angle_beta   90.00000000
_cell_angle_gamma   90.00000000
_symmetry_Int_Tables_number   1
_chemical_formula_structural   CuH6(NCl)2
_chemical_formula_sum   'Cu2 H12 N4 Cl4'
_cell_volume   241.33166854
_cell_formula_units_Z   2
loop_
 _symmetry_equiv_pos_site_id
 _symmetry_equiv_pos_as_xyz
  1  'x, y, z'
loop_
 _atom_site_type_symbol
 _atom_site_label
 _atom_site_symmetry_multiplicity
 _atom_site_fract_x
 _atom_site_fract_y
 _atom_site_fract_z
 _atom_site_occupancy
  Cu  Cu0  1  0.75000100  0.11225730  0.11225730  1
  Cu  Cu1  1  0.25000000  0.88774170  0.88774170  1
  H  H2  1  0.11312197  0.53075544  0.15390415  1
  H  H3  1  0.38687803  0.53075544  0.15390415  1
  H  H4  1  0.25000000  0.67099842  0.28753392  1
  H  H5  1  0.75000100  0.71246508  0.32900158  1
  H  H6  1  0.61312097  0.84609585  0.46924556  1
  H  H7  1  0.88687903  0.84609585  0.46924556  1
  H  H8  1  0.11312197  0.15390415  0.53075544  1
  H  H9  1  0.38687803  0.15390415  0.53075544  1
  H  H10  1  0.25000000  0.28753392  0.67099842  1
  H  H11  1  0.75000100  0.32900158  0.71246508  1
  H  H12  1  0.61312097  0.46924556  0.84609585  1
  H  H13  1  0.88687903  0.46924556  0.84609585  1
  N  N14  1  0.25000000  0.62660355  0.14820646  1
  N  N15  1  0.75000100  0.85179354  0.37339745  1
  N  N16  1  0.25000000  0.14820646  0.62660355  1
  N  N17  1  0.75000100  0.37339745  0.85179354  1
  Cl  Cl18  1  0.25000000  0.11222361  0.11222361  1
  Cl  Cl19  1  0.75000100  0.33976752  0.33976752  1
  Cl  Cl20  1  0.25000000  0.66023348  0.66023348  1
  Cl  Cl21  1  0.75000100  0.88777539  0.88777539  1
