# generated using pymatgen
data_Li3CuNi3O8
_symmetry_space_group_name_H-M   'P 1'
_cell_length_a   10.10728343
_cell_length_b   10.24210063
_cell_length_c   14.44782226
_cell_angle_alpha   19.28458480
_cell_angle_beta   18.98603404
_cell_angle_gamma   32.91780918
_symmetry_Int_Tables_number   1
_chemical_formula_structural   Li3CuNi3O8
_chemical_formula_sum   'Li3 Cu1 Ni3 O8'
_cell_volume   139.71359616
_cell_formula_units_Z   1
loop_
 _symmetry_equiv_pos_site_id
 _symmetry_equiv_pos_as_xyz
  1  'x, y, z'
loop_
 _atom_site_type_symbol
 _atom_site_label
 _atom_site_symmetry_multiplicity
 _atom_site_fract_x
 _atom_site_fract_y
 _atom_site_fract_z
 _atom_site_occupancy
  Li  Li0  1  0.00005668  0.49997065  0.49997764  1
  Li  Li1  1  0.50005243  0.99993623  0.50001935  1
  Li  Li2  1  0.50009304  0.49994926  0.49998170  1
  Cu  Cu3  1  0.00009122  -0.00006436  -0.00002312  1
  Ni  Ni4  1  -0.00004954  0.49995184  0.00005614  1
  Ni  Ni5  1  0.50022408  0.00006282  -0.00018141  1
  Ni  Ni6  1  0.49999686  0.50013354  -0.00010057  1
  O  O7  1  0.98813921  0.95125630  0.30025389  1
  O  O8  1  0.03377149  0.55620689  0.20109563  1
  O  O9  1  0.49178332  0.95126325  0.29885561  1
  O  O10  1  0.01172794  0.04865375  0.69990389  1
  O  O11  1  0.51924287  0.53007562  0.22964132  1
  O  O12  1  0.96606545  0.44381790  0.79899805  1
  O  O13  1  0.50818195  0.04880211  0.70113045  1
  O  O14  1  0.48062400  0.46998422  0.77038943  1
