# generated using pymatgen
data_Li4V2F9
_symmetry_space_group_name_H-M   'P 1'
_cell_length_a   5.17171739
_cell_length_b   5.17186852
_cell_length_c   13.93739073
_cell_angle_alpha   90.00052779
_cell_angle_beta   89.99980814
_cell_angle_gamma   60.00059964
_symmetry_Int_Tables_number   1
_chemical_formula_structural   Li4V2F9
_chemical_formula_sum   'Li8 V4 F18'
_cell_volume   322.84717569
_cell_formula_units_Z   2
loop_
 _symmetry_equiv_pos_site_id
 _symmetry_equiv_pos_as_xyz
  1  'x, y, z'
loop_
 _atom_site_type_symbol
 _atom_site_label
 _atom_site_symmetry_multiplicity
 _atom_site_fract_x
 _atom_site_fract_y
 _atom_site_fract_z
 _atom_site_occupancy
  Li  Li0  1  0.66664191  0.66667733  0.17842271  1
  Li  Li1  1  0.33331293  0.33334467  0.01899587  1
  Li  Li2  1  0.66665454  0.66667713  0.48101381  1
  Li  Li3  1  0.33329648  0.33335804  0.32163451  1
  Li  Li4  1  0.66666009  0.66667781  0.98100706  1
  Li  Li5  1  0.66669313  0.66665975  0.67836051  1
  Li  Li6  1  0.33334878  0.33332623  0.51898741  1
  Li  Li7  1  0.33334923  0.33333609  0.82157965  1
  V  V8  1  0.99996621  -0.00000198  0.15180582  1
  V  V9  1  0.99995223  0.00003411  0.34832547  1
  V  V10  1  0.00003085  -0.00001004  0.65167159  1
  V  V11  1  0.00001659  0.99999424  0.84819041  1
  F  F12  1  0.00005819  0.68897415  0.75000690  1
  F  F13  1  0.35150923  0.97652930  0.08469753  1
  F  F14  1  0.02346293  0.64836034  0.41534495  1
  F  F15  1  0.31096361  0.68902853  0.24998388  1
  F  F16  1  0.35168033  0.67182773  0.58465720  1
  F  F17  1  0.32803841  0.64847698  0.91531259  1
  F  F18  1  0.99993252  0.31102735  0.24999025  1
  F  F19  1  0.67184919  0.97651735  0.58465940  1
  F  F20  1  0.02348039  0.32804585  0.91530737  1
  F  F21  1  0.97649125  0.67195568  0.08469379  1
  F  F22  1  0.32815348  0.02349908  0.41534273  1
  F  F23  1  0.31103138  0.00002167  0.75001104  1
  F  F24  1  0.67191991  0.35154696  0.08469031  1
  F  F25  1  0.64831205  0.32819543  0.41534884  1
  F  F26  1  0.68901754  0.31099703  0.75001652  1
  F  F27  1  0.97653298  0.35165136  0.58465479  1
  F  F28  1  0.64848243  0.02347245  0.91530746  1
  F  F29  1  0.68896225  -0.00000164  0.24998261  1
