# generated using pymatgen
data_Li3Mn(PO4)2
_symmetry_space_group_name_H-M   'P 1'
_cell_length_a   8.39271230
_cell_length_b   8.62547294
_cell_length_c   7.25628034
_cell_angle_alpha   82.70256745
_cell_angle_beta   91.89678080
_cell_angle_gamma   119.49139428
_symmetry_Int_Tables_number   1
_chemical_formula_structural   Li3Mn(PO4)2
_chemical_formula_sum   'Li9 Mn3 P6 O24'
_cell_volume   453.26109017
_cell_formula_units_Z   3
loop_
 _symmetry_equiv_pos_site_id
 _symmetry_equiv_pos_as_xyz
  1  'x, y, z'
loop_
 _atom_site_type_symbol
 _atom_site_label
 _atom_site_symmetry_multiplicity
 _atom_site_fract_x
 _atom_site_fract_y
 _atom_site_fract_z
 _atom_site_occupancy
  Li  Li0  1  0.33816500  0.03317152  0.70254868  1
  Li  Li1  1  0.96553129  0.32016843  0.68048961  1
  Li  Li2  1  0.00361594  0.00106962  0.49942222  1
  Li  Li3  1  0.35161585  0.67593390  0.48163156  1
  Li  Li4  1  0.30285648  0.33877231  0.35512244  1
  Li  Li5  1  0.69744536  0.66198351  0.64436340  1
  Li  Li6  1  0.64921043  0.32490982  0.51917437  1
  Li  Li7  1  0.03405367  0.67937547  0.31952062  1
  Li  Li8  1  0.66189503  0.96678894  0.29793373  1
  Mn  Mn9  1  0.99954269  0.99942375  0.99994422  1
  Mn  Mn10  1  0.32210622  0.65466893  0.04672851  1
  Mn  Mn11  1  0.67771995  0.34477708  0.95286537  1
  P  P12  1  0.04278524  0.68356209  0.73690500  1
  P  P13  1  0.31813618  0.34902080  0.78027988  1
  P  P14  1  0.65315194  0.96086261  0.75082326  1
  P  P15  1  0.34631544  0.03895257  0.24926766  1
  P  P16  1  0.68178780  0.65087288  0.21964485  1
  P  P17  1  0.95721360  0.31635875  0.26299754  1
  O  O18  1  0.13890566  0.93799914  0.19146787  1
  O  O19  1  0.14450890  0.69653830  0.55947807  1
  O  O20  1  0.18149123  0.74777653  0.89668362  1
  O  O21  1  0.40702962  0.89611494  0.27404446  1
  O  O22  1  0.11007954  0.51929996  0.21934365  1
  O  O23  1  0.04316127  0.19393942  0.28787250  1
  O  O24  1  0.54343171  0.81099557  0.90986427  1
  O  O25  1  0.27501780  0.42230015  0.93983710  1
  O  O26  1  0.20615130  0.13691435  0.81753016  1
  O  O27  1  0.26221006  0.41129132  0.59327501  1
  O  O28  1  0.64082927  0.87045317  0.57463953  1
  O  O29  1  0.47422969  0.59939093  0.24412570  1
  O  O30  1  0.52580587  0.40067748  0.75581586  1
  O  O31  1  0.35672750  0.12832475  0.42588740  1
  O  O32  1  0.73811212  0.58889453  0.40653438  1
  O  O33  1  0.79338930  0.86300145  0.18258396  1
  O  O34  1  0.72526137  0.57795622  0.05984502  1
  O  O35  1  0.45662202  0.18987464  0.09119717  1
  O  O36  1  0.95703144  0.80621246  0.71197366  1
  O  O37  1  0.88978110  0.48059207  0.78047147  1
  O  O38  1  0.59296312  0.10423462  0.72596539  1
  O  O39  1  0.81842291  0.25202542  0.10322099  1
  O  O40  1  0.85526560  0.30318171  0.44043335  1
  O  O41  1  0.86062346  0.06133589  0.80824847  1
