# generated using pymatgen
data_Li9Si2Ni5O16
_symmetry_space_group_name_H-M   'P 1'
_cell_length_a   5.04339410
_cell_length_b   11.12028029
_cell_length_c   4.90327291
_cell_angle_alpha   94.53397178
_cell_angle_beta   80.02979557
_cell_angle_gamma   99.18157857
_symmetry_Int_Tables_number   1
_chemical_formula_structural   Li9Si2Ni5O16
_chemical_formula_sum   'Li9 Si2 Ni5 O16'
_cell_volume   266.99758664
_cell_formula_units_Z   1
loop_
 _symmetry_equiv_pos_site_id
 _symmetry_equiv_pos_as_xyz
  1  'x, y, z'
loop_
 _atom_site_type_symbol
 _atom_site_label
 _atom_site_symmetry_multiplicity
 _atom_site_fract_x
 _atom_site_fract_y
 _atom_site_fract_z
 _atom_site_occupancy
  Li  Li0  1  0.98964994  0.99771422  0.00906996  1
  Li  Li1  1  0.12481720  0.12166550  0.48885000  1
  Li  Li2  1  0.24551845  0.25174362  0.00736592  1
  Li  Li3  1  0.38041582  0.37455883  0.50671384  1
  Li  Li4  1  0.49458418  0.50044117  0.99328616  1
  Li  Li5  1  0.62948155  0.62325638  0.49263408  1
  Li  Li6  1  0.75018280  0.75333450  0.01115000  1
  Li  Li7  1  0.88535006  0.87728578  0.49093004  1
  Li  Li8  1  0.43750000  0.93750000  0.25000000  1
  Si  Si9  1  0.55525959  0.05709858  0.75083515  1
  Si  Si10  1  0.31974041  0.81790142  0.74916485  1
  Ni  Ni11  1  0.67937310  0.18064362  0.25041073  1
  Ni  Ni12  1  0.80919790  0.31046090  0.75069905  1
  Ni  Ni13  1  0.06580210  0.56453910  0.74930095  1
  Ni  Ni14  1  0.93750000  0.43750000  0.25000000  1
  Ni  Ni15  1  0.19562690  0.69435638  0.24958927  1
  O  O16  1  0.37798914  0.09320193  0.09115995  1
  O  O17  1  0.75510008  0.03924896  0.40821929  1
  O  O18  1  0.99622065  0.27186186  0.36299099  1
  O  O19  1  0.85155535  0.14093711  0.88532361  1
  O  O20  1  0.47837242  0.19384217  0.61519747  1
  O  O21  1  0.14199425  0.40755144  0.89428091  1
  O  O22  1  0.60374916  0.32953259  0.14190092  1
  O  O23  1  0.73300575  0.46744856  0.60571909  1
  O  O24  1  0.27125084  0.54546741  0.35809908  1
  O  O25  1  0.39662758  0.68115783  0.88480253  1
  O  O26  1  0.87877935  0.60313814  0.13700901  1
  O  O27  1  0.11989992  0.83575104  0.09178071  1
  O  O28  1  0.49701086  0.78179807  0.40884005  1
  O  O29  1  0.02344465  0.73406289  0.61467639  1
  O  O30  1  0.25174542  0.96385378  0.65686592  1
  O  O31  1  0.62325458  0.91114622  0.84313408  1
