# generated using pymatgen
data_Cu3Mo2(HO5)2
_symmetry_space_group_name_H-M   'P 1'
_cell_length_a   5.40273942
_cell_length_b   5.68633631
_cell_length_c   7.61052614
_cell_angle_alpha   103.42623032
_cell_angle_beta   106.50203287
_cell_angle_gamma   97.32936143
_symmetry_Int_Tables_number   1
_chemical_formula_structural   Cu3Mo2(HO5)2
_chemical_formula_sum   'Cu3 Mo2 H2 O10'
_cell_volume   213.30500721
_cell_formula_units_Z   1
loop_
 _symmetry_equiv_pos_site_id
 _symmetry_equiv_pos_as_xyz
  1  'x, y, z'
loop_
 _atom_site_type_symbol
 _atom_site_label
 _atom_site_symmetry_multiplicity
 _atom_site_fract_x
 _atom_site_fract_y
 _atom_site_fract_z
 _atom_site_occupancy
  Cu  Cu0  1  0.22881623  0.08620649  0.19289186  1
  Cu  Cu1  1  0.77117966  0.91378450  0.80711551  1
  Cu  Cu2  1  0.00000035  0.49994079  0.99998147  1
  Mo  Mo3  1  0.68554476  0.72083056  0.30809735  1
  Mo  Mo4  1  0.31446886  0.27918593  0.69190290  1
  H  H5  1  0.77082971  0.17334472  0.13233858  1
  H  H6  1  0.22916546  0.82668350  0.86767484  1
  O  O7  1  0.89283720  0.17928355  0.05803193  1
  O  O8  1  0.43681672  0.45412076  0.16748716  1
  O  O9  1  0.97893691  0.70344423  0.23687026  1
  O  O10  1  0.57213488  0.99808139  0.26888445  1
  O  O11  1  0.23082240  0.26579130  0.44455046  1
  O  O12  1  0.76918155  0.73423225  0.55545292  1
  O  O13  1  0.42787558  0.00194390  0.73112754  1
  O  O14  1  0.02104371  0.29652755  0.76309058  1
  O  O15  1  0.56318684  0.54590099  0.83252433  1
  O  O16  1  0.10715517  0.82069058  0.94197587  1
