# generated using pymatgen
data_KH4O4F
_symmetry_space_group_name_H-M   'P 1'
_cell_length_a   13.02330289
_cell_length_b   6.21420162
_cell_length_c   12.19781915
_cell_angle_alpha   90.00000000
_cell_angle_beta   90.00000000
_cell_angle_gamma   90.00000000
_symmetry_Int_Tables_number   1
_chemical_formula_structural   KH4O4F
_chemical_formula_sum   'K8 H32 O32 F8'
_cell_volume   987.16255004
_cell_formula_units_Z   8
loop_
 _symmetry_equiv_pos_site_id
 _symmetry_equiv_pos_as_xyz
  1  'x, y, z'
loop_
 _atom_site_type_symbol
 _atom_site_label
 _atom_site_symmetry_multiplicity
 _atom_site_fract_x
 _atom_site_fract_y
 _atom_site_fract_z
 _atom_site_occupancy
  K  K0  1  0.10244663  0.23108878  0.13984749  1
  K  K1  1  0.10244663  0.26891122  0.63984749  1
  K  K2  1  0.39755337  0.73108878  0.13984749  1
  K  K3  1  0.39755337  0.76891122  0.63984749  1
  K  K4  1  0.60244663  0.23108878  0.36015251  1
  K  K5  1  0.60244663  0.26891122  0.86015251  1
  K  K6  1  0.89755337  0.76891122  0.86015251  1
  K  K7  1  0.89755337  0.73108878  0.36015251  1
  H  H8  1  0.19521683  0.06768454  0.39215741  1
  H  H9  1  0.19521683  0.43231546  0.89215741  1
  H  H10  1  0.17919143  0.68360301  0.17084250  1
  H  H11  1  0.17919143  0.81639699  0.67084250  1
  H  H12  1  0.24616174  0.79836715  0.00247292  1
  H  H13  1  0.24616174  0.70163285  0.50247292  1
  H  H14  1  0.29228442  0.22481740  0.87422972  1
  H  H15  1  0.29228442  0.27518260  0.37422972  1
  H  H16  1  0.20771558  0.72481740  0.87422972  1
  H  H17  1  0.20771558  0.77518260  0.37422972  1
  H  H18  1  0.25383826  0.20163285  0.50247292  1
  H  H19  1  0.25383826  0.29836715  0.00247292  1
  H  H20  1  0.32080857  0.18360301  0.17084250  1
  H  H21  1  0.32080857  0.31639699  0.67084250  1
  H  H22  1  0.30478317  0.56768454  0.39215741  1
  H  H23  1  0.30478317  0.93231546  0.89215741  1
  H  H24  1  0.69521683  0.06768454  0.10784259  1
  H  H25  1  0.69521683  0.43231546  0.60784259  1
  H  H26  1  0.67919143  0.68360301  0.32915750  1
  H  H27  1  0.67919143  0.81639699  0.82915750  1
  H  H28  1  0.74616174  0.70163285  -0.00247292  1
  H  H29  1  0.74616174  0.79836715  0.49752708  1
  H  H30  1  0.79228442  0.27518260  0.12577028  1
  H  H31  1  0.79228442  0.22481740  0.62577028  1
  H  H32  1  0.70771558  0.72481740  0.62577028  1
  H  H33  1  0.70771558  0.77518260  0.12577028  1
  H  H34  1  0.75383826  0.20163285  -0.00247292  1
  H  H35  1  0.75383826  0.29836715  0.49752708  1
  H  H36  1  0.82080857  0.18360301  0.32915750  1
  H  H37  1  0.82080857  0.31639699  0.82915750  1
  H  H38  1  0.80478317  0.56768454  0.10784259  1
  H  H39  1  0.80478317  0.93231546  0.60784259  1
  O  O40  1  0.02143937  0.74210043  0.06978418  1
  O  O41  1  0.02143937  0.75789957  0.56978418  1
  O  O42  1  0.01850726  0.33755651  0.34956102  1
  O  O43  1  0.01850726  0.16244349  0.84956102  1
  O  O44  1  0.22765983  0.20293868  0.42387528  1
  O  O45  1  0.22765983  0.29706132  0.92387528  1
  O  O46  1  0.20376300  0.61378296  0.10400287  1
  O  O47  1  0.20376300  0.88621704  0.60400287  1
  O  O48  1  0.29623700  0.11378296  0.10400287  1
  O  O49  1  0.29623700  0.38621704  0.60400287  1
  O  O50  1  0.27234017  0.70293868  0.42387528  1
  O  O51  1  0.27234017  0.79706132  0.92387528  1
  O  O52  1  0.48149274  0.83755651  0.34956102  1
  O  O53  1  0.48149274  0.66244349  0.84956102  1
  O  O54  1  0.47856063  0.25789957  0.56978418  1
  O  O55  1  0.47856063  0.24210043  0.06978418  1
  O  O56  1  0.52143937  0.74210043  0.43021582  1
  O  O57  1  0.52143937  0.75789957  0.93021582  1
  O  O58  1  0.51850726  0.33755651  0.15043898  1
  O  O59  1  0.51850726  0.16244349  0.65043898  1
  O  O60  1  0.72765983  0.20293868  0.07612472  1
  O  O61  1  0.72765983  0.29706132  0.57612472  1
  O  O62  1  0.70376300  0.61378296  0.39599713  1
  O  O63  1  0.70376300  0.88621704  0.89599713  1
  O  O64  1  0.79623700  0.38621704  0.89599713  1
  O  O65  1  0.79623700  0.11378296  0.39599713  1
  O  O66  1  0.77234017  0.70293868  0.07612472  1
  O  O67  1  0.77234017  0.79706132  0.57612472  1
  O  O68  1  0.98149274  0.66244349  0.65043898  1
  O  O69  1  0.98149274  0.83755651  0.15043898  1
  O  O70  1  0.97856063  0.25789957  0.93021582  1
  O  O71  1  0.97856063  0.24210043  0.43021582  1
  F  F72  1  0.14058889  0.88363281  0.32934875  1
  F  F73  1  0.14058889  0.61636719  0.82934875  1
  F  F74  1  0.35941111  0.38363281  0.32934875  1
  F  F75  1  0.35941111  0.11636719  0.82934875  1
  F  F76  1  0.64058889  0.88363281  0.17065125  1
  F  F77  1  0.64058889  0.61636719  0.67065125  1
  F  F78  1  0.85941111  0.11636719  0.67065125  1
  F  F79  1  0.85941111  0.38363281  0.17065125  1
