# generated using pymatgen
data_Rb2CoSe2
_symmetry_space_group_name_H-M   'P 1'
_cell_length_a   6.54897066
_cell_length_b   7.22802152
_cell_length_c   8.44111129
_cell_angle_alpha   115.34982834
_cell_angle_beta   112.82520703
_cell_angle_gamma   90.00000001
_symmetry_Int_Tables_number   1
_chemical_formula_structural   Rb2CoSe2
_chemical_formula_sum   'Rb4 Co2 Se4'
_cell_volume   326.13519546
_cell_formula_units_Z   2
loop_
 _symmetry_equiv_pos_site_id
 _symmetry_equiv_pos_as_xyz
  1  'x, y, z'
loop_
 _atom_site_type_symbol
 _atom_site_label
 _atom_site_symmetry_multiplicity
 _atom_site_fract_x
 _atom_site_fract_y
 _atom_site_fract_z
 _atom_site_occupancy
  Co  Co0  1  0.75000000  0.00000000  0.00000000  1
  Co  Co1  1  0.25000000  0.00000000  0.00000000  1
  Se  Se2  1  0.59647471  0.26977686  0.19294942  1
  Se  Se3  1  0.90352529  0.07682744  0.80705058  1
  Se  Se4  1  0.09647471  0.92317256  0.19294942  1
  Se  Se5  1  0.40352529  0.73022314  0.80705058  1
  Rb  Rb6  1  0.64525147  0.81776159  0.29050293  1
  Rb  Rb7  1  0.35474853  0.18223841  0.70949707  1
  Rb  Rb8  1  0.85474853  0.52725866  0.70949707  1
  Rb  Rb9  1  0.14525147  0.47274134  0.29050293  1
