# generated using pymatgen
data_Nd2CuRu
_symmetry_space_group_name_H-M   'P 1'
_cell_length_a   5.01891895
_cell_length_b   5.01891741
_cell_length_c   5.01891952
_cell_angle_alpha   59.99999991
_cell_angle_beta   59.99994696
_cell_angle_gamma   59.99997949
_symmetry_Int_Tables_number   1
_chemical_formula_structural   Nd2CuRu
_chemical_formula_sum   'Nd2 Cu1 Ru1'
_cell_volume   89.39541062
_cell_formula_units_Z   1
loop_
 _symmetry_equiv_pos_site_id
 _symmetry_equiv_pos_as_xyz
  1  'x, y, z'
loop_
 _atom_site_type_symbol
 _atom_site_label
 _atom_site_symmetry_multiplicity
 _atom_site_fract_x
 _atom_site_fract_y
 _atom_site_fract_z
 _atom_site_occupancy
  Nd  Nd0  1  0.99999975  0.99999989  0.00000010  1
  Nd  Nd1  1  0.50000016  0.50000003  0.49999993  1
  Cu  Cu2  1  0.25000013  0.24999998  0.24999999  1
  Ru  Ru3  1  0.74999996  0.75000010  0.74999998  1
