# generated using pymatgen
data_Na3Np(HO3)2
_symmetry_space_group_name_H-M   'P 1'
_cell_length_a   6.03729527
_cell_length_b   6.03729527
_cell_length_c   10.51377359
_cell_angle_alpha   98.11394623
_cell_angle_beta   98.11394623
_cell_angle_gamma   120.55797372
_symmetry_Int_Tables_number   1
_chemical_formula_structural   Na3Np(HO3)2
_chemical_formula_sum   'Na6 Np2 H4 O12'
_cell_volume   316.33786624
_cell_formula_units_Z   2
loop_
 _symmetry_equiv_pos_site_id
 _symmetry_equiv_pos_as_xyz
  1  'x, y, z'
loop_
 _atom_site_type_symbol
 _atom_site_label
 _atom_site_symmetry_multiplicity
 _atom_site_fract_x
 _atom_site_fract_y
 _atom_site_fract_z
 _atom_site_occupancy
  Na  Na0  1  0.13085252  0.86914848  0.00000000  1
  Na  Na1  1  0.90594339  0.31712693  0.17508918  1
  Na  Na2  1  0.98085221  0.89203675  0.32490982  1
  Na  Na3  1  0.38085152  0.61914548  0.50000000  1
  Na  Na4  1  0.10796225  0.01914679  0.67508818  1
  Na  Na5  1  0.68287407  0.09405761  0.82491082  1
  Np  Np6  1  0.47060283  0.52939917  0.00000000  1
  Np  Np7  1  0.72060183  0.27939617  0.50000000  1
  H  H8  1  0.48376959  0.89369992  0.21074586  1
  H  H9  1  0.52302473  0.43295405  0.28925514  1
  H  H10  1  0.56704695  0.47697627  0.71074486  1
  H  H11  1  0.10630008  0.51623141  0.78925414  1
  O  O12  1  0.81363499  0.61554928  0.11165141  1
  O  O13  1  0.27376345  0.33405394  0.11681084  1
  O  O14  1  0.51935002  0.89390772  0.12201501  1
  O  O15  1  0.64733801  0.52189371  0.37798499  1
  O  O16  1  0.40695362  0.96724310  0.38318916  1
  O  O17  1  0.95198458  0.25389687  0.38834859  1
  O  O18  1  0.74610413  0.04801642  0.61165141  1
  O  O19  1  0.03275790  0.59304738  0.61681184  1
  O  O20  1  0.47810729  0.35266299  0.62201501  1
  O  O21  1  0.10609328  0.48064998  0.87798499  1
  O  O22  1  0.66594706  0.72623755  0.88318916  1
  O  O23  1  0.38445172  0.18636601  0.88834859  1
