# generated using pymatgen
data_LaTb3
_symmetry_space_group_name_H-M   'P 1'
_cell_length_a   7.32771314
_cell_length_b   7.32771290
_cell_length_c   5.81443205
_cell_angle_alpha   90.00000000
_cell_angle_beta   90.00000000
_cell_angle_gamma   120.00000110
_symmetry_Int_Tables_number   1
_chemical_formula_structural   LaTb3
_chemical_formula_sum   'Tb6 La2'
_cell_volume   270.38016647
_cell_formula_units_Z   2
loop_
 _symmetry_equiv_pos_site_id
 _symmetry_equiv_pos_as_xyz
  1  'x, y, z'
loop_
 _atom_site_type_symbol
 _atom_site_label
 _atom_site_symmetry_multiplicity
 _atom_site_fract_x
 _atom_site_fract_y
 _atom_site_fract_z
 _atom_site_occupancy
  Tb  Tb0  1  0.83495753  0.16504447  0.75000200  1
  Tb  Tb1  1  0.33008593  0.16504447  0.75000200  1
  Tb  Tb2  1  0.83495753  0.66991507  0.75000200  1
  Tb  Tb3  1  0.16504247  0.83495553  0.25000000  1
  Tb  Tb4  1  0.66991307  0.83495553  0.25000000  1
  Tb  Tb5  1  0.16504247  0.33008493  0.25000000  1
  La  La6  1  0.66666700  0.33333400  0.25000000  1
  La  La7  1  0.33333400  0.66666800  0.75000200  1
