# generated using pymatgen
data_Eu2Fe2O5
_symmetry_space_group_name_H-M   'P 1'
_cell_length_a   7.50144961
_cell_length_b   3.95709932
_cell_length_c   3.96539143
_cell_angle_alpha   89.99990898
_cell_angle_beta   89.99450536
_cell_angle_gamma   90.00302153
_symmetry_Int_Tables_number   1
_chemical_formula_structural   Eu2Fe2O5
_chemical_formula_sum   'Eu2 Fe2 O5'
_cell_volume   117.70860381
_cell_formula_units_Z   1
loop_
 _symmetry_equiv_pos_site_id
 _symmetry_equiv_pos_as_xyz
  1  'x, y, z'
loop_
 _atom_site_type_symbol
 _atom_site_label
 _atom_site_symmetry_multiplicity
 _atom_site_fract_x
 _atom_site_fract_y
 _atom_site_fract_z
 _atom_site_occupancy
  Eu  Eu0  1  0.00001665  0.99999412  0.00000700  1
  Eu  Eu1  1  0.50006588  -0.00000018  0.99998385  1
  Fe  Fe2  1  0.24021822  0.50000515  0.49994498  1
  Fe  Fe3  1  0.75979951  0.49999547  0.50005516  1
  O  O4  1  0.21142315  0.50005014  0.99993084  1
  O  O5  1  0.78852698  0.49994923  0.00006680  1
  O  O6  1  0.50000142  0.49999576  0.50000256  1
  O  O7  1  0.21008717  0.00000939  0.49986051  1
  O  O8  1  0.78986001  -0.00000908  0.50013830  1
