# generated using pymatgen
data_RbMg30BO31
_symmetry_space_group_name_H-M   'P 1'
_cell_length_a   8.71937969
_cell_length_b   8.82529648
_cell_length_c   8.33913490
_cell_angle_alpha   90.00000000
_cell_angle_beta   90.00000000
_cell_angle_gamma   90.00000000
_symmetry_Int_Tables_number   1
_chemical_formula_structural   RbMg30BO31
_chemical_formula_sum   'Rb1 Mg30 B1 O31'
_cell_volume   641.70569438
_cell_formula_units_Z   1
loop_
 _symmetry_equiv_pos_site_id
 _symmetry_equiv_pos_as_xyz
  1  'x, y, z'
loop_
 _atom_site_type_symbol
 _atom_site_label
 _atom_site_symmetry_multiplicity
 _atom_site_fract_x
 _atom_site_fract_y
 _atom_site_fract_z
 _atom_site_occupancy
  Rb  Rb0  1  0.99382834  0.00000000  -0.00000000  1
  Mg  Mg1  1  0.99730173  0.50000000  -0.00000000  1
  Mg  Mg2  1  0.99389002  0.50000000  0.50000000  1
  Mg  Mg3  1  0.49521151  0.00000000  -0.00000000  1
  Mg  Mg4  1  0.49885568  0.00000000  0.50000000  1
  Mg  Mg5  1  0.49979461  0.50000000  -0.00000000  1
  Mg  Mg6  1  0.50260976  0.50000000  0.50000000  1
  Mg  Mg7  1  0.00049878  0.26457256  0.25705709  1
  Mg  Mg8  1  0.00049878  0.26457256  0.74294291  1
  Mg  Mg9  1  0.00049878  0.73542744  0.25705709  1
  Mg  Mg10  1  0.00049878  0.73542744  0.74294291  1
  Mg  Mg11  1  0.49716199  0.25166116  0.25127034  1
  Mg  Mg12  1  0.49716199  0.25166116  0.74872966  1
  Mg  Mg13  1  0.49716199  0.74833884  0.25127034  1
  Mg  Mg14  1  0.49716199  0.74833884  0.74872966  1
  Mg  Mg15  1  0.25631353  0.00000000  0.25071634  1
  Mg  Mg16  1  0.25631353  0.00000000  0.74928366  1
  Mg  Mg17  1  0.25082203  0.50000000  0.24835330  1
  Mg  Mg18  1  0.25082203  0.50000000  0.75164670  1
  Mg  Mg19  1  0.73127523  0.00000000  0.25768258  1
  Mg  Mg20  1  0.73127523  0.00000000  0.74231742  1
  Mg  Mg21  1  0.74770812  0.50000000  0.25141401  1
  Mg  Mg22  1  0.74770812  0.50000000  0.74858599  1
  Mg  Mg23  1  0.25098249  0.25533369  -0.00000000  1
  Mg  Mg24  1  0.24574688  0.26404465  0.50000000  1
  Mg  Mg25  1  0.25098249  0.74466631  -0.00000000  1
  Mg  Mg26  1  0.24574688  0.73595535  0.50000000  1
  Mg  Mg27  1  0.74489679  0.25276394  -0.00000000  1
  Mg  Mg28  1  0.75739171  0.24016718  0.50000000  1
  Mg  Mg29  1  0.74489679  0.74723606  -0.00000000  1
  Mg  Mg30  1  0.75739171  0.75983282  0.50000000  1
  B  B31  1  0.08061889  0.00000000  0.50000000  1
  O  O32  1  0.27243856  0.00000000  -0.00000000  1
  O  O33  1  0.25576196  0.50000000  -0.00000000  1
  O  O34  1  0.25535756  0.50000000  0.50000000  1
  O  O35  1  0.71694580  0.00000000  -0.00000000  1
  O  O36  1  0.72547654  0.00000000  0.50000000  1
  O  O37  1  0.74297389  0.50000000  -0.00000000  1
  O  O38  1  0.74427231  0.50000000  0.50000000  1
  O  O39  1  0.24741752  0.24934730  0.25001148  1
  O  O40  1  0.24741752  0.24934730  0.74998852  1
  O  O41  1  0.24741752  0.75065270  0.25001148  1
  O  O42  1  0.24741752  0.75065270  0.74998852  1
  O  O43  1  0.75273724  0.24348685  0.24986733  1
  O  O44  1  0.75273724  0.24348685  0.75013267  1
  O  O45  1  0.75273724  0.75651315  0.24986733  1
  O  O46  1  0.75273724  0.75651315  0.75013267  1
  O  O47  1  0.02344540  0.00000000  0.34147051  1
  O  O48  1  0.02344540  0.00000000  0.65852949  1
  O  O49  1  0.99840882  0.50000000  0.25081070  1
  O  O50  1  0.99840882  0.50000000  0.74918930  1
  O  O51  1  0.49098897  0.00000000  0.25564478  1
  O  O52  1  0.49098897  0.00000000  0.74435522  1
  O  O53  1  0.50023976  0.50000000  0.25101415  1
  O  O54  1  0.50023976  0.50000000  0.74898585  1
  O  O55  1  0.00045046  0.27688469  -0.00000000  1
  O  O56  1  0.00099000  0.27554840  0.50000000  1
  O  O57  1  0.00045046  0.72311531  -0.00000000  1
  O  O58  1  0.00099000  0.72445160  0.50000000  1
  O  O59  1  0.49822883  0.25556474  -0.00000000  1
  O  O60  1  0.49381435  0.25052009  0.50000000  1
  O  O61  1  0.49822883  0.74443526  -0.00000000  1
  O  O62  1  0.49381435  0.74947991  0.50000000  1
