# generated using pymatgen
data_LaPm3
_symmetry_space_group_name_H-M   'P 1'
_cell_length_a   7.41843003
_cell_length_b   7.41842852
_cell_length_c   5.97729527
_cell_angle_alpha   90.00000000
_cell_angle_beta   90.00000000
_cell_angle_gamma   120.00000669
_symmetry_Int_Tables_number   1
_chemical_formula_structural   LaPm3
_chemical_formula_sum   'La2 Pm6'
_cell_volume   284.87821106
_cell_formula_units_Z   2
loop_
 _symmetry_equiv_pos_site_id
 _symmetry_equiv_pos_as_xyz
  1  'x, y, z'
loop_
 _atom_site_type_symbol
 _atom_site_label
 _atom_site_symmetry_multiplicity
 _atom_site_fract_x
 _atom_site_fract_y
 _atom_site_fract_z
 _atom_site_occupancy
  Pm  Pm0  1  0.83408460  0.16591440  0.75000000  1
  Pm  Pm1  1  0.33182880  0.16591440  0.75000000  1
  Pm  Pm2  1  0.83408660  0.66817120  0.75000000  1
  Pm  Pm3  1  0.16591440  0.83408460  0.25000100  1
  Pm  Pm4  1  0.66817020  0.83408460  0.25000100  1
  Pm  Pm5  1  0.16591440  0.33182880  0.25000100  1
  La  La6  1  0.66666800  0.33333300  0.25000100  1
  La  La7  1  0.33333400  0.66666800  0.75000000  1
