# generated using pymatgen
data_H56C19S3N8O15
_symmetry_space_group_name_H-M   'P 1'
_cell_length_a   7.69576464
_cell_length_b   16.02331840
_cell_length_c   17.09663432
_cell_angle_alpha   72.01788650
_cell_angle_beta   88.20810828
_cell_angle_gamma   85.49772492
_symmetry_Int_Tables_number   1
_chemical_formula_structural   H56C19S3N8O15
_chemical_formula_sum   'H112 C38 S6 N16 O30'
_cell_volume   1998.99198331
_cell_formula_units_Z   2
loop_
 _symmetry_equiv_pos_site_id
 _symmetry_equiv_pos_as_xyz
  1  'x, y, z'
loop_
 _atom_site_type_symbol
 _atom_site_label
 _atom_site_symmetry_multiplicity
 _atom_site_fract_x
 _atom_site_fract_y
 _atom_site_fract_z
 _atom_site_occupancy
  H  H0  1  0.54816008  0.06114000  0.82169822  1
  H  H1  1  0.45183992  0.93886000  0.17830178  1
  H  H2  1  0.92586107  0.92986261  0.68086140  1
  H  H3  1  0.07413893  0.07013739  0.31913860  1
  H  H4  1  0.35654717  0.70508959  0.78330872  1
  H  H5  1  0.64345283  0.29491041  0.21669128  1
  H  H6  1  0.91629030  0.54973908  0.74498174  1
  H  H7  1  0.08370970  0.45026092  0.25501826  1
  H  H8  1  0.13376586  0.55853339  0.72238043  1
  H  H9  1  0.86623414  0.44146661  0.27761957  1
  H  H10  1  0.22932469  0.33839091  0.73197044  1
  H  H11  1  0.77067531  0.66160909  0.26802956  1
  H  H12  1  0.32033064  0.43630621  0.72896803  1
  H  H13  1  0.67966936  0.56369379  0.27103197  1
  H  H14  1  0.30019132  0.57210327  0.82648364  1
  H  H15  1  0.69980868  0.42789673  0.17351636  1
  H  H16  1  0.02808015  0.95188244  0.84270102  1
  H  H17  1  0.97191985  0.04811756  0.15729898  1
  H  H18  1  0.13103156  0.04991682  0.81729841  1
  H  H19  1  0.86896844  0.95008318  0.18270159  1
  H  H20  1  0.97095294  0.18186021  0.77900672  1
  H  H21  1  0.02904706  0.81813979  0.22099328  1
  H  H22  1  0.74170535  0.18792949  0.78287666  1
  H  H23  1  0.25829465  0.81207051  0.21712334  1
  H  H24  1  0.57567249  0.79939263  0.72066542  1
  H  H25  1  0.42432751  0.20060737  0.27933458  1
  H  H26  1  0.80393109  0.79738642  0.71412080  1
  H  H27  1  0.19606891  0.20261358  0.28587920  1
  H  H28  1  0.40493435  0.93284958  0.68973086  1
  H  H29  1  0.59506565  0.06715042  0.31026914  1
  H  H30  1  0.50504473  0.03208791  0.66944044  1
  H  H31  1  0.49495527  0.96791209  0.33055956  1
  H  H32  1  0.38761046  0.13392116  0.09261401  1
  H  H33  1  0.61238954  0.86607884  0.90738599  1
  H  H34  1  0.56521235  0.19706903  0.09465693  1
  H  H35  1  0.43478765  0.80293097  0.90534307  1
  H  H36  1  0.34488726  0.21647613  0.89826436  1
  H  H37  1  0.65511274  0.78352387  0.10173564  1
  H  H38  1  0.19185324  0.29989869  0.90802948  1
  H  H39  1  0.80814676  0.70010131  0.09197052  1
  H  H40  1  0.37094136  0.30423573  0.10548575  1
  H  H41  1  0.62905864  0.69576427  0.89451425  1
  H  H42  1  0.19184573  0.24536590  0.09650792  1
  H  H43  1  0.80815427  0.75463410  0.90349208  1
  H  H44  1  0.42003569  0.37925955  0.91015969  1
  H  H45  1  0.57996431  0.62074045  0.08984031  1
  H  H46  1  0.56987066  0.29290845  0.90686302  1
  H  H47  1  0.43012934  0.70709155  0.09313698  1
  H  H48  1  0.10123565  0.40062951  0.07464869  1
  H  H49  1  0.89876435  0.59937049  0.92535131  1
  H  H50  1  0.25067309  0.43645558  0.99227794  1
  H  H51  1  0.74932691  0.56354442  0.00772206  1
  H  H52  1  0.07104013  0.37739584  0.98128043  1
  H  H53  1  0.92895987  0.62260416  0.01871957  1
  H  H54  1  0.05312790  0.16062942  0.93295902  1
  H  H55  1  0.94687210  0.83937058  0.06704098  1
  H  H56  1  0.19586889  0.10443696  0.01477375  1
  H  H57  1  0.80413111  0.89556304  0.98522625  1
  H  H58  1  0.04189091  0.18883270  0.02532908  1
  H  H59  1  0.95810909  0.81116730  0.97467092  1
  H  H60  1  0.70911464  0.40421972  0.94931814  1
  H  H61  1  0.29088536  0.59578028  0.05068186  1
  H  H62  1  0.56964723  0.39198927  0.03629876  1
  H  H63  1  0.43035277  0.60801073  0.96370124  1
  H  H64  1  0.72322910  0.30458159  0.03236920  1
  H  H65  1  0.27677090  0.69541841  0.96763080  1
  H  H66  1  0.65953925  0.06775117  0.05107499  1
  H  H67  1  0.34046075  0.93224883  0.94892501  1
  H  H68  1  0.51709832  0.10102179  0.96612305  1
  H  H69  1  0.48290168  0.89897821  0.03387695  1
  H  H70  1  0.69650257  0.16370592  0.96908213  1
  H  H71  1  0.30349743  0.83629408  0.03091787  1
  H  H72  1  0.90206042  0.12777692  0.60224349  1
  H  H73  1  0.09793958  0.87222308  0.39775651  1
  H  H74  1  0.08470782  0.18405684  0.61098772  1
  H  H75  1  0.91529218  0.81594316  0.38901228  1
  H  H76  1  0.89691421  0.29379742  0.62389838  1
  H  H77  1  0.10308579  0.70620258  0.37610162  1
  H  H78  1  0.71417570  0.24104149  0.60846917  1
  H  H79  1  0.28582430  0.75895851  0.39153083  1
  H  H80  1  0.87508538  0.22114649  0.40740569  1
  H  H81  1  0.12491462  0.77885351  0.59259431  1
  H  H82  1  0.72474870  0.30428055  0.42080496  1
  H  H83  1  0.27525130  0.69571945  0.57919504  1
  H  H84  1  0.10614742  0.28816553  0.42511580  1
  H  H85  1  0.89385258  0.71183447  0.57488420  1
  H  H86  1  0.96123806  0.37646431  0.43083277  1
  H  H87  1  0.03876194  0.62353569  0.56916723  1
  H  H88  1  0.57689853  0.17139422  0.43474189  1
  H  H89  1  0.42310147  0.82860578  0.56525811  1
  H  H90  1  0.71673642  0.10562562  0.51377492  1
  H  H91  1  0.28326358  0.89437438  0.48622508  1
  H  H92  1  0.56891967  0.18790228  0.53272911  1
  H  H93  1  0.43108033  0.81209772  0.46727089  1
  H  H94  1  0.25605876  0.38953232  0.47745704  1
  H  H95  1  0.74394124  0.61046768  0.52254296  1
  H  H96  1  0.10839637  0.37804751  0.56143429  1
  H  H97  1  0.89160363  0.62195249  0.43856571  1
  H  H98  1  0.25222028  0.28775582  0.55677902  1
  H  H99  1  0.74777972  0.71224418  0.44322098  1
  H  H100  1  0.17083607  0.05781388  0.56138850  1
  H  H101  1  0.82916393  0.94218612  0.43861150  1
  H  H102  1  0.03477743  0.09874680  0.47422985  1
  H  H103  1  0.96522257  0.90125320  0.52577015  1
  H  H104  1  0.22019337  0.15504152  0.48404329  1
  H  H105  1  0.77980663  0.84495848  0.51595671  1
  H  H106  1  0.63703875  0.39667164  0.59123156  1
  H  H107  1  0.36296125  0.60332836  0.40876844  1
  H  H108  1  0.79443389  0.43208982  0.51251057  1
  H  H109  1  0.20556611  0.56791018  0.48748943  1
  H  H110  1  0.61145371  0.37987512  0.49429136  1
  H  H111  1  0.38854629  0.62012488  0.50570864  1
  C  C112  1  0.48366135  0.17568256  0.05403890  1
  C  C113  1  0.51633865  0.82431744  0.94596110  1
  C  C114  1  0.25983190  0.23720541  0.94251725  1
  C  C115  1  0.74016810  0.76279459  0.05748275  1
  C  C116  1  0.27648583  0.29640203  0.06204937  1
  C  C117  1  0.72351417  0.70359797  0.93795063  1
  C  C118  1  0.50297274  0.32452834  0.94893349  1
  C  C119  1  0.49702726  0.67547166  0.05106651  1
  C  C120  1  0.16965316  0.38257271  0.02414830  1
  C  C121  1  0.83034684  0.61742729  0.97585170  1
  C  C122  1  0.13176030  0.16891745  0.98223265  1
  C  C123  1  0.86823970  0.83108255  0.01776735  1
  C  C124  1  0.63270835  0.35737684  0.99553944  1
  C  C125  1  0.36729165  0.64262316  0.00446056  1
  C  C126  1  0.59433187  0.12533936  0.00621145  1
  C  C127  1  0.40566813  0.87466064  0.99378855  1
  C  C128  1  0.00364061  0.16793825  0.56678063  1
  C  C129  1  0.99635939  0.83206175  0.43321937  1
  C  C130  1  0.80450802  0.29080143  0.57747504  1
  C  C131  1  0.19549198  0.70919857  0.42252496  1
  C  C132  1  0.78968075  0.23982061  0.45269262  1
  C  C133  1  0.21031925  0.76017939  0.54730738  1
  C  C134  1  0.03947653  0.31859869  0.46818563  1
  C  C135  1  0.96052347  0.68140131  0.53181437  1
  C  C136  1  0.65665084  0.17240338  0.48658996  1
  C  C137  1  0.34334916  0.82759662  0.51341004  1
  C  C138  1  0.17010709  0.34426429  0.51975258  1
  C  C139  1  0.82989291  0.65573571  0.48024742  1
  C  C140  1  0.11233454  0.11826048  0.51759330  1
  C  C141  1  0.88766546  0.88173952  0.48240670  1
  C  C142  1  0.70704373  0.37980513  0.54054918  1
  C  C143  1  0.29295627  0.62019487  0.45945082  1
  C  C144  1  0.04971427  0.43473724  0.74377917  1
  C  C145  1  0.95028573  0.56526276  0.25622083  1
  C  C146  1  0.86166048  0.06318505  0.82232627  1
  C  C147  1  0.13833952  0.93681495  0.17767373  1
  C  C148  1  0.67052628  0.92030025  0.68427762  1
  C  C149  1  0.32947372  0.07969975  0.31572238  1
  S  S150  1  0.39621912  0.16984328  0.73356368  1
  S  S151  1  0.60378088  0.83015672  0.26643632  1
  S  S152  1  0.13616049  0.80518089  0.76691124  1
  S  S153  1  0.86383951  0.19481911  0.23308876  1
  S  S154  1  0.52650347  0.56365511  0.74531931  1
  S  S155  1  0.47349653  0.43634489  0.25468069  1
  N  N156  1  0.03883877  0.51921082  0.75209454  1
  N  N157  1  0.96116123  0.48078918  0.24790546  1
  N  N158  1  0.21491926  0.40019268  0.73663845  1
  N  N159  1  0.78508074  0.59980732  0.26336155  1
  N  N160  1  0.01986249  0.01807168  0.83254311  1
  N  N161  1  0.98013751  0.98192832  0.16745689  1
  N  N162  1  0.85831059  0.15200342  0.79921604  1
  N  N163  1  0.14168941  0.84799658  0.20078396  1
  N  N164  1  0.68555573  0.83263794  0.70492474  1
  N  N165  1  0.31444427  0.16736206  0.29507526  1
  N  N166  1  0.51647911  0.96498091  0.67678619  1
  N  N167  1  0.48352089  0.03501909  0.32321381  1
  N  N168  1  0.38089136  0.25857573  0.00186760  1
  N  N169  1  0.61910864  0.74142427  0.99813240  1
  N  N170  1  0.90949177  0.25419104  0.51623597  1
  N  N171  1  0.09050823  0.74580896  0.48376403  1
  O  O172  1  0.41416019  0.08499827  0.81228909  1
  O  O173  1  0.58583981  0.91500173  0.18771091  1
  O  O174  1  0.51134258  0.23380434  0.74506543  1
  O  O175  1  0.48865742  0.76619566  0.25493457  1
  O  O176  1  0.21068761  0.19958067  0.73253013  1
  O  O177  1  0.78931239  0.80041933  0.26746987  1
  O  O178  1  0.44755849  0.14054833  0.66143562  1
  O  O179  1  0.55244151  0.85945167  0.33856438  1
  O  O180  1  0.11925648  0.88852999  0.69734463  1
  O  O181  1  0.88074352  0.11147001  0.30265537  1
  O  O182  1  0.03266507  0.73747174  0.75443262  1
  O  O183  1  0.96733493  0.26252826  0.24556738  1
  O  O184  1  0.33767129  0.77267718  0.76083821  1
  O  O185  1  0.66232871  0.22732282  0.23916179  1
  O  O186  1  0.11199771  0.81968775  0.84678623  1
  O  O187  1  0.88800229  0.18031225  0.15321377  1
  O  O188  1  0.91966681  0.39254531  0.74656590  1
  O  O189  1  0.08033319  0.60745469  0.25343410  1
  O  O190  1  0.57363972  0.47377171  0.79289033  1
  O  O191  1  0.42636028  0.52622829  0.20710967  1
  O  O192  1  0.66479140  0.62404359  0.72461070  1
  O  O193  1  0.33520860  0.37595641  0.27538930  1
  O  O194  1  0.40628261  0.60430743  0.81516617  1
  O  O195  1  0.59371739  0.39569257  0.18483383  1
  O  O196  1  0.40204040  0.57420181  0.67928446  1
  O  O197  1  0.59795960  0.42579819  0.32071554  1
  O  O198  1  0.72368119  0.02126763  0.83709147  1
  O  O199  1  0.27631881  0.97873237  0.16290853  1
  O  O200  1  0.80899512  0.96645219  0.66750840  1
  O  O201  1  0.19100488  0.03354781  0.33249160  1
