# generated using pymatgen
data_YErIr2
_symmetry_space_group_name_H-M   'P 1'
_cell_length_a   4.83898459
_cell_length_b   4.83898193
_cell_length_c   4.83901238
_cell_angle_alpha   59.99995519
_cell_angle_beta   60.00042581
_cell_angle_gamma   60.00009929
_symmetry_Int_Tables_number   1
_chemical_formula_structural   YErIr2
_chemical_formula_sum   'Y1 Er1 Ir2'
_cell_volume   80.12195755
_cell_formula_units_Z   1
loop_
 _symmetry_equiv_pos_site_id
 _symmetry_equiv_pos_as_xyz
  1  'x, y, z'
loop_
 _atom_site_type_symbol
 _atom_site_label
 _atom_site_symmetry_multiplicity
 _atom_site_fract_x
 _atom_site_fract_y
 _atom_site_fract_z
 _atom_site_occupancy
  Y  Y0  1  0.74999734  0.74999995  0.75000055  1
  Er  Er1  1  0.25000173  0.24999947  0.24999779  1
  Ir  Ir2  1  0.49999943  0.50000163  0.49999871  1
  Ir  Ir3  1  0.00000050  0.99999795  0.00000195  1
