# generated using pymatgen
data_Nd(Mg4Al3)4
_symmetry_space_group_name_H-M   'P 1'
_cell_length_a   8.94437507
_cell_length_b   9.25906684
_cell_length_c   9.25906753
_cell_angle_alpha   110.14944364
_cell_angle_beta   108.78417768
_cell_angle_gamma   108.78416871
_symmetry_Int_Tables_number   1
_chemical_formula_structural   Nd(Mg4Al3)4
_chemical_formula_sum   'Nd1 Mg16 Al12'
_cell_volume   595.21647517
_cell_formula_units_Z   1
loop_
 _symmetry_equiv_pos_site_id
 _symmetry_equiv_pos_as_xyz
  1  'x, y, z'
loop_
 _atom_site_type_symbol
 _atom_site_label
 _atom_site_symmetry_multiplicity
 _atom_site_fract_x
 _atom_site_fract_y
 _atom_site_fract_z
 _atom_site_occupancy
  Nd  Nd0  1  0.37135328  -0.00000000  0.00000000  1
  Mg  Mg1  1  0.99591649  0.34249701  0.99999900  1
  Mg  Mg2  1  0.61277802  0.33194833  -0.00000000  1
  Mg  Mg3  1  0.99618718  0.00000000  -0.00000000  1
  Mg  Mg4  1  0.31521064  0.59816033  0.00000100  1
  Mg  Mg5  1  0.68834372  0.68694312  0.29393044  1
  Mg  Mg6  1  0.00140060  0.60698631  0.31305688  1
  Mg  Mg7  1  0.61277902  0.00000000  0.33194833  1
  Mg  Mg8  1  0.99591549  -0.00000000  0.34249601  1
  Mg  Mg9  1  0.39441528  0.70607156  0.39301469  1
  Mg  Mg10  1  0.71705031  0.40184067  0.40184067  1
  Mg  Mg11  1  0.31521064  -0.00000000  0.59816033  1
  Mg  Mg12  1  0.00140060  0.31305588  0.60698631  1
  Mg  Mg13  1  0.65341848  0.65750199  0.65750299  1
  Mg  Mg14  1  0.28082969  0.66805067  0.66805167  1
  Mg  Mg15  1  0.68834372  0.29393044  0.68694312  1
  Mg  Mg16  1  0.39441628  0.39301469  0.70607156  1
  Al  Al17  1  0.62992749  0.81645192  -0.00000000  1
  Al  Al18  1  0.81078143  0.63605076  0.00000000  1
  Al  Al19  1  0.36442417  0.36602049  0.17954429  1
  Al  Al20  1  0.81347458  0.18354808  0.18354808  1
  Al  Al21  1  0.18487887  0.82045471  0.18647520  1
  Al  Al22  1  0.17472966  0.36394924  0.36394924  1
  Al  Al23  1  0.36442417  0.17954429  0.36602049  1
  Al  Al24  1  0.99840268  0.81352380  0.63397951  1
  Al  Al25  1  0.81078243  -0.00000000  0.63605076  1
  Al  Al26  1  0.99840268  0.63398051  0.81352380  1
  Al  Al27  1  0.62992849  0.00000000  0.81645192  1
  Al  Al28  1  0.18487887  0.18647520  0.82045471  1
