# generated using pymatgen
data_Ac2S3
_symmetry_space_group_name_H-M   'P 1'
_cell_length_a   7.61775342
_cell_length_b   7.61774591
_cell_length_c   7.88324977
_cell_angle_alpha   118.89202079
_cell_angle_beta   61.10802088
_cell_angle_gamma   119.99993429
_symmetry_Int_Tables_number   1
_chemical_formula_structural   Ac2S3
_chemical_formula_sum   'Ac4 S6'
_cell_volume   328.78933761
_cell_formula_units_Z   2
loop_
 _symmetry_equiv_pos_site_id
 _symmetry_equiv_pos_as_xyz
  1  'x, y, z'
loop_
 _atom_site_type_symbol
 _atom_site_label
 _atom_site_symmetry_multiplicity
 _atom_site_fract_x
 _atom_site_fract_y
 _atom_site_fract_z
 _atom_site_occupancy
  Ac  Ac0  1  0.64346844  0.35653055  0.06959448  1
  Ac  Ac1  1  0.85653142  0.14346796  0.43040515  1
  Ac  Ac2  1  0.14346899  0.85653216  0.56959350  1
  Ac  Ac3  1  0.35653096  0.64346772  0.93040579  1
  S  S4  1  0.53913377  0.75000049  0.24999983  1
  S  S5  1  0.24999990  0.03913364  0.25000010  1
  S  S6  1  0.96086774  0.46086787  0.25000011  1
  S  S7  1  0.03913285  0.53913283  0.74999930  1
  S  S8  1  0.74999972  0.96086645  0.74999935  1
  S  S9  1  0.46086621  0.25000033  0.74999939  1
