# generated using pymatgen
data_NaMnH6C3S3(NO)3
_symmetry_space_group_name_H-M   'P 1'
_cell_length_a   6.72537354
_cell_length_b   10.24830717
_cell_length_c   10.24832981
_cell_angle_alpha   120.00051696
_cell_angle_beta   90.00008993
_cell_angle_gamma   89.99911091
_symmetry_Int_Tables_number   1
_chemical_formula_structural   NaMnH6C3S3(NO)3
_chemical_formula_sum   'Na2 Mn2 H12 C6 S6 N6 O6'
_cell_volume   611.71623578
_cell_formula_units_Z   2
loop_
 _symmetry_equiv_pos_site_id
 _symmetry_equiv_pos_as_xyz
  1  'x, y, z'
loop_
 _atom_site_type_symbol
 _atom_site_label
 _atom_site_symmetry_multiplicity
 _atom_site_fract_x
 _atom_site_fract_y
 _atom_site_fract_z
 _atom_site_occupancy
  Na  Na0  1  0.00000000  -0.00000000  0.00000000  1
  Na  Na1  1  0.50000000  -0.00000000  0.00000000  1
  Mn  Mn2  1  0.02421356  0.66665869  0.33332977  1
  Mn  Mn3  1  0.97578644  0.33334131  0.66667023  1
  H  H4  1  0.76166952  0.89822074  0.18314255  1
  H  H5  1  0.76167176  0.81685832  0.71507734  1
  H  H6  1  0.76166972  0.28492045  0.10177839  1
  H  H7  1  0.23833048  0.10177926  0.81685745  1
  H  H8  1  0.23832824  0.18314168  0.28492266  1
  H  H9  1  0.23833028  0.71507955  0.89822161  1
  H  H10  1  0.74859998  0.07389774  0.26260162  1
  H  H11  1  0.74860388  0.73740125  0.81129495  1
  H  H12  1  0.74859951  0.18869954  0.92610161  1
  H  H13  1  0.25140002  0.92610226  0.73739838  1
  H  H14  1  0.25139612  0.26259875  0.18870505  1
  H  H15  1  0.25140049  0.81130046  0.07389839  1
  C  C16  1  0.79412154  0.42015761  0.39721491  1
  C  C17  1  0.79411766  0.60278138  0.02294080  1
  C  C18  1  0.79411745  0.97705543  0.57983789  1
  C  C19  1  0.20587846  0.57984239  0.60278509  1
  C  C20  1  0.20588234  0.39721862  0.97705920  1
  C  C21  1  0.20588255  0.02294457  0.42016211  1
  S  S22  1  0.69178175  0.32068022  0.46342343  1
  S  S23  1  0.69178578  0.53657784  0.85725241  1
  S  S24  1  0.69178472  0.14274312  0.67932333  1
  S  S25  1  0.30821825  0.67931978  0.53657657  1
  S  S26  1  0.30821422  0.46342216  0.14274759  1
  S  S27  1  0.30821528  0.85725688  0.32067667  1
  N  N28  1  0.86672191  0.49139223  0.34759564  1
  N  N29  1  0.86671688  0.65239369  0.14379684  1
  N  N30  1  0.86671940  0.85619531  0.50859857  1
  N  N31  1  0.13327809  0.50860777  0.65240436  1
  N  N32  1  0.13328312  0.34760631  0.85620316  1
  N  N33  1  0.13328060  0.14380469  0.49140143  1
  O  O34  1  0.75483431  0.98169662  0.16288227  1
  O  O35  1  0.75483462  0.83712058  0.81881470  1
  O  O36  1  0.75483075  0.18118263  0.01830207  1
  O  O37  1  0.24516569  0.01830338  0.83711773  1
  O  O38  1  0.24516538  0.16287942  0.18118530  1
  O  O39  1  0.24516925  0.81881737  0.98169793  1
