# generated using pymatgen
data_TlAgBr3
_symmetry_space_group_name_H-M   'P 1'
_cell_length_a   7.61296242
_cell_length_b   7.61296258
_cell_length_c   7.61296255
_cell_angle_alpha   60.58479785
_cell_angle_beta   60.58479713
_cell_angle_gamma   60.58479563
_symmetry_Int_Tables_number   1
_chemical_formula_structural   TlAgBr3
_chemical_formula_sum   'Tl2 Ag2 Br6'
_cell_volume   316.11501012
_cell_formula_units_Z   2
loop_
 _symmetry_equiv_pos_site_id
 _symmetry_equiv_pos_as_xyz
  1  'x, y, z'
loop_
 _atom_site_type_symbol
 _atom_site_label
 _atom_site_symmetry_multiplicity
 _atom_site_fract_x
 _atom_site_fract_y
 _atom_site_fract_z
 _atom_site_occupancy
  Tl  Tl0  1  0.27391569  0.27391569  0.27391569  1
  Tl  Tl1  1  0.77391569  0.77391569  0.77391569  1
  Ag  Ag2  1  0.00245040  0.00245040  0.00245040  1
  Ag  Ag3  1  0.50245040  0.50245040  0.50245040  1
  Br  Br4  1  0.24766786  0.80776137  0.69670468  1
  Br  Br5  1  0.80776137  0.69670468  0.24766786  1
  Br  Br6  1  0.69670468  0.24766786  0.80776137  1
  Br  Br7  1  0.19670468  0.30776137  0.74766786  1
  Br  Br8  1  0.74766786  0.19670468  0.30776137  1
  Br  Br9  1  0.30776137  0.74766786  0.19670468  1
