# generated using pymatgen
data_MgAuO2
_symmetry_space_group_name_H-M   'P 1'
_cell_length_a   3.08238892
_cell_length_b   5.74862388
_cell_length_c   6.35011129
_cell_angle_alpha   116.91316718
_cell_angle_beta   90.00000000
_cell_angle_gamma   90.00000000
_symmetry_Int_Tables_number   1
_chemical_formula_structural   MgAuO2
_chemical_formula_sum   'Mg2 Au2 O4'
_cell_volume   100.33403603
_cell_formula_units_Z   2
loop_
 _symmetry_equiv_pos_site_id
 _symmetry_equiv_pos_as_xyz
  1  'x, y, z'
loop_
 _atom_site_type_symbol
 _atom_site_label
 _atom_site_symmetry_multiplicity
 _atom_site_fract_x
 _atom_site_fract_y
 _atom_site_fract_z
 _atom_site_occupancy
  Mg  Mg0  1  0.50000000  0.50000000  0.50000000  1
  Mg  Mg1  1  0.50000000  -0.00000000  0.50000000  1
  Au  Au2  1  0.00000000  -0.00000000  -0.00000000  1
  Au  Au3  1  0.00000000  0.50000000  0.00000000  1
  O  O4  1  0.50000000  0.88138899  0.76277798  1
  O  O5  1  0.00000000  0.68758123  0.37516246  1
  O  O6  1  0.50000000  0.11861101  0.23722202  1
  O  O7  1  -0.00000000  0.31241877  0.62483754  1
