# generated using pymatgen
data_VZnF5
_symmetry_space_group_name_H-M   'P 1'
_cell_length_a   5.36526239
_cell_length_b   5.35283034
_cell_length_c   7.56955222
_cell_angle_alpha   98.06125999
_cell_angle_beta   110.03962232
_cell_angle_gamma   108.24056377
_symmetry_Int_Tables_number   1
_chemical_formula_structural   VZnF5
_chemical_formula_sum   'V2 Zn2 F10'
_cell_volume   186.35711210
_cell_formula_units_Z   2
loop_
 _symmetry_equiv_pos_site_id
 _symmetry_equiv_pos_as_xyz
  1  'x, y, z'
loop_
 _atom_site_type_symbol
 _atom_site_label
 _atom_site_symmetry_multiplicity
 _atom_site_fract_x
 _atom_site_fract_y
 _atom_site_fract_z
 _atom_site_occupancy
  V  V0  1  0.99830216  0.99946990  0.00128826  1
  V  V1  1  0.50087414  0.00167193  0.50106502  1
  Zn  Zn2  1  0.27583778  0.52841477  0.74909848  1
  Zn  Zn3  1  0.72177660  0.47146286  0.25262927  1
  F  F4  1  0.36835402  0.11847645  0.25041779  1
  F  F5  1  0.63018469  0.88234575  0.75133959  1
  F  F6  1  0.59340205  0.72659517  0.37308257  1
  F  F7  1  0.85638838  0.22143489  0.13347119  1
  F  F8  1  0.75661001  0.68322150  0.04761722  1
  F  F9  1  0.13817032  0.71675979  0.45477719  1
  F  F10  1  0.23729296  0.31553925  0.95356039  1
  F  F11  1  0.86237371  0.28874276  0.54347382  1
  F  F12  1  0.14220130  0.77735093  0.87085837  1
  F  F13  1  0.41412389  0.27954204  0.63221383  1
