# generated using pymatgen
data_La2MgCrO6
_symmetry_space_group_name_H-M   'P 1'
_cell_length_a   5.51996313
_cell_length_b   5.51996279
_cell_length_c   5.51996335
_cell_angle_alpha   60.80810253
_cell_angle_beta   60.80810360
_cell_angle_gamma   60.80810642
_symmetry_Int_Tables_number   1
_chemical_formula_structural   La2MgCrO6
_chemical_formula_sum   'La2 Mg1 Cr1 O6'
_cell_volume   121.09819832
_cell_formula_units_Z   1
loop_
 _symmetry_equiv_pos_site_id
 _symmetry_equiv_pos_as_xyz
  1  'x, y, z'
loop_
 _atom_site_type_symbol
 _atom_site_label
 _atom_site_symmetry_multiplicity
 _atom_site_fract_x
 _atom_site_fract_y
 _atom_site_fract_z
 _atom_site_occupancy
  La  La0  1  0.75051141  0.75051141  0.75051141  1
  La  La1  1  0.24948859  0.24948859  0.24948859  1
  Mg  Mg2  1  0.50000000  0.50000000  0.50000000  1
  Cr  Cr3  1  0.00000000  0.00000000  0.00000000  1
  O  O4  1  0.31216779  0.75964297  0.17373946  1
  O  O5  1  0.75964297  0.17373946  0.31216779  1
  O  O6  1  0.17373946  0.31216779  0.75964297  1
  O  O7  1  0.68783221  0.24035703  0.82626054  1
  O  O8  1  0.82626054  0.68783221  0.24035703  1
  O  O9  1  0.24035703  0.82626054  0.68783221  1
