# generated using pymatgen
data_La2VZnO6
_symmetry_space_group_name_H-M   'P 1'
_cell_length_a   5.53529799
_cell_length_b   5.53529764
_cell_length_c   5.53529821
_cell_angle_alpha   61.57173235
_cell_angle_beta   61.57173345
_cell_angle_gamma   61.57173631
_symmetry_Int_Tables_number   1
_chemical_formula_structural   La2VZnO6
_chemical_formula_sum   'La2 V1 Zn1 O6'
_cell_volume   124.15349893
_cell_formula_units_Z   1
loop_
 _symmetry_equiv_pos_site_id
 _symmetry_equiv_pos_as_xyz
  1  'x, y, z'
loop_
 _atom_site_type_symbol
 _atom_site_label
 _atom_site_symmetry_multiplicity
 _atom_site_fract_x
 _atom_site_fract_y
 _atom_site_fract_z
 _atom_site_occupancy
  La  La0  1  0.75083617  0.75083617  0.75083617  1
  La  La1  1  0.24916383  0.24916383  0.24916383  1
  V  V2  1  0.00000000  0.00000000  0.00000000  1
  Zn  Zn3  1  0.50000000  0.50000000  0.50000000  1
  O  O4  1  0.31955100  0.76148304  0.16219024  1
  O  O5  1  0.76148304  0.16219024  0.31955100  1
  O  O6  1  0.16219024  0.31955100  0.76148304  1
  O  O7  1  0.68044900  0.23851696  0.83780976  1
  O  O8  1  0.83780976  0.68044900  0.23851696  1
  O  O9  1  0.23851696  0.83780976  0.68044900  1
