# generated using pymatgen
data_Y2Cr3O12
_symmetry_space_group_name_H-M   'P 1'
_cell_length_a   15.21289258
_cell_length_b   5.08544588
_cell_length_c   6.84018600
_cell_angle_alpha   111.92380246
_cell_angle_beta   111.37438506
_cell_angle_gamma   90.29764767
_symmetry_Int_Tables_number   1
_chemical_formula_structural   Y2Cr3O12
_chemical_formula_sum   'Y4 Cr6 O24'
_cell_volume   450.99611063
_cell_formula_units_Z   2
loop_
 _symmetry_equiv_pos_site_id
 _symmetry_equiv_pos_as_xyz
  1  'x, y, z'
loop_
 _atom_site_type_symbol
 _atom_site_label
 _atom_site_symmetry_multiplicity
 _atom_site_fract_x
 _atom_site_fract_y
 _atom_site_fract_z
 _atom_site_occupancy
  Y  Y0  1  0.45642396  0.12362411  0.75060097  1
  Y  Y1  1  0.78711504  0.12672590  0.74680268  1
  Y  Y2  1  0.21024204  0.87637589  0.24939903  1
  Y  Y3  1  0.87955196  0.87327410  0.25319732  1
  Cr  Cr4  1  0.28821453  0.62520901  0.73932776  1
  Cr  Cr5  1  0.62912236  0.62927481  0.76274012  1
  Cr  Cr6  1  0.95545446  0.62046749  0.74893983  1
  Cr  Cr7  1  0.03754464  0.37072519  0.23725988  1
  Cr  Cr8  1  0.37845247  0.37479099  0.26067224  1
  Cr  Cr9  1  0.71121154  0.37953251  0.25106017  1
  O  O10  1  0.01397195  0.21125934  0.38920802  1
  O  O11  1  0.36061888  0.17192838  0.40140122  1
  O  O12  1  0.69963630  0.24374903  0.42462808  1
  O  O13  1  0.24275784  0.80819365  0.92560102  1
  O  O14  1  0.57168617  0.84050720  0.90272663  1
  O  O15  1  0.89423351  0.83893609  0.89386821  1
  O  O16  1  0.10657617  0.68975549  0.38387037  1
  O  O17  1  0.44863333  0.68451443  0.44209728  1
  O  O18  1  0.77758177  0.71809509  0.39754741  1
  O  O19  1  0.06070266  0.60610064  0.92330222  1
  O  O20  1  0.39417633  0.55119761  0.86787002  1
  O  O21  1  0.73995978  0.56868377  0.92053415  1
  O  O22  1  0.27248967  0.44880239  0.13212998  1
  O  O23  1  0.60596434  0.39389936  0.07669778  1
  O  O24  1  0.92670722  0.43131623  0.07946585  1
  O  O25  1  0.09498083  0.15949280  0.09727337  1
  O  O26  1  0.42390816  0.19180635  0.07439898  1
  O  O27  1  0.77243349  0.16106391  0.10613179  1
  O  O28  1  0.30604812  0.82807262  0.59859878  1
  O  O29  1  0.65269505  0.78874166  0.61079198  1
  O  O30  1  0.96702970  0.75625197  0.57537192  1
  O  O31  1  0.21803367  0.31548557  0.55790272  1
  O  O32  1  0.56008983  0.31024451  0.61612963  1
  O  O33  1  0.88908523  0.28190491  0.60245259  1
