# generated using pymatgen
data_Sm(GaSe2)2
_symmetry_space_group_name_H-M   'P 1'
_cell_length_a   12.19464106
_cell_length_b   12.19464106
_cell_length_c   12.41227274
_cell_angle_alpha   106.94533655
_cell_angle_beta   106.94533655
_cell_angle_gamma   113.99635600
_symmetry_Int_Tables_number   1
_chemical_formula_structural   Sm(GaSe2)2
_chemical_formula_sum   'Sm8 Ga16 Se32'
_cell_volume   1424.54046091
_cell_formula_units_Z   8
loop_
 _symmetry_equiv_pos_site_id
 _symmetry_equiv_pos_as_xyz
  1  'x, y, z'
loop_
 _atom_site_type_symbol
 _atom_site_label
 _atom_site_symmetry_multiplicity
 _atom_site_fract_x
 _atom_site_fract_y
 _atom_site_fract_z
 _atom_site_occupancy
  Sm  Sm0  1  0.87366480  0.62366480  0.74732960  1
  Sm  Sm1  1  0.37633520  0.12633520  0.75267040  1
  Sm  Sm2  1  0.12633520  0.37633520  0.25267040  1
  Sm  Sm3  1  0.62366480  0.87366480  0.24732960  1
  Sm  Sm4  1  0.62500000  0.37500000  0.25000000  1
  Sm  Sm5  1  0.37500000  0.62500000  0.75000000  1
  Sm  Sm6  1  0.12500000  0.87500000  0.25000000  1
  Sm  Sm7  1  0.87500000  0.12500000  0.75000000  1
  Ga  Ga8  1  0.13506908  0.60650740  0.99868248  1
  Ga  Ga9  1  0.86361340  0.89217508  0.99868248  1
  Ga  Ga10  1  0.39349260  0.86493092  0.50131752  1
  Ga  Ga11  1  0.10782492  0.13638660  0.50131752  1
  Ga  Ga12  1  0.86493092  0.39349260  0.00131752  1
  Ga  Ga13  1  0.13638660  0.10782492  0.00131752  1
  Ga  Ga14  1  0.60650740  0.13506908  0.49868248  1
  Ga  Ga15  1  0.89217508  0.86361340  0.49868248  1
  Ga  Ga16  1  0.64108809  0.53951457  0.99979140  1
  Ga  Ga17  1  0.35870331  0.96027683  0.99979140  1
  Ga  Ga18  1  0.46048543  0.35891191  0.50020860  1
  Ga  Ga19  1  0.03972317  0.64129669  0.50020860  1
  Ga  Ga20  1  0.35891191  0.46048543  0.00020860  1
  Ga  Ga21  1  0.64129669  0.03972317  0.00020860  1
  Ga  Ga22  1  0.53951457  0.64108809  0.49979140  1
  Ga  Ga23  1  0.96027683  0.35870331  0.49979140  1
  Se  Se24  1  0.66807977  0.35493792  0.49852987  1
  Se  Se25  1  0.83045010  0.64359195  0.49852987  1
  Se  Se26  1  0.64506208  0.33192023  0.00147013  1
  Se  Se27  1  0.35640805  0.16954990  0.00147013  1
  Se  Se28  1  0.33192023  0.64506208  0.50147013  1
  Se  Se29  1  0.16954990  0.35640805  0.50147013  1
  Se  Se30  1  0.35493792  0.66807977  0.99852987  1
  Se  Se31  1  0.64359195  0.83045010  0.99852987  1
  Se  Se32  1  0.13839338  0.81579875  0.99839049  1
  Se  Se33  1  0.85999711  0.68259175  0.99839049  1
  Se  Se34  1  0.18420125  0.86160662  0.50160951  1
  Se  Se35  1  0.31740825  0.14000289  0.50160951  1
  Se  Se36  1  0.86160662  0.18420125  0.00160951  1
  Se  Se37  1  0.14000289  0.31740825  0.00160951  1
  Se  Se38  1  0.81579875  0.13839338  0.49839049  1
  Se  Se39  1  0.68259175  0.85999711  0.49839049  1
  Se  Se40  1  0.91027869  0.90944970  0.31651187  1
  Se  Se41  1  0.40623318  0.90706217  0.31651187  1
  Se  Se42  1  0.09055030  0.08972131  0.18348813  1
  Se  Se43  1  0.09293783  0.59376682  0.18348813  1
  Se  Se44  1  0.08972131  0.09055030  0.68348813  1
  Se  Se45  1  0.59376682  0.09293783  0.68348813  1
  Se  Se46  1  0.90944970  0.91027869  0.81651187  1
  Se  Se47  1  0.90706217  0.40623318  0.81651187  1
  Se  Se48  1  0.09266876  0.59357418  0.68883338  1
  Se  Se49  1  0.59616462  0.59525920  0.68883338  1
  Se  Se50  1  0.40642582  0.90733124  0.81116662  1
  Se  Se51  1  0.40474080  0.40383538  0.81116662  1
  Se  Se52  1  0.90733124  0.40642582  0.31116662  1
  Se  Se53  1  0.40383538  0.40474080  0.31116662  1
  Se  Se54  1  0.59357418  0.09266876  0.18883338  1
  Se  Se55  1  0.59525920  0.59616462  0.18883338  1
