# generated using pymatgen
data_V4Zn(PO4)6
_symmetry_space_group_name_H-M   'P 1'
_cell_length_a   6.24628127
_cell_length_b   8.23074474
_cell_length_c   9.46252846
_cell_angle_alpha   109.36969807
_cell_angle_beta   106.50881307
_cell_angle_gamma   101.06157944
_symmetry_Int_Tables_number   1
_chemical_formula_structural   V4Zn(PO4)6
_chemical_formula_sum   'V4 Zn1 P6 O24'
_cell_volume   417.43408679
_cell_formula_units_Z   1
loop_
 _symmetry_equiv_pos_site_id
 _symmetry_equiv_pos_as_xyz
  1  'x, y, z'
loop_
 _atom_site_type_symbol
 _atom_site_label
 _atom_site_symmetry_multiplicity
 _atom_site_fract_x
 _atom_site_fract_y
 _atom_site_fract_z
 _atom_site_occupancy
  V  V0  1  0.37632919  0.47847301  0.11882531  1
  V  V1  1  0.94436967  0.28243315  0.47829168  1
  V  V2  1  0.62446139  0.52285550  0.88231930  1
  V  V3  1  0.05584417  0.71784569  0.52172405  1
  Zn  Zn4  1  0.00143297  0.00091335  0.99859863  1
  P  P5  1  0.78360019  0.83931880  0.23947937  1
  P  P6  1  0.21512293  0.16082140  0.76028548  1
  P  P7  1  0.61808489  0.75936764  0.65271522  1
  P  P8  1  0.38136142  0.23973363  0.34640044  1
  P  P9  1  0.89148775  0.39347965  0.16366495  1
  P  P10  1  0.10915928  0.60661942  0.83755574  1
  O  O11  1  0.74452567  0.94788921  0.78326784  1
  O  O12  1  0.25458321  0.05152494  0.21559452  1
  O  O13  1  0.14574249  0.80537142  0.91087046  1
  O  O14  1  0.85635514  0.19494746  0.08916694  1
  O  O15  1  0.19982520  0.96245890  0.69937399  1
  O  O16  1  0.80157503  0.03847738  0.29915386  1
  O  O17  1  0.36658884  0.73109641  0.53394501  1
  O  O18  1  0.63290275  0.26800811  0.46500204  1
  O  O19  1  0.07791069  0.54452328  0.65280802  1
  O  O20  1  0.92184702  0.45471004  0.34830864  1
  O  O21  1  0.76373489  0.70544059  0.54324676  1
  O  O22  1  0.23675969  0.29480200  0.45621947  1
  O  O23  1  0.98416029  0.80428653  0.35307121  1
  O  O24  1  0.67541543  0.44882889  0.08057867  1
  O  O25  1  0.32448517  0.55069520  0.92067268  1
  O  O26  1  0.54596373  0.72398325  0.23437911  1
  O  O27  1  0.45212395  0.27810626  0.76618824  1
  O  O28  1  0.10209976  0.51394938  0.15231074  1
  O  O29  1  0.01397363  0.19466436  0.64621024  1
  O  O30  1  0.42503609  0.37953304  0.27248360  1
  O  O31  1  0.57553581  0.61944781  0.72620659  1
  O  O32  1  0.22028117  0.22779897  0.93812239  1
  O  O33  1  0.77765781  0.77051962  0.06161703  1
  O  O34  1  0.89966568  0.48707576  0.85134380  1
