# generated using pymatgen
data_Ca5Sc2(CoO6)2
_symmetry_space_group_name_H-M   'P 1'
_cell_length_a   6.37737523
_cell_length_b   6.42407720
_cell_length_c   6.42407744
_cell_angle_alpha   91.11057996
_cell_angle_beta   93.59942946
_cell_angle_gamma   93.59941925
_symmetry_Int_Tables_number   1
_chemical_formula_structural   Ca5Sc2(CoO6)2
_chemical_formula_sum   'Ca5 Sc2 Co2 O12'
_cell_volume   262.07722953
_cell_formula_units_Z   1
loop_
 _symmetry_equiv_pos_site_id
 _symmetry_equiv_pos_as_xyz
  1  'x, y, z'
loop_
 _atom_site_type_symbol
 _atom_site_label
 _atom_site_symmetry_multiplicity
 _atom_site_fract_x
 _atom_site_fract_y
 _atom_site_fract_z
 _atom_site_occupancy
  Ca  Ca0  1  0.11147756  0.74152146  0.37761664  1
  Ca  Ca1  1  0.38852244  0.12238336  0.75847854  1
  Ca  Ca2  1  0.62431885  0.88783806  0.24565473  1
  Ca  Ca3  1  0.87568115  0.25434527  0.61216194  1
  Ca  Ca4  1  0.25000000  0.61549986  0.88450014  1
  Sc  Sc5  1  0.25000000  0.25068971  0.24931029  1
  Sc  Sc6  1  0.75000000  0.74416606  0.75583394  1
  Co  Co7  1  0.49674674  0.50186304  0.49661582  1
  Co  Co8  1  0.00325326  0.00338418  0.99813696  1
  O  O9  1  0.96985140  0.07100714  0.28970837  1
  O  O10  1  0.04462516  0.91451737  0.71506681  1
  O  O11  1  0.92466487  0.72395377  0.04363467  1
  O  O12  1  0.29330231  0.96046875  0.08772635  1
  O  O13  1  0.53014860  0.21029163  0.42899286  1
  O  O14  1  0.71548372  0.02997600  0.90141688  1
  O  O15  1  0.57533513  0.45636533  0.77604623  1
  O  O16  1  0.20669769  0.41227365  0.53953125  1
  O  O17  1  0.39372052  0.55553202  0.22122199  1
  O  O18  1  0.45537484  0.78493319  0.58548263  1
  O  O19  1  0.10627948  0.27877801  0.94446798  1
  O  O20  1  0.78451628  0.59858312  0.47002400  1
