# generated using pymatgen
data_Ca3Ni2O7
_symmetry_space_group_name_H-M   'P 1'
_cell_length_a   5.37138281
_cell_length_b   5.34304613
_cell_length_c   9.99144302
_cell_angle_alpha   105.50848114
_cell_angle_beta   90.00000000
_cell_angle_gamma   90.00000000
_symmetry_Int_Tables_number   1
_chemical_formula_structural   Ca3Ni2O7
_chemical_formula_sum   'Ca6 Ni4 O14'
_cell_volume   276.30957042
_cell_formula_units_Z   2
loop_
 _symmetry_equiv_pos_site_id
 _symmetry_equiv_pos_as_xyz
  1  'x, y, z'
loop_
 _atom_site_type_symbol
 _atom_site_label
 _atom_site_symmetry_multiplicity
 _atom_site_fract_x
 _atom_site_fract_y
 _atom_site_fract_z
 _atom_site_occupancy
  Ca  Ca0  1  0.70166219  0.76245440  0.00000000  1
  Ca  Ca1  1  0.20166219  0.23754560  0.00000000  1
  Ca  Ca2  1  0.79089246  0.57263221  0.63054208  1
  Ca  Ca3  1  0.29089246  0.42736779  0.36945792  1
  Ca  Ca4  1  0.79089246  0.94208912  0.36945792  1
  Ca  Ca5  1  0.29089246  0.05791088  0.63054208  1
  Ni  Ni6  1  0.74905606  0.34703307  0.19546151  1
  Ni  Ni7  1  0.24905606  0.65296693  0.80453849  1
  Ni  Ni8  1  0.24905606  0.84842844  0.19546151  1
  Ni  Ni9  1  0.74905606  0.15157156  0.80453849  1
  O  O10  1  0.74712994  0.00588852  0.60678909  1
  O  O11  1  0.24712994  0.99411148  0.39321091  1
  O  O12  1  0.24712994  0.60089957  0.60678909  1
  O  O13  1  0.74712994  0.39910043  0.39321091  1
  O  O14  1  0.03360245  0.34945700  0.77509239  1
  O  O15  1  0.53360245  0.65054300  0.22490761  1
  O  O16  1  0.53360245  0.42563540  0.77509239  1
  O  O17  1  0.03360245  0.57436460  0.22490761  1
  O  O18  1  0.95872038  0.87447953  0.83384647  1
  O  O19  1  0.45872038  0.12552047  0.16615353  1
  O  O20  1  0.75953722  0.32755558  0.00000000  1
  O  O21  1  0.25953722  0.67244442  1.00000000  1
  O  O22  1  0.95872038  0.04063306  0.16615353  1
  O  O23  1  0.45872038  0.95936694  0.83384647  1
