# generated using pymatgen
data_Ca3Co2(Si2O7)2
_symmetry_space_group_name_H-M   'P 1'
_cell_length_a   7.70881385
_cell_length_b   9.35006739
_cell_length_c   9.79762140
_cell_angle_alpha   63.66422410
_cell_angle_beta   66.83363180
_cell_angle_gamma   65.65480851
_symmetry_Int_Tables_number   1
_chemical_formula_structural   Ca3Co2(Si2O7)2
_chemical_formula_sum   'Ca6 Co4 Si8 O28'
_cell_volume   557.12278516
_cell_formula_units_Z   2
loop_
 _symmetry_equiv_pos_site_id
 _symmetry_equiv_pos_as_xyz
  1  'x, y, z'
loop_
 _atom_site_type_symbol
 _atom_site_label
 _atom_site_symmetry_multiplicity
 _atom_site_fract_x
 _atom_site_fract_y
 _atom_site_fract_z
 _atom_site_occupancy
  Ca  Ca0  1  0.83757757  0.93236390  0.45895502  1
  Ca  Ca1  1  0.22889649  0.56763610  0.04104498  1
  Ca  Ca2  1  0.77110351  0.43236390  0.95895502  1
  Ca  Ca3  1  0.65298414  0.25000000  0.75000000  1
  Ca  Ca4  1  0.16242243  0.06763610  0.54104498  1
  Ca  Ca5  1  0.34701586  0.75000000  0.25000000  1
  Co  Co6  1  0.21384002  0.25000000  0.75000000  1
  Co  Co7  1  0.78615998  0.75000000  0.25000000  1
  Co  Co8  1  0.00000000  0.00000000  0.00000000  1
  Co  Co9  1  0.00000000  0.50000000  0.50000000  1
  Si  Si10  1  0.46492309  0.30433335  0.34255960  1
  Si  Si11  1  0.88818296  0.80433335  0.84255960  1
  Si  Si12  1  0.46426705  0.89388985  0.85412942  1
  Si  Si13  1  0.78771469  0.39388985  0.35412942  1
  Si  Si14  1  0.11181704  0.19566665  0.15744040  1
  Si  Si15  1  0.53573295  0.10611015  0.14587058  1
  Si  Si16  1  0.21228531  0.60611015  0.64587058  1
  Si  Si17  1  0.53507691  0.69566665  0.65744040  1
  O  O18  1  0.12209164  0.67618010  0.49561928  1
  O  O19  1  0.02402949  0.58870535  0.28341728  1
  O  O20  1  0.54810556  0.91279596  0.19050175  1
  O  O21  1  0.10384788  0.08870535  0.78341728  1
  O  O22  1  0.73693825  0.68940876  0.51712723  1
  O  O23  1  0.95040310  0.37492975  0.18403331  1
  O  O24  1  0.34859573  0.41279596  0.69050175  1
  O  O25  1  0.94347424  0.81059124  0.98287277  1
  O  O26  1  0.04959690  0.62507025  0.81596669  1
  O  O27  1  0.34306132  0.73757472  0.59268682  1
  O  O28  1  0.97597051  0.41129465  0.71658272  1
  O  O29  1  0.26306175  0.31059124  0.48287277  1
  O  O30  1  0.50936715  0.12507025  0.31596669  1
  O  O31  1  0.70610798  0.17618010  0.99561928  1
  O  O32  1  0.32667714  0.23757472  0.09268682  1
  O  O33  1  0.05652576  0.18940876  0.01712723  1
  O  O34  1  0.10643884  0.04186352  0.32150054  1
  O  O35  1  0.65693868  0.26242528  0.40731318  1
  O  O36  1  0.46980190  0.45813648  0.17849946  1
  O  O37  1  0.67332286  0.76242528  0.90731318  1
  O  O38  1  0.49063285  0.87492975  0.68403331  1
  O  O39  1  0.89615212  0.91129465  0.21658272  1
  O  O40  1  0.53019810  0.54186352  0.82150054  1
  O  O41  1  0.45189444  0.08720404  0.80949825  1
  O  O42  1  0.89356116  0.95813648  0.67849946  1
  O  O43  1  0.65140427  0.58720404  0.30949825  1
  O  O44  1  0.29389202  0.82381990  0.00438072  1
  O  O45  1  0.87790836  0.32381990  0.50438072  1
