# generated using pymatgen
data_Ca3Si4(NiO7)2
_symmetry_space_group_name_H-M   'P 1'
_cell_length_a   7.59806026
_cell_length_b   9.26696914
_cell_length_c   9.70207522
_cell_angle_alpha   63.88850073
_cell_angle_beta   66.94784826
_cell_angle_gamma   65.79805941
_symmetry_Int_Tables_number   1
_chemical_formula_structural   Ca3Si4(NiO7)2
_chemical_formula_sum   'Ca6 Si8 Ni4 O28'
_cell_volume   540.58508624
_cell_formula_units_Z   2
loop_
 _symmetry_equiv_pos_site_id
 _symmetry_equiv_pos_as_xyz
  1  'x, y, z'
loop_
 _atom_site_type_symbol
 _atom_site_label
 _atom_site_symmetry_multiplicity
 _atom_site_fract_x
 _atom_site_fract_y
 _atom_site_fract_z
 _atom_site_occupancy
  Ca  Ca0  1  0.83511017  0.93293801  0.45813629  1
  Ca  Ca1  1  0.22618447  0.56706199  0.04186371  1
  Ca  Ca2  1  0.77381553  0.43293801  0.95813629  1
  Ca  Ca3  1  0.65686377  0.25000000  0.75000000  1
  Ca  Ca4  1  0.16488983  0.06706199  0.54186371  1
  Ca  Ca5  1  0.34313623  0.75000000  0.25000000  1
  Si  Si6  1  0.46455651  0.30612463  0.34369262  1
  Si  Si7  1  0.88562524  0.80612463  0.84369262  1
  Si  Si8  1  0.45934699  0.89730433  0.85252748  1
  Si  Si9  1  0.79082219  0.39730433  0.35252748  1
  Si  Si10  1  0.11437476  0.19387537  0.15630738  1
  Si  Si11  1  0.54065301  0.10269567  0.14747252  1
  Si  Si12  1  0.20917781  0.60269567  0.64747252  1
  Si  Si13  1  0.53544349  0.69387537  0.65630738  1
  Ni  Ni14  1  0.21383373  0.25000000  0.75000000  1
  Ni  Ni15  1  0.78616627  0.75000000  0.25000000  1
  Ni  Ni16  1  0.00000000  0.00000000  0.00000000  1
  Ni  Ni17  1  0.00000000  0.50000000  0.50000000  1
  O  O18  1  0.11747329  0.67132206  0.49687813  1
  O  O19  1  0.02429833  0.58748156  0.28412784  1
  O  O20  1  0.54671685  0.91200699  0.19072506  1
  O  O21  1  0.10409227  0.08748156  0.78412784  1
  O  O22  1  0.74031423  0.68576844  0.51579493  1
  O  O23  1  0.95214886  0.37473554  0.18135389  1
  O  O24  1  0.35055010  0.41200699  0.69072506  1
  O  O25  1  0.94187760  0.81423156  0.98420507  1
  O  O26  1  0.04785114  0.62526446  0.81864611  1
  O  O27  1  0.34127912  0.73638864  0.59127601  1
  O  O28  1  0.97570167  0.41251844  0.71587216  1
  O  O29  1  0.25968577  0.31423156  0.48420507  1
  O  O30  1  0.50823928  0.12526446  0.31864611  1
  O  O31  1  0.71432552  0.17132206  0.99687813  1
  O  O32  1  0.33105623  0.23638864  0.09127601  1
  O  O33  1  0.05812240  0.18576844  0.01579493  1
  O  O34  1  0.10758424  0.04057873  0.32143720  1
  O  O35  1  0.65872088  0.26361136  0.40872399  1
  O  O36  1  0.46959917  0.45942127  0.17856280  1
  O  O37  1  0.66894377  0.76361136  0.90872399  1
  O  O38  1  0.49176072  0.87473554  0.68135389  1
  O  O39  1  0.89590773  0.91251844  0.21587216  1
  O  O40  1  0.53040083  0.54057873  0.82143720  1
  O  O41  1  0.45328315  0.08799301  0.80927494  1
  O  O42  1  0.89241576  0.95942127  0.67856280  1
  O  O43  1  0.64944990  0.58799301  0.30927494  1
  O  O44  1  0.28567448  0.82867794  0.00312187  1
  O  O45  1  0.88252671  0.32867794  0.50312187  1
