# generated using pymatgen
data_MoWO6
_symmetry_space_group_name_H-M   'P 1'
_cell_length_a   5.36452445
_cell_length_b   5.42466125
_cell_length_c   7.62658379
_cell_angle_alpha   90.00000000
_cell_angle_beta   89.97269597
_cell_angle_gamma   90.00000000
_symmetry_Int_Tables_number   1
_chemical_formula_structural   MoWO6
_chemical_formula_sum   'Mo2 W2 O12'
_cell_volume   221.93911477
_cell_formula_units_Z   2
loop_
 _symmetry_equiv_pos_site_id
 _symmetry_equiv_pos_as_xyz
  1  'x, y, z'
loop_
 _atom_site_type_symbol
 _atom_site_label
 _atom_site_symmetry_multiplicity
 _atom_site_fract_x
 _atom_site_fract_y
 _atom_site_fract_z
 _atom_site_occupancy
  Mo  Mo0  1  0.50000000  0.00000000  0.00000000  1
  Mo  Mo1  1  0.00000100  0.49999900  0.50000000  1
  W  W2  1  0.50000000  0.00000000  0.49999900  1
  W  W3  1  0.00000000  0.49999900  0.00000000  1
  O  O4  1  0.72284821  0.27724384  0.47236063  1
  O  O5  1  0.77715179  0.77724484  0.02763937  1
  O  O6  1  0.27715079  0.72275616  0.52763937  1
  O  O7  1  0.22284921  0.22275516  0.97236063  1
  O  O8  1  0.22210119  0.22367934  0.52845718  1
  O  O9  1  0.27789881  0.72367834  0.97154282  1
  O  O10  1  0.77789981  0.77632066  0.47154282  1
  O  O11  1  0.72210019  0.27632166  0.02845718  1
  O  O12  1  0.05580693  0.49398912  0.25050670  1
  O  O13  1  0.44419407  0.99399012  0.24949230  1
  O  O14  1  0.55580693  0.00600988  0.75050770  1
  O  O15  1  0.94419407  0.50601088  0.74949330  1
