# generated using pymatgen
data_CaBiMoO5
_symmetry_space_group_name_H-M   'P 1'
_cell_length_a   5.53641223
_cell_length_b   10.94363302
_cell_length_c   16.52744452
_cell_angle_alpha   90.00000000
_cell_angle_beta   90.00000000
_cell_angle_gamma   90.00000000
_symmetry_Int_Tables_number   1
_chemical_formula_structural   CaBiMoO5
_chemical_formula_sum   'Ca8 Bi8 Mo8 O40'
_cell_volume   1001.37247223
_cell_formula_units_Z   8
loop_
 _symmetry_equiv_pos_site_id
 _symmetry_equiv_pos_as_xyz
  1  'x, y, z'
loop_
 _atom_site_type_symbol
 _atom_site_label
 _atom_site_symmetry_multiplicity
 _atom_site_fract_x
 _atom_site_fract_y
 _atom_site_fract_z
 _atom_site_occupancy
  Ca  Ca0  1  0.52178057  0.36227567  0.44196200  1
  Ca  Ca1  1  0.02178057  0.13772433  0.44196200  1
  Ca  Ca2  1  0.02178057  0.63772433  0.05803800  1
  Ca  Ca3  1  0.97821943  0.36227567  0.94196200  1
  Ca  Ca4  1  0.47821943  0.13772433  0.94196200  1
  Ca  Ca5  1  0.97821943  0.86227567  0.55803800  1
  Ca  Ca6  1  0.47821943  0.63772433  0.55803800  1
  Ca  Ca7  1  0.52178057  0.86227567  0.05803800  1
  Bi  Bi8  1  0.94960869  0.85269006  0.22534247  1
  Bi  Bi9  1  0.05039131  0.14730994  0.77465753  1
  Bi  Bi10  1  0.55039131  0.35269006  0.77465753  1
  Bi  Bi11  1  0.05039131  0.64730994  0.72534247  1
  Bi  Bi12  1  0.44960869  0.14730994  0.27465753  1
  Bi  Bi13  1  0.44960869  0.64730994  0.22534247  1
  Bi  Bi14  1  0.55039131  0.85269006  0.72534247  1
  Bi  Bi15  1  0.94960869  0.35269006  0.27465753  1
  Mo  Mo16  1  0.98654055  0.37793159  0.59104518  1
  Mo  Mo17  1  0.51345945  0.87793159  0.40895482  1
  Mo  Mo18  1  0.01345945  0.62206841  0.40895482  1
  Mo  Mo19  1  0.48654055  0.12206841  0.59104518  1
  Mo  Mo20  1  0.01345945  0.12206841  0.09104518  1
  Mo  Mo21  1  0.98654055  0.87793159  0.90895482  1
  Mo  Mo22  1  0.51345945  0.37793159  0.09104518  1
  Mo  Mo23  1  0.48654055  0.62206841  0.90895482  1
  O  O24  1  0.92585769  0.32410558  0.69958310  1
  O  O25  1  0.27716094  0.03757046  0.05490321  1
  O  O26  1  0.22283906  0.53757046  0.94509679  1
  O  O27  1  0.24404328  0.77121825  0.15098904  1
  O  O28  1  0.25595672  0.27121825  0.84901096  1
  O  O29  1  0.92585769  0.82410558  0.80041690  1
  O  O30  1  0.25595672  0.77121825  0.65098904  1
  O  O31  1  0.57414231  0.82410558  0.30041690  1
  O  O32  1  0.27716094  0.53757046  0.44509679  1
  O  O33  1  0.07414231  0.67589442  0.30041690  1
  O  O34  1  0.57414231  0.32410558  0.19958310  1
  O  O35  1  0.72428318  0.21607252  0.53780602  1
  O  O36  1  0.77716094  0.96242954  0.44509679  1
  O  O37  1  0.75595672  0.72878175  0.65098904  1
  O  O38  1  0.17637795  0.01779318  0.87644135  1
  O  O39  1  0.77716094  0.46242954  0.05490321  1
  O  O40  1  0.07414231  0.17589442  0.19958310  1
  O  O41  1  0.74404328  0.22878175  0.34901096  1
  O  O42  1  0.22428318  0.78392748  0.96219398  1
  O  O43  1  0.22283906  0.03757046  0.55490321  1
  O  O44  1  0.27571682  0.78392748  0.46219398  1
  O  O45  1  0.82362205  0.98220682  0.12355865  1
  O  O46  1  0.75595672  0.22878175  0.84901096  1
  O  O47  1  0.67637795  0.98220682  0.62355865  1
  O  O48  1  0.27571682  0.28392748  0.03780602  1
  O  O49  1  0.22428318  0.28392748  0.53780602  1
  O  O50  1  0.72283906  0.46242954  0.55490321  1
  O  O51  1  0.72283906  0.96242954  0.94509679  1
  O  O52  1  0.67637795  0.48220682  0.87644135  1
  O  O53  1  0.77571682  0.71607252  0.46219398  1
  O  O54  1  0.77571682  0.21607252  0.03780602  1
  O  O55  1  0.72428318  0.71607252  0.96219398  1
  O  O56  1  0.82362205  0.48220682  0.37644135  1
  O  O57  1  0.74404328  0.72878175  0.15098904  1
  O  O58  1  0.24404328  0.27121825  0.34901096  1
  O  O59  1  0.17637795  0.51779318  0.62355865  1
  O  O60  1  0.32362205  0.51779318  0.12355865  1
  O  O61  1  0.42585769  0.17589442  0.69958310  1
  O  O62  1  0.32362205  0.01779318  0.37644135  1
  O  O63  1  0.42585769  0.67589442  0.80041690  1
