# generated using pymatgen
data_CaVAsO5
_symmetry_space_group_name_H-M   'P 1'
_cell_length_a   7.67760222
_cell_length_b   6.01108207
_cell_length_c   9.01995971
_cell_angle_alpha   90.02781365
_cell_angle_beta   89.99812775
_cell_angle_gamma   90.16821396
_symmetry_Int_Tables_number   1
_chemical_formula_structural   CaVAsO5
_chemical_formula_sum   'Ca4 V4 As4 O20'
_cell_volume   416.27558423
_cell_formula_units_Z   4
loop_
 _symmetry_equiv_pos_site_id
 _symmetry_equiv_pos_as_xyz
  1  'x, y, z'
loop_
 _atom_site_type_symbol
 _atom_site_label
 _atom_site_symmetry_multiplicity
 _atom_site_fract_x
 _atom_site_fract_y
 _atom_site_fract_z
 _atom_site_occupancy
  Ca  Ca0  1  0.90236553  0.77386522  0.08154898  1
  Ca  Ca1  1  0.59735555  0.22609741  0.58181450  1
  Ca  Ca2  1  0.39516296  0.72332999  0.91774569  1
  Ca  Ca3  1  0.10437910  0.27673357  0.41783477  1
  V  V4  1  0.99213807  0.49451441  0.75109655  1
  V  V5  1  0.50788035  0.50541638  0.25133081  1
  V  V6  1  0.49220263  0.00343468  0.24616970  1
  V  V7  1  0.00782427  0.99676941  0.74597310  1
  As  As8  1  0.64260393  0.26909100  0.94045232  1
  As  As9  1  0.85713462  0.73107137  0.44064406  1
  As  As10  1  0.14269583  0.23128235  0.05943956  1
  As  As11  1  0.35750540  0.76879030  0.55966529  1
  O  O12  1  0.82417043  0.24149404  0.82371646  1
  O  O13  1  0.67520318  0.75849040  0.32453969  1
  O  O14  1  0.32500935  0.25977734  0.17503463  1
  O  O15  1  0.17490943  0.74042678  0.67468148  1
  O  O16  1  0.47770210  0.33720274  0.82380833  1
  O  O17  1  0.02212565  0.66273388  0.32315144  1
  O  O18  1  0.98071577  0.15941162  0.17968620  1
  O  O19  1  0.51911886  0.84002049  0.67959339  1
  O  O20  1  0.61732343  0.01880693  0.03326930  1
  O  O21  1  0.88276416  0.98120413  0.53322512  1
  O  O22  1  0.11546120  0.48206504  0.96819528  1
  O  O23  1  0.38427423  0.51766609  0.46792059  1
  O  O24  1  0.66017766  0.49702909  0.05826862  1
  O  O25  1  0.84039806  0.50283395  0.55790926  1
  O  O26  1  0.15882141  0.00532650  0.94091249  1
  O  O27  1  0.34152557  0.99503263  0.44107688  1
  O  O28  1  0.88120642  0.75300727  0.83376673  1
  O  O29  1  0.61924484  0.24712279  0.33395316  1
  O  O30  1  0.37571676  0.74548469  0.16679879  1
  O  O31  1  0.12488127  0.25446948  0.66677685  1
