# generated using pymatgen
data_Na3Al2(PO4)3
_symmetry_space_group_name_H-M   'P 1'
_cell_length_a   10.14210862
_cell_length_b   10.14210862
_cell_length_c   10.14210862
_cell_angle_alpha   109.47122063
_cell_angle_beta   109.47122063
_cell_angle_gamma   109.47122063
_symmetry_Int_Tables_number   1
_chemical_formula_structural   Na3Al2(PO4)3
_chemical_formula_sum   'Na12 Al8 P12 O48'
_cell_volume   803.08752767
_cell_formula_units_Z   4
loop_
 _symmetry_equiv_pos_site_id
 _symmetry_equiv_pos_as_xyz
  1  'x, y, z'
loop_
 _atom_site_type_symbol
 _atom_site_label
 _atom_site_symmetry_multiplicity
 _atom_site_fract_x
 _atom_site_fract_y
 _atom_site_fract_z
 _atom_site_occupancy
  Na  Na0  1  0.75000000  0.62500000  0.37500000  1
  Na  Na1  1  0.25000000  0.87500000  0.12500000  1
  Na  Na2  1  0.12500000  0.75000000  0.37500000  1
  Na  Na3  1  0.37500000  0.25000000  0.12500000  1
  Na  Na4  1  0.37500000  0.62500000  0.25000000  1
  Na  Na5  1  0.12500000  0.87500000  0.75000000  1
  Na  Na6  1  0.25000000  0.37500000  0.62500000  1
  Na  Na7  1  0.75000000  0.12500000  0.87500000  1
  Na  Na8  1  0.87500000  0.25000000  0.62500000  1
  Na  Na9  1  0.62500000  0.75000000  0.87500000  1
  Na  Na10  1  0.62500000  0.37500000  0.75000000  1
  Na  Na11  1  0.87500000  0.12500000  0.25000000  1
  Al  Al12  1  -0.00000000  0.00000000  0.50000000  1
  Al  Al13  1  0.50000000  0.50000000  0.50000000  1
  Al  Al14  1  -0.00000000  0.50000000  -0.00000000  1
  Al  Al15  1  0.50000000  0.00000000  -0.00000000  1
  Al  Al16  1  -0.00000000  0.50000000  0.50000000  1
  Al  Al17  1  0.50000000  0.00000000  0.50000000  1
  Al  Al18  1  0.50000000  0.50000000  -0.00000000  1
  Al  Al19  1  -0.00000000  0.00000000  -0.00000000  1
  P  P20  1  0.75000000  0.37500000  0.12500000  1
  P  P21  1  0.25000000  0.12500000  0.37500000  1
  P  P22  1  0.37500000  0.75000000  0.62500000  1
  P  P23  1  0.12500000  0.25000000  0.87500000  1
  P  P24  1  0.62500000  0.87500000  0.25000000  1
  P  P25  1  0.87500000  0.62500000  0.75000000  1
  P  P26  1  0.25000000  0.62500000  0.87500000  1
  P  P27  1  0.75000000  0.87500000  0.62500000  1
  P  P28  1  0.62500000  0.25000000  0.37500000  1
  P  P29  1  0.87500000  0.75000000  0.12500000  1
  P  P30  1  0.37500000  0.12500000  0.75000000  1
  P  P31  1  0.12500000  0.37500000  0.25000000  1
  O  O32  1  0.38896595  0.30294784  0.49932847  1
  O  O33  1  0.11103405  0.11036252  0.41398189  1
  O  O34  1  0.69638063  0.19705216  0.08601811  1
  O  O35  1  0.80361937  0.38963748  0.00067153  1
  O  O36  1  0.08601811  0.19638063  0.69705216  1
  O  O37  1  0.00067153  0.30361937  0.88963748  1
  O  O38  1  0.49932847  0.88896595  0.80294784  1
  O  O39  1  0.41398189  0.61103405  0.61036252  1
  O  O40  1  0.88963748  0.50067153  0.80361937  1
  O  O41  1  0.69705216  0.58601811  0.69638063  1
  O  O42  1  0.61036252  0.91398189  0.11103405  1
  O  O43  1  0.80294784  0.99932847  0.38896595  1
  O  O44  1  0.61103405  0.69705216  0.50067153  1
  O  O45  1  0.88896595  0.88963748  0.58601811  1
  O  O46  1  0.30361937  0.80294784  0.91398189  1
  O  O47  1  0.19638063  0.61036252  0.99932847  1
  O  O48  1  0.91398189  0.80361937  0.30294784  1
  O  O49  1  0.99932847  0.69638063  0.11036252  1
  O  O50  1  0.50067153  0.11103405  0.19705216  1
  O  O51  1  0.58601811  0.38896595  0.38963748  1
  O  O52  1  0.11036252  0.49932847  0.19638063  1
  O  O53  1  0.30294784  0.41398189  0.30361937  1
  O  O54  1  0.38963748  0.08601811  0.88896595  1
  O  O55  1  0.19705216  0.00067153  0.61103405  1
  O  O56  1  0.38963748  0.80361937  0.50067153  1
  O  O57  1  0.19705216  0.69638063  0.58601811  1
  O  O58  1  0.11036252  0.11103405  0.91398189  1
  O  O59  1  0.30294784  0.38896595  0.99932847  1
  O  O60  1  0.88896595  0.49932847  0.30294784  1
  O  O61  1  0.61103405  0.41398189  0.11036252  1
  O  O62  1  0.19638063  0.08601811  0.19705216  1
  O  O63  1  0.30361937  0.00067153  0.38963748  1
  O  O64  1  0.58601811  0.69705216  0.19638063  1
  O  O65  1  0.50067153  0.88963748  0.30361937  1
  O  O66  1  0.99932847  0.80294784  0.88896595  1
  O  O67  1  0.91398189  0.61036252  0.61103405  1
  O  O68  1  0.61036252  0.19638063  0.49932847  1
  O  O69  1  0.80294784  0.30361937  0.41398189  1
  O  O70  1  0.88963748  0.88896595  0.08601811  1
  O  O71  1  0.69705216  0.61103405  0.00067153  1
  O  O72  1  0.11103405  0.50067153  0.69705216  1
  O  O73  1  0.38896595  0.58601811  0.88963748  1
  O  O74  1  0.80361937  0.91398189  0.80294784  1
  O  O75  1  0.69638063  0.99932847  0.61036252  1
  O  O76  1  0.41398189  0.30294784  0.80361937  1
  O  O77  1  0.49932847  0.11036252  0.69638063  1
  O  O78  1  0.00067153  0.19705216  0.11103405  1
  O  O79  1  0.08601811  0.38963748  0.38896595  1
