# generated using pymatgen
data_K2TiSi3O10
_symmetry_space_group_name_H-M   'P 1'
_cell_length_a   7.20409200
_cell_length_b   10.00165333
_cell_length_c   13.00789386
_cell_angle_alpha   90.00000000
_cell_angle_beta   90.00000000
_cell_angle_gamma   90.00000000
_symmetry_Int_Tables_number   1
_chemical_formula_structural   K2TiSi3O10
_chemical_formula_sum   'K8 Ti4 Si12 O40'
_cell_volume   937.25557460
_cell_formula_units_Z   4
loop_
 _symmetry_equiv_pos_site_id
 _symmetry_equiv_pos_as_xyz
  1  'x, y, z'
loop_
 _atom_site_type_symbol
 _atom_site_label
 _atom_site_symmetry_multiplicity
 _atom_site_fract_x
 _atom_site_fract_y
 _atom_site_fract_z
 _atom_site_occupancy
  K  K0  1  0.34051719  0.78060967  0.12593085  1
  K  K1  1  0.84051719  0.71939033  0.87406915  1
  K  K2  1  0.65948281  0.28060967  0.37406915  1
  K  K3  1  0.15948281  0.21939033  0.62593085  1
  K  K4  1  0.78298396  0.56130296  0.58512748  1
  K  K5  1  0.28298396  0.93869704  0.41487252  1
  K  K6  1  0.21701604  0.06130296  0.91487252  1
  K  K7  1  0.71701604  0.43869704  0.08512748  1
  Ti  Ti8  1  0.23839315  0.54954455  0.70848552  1
  Ti  Ti9  1  0.73839315  0.95045545  0.29151448  1
  Ti  Ti10  1  0.76160685  0.04954455  0.79151448  1
  Ti  Ti11  1  0.26160685  0.45045545  0.20848552  1
  Si  Si12  1  0.48918717  0.82266119  0.67612134  1
  Si  Si13  1  0.98918717  0.67733881  0.32387866  1
  Si  Si14  1  0.51081283  0.32266119  0.82387866  1
  Si  Si15  1  0.01081283  0.17733881  0.17612134  1
  Si  Si16  1  0.76552630  0.96737088  0.54960999  1
  Si  Si17  1  0.26552630  0.53262912  0.45039001  1
  Si  Si18  1  0.23447370  0.46737088  0.95039001  1
  Si  Si19  1  0.73447370  0.03262912  0.04960999  1
  Si  Si20  1  0.92089219  0.35933808  0.83206308  1
  Si  Si21  1  0.42089219  0.14066192  0.16793692  1
  Si  Si22  1  0.07910781  0.85933808  0.66793692  1
  Si  Si23  1  0.57910781  0.64066192  0.33206308  1
  O  O24  1  0.25618392  0.57893828  0.85907100  1
  O  O25  1  0.75618392  0.92106172  0.14092900  1
  O  O26  1  0.74381608  0.07893828  0.64092900  1
  O  O27  1  0.24381608  0.42106172  0.35907100  1
  O  O28  1  0.44623019  0.66409086  0.68675239  1
  O  O29  1  0.94623019  0.83590914  0.31324761  1
  O  O30  1  0.55376981  0.16409086  0.81324761  1
  O  O31  1  0.05376981  0.33590914  0.18675239  1
  O  O32  1  0.22040573  0.48401705  0.56588019  1
  O  O33  1  0.72040573  0.01598295  0.43411981  1
  O  O34  1  0.77959427  0.98401705  0.93411981  1
  O  O35  1  0.27959427  0.51598295  0.06588019  1
  O  O36  1  0.01450480  0.43869991  0.73713553  1
  O  O37  1  0.51450480  0.06130009  0.26286447  1
  O  O38  1  0.98549520  0.93869991  0.76286447  1
  O  O39  1  0.48549520  0.56130009  0.23713553  1
  O  O40  1  0.40322116  0.38592745  0.72558666  1
  O  O41  1  0.90322116  0.11407255  0.27441334  1
  O  O42  1  0.59677884  0.88592745  0.77441334  1
  O  O43  1  0.09677884  0.61407255  0.22558666  1
  O  O44  1  0.06782689  0.69868795  0.68505137  1
  O  O45  1  0.56782689  0.80131205  0.31494863  1
  O  O46  1  0.93217311  0.19868795  0.81494863  1
  O  O47  1  0.43217311  0.30131205  0.18505137  1
  O  O48  1  0.29670320  0.90776627  0.65052874  1
  O  O49  1  0.79670320  0.59223373  0.34947126  1
  O  O50  1  0.70329680  0.40776627  0.84947126  1
  O  O51  1  0.20329680  0.09223373  0.15052874  1
  O  O52  1  0.98059637  0.90772526  0.55839872  1
  O  O53  1  0.48059637  0.59227474  0.44160128  1
  O  O54  1  0.01940363  0.40772526  0.94160128  1
  O  O55  1  0.51940363  0.09227474  0.05839872  1
  O  O56  1  0.62566616  0.83942866  0.57519659  1
  O  O57  1  0.12566616  0.66057134  0.42480341  1
  O  O58  1  0.37433384  0.33942866  0.92480341  1
  O  O59  1  0.87433384  0.16057134  0.07519659  1
  O  O60  1  0.58635575  0.30360277  0.58896093  1
  O  O61  1  0.08635575  0.19639723  0.41103907  1
  O  O62  1  0.41364425  0.80360277  0.91103907  1
  O  O63  1  0.91364425  0.69639723  0.08896093  1
