# generated using pymatgen
data_MgVNiP2O9
_symmetry_space_group_name_H-M   'P 1'
_cell_length_a   6.29233546
_cell_length_b   7.30655250
_cell_length_c   14.16946364
_cell_angle_alpha   89.95397200
_cell_angle_beta   89.98306364
_cell_angle_gamma   89.99746345
_symmetry_Int_Tables_number   1
_chemical_formula_structural   MgVNiP2O9
_chemical_formula_sum   'Mg4 V4 Ni4 P8 O36'
_cell_volume   651.44481039
_cell_formula_units_Z   4
loop_
 _symmetry_equiv_pos_site_id
 _symmetry_equiv_pos_as_xyz
  1  'x, y, z'
loop_
 _atom_site_type_symbol
 _atom_site_label
 _atom_site_symmetry_multiplicity
 _atom_site_fract_x
 _atom_site_fract_y
 _atom_site_fract_z
 _atom_site_occupancy
  Mg  Mg0  1  0.74956723  0.89018389  0.77586217  1
  Mg  Mg1  1  0.74977302  0.61128783  0.27569324  1
  Mg  Mg2  1  0.25044001  0.10957289  0.22418922  1
  Mg  Mg3  1  0.25020288  0.38843375  0.72429529  1
  V  V4  1  0.74951154  0.34729132  0.88204283  1
  V  V5  1  0.25048228  0.65266640  0.11798004  1
  V  V6  1  0.25038699  0.84691540  0.61791421  1
  V  V7  1  0.74964470  0.15301784  0.38207292  1
  Ni  Ni8  1  0.50008795  0.00002563  0.99996663  1
  Ni  Ni9  1  0.50012392  0.49995276  0.49997060  1
  Ni  Ni10  1  0.00002515  0.50011788  0.50004291  1
  Ni  Ni11  1  0.99992876  0.00000207  0.99993404  1
  P  P12  1  0.24983185  0.35535431  0.93206270  1
  P  P13  1  0.75016145  0.64464912  0.06796173  1
  P  P14  1  0.75008806  0.85512670  0.56797061  1
  P  P15  1  0.24991965  0.14486223  0.43202622  1
  P  P16  1  0.75011037  0.38408956  0.69531131  1
  P  P17  1  0.24986591  0.61600277  0.30469325  1
  P  P18  1  0.24977656  0.88453913  0.80470179  1
  P  P19  1  0.75022544  0.11555760  0.19528954  1
  O  O20  1  0.03909446  0.60974542  0.36120939  1
  O  O21  1  0.53945800  0.38980659  0.63870045  1
  O  O22  1  0.96098576  0.10943290  0.13877669  1
  O  O23  1  0.46044156  0.88997443  0.86132920  1
  O  O24  1  0.96086411  0.39029630  0.63877529  1
  O  O25  1  0.46052238  0.61024949  0.36130007  1
  O  O26  1  0.03902145  0.89058249  0.86123127  1
  O  O27  1  0.53955624  0.11002985  0.13866837  1
  O  O28  1  0.25011923  0.33358831  0.47881396  1
  O  O29  1  0.74984733  0.66640194  0.52118130  1
  O  O30  1  0.74985679  0.83348484  0.02116179  1
  O  O31  1  0.25014207  0.16647864  0.97881774  1
  O  O32  1  0.74825284  0.14542852  0.94374351  1
  O  O33  1  0.25174762  0.85452122  0.05628044  1
  O  O34  1  0.25135080  0.64516789  0.55643861  1
  O  O35  1  0.74858369  0.35481028  0.44350285  1
  O  O36  1  0.75012972  0.20515462  0.75723932  1
  O  O37  1  0.24986943  0.79493770  0.24277400  1
  O  O38  1  0.24971450  0.70570578  0.74290789  1
  O  O39  1  0.75027587  0.29443113  0.25706722  1
  O  O40  1  0.43722366  0.12683942  0.36124188  1
  O  O41  1  0.93766161  0.87225867  0.63856618  1
  O  O42  1  0.56294131  0.62615056  0.13879392  1
  O  O43  1  0.06222367  0.37263315  0.86143520  1
  O  O44  1  0.56277140  0.87310927  0.63875601  1
  O  O45  1  0.06236734  0.12767792  0.36142775  1
  O  O46  1  0.43707234  0.37388825  0.86122529  1
  O  O47  1  0.93775153  0.62740034  0.13858336  1
  O  O48  1  0.74993470  0.95903254  0.27123378  1
  O  O49  1  0.25005215  0.04113527  0.72878718  1
  O  O50  1  0.25012893  0.45959431  0.22888091  1
  O  O51  1  0.74987820  0.54051380  0.77111554  1
  O  O52  1  0.75017320  0.99785945  0.49101713  1
  O  O53  1  0.24985289  0.00210365  0.50899476  1
  O  O54  1  0.24972110  0.49784659  0.00901213  1
  O  O55  1  0.75025837  0.50207939  0.99102838  1
