# generated using pymatgen
data_ZnNiP2O7
_symmetry_space_group_name_H-M   'P 1'
_cell_length_a   6.38961455
_cell_length_b   6.35614753
_cell_length_c   6.64974904
_cell_angle_alpha   66.27409159
_cell_angle_beta   81.02627201
_cell_angle_gamma   80.26935767
_symmetry_Int_Tables_number   1
_chemical_formula_structural   ZnNiP2O7
_chemical_formula_sum   'Zn2 Ni2 P4 O14'
_cell_volume   242.52441248
_cell_formula_units_Z   2
loop_
 _symmetry_equiv_pos_site_id
 _symmetry_equiv_pos_as_xyz
  1  'x, y, z'
loop_
 _atom_site_type_symbol
 _atom_site_label
 _atom_site_symmetry_multiplicity
 _atom_site_fract_x
 _atom_site_fract_y
 _atom_site_fract_z
 _atom_site_occupancy
  Zn  Zn0  1  0.86662523  0.28715982  0.16351693  1
  Zn  Zn1  1  0.13337477  0.71284018  0.83648307  1
  Ni  Ni2  1  0.66085026  0.09846869  0.78378086  1
  Ni  Ni3  1  0.33914974  0.90153131  0.21621914  1
  P  P4  1  0.15493028  0.22043078  0.75931619  1
  P  P5  1  0.84506972  0.77956922  0.24068381  1
  P  P6  1  0.61177255  0.63986808  0.68987669  1
  P  P7  1  0.38822745  0.36013192  0.31012331  1
  O  O8  1  0.75978922  0.60966216  0.47703027  1
  O  O9  1  0.24021078  0.39033784  0.52296973  1
  O  O10  1  0.99715272  0.06939193  0.74400656  1
  O  O11  1  0.00284728  0.93060807  0.25599344  1
  O  O12  1  0.61459063  0.26043671  0.38914025  1
  O  O13  1  0.38540937  0.73956329  0.61085975  1
  O  O14  1  0.37778051  0.61033680  0.14405700  1
  O  O15  1  0.62221949  0.38966320  0.85594200  1
  O  O16  1  0.94944107  0.61104626  0.13084203  1
  O  O17  1  0.05055893  0.38895374  0.86915797  1
  O  O18  1  0.65422064  0.93957578  0.12880800  1
  O  O19  1  0.34577936  0.06042422  0.87119200  1
  O  O20  1  0.27951716  0.20161729  0.25260249  1
  O  O21  1  0.72048284  0.79838271  0.74739751  1
