# generated using pymatgen
data_MgMnP2O7
_symmetry_space_group_name_H-M   'P 1'
_cell_length_a   6.59449001
_cell_length_b   6.42784056
_cell_length_c   6.76926734
_cell_angle_alpha   65.31789058
_cell_angle_beta   81.53655308
_cell_angle_gamma   80.64633934
_symmetry_Int_Tables_number   1
_chemical_formula_structural   MgMnP2O7
_chemical_formula_sum   'Mg2 Mn2 P4 O14'
_cell_volume   256.24778948
_cell_formula_units_Z   2
loop_
 _symmetry_equiv_pos_site_id
 _symmetry_equiv_pos_as_xyz
  1  'x, y, z'
loop_
 _atom_site_type_symbol
 _atom_site_label
 _atom_site_symmetry_multiplicity
 _atom_site_fract_x
 _atom_site_fract_y
 _atom_site_fract_z
 _atom_site_occupancy
  Mg  Mg0  1  0.85303183  0.29586271  0.13786131  1
  Mg  Mg1  1  0.14696817  0.70413729  0.86213869  1
  Mn  Mn2  1  0.67169986  0.11187014  0.76483952  1
  Mn  Mn3  1  0.32830014  0.88812986  0.23516048  1
  P  P4  1  0.16577308  0.23000341  0.75587950  1
  P  P5  1  0.83422692  0.76999659  0.24412050  1
  P  P6  1  0.62540389  0.64014180  0.69411912  1
  P  P7  1  0.37459611  0.35985820  0.30588088  1
  O  O8  1  0.75536438  0.60000264  0.48436286  1
  O  O9  1  0.24463562  0.39999736  0.51563714  1
  O  O10  1  0.01663894  0.07156783  0.74727045  1
  O  O11  1  0.98336106  0.92843217  0.25272955  1
  O  O12  1  0.59826863  0.27103431  0.36744965  1
  O  O13  1  0.40173137  0.72896569  0.63255035  1
  O  O14  1  0.35094844  0.60713316  0.12827440  1
  O  O15  1  0.64905156  0.39286684  0.87172460  1
  O  O16  1  0.93160144  0.60391571  0.13781595  1
  O  O17  1  0.06839856  0.39608429  0.86218405  1
  O  O18  1  0.64635397  0.92567122  0.13432489  1
  O  O19  1  0.35364603  0.07432878  0.86567511  1
  O  O20  1  0.25943893  0.19792737  0.26502359  1
  O  O21  1  0.74056107  0.80207263  0.73497641  1
