# generated using pymatgen
data_LiCr3P3O13
_symmetry_space_group_name_H-M   'P 1'
_cell_length_a   6.31354523
_cell_length_b   7.42164986
_cell_length_c   10.51839001
_cell_angle_alpha   100.12817543
_cell_angle_beta   90.00000000
_cell_angle_gamma   90.00000000
_symmetry_Int_Tables_number   1
_chemical_formula_structural   LiCr3P3O13
_chemical_formula_sum   'Li2 Cr6 P6 O26'
_cell_volume   485.17906632
_cell_formula_units_Z   2
loop_
 _symmetry_equiv_pos_site_id
 _symmetry_equiv_pos_as_xyz
  1  'x, y, z'
loop_
 _atom_site_type_symbol
 _atom_site_label
 _atom_site_symmetry_multiplicity
 _atom_site_fract_x
 _atom_site_fract_y
 _atom_site_fract_z
 _atom_site_occupancy
  Li  Li0  1  0.75000000  0.61548344  0.13866721  1
  Li  Li1  1  0.25000000  0.38451656  0.86133279  1
  Cr  Cr2  1  0.25000000  0.36400073  0.19790789  1
  Cr  Cr3  1  0.75000000  0.63599927  0.80209211  1
  Cr  Cr4  1  0.25000000  0.76941638  0.44864109  1
  Cr  Cr5  1  0.50000000  0.00000000  0.00000000  1
  Cr  Cr6  1  0.75000000  0.23058362  0.55135891  1
  Cr  Cr7  1  0.00000000  0.00000000  0.00000000  1
  P  P8  1  0.25000000  0.21257601  0.47795458  1
  P  P9  1  0.75000000  0.78742399  0.52204542  1
  P  P10  1  0.25000000  0.73224817  0.77029480  1
  P  P11  1  0.75000000  0.26775183  0.22970520  1
  P  P12  1  0.75000000  0.30443476  0.87764350  1
  P  P13  1  0.25000000  0.69556524  0.12235650  1
  O  O14  1  0.75000000  0.35193250  0.73812368  1
  O  O15  1  0.55480255  0.73842307  0.43508945  1
  O  O16  1  0.25000000  0.79173836  0.63910619  1
  O  O17  1  0.54480047  0.20252881  0.90029611  1
  O  O18  1  0.75000000  0.66549973  0.62689819  1
  O  O19  1  0.75000000  0.86706099  0.90736368  1
  O  O20  1  0.25000000  0.33450027  0.37310181  1
  O  O21  1  0.04480047  0.79747119  0.09970389  1
  O  O22  1  0.25000000  0.01053639  0.40902637  1
  O  O23  1  0.75000000  0.98946361  0.59097363  1
  O  O24  1  0.06012233  0.61506920  0.79773545  1
  O  O25  1  0.25000000  0.13293901  0.09263632  1
  O  O26  1  0.56012233  0.38493080  0.20226455  1
  O  O27  1  0.75000000  0.50402684  0.95486705  1
  O  O28  1  0.75000000  0.20826164  0.36089381  1
  O  O29  1  0.45519953  0.79747119  0.09970389  1
  O  O30  1  0.94519745  0.73842307  0.43508945  1
  O  O31  1  0.44519745  0.26157693  0.56491055  1
  O  O32  1  0.43987767  0.61506920  0.79773545  1
  O  O33  1  0.25000000  0.64806750  0.26187632  1
  O  O34  1  0.75000000  0.08793559  0.12047095  1
  O  O35  1  0.25000000  0.91206441  0.87952905  1
  O  O36  1  0.93987767  0.38493080  0.20226455  1
  O  O37  1  0.95519953  0.20252881  0.90029611  1
  O  O38  1  0.05480255  0.26157693  0.56491055  1
  O  O39  1  0.25000000  0.49597316  0.04513295  1
