# generated using pymatgen
data_Mo2W(Se2S)2
_symmetry_space_group_name_H-M   'P 1'
_cell_length_a   3.27896314
_cell_length_b   3.27896149
_cell_length_c   30.19732504
_cell_angle_alpha   89.99999701
_cell_angle_beta   90.00000000
_cell_angle_gamma   120.00001666
_symmetry_Int_Tables_number   1
_chemical_formula_structural   Mo2W(Se2S)2
_chemical_formula_sum   'Mo2 W1 Se4 S2'
_cell_volume   281.17187885
_cell_formula_units_Z   1
loop_
 _symmetry_equiv_pos_site_id
 _symmetry_equiv_pos_as_xyz
  1  'x, y, z'
loop_
 _atom_site_type_symbol
 _atom_site_label
 _atom_site_symmetry_multiplicity
 _atom_site_fract_x
 _atom_site_fract_y
 _atom_site_fract_z
 _atom_site_occupancy
  Mo  Mo0  1  0.33331009  0.66662017  0.11563297  1
  Mo  Mo1  1  0.33330999  0.66661999  0.57835535  1
  W  W2  1  0.66668953  0.33337907  0.34699870  1
  Se  Se3  1  0.33335107  0.66670314  0.40323347  1
  Se  Se4  1  0.66664820  0.33329539  0.52239194  1
  Se  Se5  1  0.66664819  0.33329538  0.63425900  1
  Se  Se6  1  0.33335074  0.66670249  0.29069126  1
  S  S7  1  0.66664672  0.33329245  0.06473141  1
  S  S8  1  0.66664647  0.33329193  0.16654689  1
