# generated using pymatgen
data_MoW2(Se2S)2
_symmetry_space_group_name_H-M   'P 1'
_cell_length_a   3.27664069
_cell_length_b   3.27660679
_cell_length_c   30.22521169
_cell_angle_alpha   90.00008959
_cell_angle_beta   90.00000000
_cell_angle_gamma   120.00034210
_symmetry_Int_Tables_number   1
_chemical_formula_structural   MoW2(Se2S)2
_chemical_formula_sum   'Mo1 W2 Se4 S2'
_cell_volume   281.02932054
_cell_formula_units_Z   1
loop_
 _symmetry_equiv_pos_site_id
 _symmetry_equiv_pos_as_xyz
  1  'x, y, z'
loop_
 _atom_site_type_symbol
 _atom_site_label
 _atom_site_symmetry_multiplicity
 _atom_site_fract_x
 _atom_site_fract_y
 _atom_site_fract_z
 _atom_site_occupancy
  Mo  Mo0  1  0.33331131  0.66662262  0.11564286  1
  W  W1  1  0.33331186  0.66662372  0.57834242  1
  W  W2  1  0.66668496  0.33336992  0.34698575  1
  Se  Se3  1  0.33335119  0.66670337  0.40315880  1
  Se  Se4  1  0.66664536  0.33328971  0.52210915  1
  Se  Se5  1  0.66664547  0.33328994  0.63455958  1
  Se  Se6  1  0.33336229  0.66672558  0.29076082  1
  S  S7  1  0.66664404  0.33328708  0.06473904  1
  S  S8  1  0.66664452  0.33328804  0.16654257  1
