# generated using pymatgen
data_Sr2IrO4
_symmetry_space_group_name_H-M   'P 1'
_cell_length_a   3.95431393
_cell_length_b   3.95431392
_cell_length_c   6.96971768
_cell_angle_alpha   106.47985442
_cell_angle_beta   106.47985440
_cell_angle_gamma   90.00000005
_symmetry_Int_Tables_number   1
_chemical_formula_structural   Sr2IrO4
_chemical_formula_sum   'Sr2 Ir1 O4'
_cell_volume   99.82797589
_cell_formula_units_Z   1
loop_
 _symmetry_equiv_pos_site_id
 _symmetry_equiv_pos_as_xyz
  1  'x, y, z'
loop_
 _atom_site_type_symbol
 _atom_site_label
 _atom_site_symmetry_multiplicity
 _atom_site_fract_x
 _atom_site_fract_y
 _atom_site_fract_z
 _atom_site_occupancy
  O  O0  1  0.50000000  0.00000000  0.00000000  1
  O  O1  1  0.00000000  0.50000000  0.00000000  1
  O  O2  1  0.83698336  0.83698336  0.67396673  1
  O  O3  1  0.16301664  0.16301664  0.32603327  1
  Sr  Sr4  1  0.64627746  0.64627746  0.29255493  1
  Sr  Sr5  1  0.35372254  0.35372254  0.70744507  1
  Ir  Ir6  1  0.00000000  0.00000000  0.00000000  1
