# generated using pymatgen
data_MoW2(SeS2)2
_symmetry_space_group_name_H-M   'P 1'
_cell_length_a   3.23416500
_cell_length_b   3.23415702
_cell_length_c   29.65296963
_cell_angle_alpha   90.00092254
_cell_angle_beta   90.00000000
_cell_angle_gamma   120.00008167
_symmetry_Int_Tables_number   1
_chemical_formula_structural   MoW2(SeS2)2
_chemical_formula_sum   'Mo1 W2 Se2 S4'
_cell_volume   268.60973017
_cell_formula_units_Z   1
loop_
 _symmetry_equiv_pos_site_id
 _symmetry_equiv_pos_as_xyz
  1  'x, y, z'
loop_
 _atom_site_type_symbol
 _atom_site_label
 _atom_site_symmetry_multiplicity
 _atom_site_fract_x
 _atom_site_fract_y
 _atom_site_fract_z
 _atom_site_occupancy
  Mo  Mo0  1  0.66668946  0.33337891  0.34697633  1
  W  W1  1  0.33331172  0.66662343  0.11564114  1
  W  W2  1  0.33331242  0.66662483  0.57834175  1
  Se  Se3  1  0.66665179  0.33330259  0.52046618  1
  Se  Se4  1  0.66663155  0.33326210  0.63618159  1
  S  S5  1  0.33335283  0.66670665  0.39923192  1
  S  S6  1  0.66664865  0.33329631  0.06315642  1
  S  S7  1  0.66664889  0.33329678  0.16813837  1
  S  S8  1  0.33335370  0.66670840  0.29470729  1
