# generated using pymatgen
data_MoW2(SeS2)2
_symmetry_space_group_name_H-M   'P 1'
_cell_length_a   3.23494553
_cell_length_b   3.23498396
_cell_length_c   29.67356728
_cell_angle_alpha   90.00017430
_cell_angle_beta   90.00000000
_cell_angle_gamma   119.99960690
_symmetry_Int_Tables_number   1
_chemical_formula_structural   MoW2(SeS2)2
_chemical_formula_sum   'Mo1 W2 Se2 S4'
_cell_volume   268.93121605
_cell_formula_units_Z   1
loop_
 _symmetry_equiv_pos_site_id
 _symmetry_equiv_pos_as_xyz
  1  'x, y, z'
loop_
 _atom_site_type_symbol
 _atom_site_label
 _atom_site_symmetry_multiplicity
 _atom_site_fract_x
 _atom_site_fract_y
 _atom_site_fract_z
 _atom_site_occupancy
  Mo  Mo0  1  0.33330923  0.66661847  0.11563783  1
  W  W1  1  0.33330863  0.66661727  0.57834418  1
  W  W2  1  0.66669077  0.33338154  0.34695973  1
  Se  Se3  1  0.66665001  0.33329902  0.52053931  1
  Se  Se4  1  0.66665053  0.33330005  0.63611747  1
  S  S5  1  0.33335060  0.66670221  0.39939907  1
  S  S6  1  0.66664544  0.33328988  0.06342296  1
  S  S7  1  0.66664626  0.33329152  0.16786180  1
  S  S8  1  0.33334953  0.66670006  0.29455865  1
