# generated using pymatgen
data_Mo2W(Se2S)2
_symmetry_space_group_name_H-M   'P 1'
_cell_length_a   3.27907055
_cell_length_b   3.27907503
_cell_length_c   30.18753744
_cell_angle_alpha   90.00049392
_cell_angle_beta   90.00000000
_cell_angle_gamma   119.99995488
_symmetry_Int_Tables_number   1
_chemical_formula_structural   Mo2W(Se2S)2
_chemical_formula_sum   'Mo2 W1 Se4 S2'
_cell_volume   281.09986107
_cell_formula_units_Z   1
loop_
 _symmetry_equiv_pos_site_id
 _symmetry_equiv_pos_as_xyz
  1  'x, y, z'
loop_
 _atom_site_type_symbol
 _atom_site_label
 _atom_site_symmetry_multiplicity
 _atom_site_fract_x
 _atom_site_fract_y
 _atom_site_fract_z
 _atom_site_occupancy
  Mo  Mo0  1  0.33330830  0.66661661  0.11562850  1
  Mo  Mo1  1  0.66669029  0.33338059  0.34697279  1
  W  W2  1  0.33330774  0.66661547  0.57835712  1
  Se  Se3  1  0.33335339  0.66670779  0.40284552  1
  Se  Se4  1  0.66664980  0.33329861  0.52209184  1
  Se  Se5  1  0.66664964  0.33329829  0.63459649  1
  Se  Se6  1  0.33334972  0.66670044  0.29106258  1
  S  S7  1  0.66664657  0.33329215  0.06474679  1
  S  S8  1  0.66664553  0.33329006  0.16653938  1
