# generated using pymatgen
data_Mo2W(SeS2)2
_symmetry_space_group_name_H-M   'P 1'
_cell_length_a   3.23350588
_cell_length_b   3.23349354
_cell_length_c   29.80695045
_cell_angle_alpha   90.00080222
_cell_angle_beta   90.00000000
_cell_angle_gamma   120.00012621
_symmetry_Int_Tables_number   1
_chemical_formula_structural   Mo2W(SeS2)2
_chemical_formula_sum   'Mo2 W1 Se2 S4'
_cell_volume   269.89402993
_cell_formula_units_Z   1
loop_
 _symmetry_equiv_pos_site_id
 _symmetry_equiv_pos_as_xyz
  1  'x, y, z'
loop_
 _atom_site_type_symbol
 _atom_site_label
 _atom_site_symmetry_multiplicity
 _atom_site_fract_x
 _atom_site_fract_y
 _atom_site_fract_z
 _atom_site_occupancy
  Mo  Mo0  1  0.33331101  0.66662203  0.11565215  1
  Mo  Mo1  1  0.66668814  0.33337628  0.34696282  1
  W  W2  1  0.33331060  0.66662121  0.57832448  1
  Se  Se3  1  0.66664127  0.33328153  0.52076756  1
  Se  Se4  1  0.66665144  0.33330189  0.63588391  1
  S  S5  1  0.33335579  0.66671258  0.39899295  1
  S  S6  1  0.66664336  0.33328573  0.06362336  1
  S  S7  1  0.66664808  0.33329516  0.16768727  1
  S  S8  1  0.33335129  0.66670359  0.29494649  1
