# generated using pymatgen
data_ScP2NO8
_symmetry_space_group_name_H-M   'P 1'
_cell_length_a   5.46175702
_cell_length_b   8.36977139
_cell_length_c   17.24657353
_cell_angle_alpha   90.00000000
_cell_angle_beta   90.90553807
_cell_angle_gamma   90.00000000
_symmetry_Int_Tables_number   1
_chemical_formula_structural   ScP2NO8
_chemical_formula_sum   'Sc4 P8 N4 O32'
_cell_volume   788.30549393
_cell_formula_units_Z   4
loop_
 _symmetry_equiv_pos_site_id
 _symmetry_equiv_pos_as_xyz
  1  'x, y, z'
loop_
 _atom_site_type_symbol
 _atom_site_label
 _atom_site_symmetry_multiplicity
 _atom_site_fract_x
 _atom_site_fract_y
 _atom_site_fract_z
 _atom_site_occupancy
  Sc  Sc0  1  0.27484377  0.47302810  0.64018821  1
  Sc  Sc1  1  0.72515623  0.97302810  0.85981179  1
  Sc  Sc2  1  0.72515623  0.52697190  0.35981179  1
  Sc  Sc3  1  0.27484377  0.02697190  0.14018821  1
  P  P4  1  0.75766239  0.66264926  0.55389885  1
  P  P5  1  0.24233761  0.16264926  0.94610115  1
  P  P6  1  0.24233761  0.33735074  0.44610115  1
  P  P7  1  0.75766239  0.83735074  0.05389885  1
  P  P8  1  0.21216287  0.72470600  0.80564438  1
  P  P9  1  0.78783713  0.22470600  0.69435562  1
  P  P10  1  0.78783713  0.27529400  0.19435562  1
  P  P11  1  0.21216287  0.77529400  0.30564438  1
  N  N12  1  0.77862301  0.94959517  0.61599224  1
  N  N13  1  0.22137699  0.44959517  0.88400776  1
  N  N14  1  0.22137699  0.05040483  0.38400776  1
  N  N15  1  0.77862301  0.55040483  0.11599224  1
  O  O16  1  0.99460865  0.61717297  0.59306712  1
  O  O17  1  0.00539135  0.11717297  0.90693288  1
  O  O18  1  0.00539135  0.38282703  0.40693288  1
  O  O19  1  0.99460865  0.88282703  0.09306712  1
  O  O20  1  0.73447741  0.64038385  0.46768799  1
  O  O21  1  0.26552259  0.14038385  0.03231201  1
  O  O22  1  0.26552259  0.35961615  0.53231201  1
  O  O23  1  0.73447741  0.85961615  0.96768799  1
  O  O24  1  0.52934797  0.63953287  0.60010337  1
  O  O25  1  0.47065203  0.13953287  0.89989663  1
  O  O26  1  0.47065203  0.36046713  0.39989663  1
  O  O27  1  0.52934797  0.86046713  0.10010337  1
  O  O28  1  0.21847282  0.38022632  0.95049155  1
  O  O29  1  0.78152718  0.88022632  0.54950845  1
  O  O30  1  0.78152718  0.61977368  0.04950845  1
  O  O31  1  0.21847282  0.11977368  0.45049155  1
  O  O32  1  0.24460170  0.60288200  0.74305095  1
  O  O33  1  0.75539830  0.10288200  0.75694905  1
  O  O34  1  0.75539830  0.39711800  0.25694905  1
  O  O35  1  0.24460170  0.89711800  0.24305095  1
  O  O36  1  0.42851894  0.82796466  0.82539461  1
  O  O37  1  0.57148106  0.32796466  0.67460539  1
  O  O38  1  0.57148106  0.17203534  0.17460539  1
  O  O39  1  0.42851894  0.67203534  0.32539461  1
  O  O40  1  0.96301123  0.79804740  0.81372381  1
  O  O41  1  0.03698877  0.29804740  0.68627619  1
  O  O42  1  0.03698877  0.20195260  0.18627619  1
  O  O43  1  0.96301123  0.70195260  0.31372381  1
  O  O44  1  0.21099972  0.60021496  0.89445631  1
  O  O45  1  0.78900028  0.10021496  0.60554369  1
  O  O46  1  0.78900028  0.39978504  0.10554369  1
  O  O47  1  0.21099972  0.89978504  0.39445631  1
