# generated using pymatgen
data_U2PbSe5
_symmetry_space_group_name_H-M   'P 1'
_cell_length_a   7.82269334
_cell_length_b   8.10849971
_cell_length_c   12.88607678
_cell_angle_alpha   90.00000000
_cell_angle_beta   90.00000000
_cell_angle_gamma   90.00000000
_symmetry_Int_Tables_number   1
_chemical_formula_structural   U2PbSe5
_chemical_formula_sum   'U8 Pb4 Se20'
_cell_volume   817.36780204
_cell_formula_units_Z   4
loop_
 _symmetry_equiv_pos_site_id
 _symmetry_equiv_pos_as_xyz
  1  'x, y, z'
loop_
 _atom_site_type_symbol
 _atom_site_label
 _atom_site_symmetry_multiplicity
 _atom_site_fract_x
 _atom_site_fract_y
 _atom_site_fract_z
 _atom_site_occupancy
  U  U0  1  0.97997889  0.99826692  0.17916834  1
  U  U1  1  0.52002111  0.50173308  0.67916834  1
  U  U2  1  0.02002111  0.49826692  0.82083166  1
  U  U3  1  0.47997889  0.00173308  0.32083166  1
  U  U4  1  0.02002111  0.00173308  0.82083166  1
  U  U5  1  0.47997889  0.49826692  0.32083166  1
  U  U6  1  0.97997889  0.50173308  0.17916834  1
  U  U7  1  0.52002111  0.99826692  0.67916834  1
  Pb  Pb8  1  0.43339874  0.75000000  0.00911115  1
  Pb  Pb9  1  0.06660126  0.75000000  0.50911115  1
  Pb  Pb10  1  0.56660126  0.25000000  0.99088885  1
  Pb  Pb11  1  0.93339874  0.25000000  0.49088885  1
  Se  Se12  1  0.67183380  0.53903990  0.87993938  1
  Se  Se13  1  0.82816620  0.96096010  0.37993938  1
  Se  Se14  1  0.32816620  0.03903990  0.12006062  1
  Se  Se15  1  0.17183380  0.46096010  0.62006062  1
  Se  Se16  1  0.32816620  0.46096010  0.12006062  1
  Se  Se17  1  0.17183380  0.03903990  0.62006062  1
  Se  Se18  1  0.67183380  0.96096010  0.87993938  1
  Se  Se19  1  0.82816620  0.53903990  0.37993938  1
  Se  Se20  1  0.67441049  0.75000000  0.18851834  1
  Se  Se21  1  0.82558951  0.75000000  0.68851834  1
  Se  Se22  1  0.32558951  0.25000000  0.81148166  1
  Se  Se23  1  0.17441049  0.25000000  0.31148166  1
  Se  Se24  1  0.01791356  0.75000000  0.00126657  1
  Se  Se25  1  0.48208644  0.75000000  0.50126657  1
  Se  Se26  1  0.98208644  0.25000000  0.99873343  1
  Se  Se27  1  0.51791356  0.25000000  0.49873343  1
  Se  Se28  1  0.30291997  0.75000000  0.78669113  1
  Se  Se29  1  0.19708003  0.75000000  0.28669113  1
  Se  Se30  1  0.69708003  0.25000000  0.21330887  1
  Se  Se31  1  0.80291997  0.25000000  0.71330887  1
