# generated using pymatgen
data_Ca2Mg
_symmetry_space_group_name_H-M   'P 1'
_cell_length_a   13.98533525
_cell_length_b   3.78126009
_cell_length_c   8.33131715
_cell_angle_alpha   90.00000000
_cell_angle_beta   105.97631398
_cell_angle_gamma   90.00000000
_symmetry_Int_Tables_number   1
_chemical_formula_structural   Ca2Mg
_chemical_formula_sum   'Ca8 Mg4'
_cell_volume   423.56120750
_cell_formula_units_Z   4
loop_
 _symmetry_equiv_pos_site_id
 _symmetry_equiv_pos_as_xyz
  1  'x, y, z'
loop_
 _atom_site_type_symbol
 _atom_site_label
 _atom_site_symmetry_multiplicity
 _atom_site_fract_x
 _atom_site_fract_y
 _atom_site_fract_z
 _atom_site_occupancy
  Ca  Ca0  1  0.19059212  0.50000000  0.14394978  1
  Ca  Ca1  1  0.47424074  0.50000000  0.24258575  1
  Ca  Ca2  1  0.02575926  0.00000000  0.75741425  1
  Ca  Ca3  1  0.30940788  0.00000000  0.85605022  1
  Ca  Ca4  1  0.69059212  0.00000000  0.14394978  1
  Ca  Ca5  1  0.97424074  -0.00000000  0.24258575  1
  Ca  Ca6  1  0.52575926  0.50000000  0.75741425  1
  Ca  Ca7  1  0.80940788  0.50000000  0.85605022  1
  Mg  Mg8  1  0.34372459  -0.00000000  0.46611463  1
  Mg  Mg9  1  0.15627541  0.50000000  0.53388537  1
  Mg  Mg10  1  0.84372459  0.50000000  0.46611463  1
  Mg  Mg11  1  0.65627541  -0.00000000  0.53388537  1
