# generated using pymatgen
data_Mg4Mn5(TeO6)3
_symmetry_space_group_name_H-M   'P 1'
_cell_length_a   8.89701089
_cell_length_b   8.89701067
_cell_length_c   10.71589060
_cell_angle_alpha   87.28405109
_cell_angle_beta   87.28405011
_cell_angle_gamma   61.01685172
_symmetry_Int_Tables_number   1
_chemical_formula_structural   Mg4Mn5(TeO6)3
_chemical_formula_sum   'Mg8 Mn10 Te6 O36'
_cell_volume   740.88142084
_cell_formula_units_Z   2
loop_
 _symmetry_equiv_pos_site_id
 _symmetry_equiv_pos_as_xyz
  1  'x, y, z'
loop_
 _atom_site_type_symbol
 _atom_site_label
 _atom_site_symmetry_multiplicity
 _atom_site_fract_x
 _atom_site_fract_y
 _atom_site_fract_z
 _atom_site_occupancy
  Mg  Mg0  1  0.87019085  0.53967396  0.32243481  1
  Mg  Mg1  1  0.48272332  0.56912818  0.19983715  1
  Mg  Mg2  1  0.46032604  0.12980915  0.67756519  1
  Mg  Mg3  1  0.43087182  0.51727668  0.80016285  1
  Mg  Mg4  1  0.17740595  0.87462479  0.70034460  1
  Mg  Mg5  1  0.14847747  0.26065728  0.82179115  1
  Mg  Mg6  1  0.73934272  0.85152253  0.17820885  1
  Mg  Mg7  1  0.12537521  0.82259405  0.29965540  1
  Mn  Mn8  1  0.80082157  0.48059077  0.98997895  1
  Mn  Mn9  1  0.08860698  0.19259789  0.48979842  1
  Mn  Mn10  1  0.35331727  0.31958228  0.30816193  1
  Mn  Mn11  1  0.92916754  0.74394496  0.80788013  1
  Mn  Mn12  1  0.68041772  0.64668273  0.69183807  1
  Mn  Mn13  1  0.99356465  0.00643535  0.00000000  1
  Mn  Mn14  1  0.61299715  0.38700285  0.50000000  1
  Mn  Mn15  1  0.25605504  0.07083346  0.19211987  1
  Mn  Mn16  1  0.80740211  0.91139302  0.51020158  1
  Mn  Mn17  1  0.51940923  0.19917843  0.01002105  1
  Te  Te18  1  0.46396825  0.86063198  0.94431777  1
  Te  Te19  1  0.80398992  0.19645768  0.25075967  1
  Te  Te20  1  0.80354232  0.19601008  0.74924033  1
  Te  Te21  1  0.46874124  0.85522361  0.44432549  1
  Te  Te22  1  0.14477639  0.53125876  0.55567451  1
  Te  Te23  1  0.13936802  0.53603175  0.05568223  1
  O  O24  1  0.39223584  0.08111592  0.85025055  1
  O  O25  1  0.70659090  0.42868120  0.81653600  1
  O  O26  1  0.56183157  0.63780736  0.53338781  1
  O  O27  1  0.71615028  0.14666293  0.40681312  1
  O  O28  1  0.57131880  0.29340910  0.18346400  1
  O  O29  1  0.85333707  0.28384972  0.59318688  1
  O  O30  1  0.37435344  0.78147214  0.31189423  1
  O  O31  1  0.03870067  0.11349991  0.80604313  1
  O  O32  1  0.56730327  0.27986429  0.69296853  1
  O  O33  1  0.07543560  0.42635124  0.42411417  1
  O  O34  1  0.55449690  0.65083518  0.04755654  1
  O  O35  1  0.53503902  0.96473379  0.07516653  1
  O  O36  1  0.90182706  0.96315168  0.68231078  1
  O  O37  1  0.68914532  0.76146179  0.85995595  1
  O  O38  1  0.34916482  0.44550310  0.95244346  1
  O  O39  1  0.23387017  0.60962185  0.18801492  1
  O  O40  1  0.05441634  0.74098239  0.45236928  1
  O  O41  1  0.23853821  0.31085468  0.14004405  1
  O  O42  1  0.36219264  0.43816843  0.46661219  1
  O  O43  1  0.25901761  0.94558366  0.54763072  1
  O  O44  1  0.68986363  0.78313459  0.35064905  1
  O  O45  1  0.92068811  0.62940833  0.63938273  1
  O  O46  1  0.88650009  0.96130033  0.19395687  1
  O  O47  1  0.39037815  0.76612983  0.81198508  1
  O  O48  1  0.04577980  0.75498193  0.96667710  1
  O  O49  1  0.75249028  0.10851748  0.90435089  1
  O  O50  1  0.03526621  0.46496098  0.92483347  1
  O  O51  1  0.21852786  0.62564656  0.68810577  1
  O  O52  1  0.03684832  0.09817294  0.31768922  1
  O  O53  1  0.37059167  0.07931189  0.36061727  1
  O  O54  1  0.21686541  0.31013637  0.64935095  1
  O  O55  1  0.89148252  0.24750972  0.09564911  1
  O  O56  1  0.72013571  0.43269673  0.30703147  1
  O  O57  1  0.57364876  0.92456440  0.57588583  1
  O  O58  1  0.24501807  0.95422020  0.03332290  1
  O  O59  1  0.91888408  0.60776416  0.14974945  1
