# generated using pymatgen
data_CaCrBiO5
_symmetry_space_group_name_H-M   'P 1'
_cell_length_a   5.87005327
_cell_length_b   8.33252958
_cell_length_c   11.86567215
_cell_angle_alpha   90.00000000
_cell_angle_beta   90.00000000
_cell_angle_gamma   111.81215923
_symmetry_Int_Tables_number   1
_chemical_formula_structural   CaCrBiO5
_chemical_formula_sum   'Ca4 Cr4 Bi4 O20'
_cell_volume   538.82737835
_cell_formula_units_Z   4
loop_
 _symmetry_equiv_pos_site_id
 _symmetry_equiv_pos_as_xyz
  1  'x, y, z'
loop_
 _atom_site_type_symbol
 _atom_site_label
 _atom_site_symmetry_multiplicity
 _atom_site_fract_x
 _atom_site_fract_y
 _atom_site_fract_z
 _atom_site_occupancy
  Ca  Ca0  1  0.64281033  0.18946588  0.91388330  1
  Ca  Ca1  1  0.35718967  0.81053412  0.08611670  1
  Ca  Ca2  1  0.85718967  0.31053412  0.41388330  1
  Ca  Ca3  1  0.14281033  0.68946588  0.58611670  1
  Cr  Cr4  1  0.80133068  0.97073176  0.64669998  1
  Cr  Cr5  1  0.19866932  0.02926824  0.35330002  1
  Cr  Cr6  1  0.69866932  0.52926824  0.14669998  1
  Cr  Cr7  1  0.30133068  0.47073176  0.85330002  1
  Bi  Bi8  1  0.13591348  0.16669497  0.09319167  1
  Bi  Bi9  1  0.86408652  0.83330503  0.90680833  1
  Bi  Bi10  1  0.63591348  0.66669497  0.40680833  1
  Bi  Bi11  1  0.36408652  0.33330503  0.59319167  1
  O  O12  1  0.56577052  0.33322679  0.07791044  1
  O  O13  1  0.07541022  0.33004839  0.94100196  1
  O  O14  1  0.49633357  0.62435050  0.18168543  1
  O  O15  1  0.74186936  0.51197298  0.52547921  1
  O  O16  1  0.80192056  0.49924589  0.27914023  1
  O  O17  1  0.30192056  0.99924589  0.22085977  1
  O  O18  1  0.57541022  0.83004839  0.55899804  1
  O  O19  1  0.42458978  0.16995161  0.44100196  1
  O  O20  1  0.25813064  0.48802702  0.47452079  1
  O  O21  1  0.93422948  0.16677321  0.57791044  1
  O  O22  1  0.19807944  0.50075411  0.72085977  1
  O  O23  1  0.43422948  0.66677321  0.92208956  1
  O  O24  1  0.06577052  0.83322679  0.42208956  1
  O  O25  1  0.69807944  0.00075411  0.77914023  1
  O  O26  1  0.75813064  0.98802702  0.02547921  1
  O  O27  1  0.24186936  0.01197298  0.97452079  1
  O  O28  1  0.50366643  0.37564950  0.81831457  1
  O  O29  1  0.92458978  0.66995161  0.05899804  1
  O  O30  1  0.00366643  0.87564950  0.68168543  1
  O  O31  1  0.99633357  0.12435050  0.31831457  1
