# generated using pymatgen
data_B6P2H14N2O19
_symmetry_space_group_name_H-M   'P 1'
_cell_length_a   4.55105064
_cell_length_b   9.60149398
_cell_length_c   11.15894767
_cell_angle_alpha   82.21345583
_cell_angle_beta   81.92021182
_cell_angle_gamma   82.14606750
_symmetry_Int_Tables_number   1
_chemical_formula_structural   B6P2H14N2O19
_chemical_formula_sum   'B6 P2 H14 N2 O19'
_cell_volume   474.86953838
_cell_formula_units_Z   1
loop_
 _symmetry_equiv_pos_site_id
 _symmetry_equiv_pos_as_xyz
  1  'x, y, z'
loop_
 _atom_site_type_symbol
 _atom_site_label
 _atom_site_symmetry_multiplicity
 _atom_site_fract_x
 _atom_site_fract_y
 _atom_site_fract_z
 _atom_site_occupancy
  B  B0  1  0.08415391  0.72747079  0.26315836  1
  B  B1  1  0.91584609  0.27252921  0.73684164  1
  B  B2  1  0.80847473  0.70076100  0.47378599  1
  B  B3  1  0.19152527  0.29923900  0.52621401  1
  B  B4  1  0.79580714  0.93134127  0.35473488  1
  B  B5  1  0.20419286  0.06865873  0.64526512  1
  P  P6  1  0.64504464  0.67623134  0.12629540  1
  P  P7  1  0.35495536  0.32376866  0.87370460  1
  H  H8  1  0.19827089  0.25012678  0.12723134  1
  H  H9  1  0.80172911  0.74987322  0.87276866  1
  H  H10  1  0.18541779  0.47667581  0.40816581  1
  H  H11  1  0.81458221  0.52332419  0.59183419  1
  H  H12  1  0.90889285  0.36408418  0.18313551  1
  H  H13  1  0.09110715  0.63591582  0.81686449  1
  H  H14  1  0.43671950  0.89674547  0.58154499  1
  H  H15  1  0.56328050  0.10325453  0.41845501  1
  H  H16  1  0.94428967  0.19598554  0.25041257  1
  H  H17  1  0.05571033  0.80401446  0.74958743  1
  H  H18  1  0.18637204  0.30757998  0.26894639  1
  H  H19  1  0.81362796  0.69242002  0.73105361  1
  H  H20  1  0.68199114  0.49689083  0.02340768  1
  H  H21  1  0.31800886  0.50310917  0.97659232  1
  N  N22  1  0.06201723  0.27848663  0.20749342  1
  N  N23  1  0.93798277  0.72151337  0.79250658  1
  O  O24  1  0.41672110  0.70255097  0.23998088  1
  O  O25  1  0.58327890  0.29744903  0.76001912  1
  O  O26  1  0.62792998  0.50928610  0.10973610  1
  O  O27  1  0.37207002  0.49071390  0.89026390  1
  O  O28  1  0.96226845  0.66756616  0.16640525  1
  O  O29  1  0.03773155  0.33243384  0.83359475  1
  O  O30  1  0.59830838  0.76390296  0.00863539  1
  O  O31  1  0.40169162  0.23609704  0.99136461  1
  O  O32  1  0.98651050  0.87691772  0.26403576  1
  O  O33  1  0.01348950  0.12308228  0.73596424  1
  O  O34  1  0.00157720  0.64416855  0.38283965  1
  O  O35  1  0.99842280  0.35583145  0.61716035  1
  O  O36  1  0.27319419  0.37496238  0.41613264  1
  O  O37  1  0.72680581  0.62503762  0.58386736  1
  O  O38  1  0.29229422  0.92548273  0.65186357  1
  O  O39  1  0.70770578  0.07451727  0.34813643  1
  O  O40  1  0.69119644  0.84393000  0.46006019  1
  O  O41  1  0.30880356  0.15607000  0.53993981  1
  O  O42  1  0.00000000  -0.00000000  -0.00000000  1
