# generated using pymatgen
data_MgCr2P2O9
_symmetry_space_group_name_H-M   'P 1'
_cell_length_a   6.31151179
_cell_length_b   7.29632480
_cell_length_c   14.13482696
_cell_angle_alpha   90.00000000
_cell_angle_beta   90.00000000
_cell_angle_gamma   90.00000000
_symmetry_Int_Tables_number   1
_chemical_formula_structural   MgCr2P2O9
_chemical_formula_sum   'Mg4 Cr8 P8 O36'
_cell_volume   650.92065475
_cell_formula_units_Z   4
loop_
 _symmetry_equiv_pos_site_id
 _symmetry_equiv_pos_as_xyz
  1  'x, y, z'
loop_
 _atom_site_type_symbol
 _atom_site_label
 _atom_site_symmetry_multiplicity
 _atom_site_fract_x
 _atom_site_fract_y
 _atom_site_fract_z
 _atom_site_occupancy
  Mg  Mg0  1  0.75000000  0.91776750  0.77447744  1
  Mg  Mg1  1  0.75000000  0.58223250  0.27447744  1
  Mg  Mg2  1  0.25000100  0.41776650  0.72552256  1
  Mg  Mg3  1  0.25000100  0.08223250  0.22552256  1
  Cr  Cr4  1  0.75000000  0.35585272  0.87723354  1
  Cr  Cr5  1  0.25000100  0.64414728  0.12276646  1
  Cr  Cr6  1  0.25000100  0.85585272  0.62276646  1
  Cr  Cr7  1  0.75000000  0.14414728  0.37723354  1
  Cr  Cr8  1  0.50000000  0.00000000  0.00000000  1
  Cr  Cr9  1  0.50000000  0.50000000  0.50000000  1
  Cr  Cr10  1  0.00000000  0.50000000  0.50000000  1
  Cr  Cr11  1  0.00000000  0.00000000  0.00000000  1
  P  P12  1  0.25000100  0.36492827  0.92806715  1
  P  P13  1  0.75000000  0.63507173  0.07193385  1
  P  P14  1  0.75000000  0.86492827  0.57193285  1
  P  P15  1  0.25000100  0.13507273  0.42806715  1
  P  P16  1  0.75000000  0.38832132  0.69296271  1
  P  P17  1  0.75000000  0.11167868  0.19296271  1
  P  P18  1  0.25000100  0.88832132  0.80703729  1
  P  P19  1  0.25000100  0.61167768  0.30703729  1
  O  O20  1  0.04007231  0.60610229  0.36572632  1
  O  O21  1  0.54007131  0.39389671  0.63427368  1
  O  O22  1  0.95992769  0.10610229  0.13427368  1
  O  O23  1  0.45992769  0.89389771  0.86572632  1
  O  O24  1  0.95992769  0.39389671  0.63427368  1
  O  O25  1  0.45992769  0.60610229  0.36572632  1
  O  O26  1  0.04007231  0.89389771  0.86572632  1
  O  O27  1  0.54007131  0.10610229  0.13427368  1
  O  O28  1  0.25000100  0.32886933  0.47658503  1
  O  O29  1  0.75000000  0.67113167  0.52341497  1
  O  O30  1  0.75000000  0.82886833  0.02341397  1
  O  O31  1  0.25000100  0.17113167  0.97658503  1
  O  O32  1  0.75000000  0.12850990  0.94647308  1
  O  O33  1  0.25000100  0.87149010  0.05352592  1
  O  O34  1  0.25000100  0.62850990  0.55352592  1
  O  O35  1  0.75000000  0.37149110  0.44647408  1
  O  O36  1  0.75000000  0.20832792  0.75391054  1
  O  O37  1  0.25000100  0.79167208  0.24609046  1
  O  O38  1  0.25000100  0.70832792  0.74608946  1
  O  O39  1  0.75000000  0.29167308  0.25390954  1
  O  O40  1  0.43716934  0.12596512  0.35746303  1
  O  O41  1  0.93716934  0.87403488  0.64253697  1
  O  O42  1  0.56283066  0.62596412  0.14253697  1
  O  O43  1  0.06283066  0.37403488  0.85746303  1
  O  O44  1  0.56283066  0.87403488  0.64253697  1
  O  O45  1  0.06283066  0.12596512  0.35746303  1
  O  O46  1  0.43716934  0.37403488  0.85746303  1
  O  O47  1  0.93716934  0.62596412  0.14253697  1
  O  O48  1  0.75000000  0.48966942  0.99726930  1
  O  O49  1  0.25000100  0.04596647  0.73299941  1
  O  O50  1  0.25000100  0.45403253  0.23299941  1
  O  O51  1  0.75000000  0.54596647  0.76700059  1
  O  O52  1  0.75000000  0.01033058  0.49726930  1
  O  O53  1  0.25000100  0.98966942  0.50273070  1
  O  O54  1  0.25000100  0.51032958  0.00272970  1
  O  O55  1  0.75000000  0.95403353  0.26700059  1
