# generated using pymatgen
data_Li(NiO2)2
_symmetry_space_group_name_H-M   'P 1'
_cell_length_a   2.81351929
_cell_length_b   10.26376689
_cell_length_c   5.13606953
_cell_angle_alpha   32.42456201
_cell_angle_beta   90.00000447
_cell_angle_gamma   105.90968133
_symmetry_Int_Tables_number   1
_chemical_formula_structural   Li(NiO2)2
_chemical_formula_sum   'Li1 Ni2 O4'
_cell_volume   68.34700212
_cell_formula_units_Z   1
loop_
 _symmetry_equiv_pos_site_id
 _symmetry_equiv_pos_as_xyz
  1  'x, y, z'
loop_
 _atom_site_type_symbol
 _atom_site_label
 _atom_site_symmetry_multiplicity
 _atom_site_fract_x
 _atom_site_fract_y
 _atom_site_fract_z
 _atom_site_occupancy
  Li  Li0  1  0.99992304  0.49992304  0.00018173  1
  Ni  Ni1  1  0.49975606  0.49975606  0.50030919  1
  Ni  Ni2  1  0.50023795  0.00023795  0.49951613  1
  O  O3  1  0.75623549  0.75623549  0.78982989  1
  O  O4  1  0.79331143  0.29331143  0.69862091  1
  O  O5  1  0.24368963  0.24368963  0.21025771  1
  O  O6  1  0.20684940  0.70684940  0.30128744  1
