# generated using pymatgen
data_Sr2YAlFe2O7
_symmetry_space_group_name_H-M   'P 1'
_cell_length_a   11.77388410
_cell_length_b   11.77388410
_cell_length_c   11.77388410
_cell_angle_alpha   40.26642775
_cell_angle_beta   151.18048088
_cell_angle_gamma   152.48683022
_symmetry_Int_Tables_number   1
_chemical_formula_structural   Sr2YAlFe2O7
_chemical_formula_sum   'Sr4 Y2 Al2 Fe4 O14'
_cell_volume   362.73520025
_cell_formula_units_Z   2
loop_
 _symmetry_equiv_pos_site_id
 _symmetry_equiv_pos_as_xyz
  1  'x, y, z'
loop_
 _atom_site_type_symbol
 _atom_site_label
 _atom_site_symmetry_multiplicity
 _atom_site_fract_x
 _atom_site_fract_y
 _atom_site_fract_z
 _atom_site_occupancy
  Sr  Sr0  1  0.03927680  0.85435101  0.87359744  1
  Sr  Sr1  1  0.98075457  0.16567936  0.12640256  1
  Sr  Sr2  1  0.03927680  0.66567936  0.68492579  1
  Sr  Sr3  1  0.98075457  0.35435101  0.31507421  1
  Y  Y4  1  0.00310729  0.50310729  0.50000000  1
  Y  Y5  1  0.00310729  0.00310729  -0.00000000  1
  Al  Al6  1  0.57580172  0.74695688  0.32884484  1
  Al  Al7  1  0.41811204  0.24695688  0.67115516  1
  Fe  Fe8  1  0.50550336  0.43005235  0.91106938  1
  Fe  Fe9  1  0.51898197  0.59443398  0.08893062  1
  Fe  Fe10  1  0.50550336  0.09443398  0.57545200  1
  Fe  Fe11  1  0.51898197  0.93005235  0.42454800  1
  O  O12  1  0.01685874  0.93748183  0.57937691  1
  O  O13  1  0.35810492  0.43748183  0.42062309  1
  O  O14  1  0.43578553  0.17258734  0.13412695  1
  O  O15  1  0.03846039  0.30165958  0.86587305  1
  O  O16  1  0.43578553  0.80165958  0.76319919  1
  O  O17  1  0.03846039  0.67258734  0.23680081  1
  O  O18  1  0.60815485  0.73449374  0.73091005  1
  O  O19  1  0.00358469  0.87724579  0.26908995  1
  O  O20  1  0.60815485  0.37724579  0.37366110  1
  O  O21  1  0.00358469  0.23449374  0.62633890  1
  O  O22  1  0.48778932  0.87002877  0.25586725  1
  O  O23  1  0.61416252  0.23192107  0.74413275  1
  O  O24  1  0.48778932  0.73192107  0.11776055  1
  O  O25  1  0.61416252  0.37002877  0.88223945  1
