# generated using pymatgen
data_NiP2WO9
_symmetry_space_group_name_H-M   'P 1'
_cell_length_a   6.43422261
_cell_length_b   8.03307979
_cell_length_c   14.04677593
_cell_angle_alpha   90.00908250
_cell_angle_beta   90.00132768
_cell_angle_gamma   90.00003515
_symmetry_Int_Tables_number   1
_chemical_formula_structural   NiP2WO9
_chemical_formula_sum   'Ni4 P8 W4 O36'
_cell_volume   726.03041147
_cell_formula_units_Z   4
loop_
 _symmetry_equiv_pos_site_id
 _symmetry_equiv_pos_as_xyz
  1  'x, y, z'
loop_
 _atom_site_type_symbol
 _atom_site_label
 _atom_site_symmetry_multiplicity
 _atom_site_fract_x
 _atom_site_fract_y
 _atom_site_fract_z
 _atom_site_occupancy
  Ni  Ni0  1  0.50006855  0.99995775  0.00004068  1
  Ni  Ni1  1  0.50001264  0.50011473  0.49995941  1
  Ni  Ni2  1  0.99976252  0.49998826  0.50011204  1
  Ni  Ni3  1  0.00035282  0.00028381  -0.00000069  1
  P  P4  1  0.25000148  0.34161074  0.94333229  1
  P  P5  1  0.74999650  0.65841507  0.05663156  1
  P  P6  1  0.75001283  0.84158220  0.55660921  1
  P  P7  1  0.24997130  0.15842528  0.44340011  1
  P  P8  1  0.74997047  0.39419111  0.68243933  1
  P  P9  1  0.24992436  0.60577943  0.31756374  1
  P  P10  1  0.25003304  0.89411709  0.81757802  1
  P  P11  1  0.74997485  0.10586256  0.18243109  1
  W  W12  1  0.74999146  0.35327705  0.87520152  1
  W  W13  1  0.24999951  0.64669749  0.12479042  1
  W  W14  1  0.25001072  0.85332486  0.62478476  1
  W  W15  1  0.74997185  0.14666137  0.37521317  1
  O  O16  1  0.04940898  0.60110909  0.37294055  1
  O  O17  1  0.54949533  0.39883446  0.62703974  1
  O  O18  1  0.95050709  0.10126800  0.12709650  1
  O  O19  1  0.45056463  0.89870674  0.87295168  1
  O  O20  1  0.95054938  0.39880139  0.62713597  1
  O  O21  1  0.45050934  0.60121767  0.37287464  1
  O  O22  1  0.04951138  0.89875570  0.87292250  1
  O  O23  1  0.54942992  0.10131602  0.12709412  1
  O  O24  1  0.24996639  0.33471059  0.48190937  1
  O  O25  1  0.74999673  0.66534702  0.51808421  1
  O  O26  1  0.75006541  0.83465525  0.01813019  1
  O  O27  1  0.25005268  0.16538196  0.98186547  1
  O  O28  1  0.75001422  0.16069705  0.94281735  1
  O  O29  1  0.25000878  0.83930237  0.05717302  1
  O  O30  1  0.25000504  0.66072932  0.55712038  1
  O  O31  1  0.74997382  0.33926233  0.44287344  1
  O  O32  1  0.75002149  0.23265451  0.75413773  1
  O  O33  1  0.24995824  0.76731398  0.24582614  1
  O  O34  1  0.25001787  0.73262900  0.74579291  1
  O  O35  1  0.74996644  0.26735448  0.25421574  1
  O  O36  1  0.44337461  0.12693167  0.37996897  1
  O  O37  1  0.94342224  0.87300679  0.62005834  1
  O  O38  1  0.55659430  0.62695753  0.12007648  1
  O  O39  1  0.05658750  0.37300242  0.87989857  1
  O  O40  1  0.55659623  0.87301421  0.62004833  1
  O  O41  1  0.05657558  0.12693323  0.37996165  1
  O  O42  1  0.44339860  0.37297130  0.87988619  1
  O  O43  1  0.94341504  0.62692966  0.12006415  1
  O  O44  1  0.74993491  0.97618333  0.26994773  1
  O  O45  1  0.25006328  0.02377832  0.73005661  1
  O  O46  1  0.24999454  0.47616337  0.22999063  1
  O  O47  1  0.74998922  0.52381736  0.76998338  1
  O  O48  1  0.75000848  0.97660199  0.47789206  1
  O  O49  1  0.24997205  0.02340327  0.52211518  1
  O  O50  1  0.25002777  0.47668415  0.02203221  1
  O  O51  1  0.74996760  0.52328666  0.97792420  1
