# generated using pymatgen
data_Mn3Zn3(AsO4)4
_symmetry_space_group_name_H-M   'P 1'
_cell_length_a   5.30450811
_cell_length_b   8.71761989
_cell_length_c   15.43709995
_cell_angle_alpha   100.14699775
_cell_angle_beta   90.00000000
_cell_angle_gamma   90.00000000
_symmetry_Int_Tables_number   1
_chemical_formula_structural   Mn3Zn3(AsO4)4
_chemical_formula_sum   'Mn6 Zn6 As8 O32'
_cell_volume   702.68758387
_cell_formula_units_Z   2
loop_
 _symmetry_equiv_pos_site_id
 _symmetry_equiv_pos_as_xyz
  1  'x, y, z'
loop_
 _atom_site_type_symbol
 _atom_site_label
 _atom_site_symmetry_multiplicity
 _atom_site_fract_x
 _atom_site_fract_y
 _atom_site_fract_z
 _atom_site_occupancy
  Mn  Mn0  1  0.00034319  0.32292496  0.12366145  1
  Mn  Mn1  1  0.99965681  0.67707504  0.87633855  1
  Mn  Mn2  1  0.50034319  0.17707504  0.37633855  1
  Mn  Mn3  1  0.49965681  0.82292496  0.62366145  1
  Mn  Mn4  1  0.50000000  0.50000000  0.00000000  1
  Mn  Mn5  1  0.00000000  0.00000000  0.50000000  1
  Zn  Zn6  1  0.94843960  0.02052969  0.71620616  1
  Zn  Zn7  1  0.44843960  0.47947031  0.78379384  1
  Zn  Zn8  1  0.05156040  0.97947031  0.28379384  1
  Zn  Zn9  1  0.55156040  0.52052969  0.21620616  1
  Zn  Zn10  1  0.00000000  0.00000000  0.00000000  1
  Zn  Zn11  1  0.50000000  0.50000000  0.50000000  1
  As  As12  1  0.51967800  0.88369750  0.85252361  1
  As  As13  1  0.00010134  0.30832044  0.89154890  1
  As  As14  1  0.50010134  0.19167956  0.60845110  1
  As  As15  1  0.49989866  0.80832044  0.39154890  1
  As  As16  1  0.48032200  0.11630250  0.14747639  1
  As  As17  1  -0.00010134  0.69167956  0.10845110  1
  As  As18  1  0.98032200  0.38369750  0.35252361  1
  As  As19  1  0.01967800  0.61630250  0.64747639  1
  O  O20  1  0.10833086  0.57061524  0.74845076  1
  O  O21  1  0.55516857  0.26401651  0.51327247  1
  O  O22  1  0.08907608  0.19202640  0.79725156  1
  O  O23  1  0.10459366  0.81342553  0.64927459  1
  O  O24  1  0.91092392  0.80797360  0.20274844  1
  O  O25  1  0.39166914  0.07061524  0.24845076  1
  O  O26  1  0.58907608  0.30797360  0.70274844  1
  O  O27  1  0.79381242  0.89284344  0.39166450  1
  O  O28  1  0.81074764  0.50495527  0.42840665  1
  O  O29  1  0.89166914  0.42938476  0.25154924  1
  O  O30  1  0.39540634  0.31342553  0.14927459  1
  O  O31  1  0.20618758  0.10715656  0.60833550  1
  O  O32  1  0.20863883  0.47070340  0.90129651  1
  O  O33  1  0.18925236  0.49504473  0.57159335  1
  O  O34  1  0.80202664  0.10987453  0.13118096  1
  O  O35  1  0.30202664  0.39012547  0.36881904  1
  O  O36  1  0.70863883  0.02929660  0.59870349  1
  O  O37  1  0.41092392  0.69202640  0.29725156  1
  O  O38  1  0.31074764  0.99504473  0.07159335  1
  O  O39  1  0.29381242  0.60715656  0.10833550  1
  O  O40  1  0.69797336  0.60987453  0.63118096  1
  O  O41  1  0.19797336  0.89012547  0.86881904  1
  O  O42  1  0.44483143  0.73598349  0.48672753  1
  O  O43  1  0.05516857  0.23598349  0.98672753  1
  O  O44  1  0.79136117  0.52929660  0.09870349  1
  O  O45  1  0.60833086  0.92938476  0.75154924  1
  O  O46  1  0.89540634  0.18657447  0.35072541  1
  O  O47  1  0.68925236  0.00495527  0.92840665  1
  O  O48  1  0.94483143  0.76401651  0.01327247  1
  O  O49  1  0.70618758  0.39284344  0.89166450  1
  O  O50  1  0.29136117  0.97070340  0.40129651  1
  O  O51  1  0.60459366  0.68657447  0.85072541  1
