# generated using pymatgen
data_Hf2H2Pd
_symmetry_space_group_name_H-M   'P 1'
_cell_length_a   3.24089517
_cell_length_b   3.24089517
_cell_length_c   6.45163788
_cell_angle_alpha   104.54665769
_cell_angle_beta   104.54665769
_cell_angle_gamma   90.00000000
_symmetry_Int_Tables_number   1
_chemical_formula_structural   Hf2H2Pd
_chemical_formula_sum   'Hf2 H2 Pd1'
_cell_volume   63.34512052
_cell_formula_units_Z   1
loop_
 _symmetry_equiv_pos_site_id
 _symmetry_equiv_pos_as_xyz
  1  'x, y, z'
loop_
 _atom_site_type_symbol
 _atom_site_label
 _atom_site_symmetry_multiplicity
 _atom_site_fract_x
 _atom_site_fract_y
 _atom_site_fract_z
 _atom_site_occupancy
  Hf  Hf0  1  0.64136494  0.64136494  0.28272988  1
  Hf  Hf1  1  0.35863506  0.35863506  0.71727012  1
  H  H2  1  0.25000000  0.75000000  0.50000000  1
  H  H3  1  0.75000000  0.25000000  0.50000000  1
  Pd  Pd4  1  -0.00000000  -0.00000000  0.00000000  1
