# generated using pymatgen
data_BaCaFeF7
_symmetry_space_group_name_H-M   'P 1'
_cell_length_a   5.70578175
_cell_length_b   9.94739685
_cell_length_c   10.69977190
_cell_angle_alpha   90.00000000
_cell_angle_beta   90.00000000
_cell_angle_gamma   91.52205037
_symmetry_Int_Tables_number   1
_chemical_formula_structural   BaCaFeF7
_chemical_formula_sum   'Ba4 Ca4 Fe4 F28'
_cell_volume   607.07991246
_cell_formula_units_Z   4
loop_
 _symmetry_equiv_pos_site_id
 _symmetry_equiv_pos_as_xyz
  1  'x, y, z'
loop_
 _atom_site_type_symbol
 _atom_site_label
 _atom_site_symmetry_multiplicity
 _atom_site_fract_x
 _atom_site_fract_y
 _atom_site_fract_z
 _atom_site_occupancy
  Ba  Ba0  1  0.26622477  0.50768042  0.33511800  1
  Ba  Ba1  1  0.73377523  0.99231958  0.83511800  1
  Ba  Ba2  1  0.73377523  0.49231958  0.66488200  1
  Ba  Ba3  1  0.26622477  0.00768042  0.16488200  1
  Ca  Ca4  1  0.71597001  0.82776703  0.41432855  1
  Ca  Ca5  1  0.28402999  0.67223297  0.91432855  1
  Ca  Ca6  1  0.71597001  0.32776703  0.08567145  1
  Ca  Ca7  1  0.28402999  0.17223297  0.58567145  1
  Fe  Fe8  1  0.19306723  0.80534216  0.62646583  1
  Fe  Fe9  1  0.80693277  0.19465784  0.37353417  1
  Fe  Fe10  1  0.19306723  0.30534216  0.87353417  1
  Fe  Fe11  1  0.80693277  0.69465784  0.12646583  1
  F  F12  1  0.10090599  0.10137144  0.40976266  1
  F  F13  1  0.34425076  0.36854211  0.02561342  1
  F  F14  1  0.46362572  0.72880179  0.71208157  1
  F  F15  1  0.53637428  0.27119821  0.28791843  1
  F  F16  1  0.92344444  0.35333468  0.46150045  1
  F  F17  1  0.29332357  0.47761356  0.79560531  1
  F  F18  1  0.00758398  0.74175456  0.77542802  1
  F  F19  1  0.07655556  0.14666532  0.96150045  1
  F  F20  1  0.34425076  0.86854211  0.47438658  1
  F  F21  1  0.53637428  0.77119821  0.21208157  1
  F  F22  1  0.10090599  0.60137144  0.09023734  1
  F  F23  1  0.89909401  0.89862856  0.59023734  1
  F  F24  1  0.99241602  0.75824544  0.27542802  1
  F  F25  1  0.39801993  0.87750639  0.96138018  1
  F  F26  1  0.07655556  0.64666532  0.53849955  1
  F  F27  1  0.92344444  0.85333468  0.03849955  1
  F  F28  1  0.99241602  0.25824544  0.22457198  1
  F  F29  1  0.89909401  0.39862856  0.90976266  1
  F  F30  1  0.60198007  0.62249361  0.46138018  1
  F  F31  1  0.65574924  0.63145789  0.97438658  1
  F  F32  1  0.60198007  0.12249361  0.03861982  1
  F  F33  1  0.00758398  0.24175456  0.72457198  1
  F  F34  1  0.39801993  0.37750639  0.53861982  1
  F  F35  1  0.70667643  0.02238644  0.29560531  1
  F  F36  1  0.70667643  0.52238644  0.20439469  1
  F  F37  1  0.29332357  0.97761356  0.70439469  1
  F  F38  1  0.65574924  0.13145789  0.52561342  1
  F  F39  1  0.46362572  0.22880179  0.78791843  1
