# generated using pymatgen
data_Ba2YV3O8
_symmetry_space_group_name_H-M   'P 1'
_cell_length_a   3.97715927
_cell_length_b   4.01593404
_cell_length_c   12.03759747
_cell_angle_alpha   90.00537152
_cell_angle_beta   89.99739385
_cell_angle_gamma   89.69696989
_symmetry_Int_Tables_number   1
_chemical_formula_structural   Ba2YV3O8
_chemical_formula_sum   'Ba2 Y1 V3 O8'
_cell_volume   192.26192826
_cell_formula_units_Z   1
loop_
 _symmetry_equiv_pos_site_id
 _symmetry_equiv_pos_as_xyz
  1  'x, y, z'
loop_
 _atom_site_type_symbol
 _atom_site_label
 _atom_site_symmetry_multiplicity
 _atom_site_fract_x
 _atom_site_fract_y
 _atom_site_fract_z
 _atom_site_occupancy
  Ba  Ba0  1  0.50001017  0.49995764  0.16248790  1
  Ba  Ba1  1  0.49998986  0.50003817  0.83694154  1
  Y  Y2  1  0.50000051  0.49999757  0.49997152  1
  V  V3  1  -0.00000133  0.99998520  0.34050682  1
  V  V4  1  0.99999087  0.00001059  0.99986364  1
  V  V5  1  0.99999632  0.00002925  0.65939190  1
  O  O6  1  0.00000738  0.50003727  0.38330874  1
  O  O7  1  0.49999178  -0.00000283  0.38349665  1
  O  O8  1  0.50000061  0.99999646  0.99995931  1
  O  O9  1  0.00001205  -0.00000662  0.18336879  1
  O  O10  1  0.99999237  0.49996001  0.61717571  1
  O  O11  1  0.50001370  0.99999987  0.61691297  1
  O  O12  1  -0.00000422  0.99999868  0.81670597  1
  O  O13  1  -0.00000006  0.49999774  0.99990855  1
