# generated using pymatgen
data_CdH12C2S2(N3Cl2)2
_symmetry_space_group_name_H-M   'P 1'
_cell_length_a   7.61642060
_cell_length_b   8.42518085
_cell_length_c   11.09594444
_cell_angle_alpha   90.00000000
_cell_angle_beta   97.78206625
_cell_angle_gamma   90.00000000
_symmetry_Int_Tables_number   1
_chemical_formula_structural   CdH12C2S2(N3Cl2)2
_chemical_formula_sum   'Cd2 H24 C4 S4 N12 Cl8'
_cell_volume   705.46611390
_cell_formula_units_Z   2
loop_
 _symmetry_equiv_pos_site_id
 _symmetry_equiv_pos_as_xyz
  1  'x, y, z'
loop_
 _atom_site_type_symbol
 _atom_site_label
 _atom_site_symmetry_multiplicity
 _atom_site_fract_x
 _atom_site_fract_y
 _atom_site_fract_z
 _atom_site_occupancy
  Cd  Cd0  1  0.50000000  0.50000000  0.50000000  1
  Cd  Cd1  1  0.00000000  0.00000000  0.00000000  1
  H  H2  1  0.19583366  0.97195563  0.44519674  1
  H  H3  1  0.69583366  0.52804437  0.94519674  1
  H  H4  1  0.80416634  0.02804437  0.55480326  1
  H  H5  1  0.30416634  0.47195563  0.05480326  1
  H  H6  1  0.58546951  0.03995976  0.76502811  1
  H  H7  1  0.08546951  0.46004024  0.26502811  1
  H  H8  1  0.41453049  0.96004024  0.23497189  1
  H  H9  1  0.91453049  0.53995976  0.73497189  1
  H  H10  1  0.20167979  0.17893520  0.42822296  1
  H  H11  1  0.70167979  0.32106480  0.92822296  1
  H  H12  1  0.79832021  0.82106480  0.57177704  1
  H  H13  1  0.29832021  0.67893520  0.07177704  1
  H  H14  1  0.31838318  0.84993774  0.62414620  1
  H  H15  1  0.81838318  0.65006226  0.12414620  1
  H  H16  1  0.68161682  0.15006226  0.37585380  1
  H  H17  1  0.18161682  0.34993774  0.87585380  1
  H  H18  1  0.40131957  0.01412848  0.83632813  1
  H  H19  1  0.90131957  0.48587152  0.33632813  1
  H  H20  1  0.59868043  0.98587152  0.16367187  1
  H  H21  1  0.09868043  0.51412848  0.66367187  1
  H  H22  1  0.51818475  0.85377261  0.79108106  1
  H  H23  1  0.01818475  0.64622739  0.29108106  1
  H  H24  1  0.48181525  0.14622739  0.20891894  1
  H  H25  1  0.98181525  0.35377261  0.70891894  1
  C  C26  1  0.32639489  0.09739480  0.59016629  1
  C  C27  1  0.82639489  0.40260520  0.09016629  1
  C  C28  1  0.67360511  0.90260520  0.40983371  1
  C  C29  1  0.17360511  0.59739480  0.90983371  1
  S  S30  1  0.40185325  0.27273473  0.65270809  1
  S  S31  1  0.90185325  0.22726527  0.15270809  1
  S  S32  1  0.59814675  0.72726527  0.34729191  1
  S  S33  1  0.09814675  0.77273473  0.84729191  1
  N  N34  1  0.36673980  0.96117709  0.65362541  1
  N  N35  1  0.86673980  0.53882291  0.15362541  1
  N  N36  1  0.63326020  0.03882291  0.34637459  1
  N  N37  1  0.13326020  0.46117709  0.84637459  1
  N  N38  1  0.47182502  0.96777180  0.76838475  1
  N  N39  1  0.97182502  0.53222820  0.26838475  1
  N  N40  1  0.52817498  0.03222820  0.23161525  1
  N  N41  1  0.02817498  0.46777180  0.73161525  1
  N  N42  1  0.22715664  0.08120506  0.48204525  1
  N  N43  1  0.72715664  0.41879494  0.98204525  1
  N  N44  1  0.77284336  0.91879494  0.51795475  1
  N  N45  1  0.27284336  0.58120506  0.01795475  1
  Cl  Cl46  1  0.20224172  0.65395908  0.52434977  1
  Cl  Cl47  1  0.70224172  0.84604092  0.02434977  1
  Cl  Cl48  1  0.79775828  0.34604092  0.47565023  1
  Cl  Cl49  1  0.29775828  0.15395908  0.97565023  1
  Cl  Cl50  1  0.35117603  0.37513535  0.29028731  1
  Cl  Cl51  1  0.85117603  0.12486465  0.79028731  1
  Cl  Cl52  1  0.64882397  0.62486465  0.70971269  1
  Cl  Cl53  1  0.14882397  0.87513535  0.20971269  1
