# generated using pymatgen
data_YCo3Se2ClO8
_symmetry_space_group_name_H-M   'P 1'
_cell_length_a   6.40497259
_cell_length_b   7.23154852
_cell_length_c   9.65993605
_cell_angle_alpha   90.00171541
_cell_angle_beta   89.92702348
_cell_angle_gamma   89.97912991
_symmetry_Int_Tables_number   1
_chemical_formula_structural   YCo3Se2ClO8
_chemical_formula_sum   'Y2 Co6 Se4 Cl2 O16'
_cell_volume   447.42727022
_cell_formula_units_Z   2
loop_
 _symmetry_equiv_pos_site_id
 _symmetry_equiv_pos_as_xyz
  1  'x, y, z'
loop_
 _atom_site_type_symbol
 _atom_site_label
 _atom_site_symmetry_multiplicity
 _atom_site_fract_x
 _atom_site_fract_y
 _atom_site_fract_z
 _atom_site_occupancy
  Y  Y0  1  0.24992711  0.26243698  0.24997567  1
  Y  Y1  1  0.75007418  0.73722829  0.75001519  1
  Co  Co2  1  0.50015417  -0.00004142  -0.00005717  1
  Co  Co3  1  0.49998921  0.99975866  0.49972221  1
  Co  Co4  1  0.00010184  0.99972472  0.00026817  1
  Co  Co5  1  0.74896480  0.20592093  0.75000158  1
  Co  Co6  1  0.25095149  0.79401645  0.25000884  1
  Co  Co7  1  -0.00012997  0.99991071  0.50002604  1
  Se  Se8  1  0.75008835  0.41029091  0.06102567  1
  Se  Se9  1  0.25008283  0.58988060  0.93884782  1
  Se  Se10  1  0.74984744  0.41030339  0.43904650  1
  Se  Se11  1  0.24998465  0.58986750  0.56109323  1
  Cl  Cl12  1  0.25098327  0.13891217  0.75012165  1
  Cl  Cl13  1  0.74916989  0.86172361  0.24989022  1
  O  O14  1  0.25018565  0.00005550  0.11376274  1
  O  O15  1  0.24982531  0.57543979  0.11886447  1
  O  O16  1  0.74992925  0.42499454  0.61855350  1
  O  O17  1  0.53907990  0.26349756  0.08879295  1
  O  O18  1  0.46079936  0.73634514  0.58870763  1
  O  O19  1  0.03914748  0.73669943  0.58894439  1
  O  O20  1  0.75041635  -0.00067915  0.88647228  1
  O  O21  1  0.96128755  0.26366168  0.08875273  1
  O  O22  1  0.96099614  0.26344346  0.41130352  1
  O  O23  1  0.03910118  0.73634849  0.91116124  1
  O  O24  1  0.24987676  0.00013381  0.38627389  1
  O  O25  1  0.74968539  -0.00072622  0.61351040  1
  O  O26  1  0.46077352  0.73668776  0.91103140  1
  O  O27  1  0.53879858  0.26372581  0.41128905  1
  O  O28  1  0.75028671  0.42501320  0.88152302  1
  O  O29  1  0.24962262  0.57542471  0.38107116  1
