# generated using pymatgen
data_Y2CuGe6
_symmetry_space_group_name_H-M   'P 1'
_cell_length_a   4.09045755
_cell_length_b   4.07297930
_cell_length_c   10.87380230
_cell_angle_alpha   100.79432807
_cell_angle_beta   90.00000000
_cell_angle_gamma   90.00000000
_symmetry_Int_Tables_number   1
_chemical_formula_structural   Y2CuGe6
_chemical_formula_sum   'Y2 Cu1 Ge6'
_cell_volume   177.95583472
_cell_formula_units_Z   1
loop_
 _symmetry_equiv_pos_site_id
 _symmetry_equiv_pos_as_xyz
  1  'x, y, z'
loop_
 _atom_site_type_symbol
 _atom_site_label
 _atom_site_symmetry_multiplicity
 _atom_site_fract_x
 _atom_site_fract_y
 _atom_site_fract_z
 _atom_site_occupancy
  Y  Y0  1  0.00000000  0.00284983  0.00569967  1
  Y  Y1  1  0.00000000  0.66887172  0.33774345  1
  Cu  Cu2  1  0.50000000  0.22330060  0.44660120  1
  Ge  Ge3  1  -0.00000000  0.28356992  0.56713984  1
  Ge  Ge4  1  0.00000000  0.39946355  0.79892710  1
  Ge  Ge5  1  0.50000000  0.54415219  0.08830438  1
  Ge  Ge6  1  0.50000000  0.11459619  0.22919239  1
  Ge  Ge7  1  0.50000000  0.90021225  0.80042450  1
  Ge  Ge8  1  0.50000000  0.78398374  0.56796747  1
