# generated using pymatgen
data_Sr2Ca2MnFe3O10
_symmetry_space_group_name_H-M   'P 1'
_cell_length_a   11.06062839
_cell_length_b   11.32639586
_cell_length_c   17.42469347
_cell_angle_alpha   109.03710072
_cell_angle_beta   108.65060758
_cell_angle_gamma   89.81061682
_symmetry_Int_Tables_number   1
_chemical_formula_structural   Sr2Ca2MnFe3O10
_chemical_formula_sum   'Sr16 Ca16 Mn8 Fe24 O80'
_cell_volume   1942.68990419
_cell_formula_units_Z   8
loop_
 _symmetry_equiv_pos_site_id
 _symmetry_equiv_pos_as_xyz
  1  'x, y, z'
loop_
 _atom_site_type_symbol
 _atom_site_label
 _atom_site_symmetry_multiplicity
 _atom_site_fract_x
 _atom_site_fract_y
 _atom_site_fract_z
 _atom_site_occupancy
  Sr  Sr0  1  0.30739420  0.55999266  0.61004084  1
  Sr  Sr1  1  0.80641836  0.06030683  0.60875384  1
  Sr  Sr2  1  0.80927161  0.55965729  0.60996321  1
  Sr  Sr3  1  0.19322655  0.43276617  0.38563595  1
  Sr  Sr4  1  0.19961835  0.44150121  0.89343301  1
  Sr  Sr5  1  0.69349513  0.43330970  0.38555756  1
  Sr  Sr6  1  0.69570923  0.93441950  0.38617437  1
  Sr  Sr7  1  0.70133121  0.93790386  0.89486716  1
  Sr  Sr8  1  0.05924273  0.29784748  0.60929051  1
  Sr  Sr9  1  0.05827108  0.80055439  0.60912357  1
  Sr  Sr10  1  0.55902415  0.30016753  0.61066298  1
  Sr  Sr11  1  0.55683677  0.79609930  0.60787416  1
  Sr  Sr12  1  0.44294201  0.19880490  0.38509175  1
  Sr  Sr13  1  0.44906748  0.20190822  0.89093743  1
  Sr  Sr14  1  0.94474564  0.20158862  0.38593915  1
  Sr  Sr15  1  0.94836524  0.20313118  0.89251286  1
  Ca  Ca16  1  0.30271316  0.06628108  0.10764662  1
  Ca  Ca17  1  0.30422771  0.06010139  0.60353355  1
  Ca  Ca18  1  0.30060729  0.56864637  0.10699071  1
  Ca  Ca19  1  0.80186670  0.06871414  0.10699564  1
  Ca  Ca20  1  0.80243886  0.56760438  0.10771271  1
  Ca  Ca21  1  0.19793247  0.93098099  0.39106469  1
  Ca  Ca22  1  0.20319123  0.93879734  0.89887985  1
  Ca  Ca23  1  0.70283979  0.43927098  0.89747213  1
  Ca  Ca24  1  0.05307664  0.28785797  0.10742820  1
  Ca  Ca25  1  0.05382616  0.78955426  0.10710906  1
  Ca  Ca26  1  0.55009337  0.28851463  0.10558529  1
  Ca  Ca27  1  0.55282786  0.78959603  0.10429238  1
  Ca  Ca28  1  0.44302951  0.70981102  0.39200835  1
  Ca  Ca29  1  0.45047186  0.70835274  0.89718230  1
  Ca  Ca30  1  0.94479902  0.71005603  0.39081712  1
  Ca  Ca31  1  0.95187171  0.70885012  0.89860472  1
  Mn  Mn32  1  0.11817527  0.09442264  0.75344334  1
  Mn  Mn33  1  0.11434772  0.60387752  0.75380014  1
  Mn  Mn34  1  0.61305437  0.59858518  0.75535753  1
  Mn  Mn35  1  0.36663793  0.40523685  0.75351024  1
  Mn  Mn36  1  0.35246322  0.89665985  0.24676630  1
  Mn  Mn37  1  0.35985064  0.89842694  0.75209780  1
  Mn  Mn38  1  0.86200911  0.41030338  0.75600171  1
  Mn  Mn39  1  0.86524623  0.90091070  0.75201042  1
  Fe  Fe40  1  0.00796059  0.00130630  0.00460780  1
  Fe  Fe41  1  0.00472379  0.99886503  0.49789192  1
  Fe  Fe42  1  0.00658015  0.50264583  0.00509599  1
  Fe  Fe43  1  0.00135168  0.49987072  0.49681686  1
  Fe  Fe44  1  0.50686956  0.00158356  0.00412526  1
  Fe  Fe45  1  0.50207076  0.00051033  0.49837708  1
  Fe  Fe46  1  0.50706046  0.50230498  0.00414995  1
  Fe  Fe47  1  0.50090527  0.49806440  0.49622948  1
  Fe  Fe48  1  0.25690320  0.25275812  0.00501649  1
  Fe  Fe49  1  0.25274406  0.24764359  0.49822803  1
  Fe  Fe50  1  0.25584391  0.75321211  0.00280107  1
  Fe  Fe51  1  0.25175022  0.74861924  0.49697592  1
  Fe  Fe52  1  0.75854124  0.25589737  0.00746296  1
  Fe  Fe53  1  0.75256670  0.24970259  0.49833356  1
  Fe  Fe54  1  0.75770444  0.75064708  0.00378470  1
  Fe  Fe55  1  0.75114677  0.74676415  0.49528334  1
  Fe  Fe56  1  0.10364813  0.08006506  0.24581121  1
  Fe  Fe57  1  0.10293909  0.59410823  0.24688139  1
  Fe  Fe58  1  0.60442846  0.08408438  0.24353152  1
  Fe  Fe59  1  0.60690002  0.09137046  0.75012333  1
  Fe  Fe60  1  0.60114536  0.59002170  0.24540623  1
  Fe  Fe61  1  0.35172508  0.41313375  0.24558918  1
  Fe  Fe62  1  0.85215967  0.41293094  0.24592088  1
  Fe  Fe63  1  0.85611529  0.90231006  0.24402370  1
  O  O64  1  0.12520905  0.11616484  0.48795063  1
  O  O65  1  0.12870327  0.12129638  0.99430312  1
  O  O66  1  0.11808747  0.62226157  0.48467067  1
  O  O67  1  0.12332055  0.62540460  0.99185951  1
  O  O68  1  0.62310480  0.12175039  0.48984703  1
  O  O69  1  0.62753678  0.12582482  0.99452519  1
  O  O70  1  0.61876034  0.62165189  0.48649431  1
  O  O71  1  0.62559928  0.62199209  0.99079776  1
  O  O72  1  0.13890439  0.38383938  0.02061861  1
  O  O73  1  0.13036216  0.37604455  0.50497469  1
  O  O74  1  0.13659702  0.88130991  0.01393241  1
  O  O75  1  0.13301737  0.87731643  0.50232605  1
  O  O76  1  0.63924686  0.38438163  0.01803122  1
  O  O77  1  0.63001340  0.37678717  0.50372662  1
  O  O78  1  0.63701174  0.87972526  0.01686865  1
  O  O79  1  0.62692858  0.87342037  0.50102658  1
  O  O80  1  0.37030251  0.11583297  0.49073206  1
  O  O81  1  0.37451061  0.11768391  0.99297419  1
  O  O82  1  0.37311844  0.62083433  0.48688803  1
  O  O83  1  0.37895933  0.62436033  0.99448188  1
  O  O84  1  0.87480244  0.11896956  0.49143835  1
  O  O85  1  0.87769115  0.12210712  0.99538942  1
  O  O86  1  0.87260997  0.61992964  0.48719125  1
  O  O87  1  0.87519124  0.61829424  0.99050494  1
  O  O88  1  0.38839888  0.38773979  0.01937903  1
  O  O89  1  0.37948087  0.37812650  0.50415111  1
  O  O90  1  0.38765400  0.88560764  0.01600427  1
  O  O91  1  0.38119853  0.88274333  0.50856268  1
  O  O92  1  0.88677671  0.38794356  0.01855990  1
  O  O93  1  0.87978279  0.37843770  0.50372428  1
  O  O94  1  0.88963018  0.88409826  0.01771509  1
  O  O95  1  0.88171067  0.87638250  0.50232322  1
  O  O96  1  0.09543903  0.10350015  0.14226638  1
  O  O97  1  0.08462471  0.08030887  0.63488891  1
  O  O98  1  0.08915763  0.60906120  0.14057774  1
  O  O99  1  0.07096883  0.58636892  0.63465422  1
  O  O100  1  0.59246710  0.10731162  0.13993355  1
  O  O101  1  0.58631132  0.09413313  0.63870513  1
  O  O102  1  0.58828079  0.61036681  0.14080221  1
  O  O103  1  0.57361385  0.58266983  0.63665964  1
  O  O104  1  0.43562512  0.40325528  0.35540284  1
  O  O105  1  0.44591175  0.41121510  0.86933679  1
  O  O106  1  0.43444882  0.90995379  0.36238404  1
  O  O107  1  0.44752524  0.90743041  0.86780145  1
  O  O108  1  0.93609689  0.40363771  0.35561390  1
  O  O109  1  0.94532050  0.41045103  0.86909052  1
  O  O110  1  0.94170233  0.89851237  0.35579469  1
  O  O111  1  0.94545760  0.90643390  0.86799132  1
  O  O112  1  0.34358799  0.28501507  0.14269804  1
  O  O113  1  0.32651679  0.29488747  0.63570789  1
  O  O114  1  0.32583647  0.78731343  0.13533059  1
  O  O115  1  0.31844940  0.79516551  0.63450734  1
  O  O116  1  0.84403267  0.28660993  0.14211244  1
  O  O117  1  0.82609841  0.30708515  0.63779551  1
  O  O118  1  0.84131460  0.77945517  0.13830357  1
  O  O119  1  0.82226774  0.79955180  0.63359300  1
  O  O120  1  0.18756256  0.19905787  0.35603293  1
  O  O121  1  0.19399981  0.20931460  0.86920056  1
  O  O122  1  0.19840331  0.70942616  0.35675476  1
  O  O123  1  0.20166213  0.71299494  0.86867762  1
  O  O124  1  0.68831924  0.19760541  0.35591483  1
  O  O125  1  0.69038291  0.21549586  0.86049327  1
  O  O126  1  0.69536128  0.70086500  0.35617497  1
  O  O127  1  0.70075010  0.70737980  0.86853832  1
  O  O128  1  0.43130766  0.04783868  0.23959426  1
  O  O129  1  0.43166595  0.05899221  0.74320664  1
  O  O130  1  0.42459701  0.57201884  0.24764364  1
  O  O131  1  0.44059684  0.57619335  0.75985729  1
  O  O132  1  0.92479185  0.05608628  0.23881039  1
  O  O133  1  0.94174106  0.05720708  0.75111399  1
  O  O134  1  0.92709520  0.57044103  0.24829557  1
  O  O135  1  0.94131085  0.57458374  0.76134834  1
  O  O136  1  0.17355536  0.43447405  0.23964125  1
  O  O137  1  0.19242152  0.44384125  0.75195378  1
  O  O138  1  0.17122127  0.92254606  0.24775303  1
  O  O139  1  0.19063322  0.93087469  0.76092410  1
  O  O140  1  0.67252858  0.43119007  0.23808927  1
  O  O141  1  0.68854107  0.43841266  0.76011054  1
  O  O142  1  0.67857147  0.92749927  0.23868685  1
  O  O143  1  0.68336133  0.93791342  0.75262237  1
