# generated using pymatgen
data_Cr3PC
_symmetry_space_group_name_H-M   'P 1'
_cell_length_a   2.97344118
_cell_length_b   5.12101683
_cell_length_c   7.25816366
_cell_angle_alpha   90.00000000
_cell_angle_beta   90.00000000
_cell_angle_gamma   106.87696273
_symmetry_Int_Tables_number   1
_chemical_formula_structural   Cr3PC
_chemical_formula_sum   'Cr6 P2 C2'
_cell_volume   105.76029640
_cell_formula_units_Z   2
loop_
 _symmetry_equiv_pos_site_id
 _symmetry_equiv_pos_as_xyz
  1  'x, y, z'
loop_
 _atom_site_type_symbol
 _atom_site_label
 _atom_site_symmetry_multiplicity
 _atom_site_fract_x
 _atom_site_fract_y
 _atom_site_fract_z
 _atom_site_occupancy
  Cr  Cr0  1  0.37045768  0.74091535  0.44447491  1
  Cr  Cr1  1  0.62954232  0.25908465  0.55552509  1
  Cr  Cr2  1  0.37045768  0.74091535  0.05552509  1
  Cr  Cr3  1  0.62954232  0.25908465  0.94447491  1
  Cr  Cr4  1  0.05992353  0.11984705  0.25000000  1
  Cr  Cr5  1  0.94007647  0.88015295  0.75000000  1
  P  P6  1  0.74336484  0.48672968  0.25000000  1
  P  P7  1  0.25663516  0.51327032  0.75000000  1
  C  C8  1  -0.00000000  -0.00000000  0.50000000  1
  C  C9  1  -0.00000000  0.00000000  -0.00000000  1
