# generated using pymatgen
data_Sr7CaFe4(CoO6)4
_symmetry_space_group_name_H-M   'P 1'
_cell_length_a   7.74741995
_cell_length_b   7.74741995
_cell_length_c   7.74741995
_cell_angle_alpha   89.97790344
_cell_angle_beta   90.02209656
_cell_angle_gamma   89.97790344
_symmetry_Int_Tables_number   1
_chemical_formula_structural   Sr7CaFe4(CoO6)4
_chemical_formula_sum   'Sr7 Ca1 Fe4 Co4 O24'
_cell_volume   465.01953288
_cell_formula_units_Z   1
loop_
 _symmetry_equiv_pos_site_id
 _symmetry_equiv_pos_as_xyz
  1  'x, y, z'
loop_
 _atom_site_type_symbol
 _atom_site_label
 _atom_site_symmetry_multiplicity
 _atom_site_fract_x
 _atom_site_fract_y
 _atom_site_fract_z
 _atom_site_occupancy
  Sr  Sr0  1  0.24987394  0.24986710  0.24987394  1
  Sr  Sr1  1  0.24980026  0.24986642  0.75013358  1
  Sr  Sr2  1  0.24987394  0.75012606  0.75013290  1
  Sr  Sr3  1  0.75013358  0.24986642  0.24980026  1
  Sr  Sr4  1  0.75003937  0.24996063  0.75003937  1
  Sr  Sr5  1  0.75013290  0.75012606  0.24987394  1
  Sr  Sr6  1  0.75013358  0.75019974  0.75013358  1
  Ca  Ca7  1  0.24938358  0.75061642  0.24938358  1
  Fe  Fe8  1  0.00052051  0.99947949  0.00052051  1
  Fe  Fe9  1  0.00060274  0.99939726  0.49952245  1
  Fe  Fe10  1  0.00060274  0.50047755  0.00060274  1
  Fe  Fe11  1  0.49952245  0.99939726  0.00060274  1
  Co  Co12  1  0.00043156  0.50052494  0.49947506  1
  Co  Co13  1  0.49947506  0.99956844  0.49947506  1
  Co  Co14  1  0.49947506  0.50052494  0.00043156  1
  Co  Co15  1  0.49930449  0.50069551  0.49930449  1
  O  O16  1  0.24890868  0.99782110  0.00217890  1
  O  O17  1  0.25337883  0.99757342  0.49784175  1
  O  O18  1  0.25337883  0.50215825  0.00242658  1
  O  O19  1  0.24620610  0.50193608  0.49806392  1
  O  O20  1  0.75110807  0.99968827  0.00031173  1
  O  O21  1  0.74670958  0.99977589  0.49957185  1
  O  O22  1  0.74670958  0.50042815  0.00022411  1
  O  O23  1  0.75426435  0.50060372  0.49939628  1
  O  O24  1  0.00031173  0.24889193  0.00031173  1
  O  O25  1  0.00022411  0.25329042  0.49957185  1
  O  O26  1  0.00217890  0.75109132  0.00217890  1
  O  O27  1  0.00242658  0.74662117  0.49784175  1
  O  O28  1  0.49957185  0.25329042  0.00022411  1
  O  O29  1  0.49939628  0.24573565  0.49939628  1
  O  O30  1  0.49784175  0.74662117  0.00242658  1
  O  O31  1  0.49806392  0.75379390  0.49806392  1
  O  O32  1  0.00217890  0.99782110  0.24890868  1
  O  O33  1  0.00031173  0.99968827  0.75110807  1
  O  O34  1  0.00242658  0.50215825  0.25337883  1
  O  O35  1  0.00022411  0.50042815  0.74670958  1
  O  O36  1  0.49784175  0.99757342  0.25337883  1
  O  O37  1  0.49957185  0.99977589  0.74670958  1
  O  O38  1  0.49806392  0.50193608  0.24620610  1
  O  O39  1  0.49939628  0.50060372  0.75426435  1
