# generated using pymatgen
data_Sr6Ca2Mn3Fe5O24
_symmetry_space_group_name_H-M   'P 1'
_cell_length_a   7.77420826
_cell_length_b   7.76935437
_cell_length_c   7.79409552
_cell_angle_alpha   90.00000000
_cell_angle_beta   90.00696242
_cell_angle_gamma   90.00000000
_symmetry_Int_Tables_number   1
_chemical_formula_structural   Sr6Ca2Mn3Fe5O24
_chemical_formula_sum   'Sr6 Ca2 Mn3 Fe5 O24'
_cell_volume   470.76787860
_cell_formula_units_Z   1
loop_
 _symmetry_equiv_pos_site_id
 _symmetry_equiv_pos_as_xyz
  1  'x, y, z'
loop_
 _atom_site_type_symbol
 _atom_site_label
 _atom_site_symmetry_multiplicity
 _atom_site_fract_x
 _atom_site_fract_y
 _atom_site_fract_z
 _atom_site_occupancy
  Sr  Sr0  1  0.25030035  0.25034803  0.25099550  1
  Sr  Sr1  1  0.25030201  0.25029753  0.74895955  1
  Sr  Sr2  1  0.25031163  0.74966208  0.74894323  1
  Sr  Sr3  1  0.74969799  0.25029753  0.25104045  1
  Sr  Sr4  1  0.74969965  0.25034803  0.74900450  1
  Sr  Sr5  1  0.74968837  0.74966208  0.25105677  1
  Ca  Ca6  1  0.25043285  0.74945967  0.25149005  1
  Ca  Ca7  1  0.74956715  0.74945967  0.74850995  1
  Mn  Mn8  1  0.00000000  0.50126240  0.50000000  1
  Mn  Mn9  1  0.50000000  0.99864934  0.50000000  1
  Mn  Mn10  1  0.50000000  0.50097456  0.50000000  1
  Fe  Fe11  1  0.00000000  0.99855850  0.00000000  1
  Fe  Fe12  1  0.00000000  0.99861047  0.50000000  1
  Fe  Fe13  1  0.00000000  0.50133240  0.00000000  1
  Fe  Fe14  1  0.50000000  0.99871972  0.00000000  1
  Fe  Fe15  1  0.50000000  0.50133613  0.00000000  1
  O  O16  1  0.24893560  0.99705452  0.00170295  1
  O  O17  1  0.25349560  0.99693089  0.49815867  1
  O  O18  1  0.25025291  0.50296554  0.00174340  1
  O  O19  1  0.25048517  0.50337355  0.49767323  1
  O  O20  1  0.75106440  0.99705452  0.99829705  1
  O  O21  1  0.74650440  0.99693089  0.50184133  1
  O  O22  1  0.74974709  0.50296554  0.99825660  1
  O  O23  1  0.74951483  0.50337355  0.50232677  1
  O  O24  1  0.00000000  0.24891787  0.00000000  1
  O  O25  1  0.00000000  0.25345823  0.50000000  1
  O  O26  1  0.00000000  0.75100868  0.00000000  1
  O  O27  1  0.00000000  0.74643954  0.50000000  1
  O  O28  1  0.50000000  0.25031169  0.00000000  1
  O  O29  1  0.50000000  0.25050769  0.50000000  1
  O  O30  1  0.50000000  0.74975107  0.00000000  1
  O  O31  1  0.50000000  0.74946635  0.50000000  1
  O  O32  1  0.00181797  0.99693638  0.24811432  1
  O  O33  1  0.99818203  0.99693638  0.75188568  1
  O  O34  1  0.00191492  0.50324386  0.25307286  1
  O  O35  1  0.99808508  0.50324386  0.74692714  1
  O  O36  1  0.49806453  0.99682413  0.25307695  1
  O  O37  1  0.50193547  0.99682413  0.74692305  1
  O  O38  1  0.49803942  0.50325148  0.25309093  1
  O  O39  1  0.50196058  0.50325148  0.74690907  1
