# generated using pymatgen
data_Sn2PO5
_symmetry_space_group_name_H-M   'P 1'
_cell_length_a   7.72345457
_cell_length_b   6.66355517
_cell_length_c   10.18516569
_cell_angle_alpha   102.78356561
_cell_angle_beta   90.00000000
_cell_angle_gamma   90.00000000
_symmetry_Int_Tables_number   1
_chemical_formula_structural   Sn2PO5
_chemical_formula_sum   'Sn8 P4 O20'
_cell_volume   511.19325312
_cell_formula_units_Z   4
loop_
 _symmetry_equiv_pos_site_id
 _symmetry_equiv_pos_as_xyz
  1  'x, y, z'
loop_
 _atom_site_type_symbol
 _atom_site_label
 _atom_site_symmetry_multiplicity
 _atom_site_fract_x
 _atom_site_fract_y
 _atom_site_fract_z
 _atom_site_occupancy
  Sn  Sn0  1  0.97842290  0.39983297  0.66027318  1
  Sn  Sn1  1  0.52157710  0.89983297  0.16027318  1
  Sn  Sn2  1  0.02157710  0.60016703  0.33972682  1
  Sn  Sn3  1  0.47842290  0.10016703  0.83972682  1
  Sn  Sn4  1  0.54819691  0.75767664  0.51552664  1
  Sn  Sn5  1  0.95180309  0.25767664  0.01552664  1
  Sn  Sn6  1  0.45180309  0.24232336  0.48447336  1
  Sn  Sn7  1  0.04819691  0.74232336  0.98447336  1
  P  P8  1  0.39406194  0.56604588  0.78687311  1
  P  P9  1  0.10593806  0.06604588  0.28687311  1
  P  P10  1  0.60593806  0.43395412  0.21312689  1
  P  P11  1  0.89406194  0.93395412  0.71312689  1
  O  O12  1  0.29953731  0.67629909  0.91759881  1
  O  O13  1  0.20046269  0.17629909  0.41759881  1
  O  O14  1  0.70046269  0.32370091  0.08240119  1
  O  O15  1  0.79953731  0.82370091  0.58240119  1
  O  O16  1  0.98911818  0.76488675  0.76977442  1
  O  O17  1  0.51088182  0.26488675  0.26977442  1
  O  O18  1  0.01088182  0.23511325  0.23022558  1
  O  O19  1  0.48911818  0.73511325  0.73022558  1
  O  O20  1  0.26678533  0.44731756  0.67584844  1
  O  O21  1  0.23321467  0.94731756  0.17584844  1
  O  O22  1  0.73321467  0.55268244  0.32415156  1
  O  O23  1  0.76678533  0.05268244  0.82415156  1
  O  O24  1  0.03076520  0.08341853  0.68179641  1
  O  O25  1  0.46923480  0.58341853  0.18179641  1
  O  O26  1  0.96923480  0.91658147  0.31820359  1
  O  O27  1  0.53076520  0.41658147  0.81820359  1
  O  O28  1  0.46593179  0.05210501  0.62425855  1
  O  O29  1  0.03406821  0.55210501  0.12425855  1
  O  O30  1  0.53406821  0.94789499  0.37574145  1
  O  O31  1  0.96593179  0.44789499  0.87574145  1
