# generated using pymatgen
data_Na2HgPb
_symmetry_space_group_name_H-M   'P 1'
_cell_length_a   6.16930838
_cell_length_b   6.25332212
_cell_length_c   6.25332212
_cell_angle_alpha   103.05064389
_cell_angle_beta   90.00000000
_cell_angle_gamma   90.00000000
_symmetry_Int_Tables_number   1
_chemical_formula_structural   Na2HgPb
_chemical_formula_sum   'Na4 Hg2 Pb2'
_cell_volume   235.01371630
_cell_formula_units_Z   2
loop_
 _symmetry_equiv_pos_site_id
 _symmetry_equiv_pos_as_xyz
  1  'x, y, z'
loop_
 _atom_site_type_symbol
 _atom_site_label
 _atom_site_symmetry_multiplicity
 _atom_site_fract_x
 _atom_site_fract_y
 _atom_site_fract_z
 _atom_site_occupancy
  Na  Na0  1  0.25000000  0.13167271  0.50926329  1
  Na  Na1  1  0.75000000  0.49073671  0.86832729  1
  Na  Na2  1  0.75000000  0.86832729  0.49073671  1
  Na  Na3  1  0.25000000  0.50926329  0.13167271  1
  Hg  Hg4  1  0.50000000  -0.00000000  -0.00000000  1
  Hg  Hg5  1  0.00000000  -0.00000000  -0.00000000  1
  Pb  Pb6  1  0.25000000  0.66139952  0.66139952  1
  Pb  Pb7  1  0.75000000  0.33860048  0.33860048  1
