# generated using pymatgen
data_Sr4Ca4Co7CuO20
_symmetry_space_group_name_H-M   'P 1'
_cell_length_a   10.78874200
_cell_length_b   11.13527726
_cell_length_c   17.44258026
_cell_angle_alpha   108.65148859
_cell_angle_beta   108.08401133
_cell_angle_gamma   89.99760947
_symmetry_Int_Tables_number   1
_chemical_formula_structural   Sr4Ca4Co7CuO20
_chemical_formula_sum   'Sr16 Ca16 Co28 Cu4 O80'
_cell_volume   1875.85923676
_cell_formula_units_Z   4
loop_
 _symmetry_equiv_pos_site_id
 _symmetry_equiv_pos_as_xyz
  1  'x, y, z'
loop_
 _atom_site_type_symbol
 _atom_site_label
 _atom_site_symmetry_multiplicity
 _atom_site_fract_x
 _atom_site_fract_y
 _atom_site_fract_z
 _atom_site_occupancy
  Sr  Sr0  1  0.30688926  0.56203349  0.61606091  1
  Sr  Sr1  1  0.80647631  0.06162972  0.60982767  1
  Sr  Sr2  1  0.81151364  0.56291528  0.61262568  1
  Sr  Sr3  1  0.19290938  0.43543332  0.38468281  1
  Sr  Sr4  1  0.19760632  0.44364097  0.88763398  1
  Sr  Sr5  1  0.69385503  0.43571854  0.38320516  1
  Sr  Sr6  1  0.69280905  0.93589360  0.38384448  1
  Sr  Sr7  1  0.69415625  0.93655795  0.89005437  1
  Sr  Sr8  1  0.05872666  0.29799550  0.61299468  1
  Sr  Sr9  1  0.06257692  0.80165756  0.61166752  1
  Sr  Sr10  1  0.55728644  0.30280884  0.61339318  1
  Sr  Sr11  1  0.55711643  0.80433221  0.61241415  1
  Sr  Sr12  1  0.43825427  0.19748784  0.38482370  1
  Sr  Sr13  1  0.44483066  0.19611989  0.88686869  1
  Sr  Sr14  1  0.94594897  0.19605304  0.38430585  1
  Sr  Sr15  1  0.94533279  0.20223365  0.88983831  1
  Ca  Ca16  1  0.30763943  0.06774756  0.10941449  1
  Ca  Ca17  1  0.30474085  0.05674517  0.60448400  1
  Ca  Ca18  1  0.30558340  0.56986724  0.11198277  1
  Ca  Ca19  1  0.79672595  0.06442989  0.10731315  1
  Ca  Ca20  1  0.80292269  0.56659040  0.11176795  1
  Ca  Ca21  1  0.19926395  0.93245194  0.38974671  1
  Ca  Ca22  1  0.20455869  0.93321167  0.89562572  1
  Ca  Ca23  1  0.69395667  0.44029438  0.89389828  1
  Ca  Ca24  1  0.05031760  0.29242655  0.11005188  1
  Ca  Ca25  1  0.05439527  0.79448178  0.11097681  1
  Ca  Ca26  1  0.55150430  0.28795131  0.10711722  1
  Ca  Ca27  1  0.55414714  0.79275520  0.10777504  1
  Ca  Ca28  1  0.44261955  0.70887652  0.38967661  1
  Ca  Ca29  1  0.44687961  0.70522935  0.89296778  1
  Ca  Ca30  1  0.95213042  0.70489328  0.38914381  1
  Ca  Ca31  1  0.95210571  0.71189862  0.89646120  1
  Co  Co32  1  0.00934174  0.00400001  0.00663474  1
  Co  Co33  1  0.00405445  0.99763251  0.49629022  1
  Co  Co34  1  0.00702063  0.50390491  0.00962767  1
  Co  Co35  1  0.00446818  0.50082819  0.50294705  1
  Co  Co36  1  0.50493442  0.99886207  0.00175861  1
  Co  Co37  1  0.50130187  0.00026239  0.49769699  1
  Co  Co38  1  0.50634043  0.49974995  0.00168861  1
  Co  Co39  1  0.50214181  0.50030388  0.50351172  1
  Co  Co40  1  0.25931461  0.25421795  0.00780835  1
  Co  Co41  1  0.25467602  0.24989286  0.50611865  1
  Co  Co42  1  0.25596380  0.75194357  0.00205637  1
  Co  Co43  1  0.25512998  0.74987377  0.50068724  1
  Co  Co44  1  0.75654455  0.25481759  0.00824411  1
  Co  Co45  1  0.74901484  0.24683992  0.49330941  1
  Co  Co46  1  0.75520387  0.74978364  0.00088505  1
  Co  Co47  1  0.75149376  0.74758923  0.49303352  1
  Co  Co48  1  0.10512685  0.08630389  0.24417939  1
  Co  Co49  1  0.11543692  0.09181704  0.75337707  1
  Co  Co50  1  0.10649528  0.59591902  0.24711047  1
  Co  Co51  1  0.60487365  0.08722009  0.24318286  1
  Co  Co52  1  0.61049339  0.09939240  0.74986345  1
  Co  Co53  1  0.60650957  0.59296232  0.24599060  1
  Co  Co54  1  0.35634002  0.41018339  0.24630934  1
  Co  Co55  1  0.35272270  0.90020642  0.24545572  1
  Co  Co56  1  0.85623756  0.40705562  0.24546917  1
  Co  Co57  1  0.85888499  0.42058660  0.75793909  1
  Co  Co58  1  0.85964896  0.89874752  0.24357645  1
  Co  Co59  1  0.86807384  0.90398471  0.75257097  1
  Cu  Cu60  1  0.11286236  0.60572782  0.75349543  1
  Cu  Cu61  1  0.61443417  0.60782681  0.75446151  1
  Cu  Cu62  1  0.36949789  0.40666559  0.75333676  1
  Cu  Cu63  1  0.35787749  0.90367721  0.75277617  1
  O  O64  1  0.12794317  0.11979184  0.49114823  1
  O  O65  1  0.13139120  0.13303136  0.99514411  1
  O  O66  1  0.12320960  0.62310172  0.48704643  1
  O  O67  1  0.12992736  0.63423769  0.99575135  1
  O  O68  1  0.62231333  0.12715753  0.49255246  1
  O  O69  1  0.62600748  0.12605791  0.99531517  1
  O  O70  1  0.62998415  0.63003628  0.49055465  1
  O  O71  1  0.63292419  0.62692645  0.99258957  1
  O  O72  1  0.13151547  0.39234424  0.01796933  1
  O  O73  1  0.12466198  0.38069475  0.50536541  1
  O  O74  1  0.13245805  0.88968417  0.01268922  1
  O  O75  1  0.13160479  0.87616524  0.50115489  1
  O  O76  1  0.63081215  0.38815028  0.01532669  1
  O  O77  1  0.62545475  0.38217316  0.50273381  1
  O  O78  1  0.63250722  0.88220757  0.01548069  1
  O  O79  1  0.62776978  0.87773090  0.50257854  1
  O  O80  1  0.36640833  0.11104298  0.48791880  1
  O  O81  1  0.37289854  0.11126899  0.99226466  1
  O  O82  1  0.38082658  0.61795972  0.49122956  1
  O  O83  1  0.38495999  0.61612572  0.99524117  1
  O  O84  1  0.87275961  0.11780124  0.49250606  1
  O  O85  1  0.88182174  0.11349863  0.99655049  1
  O  O86  1  0.88045707  0.61424229  0.48821263  1
  O  O87  1  0.88207893  0.61092648  0.98987073  1
  O  O88  1  0.37965290  0.37863756  0.01581978  1
  O  O89  1  0.37334068  0.37488898  0.50570417  1
  O  O90  1  0.38139937  0.87511662  0.01310591  1
  O  O91  1  0.37959235  0.87682362  0.50449433  1
  O  O92  1  0.88106515  0.38391510  0.01516607  1
  O  O93  1  0.87492012  0.37523387  0.50429039  1
  O  O94  1  0.88377601  0.87281044  0.01348605  1
  O  O95  1  0.87832330  0.86878055  0.50112273  1
  O  O96  1  0.09488096  0.10108911  0.14031120  1
  O  O97  1  0.09433272  0.08514493  0.64418633  1
  O  O98  1  0.08735867  0.60771177  0.14137082  1
  O  O99  1  0.06853165  0.58500469  0.63539375  1
  O  O100  1  0.58409756  0.09900108  0.13838053  1
  O  O101  1  0.58119463  0.09231323  0.64090507  1
  O  O102  1  0.58866703  0.60674345  0.14208493  1
  O  O103  1  0.57523898  0.58432789  0.63739375  1
  O  O104  1  0.43256929  0.40738927  0.35392132  1
  O  O105  1  0.45151307  0.40963888  0.86773503  1
  O  O106  1  0.43393303  0.89982098  0.35369097  1
  O  O107  1  0.43891666  0.90440453  0.86784928  1
  O  O108  1  0.93258935  0.40369186  0.35241904  1
  O  O109  1  0.94936413  0.40074199  0.85780759  1
  O  O110  1  0.94074107  0.90098251  0.35263163  1
  O  O111  1  0.94874026  0.90076767  0.86115952  1
  O  O112  1  0.34425744  0.28969638  0.14260676  1
  O  O113  1  0.33022005  0.29164099  0.63837643  1
  O  O114  1  0.33538246  0.78745641  0.13972268  1
  O  O115  1  0.32259118  0.79880981  0.63674818  1
  O  O116  1  0.84344874  0.28786163  0.14234930  1
  O  O117  1  0.84091823  0.30779254  0.65332295  1
  O  O118  1  0.84160891  0.78261276  0.13852099  1
  O  O119  1  0.83372593  0.80001336  0.64235177  1
  O  O120  1  0.18043050  0.19628646  0.35107925  1
  O  O121  1  0.19224413  0.20941090  0.85917883  1
  O  O122  1  0.19426262  0.70182690  0.35453962  1
  O  O123  1  0.19845006  0.70713463  0.86929952  1
  O  O124  1  0.68289185  0.19352171  0.35220065  1
  O  O125  1  0.68307392  0.21186772  0.85739928  1
  O  O126  1  0.69567745  0.69520719  0.35585928  1
  O  O127  1  0.70045286  0.70488031  0.86782598  1
  O  O128  1  0.42444645  0.05575311  0.23994278  1
  O  O129  1  0.43593674  0.05410256  0.74238482  1
  O  O130  1  0.42611030  0.57257797  0.24823813  1
  O  O131  1  0.44694791  0.56991269  0.76094563  1
  O  O132  1  0.92308065  0.05624201  0.23692199  1
  O  O133  1  0.93903073  0.06173406  0.75115034  1
  O  O134  1  0.92651036  0.57047372  0.24771952  1
  O  O135  1  0.92700983  0.57549594  0.76188620  1
  O  O136  1  0.17370529  0.43279272  0.23890584  1
  O  O137  1  0.19826974  0.45415321  0.74978976  1
  O  O138  1  0.17341175  0.92579728  0.24695682  1
  O  O139  1  0.18484270  0.93579465  0.76201079  1
  O  O140  1  0.67247178  0.42905176  0.23686624  1
  O  O141  1  0.69327914  0.43835791  0.76051581  1
  O  O142  1  0.67833340  0.92723285  0.23870592  1
  O  O143  1  0.69330229  0.94602895  0.75401579  1
