# generated using pymatgen
data_LiMg30CO32
_symmetry_space_group_name_H-M   'P 1'
_cell_length_a   8.48912420
_cell_length_b   8.48254329
_cell_length_c   8.48254329
_cell_angle_alpha   90.00000000
_cell_angle_beta   90.00000000
_cell_angle_gamma   90.00000000
_symmetry_Int_Tables_number   1
_chemical_formula_structural   LiMg30CO32
_chemical_formula_sum   'Li1 Mg30 C1 O32'
_cell_volume   610.82254335
_cell_formula_units_Z   1
loop_
 _symmetry_equiv_pos_site_id
 _symmetry_equiv_pos_as_xyz
  1  'x, y, z'
loop_
 _atom_site_type_symbol
 _atom_site_label
 _atom_site_symmetry_multiplicity
 _atom_site_fract_x
 _atom_site_fract_y
 _atom_site_fract_z
 _atom_site_occupancy
  Li  Li0  1  -0.00000000  -0.00000000  0.00000000  1
  Mg  Mg1  1  -0.00000000  -0.00000000  0.50000000  1
  Mg  Mg2  1  -0.00000000  0.50000000  0.00000000  1
  Mg  Mg3  1  0.50000000  -0.00000000  0.00000000  1
  Mg  Mg4  1  0.50000000  -0.00000000  0.50000000  1
  Mg  Mg5  1  0.50000000  0.50000000  0.00000000  1
  Mg  Mg6  1  0.50000000  0.50000000  0.50000000  1
  Mg  Mg7  1  -0.00000000  0.24736444  0.24736444  1
  Mg  Mg8  1  -0.00000000  0.24736444  0.75263556  1
  Mg  Mg9  1  -0.00000000  0.75263556  0.24736444  1
  Mg  Mg10  1  -0.00000000  0.75263556  0.75263556  1
  Mg  Mg11  1  0.50000000  0.24897420  0.24897420  1
  Mg  Mg12  1  0.50000000  0.24897420  0.75102580  1
  Mg  Mg13  1  0.50000000  0.75102580  0.24897420  1
  Mg  Mg14  1  0.50000000  0.75102580  0.75102580  1
  Mg  Mg15  1  0.24727862  -0.00000000  0.24653797  1
  Mg  Mg16  1  0.24727862  -0.00000000  0.75346203  1
  Mg  Mg17  1  0.24863944  0.50000000  0.25056814  1
  Mg  Mg18  1  0.24863944  0.50000000  0.74943186  1
  Mg  Mg19  1  0.75272138  -0.00000000  0.24653797  1
  Mg  Mg20  1  0.75272138  -0.00000000  0.75346203  1
  Mg  Mg21  1  0.75136056  0.50000000  0.25056814  1
  Mg  Mg22  1  0.75136056  0.50000000  0.74943186  1
  Mg  Mg23  1  0.24727862  0.24653797  -0.00000000  1
  Mg  Mg24  1  0.24863944  0.25056814  0.50000000  1
  Mg  Mg25  1  0.24727862  0.75346203  0.00000000  1
  Mg  Mg26  1  0.24863944  0.74943186  0.50000000  1
  Mg  Mg27  1  0.75272138  0.24653797  -0.00000000  1
  Mg  Mg28  1  0.75136056  0.25056814  0.50000000  1
  Mg  Mg29  1  0.75272138  0.75346203  0.00000000  1
  Mg  Mg30  1  0.75136056  0.74943186  0.50000000  1
  C  C31  1  -0.00000000  0.50000000  0.50000000  1
  O  O32  1  0.25558673  -0.00000000  0.00000000  1
  O  O33  1  0.24847766  -0.00000000  0.50000000  1
  O  O34  1  0.24847766  0.50000000  -0.00000000  1
  O  O35  1  0.23958967  0.50000000  0.50000000  1
  O  O36  1  0.74441327  -0.00000000  -0.00000000  1
  O  O37  1  0.75152234  -0.00000000  0.50000000  1
  O  O38  1  0.75152234  0.50000000  0.00000000  1
  O  O39  1  0.76041033  0.50000000  0.50000000  1
  O  O40  1  0.24930510  0.25104481  0.25104481  1
  O  O41  1  0.24930510  0.25104481  0.74895519  1
  O  O42  1  0.24930510  0.74895519  0.25104481  1
  O  O43  1  0.24930510  0.74895519  0.74895519  1
  O  O44  1  0.75069490  0.25104481  0.25104481  1
  O  O45  1  0.75069490  0.25104481  0.74895519  1
  O  O46  1  0.75069490  0.74895519  0.25104481  1
  O  O47  1  0.75069490  0.74895519  0.74895519  1
  O  O48  1  -0.00000000  -0.00000000  0.25994389  1
  O  O49  1  -0.00000000  -0.00000000  0.74005611  1
  O  O50  1  -0.00000000  0.50000000  0.26556871  1
  O  O51  1  -0.00000000  0.50000000  0.73443129  1
  O  O52  1  0.50000000  -0.00000000  0.25227232  1
  O  O53  1  0.50000000  -0.00000000  0.74772768  1
  O  O54  1  0.50000000  0.50000000  0.25329067  1
  O  O55  1  0.50000000  0.50000000  0.74670933  1
  O  O56  1  -0.00000000  0.25994389  0.00000000  1
  O  O57  1  -0.00000000  0.26556871  0.50000000  1
  O  O58  1  -0.00000000  0.74005611  0.00000000  1
  O  O59  1  -0.00000000  0.73443129  0.50000000  1
  O  O60  1  0.50000000  0.25227232  -0.00000000  1
  O  O61  1  0.50000000  0.25329067  0.50000000  1
  O  O62  1  0.50000000  0.74772768  0.00000000  1
  O  O63  1  0.50000000  0.74670933  0.50000000  1
