# generated using pymatgen
data_Bi2Pt
_symmetry_space_group_name_H-M   'P 1'
_cell_length_a   5.92704951
_cell_length_b   7.14782261
_cell_length_c   7.11900076
_cell_angle_alpha   123.88838650
_cell_angle_beta   89.06404985
_cell_angle_gamma   89.20216314
_symmetry_Int_Tables_number   1
_chemical_formula_structural   Bi2Pt
_chemical_formula_sum   'Bi6 Pt3'
_cell_volume   250.23600692
_cell_formula_units_Z   3
loop_
 _symmetry_equiv_pos_site_id
 _symmetry_equiv_pos_as_xyz
  1  'x, y, z'
loop_
 _atom_site_type_symbol
 _atom_site_label
 _atom_site_symmetry_multiplicity
 _atom_site_fract_x
 _atom_site_fract_y
 _atom_site_fract_z
 _atom_site_occupancy
  Bi  Bi0  1  0.26287315  0.33855090  0.33962210  1
  Bi  Bi1  1  0.26263631  0.67201082  0.00318558  1
  Bi  Bi2  1  0.26194693  0.00968980  0.67393667  1
  Bi  Bi3  1  0.73712685  0.66144910  0.66037790  1
  Bi  Bi4  1  0.73736369  0.32798918  0.99681442  1
  Bi  Bi5  1  0.73805307  0.99031020  0.32606333  1
  Pt  Pt6  1  -0.00000000  0.00000000  0.00000000  1
  Pt  Pt7  1  0.99623033  0.33375356  0.66655018  1
  Pt  Pt8  1  0.00376967  0.66624644  0.33344982  1
