# generated using pymatgen
data_La2Mg
_symmetry_space_group_name_H-M   'P 1'
_cell_length_a   12.48011973
_cell_length_b   3.74121815
_cell_length_c   8.91690735
_cell_angle_alpha   90.00000000
_cell_angle_beta   110.44473058
_cell_angle_gamma   90.00000000
_symmetry_Int_Tables_number   1
_chemical_formula_structural   La2Mg
_chemical_formula_sum   'La8 Mg4'
_cell_volume   390.11268054
_cell_formula_units_Z   4
loop_
 _symmetry_equiv_pos_site_id
 _symmetry_equiv_pos_as_xyz
  1  'x, y, z'
loop_
 _atom_site_type_symbol
 _atom_site_label
 _atom_site_symmetry_multiplicity
 _atom_site_fract_x
 _atom_site_fract_y
 _atom_site_fract_z
 _atom_site_occupancy
  La  La0  1  0.17078928  0.50000000  0.11902817  1
  La  La1  1  0.48108924  0.50000000  0.25768807  1
  La  La2  1  0.01891076  0.00000000  0.74231193  1
  La  La3  1  0.32921072  -0.00000000  0.88097183  1
  La  La4  1  0.67078928  -0.00000000  0.11902817  1
  La  La5  1  0.98108924  -0.00000000  0.25768807  1
  La  La6  1  0.51891076  0.50000000  0.74231193  1
  La  La7  1  0.82921072  0.50000000  0.88097183  1
  Mg  Mg8  1  0.32712378  0.00000000  0.44929562  1
  Mg  Mg9  1  0.17287622  0.50000000  0.55070438  1
  Mg  Mg10  1  0.82712378  0.50000000  0.44929562  1
  Mg  Mg11  1  0.67287622  0.00000000  0.55070438  1
