# generated using pymatgen
data_SrC2(SN)2
_symmetry_space_group_name_H-M   'P 1'
_cell_length_a   6.12468522
_cell_length_b   6.12468522
_cell_length_c   8.23792553
_cell_angle_alpha   90.89691658
_cell_angle_beta   90.89691658
_cell_angle_gamma   65.28795203
_symmetry_Int_Tables_number   1
_chemical_formula_structural   SrC2(SN)2
_chemical_formula_sum   'Sr2 C4 S4 N4'
_cell_volume   280.67076391
_cell_formula_units_Z   2
loop_
 _symmetry_equiv_pos_site_id
 _symmetry_equiv_pos_as_xyz
  1  'x, y, z'
loop_
 _atom_site_type_symbol
 _atom_site_label
 _atom_site_symmetry_multiplicity
 _atom_site_fract_x
 _atom_site_fract_y
 _atom_site_fract_z
 _atom_site_occupancy
  C  C0  1  0.75947730  0.47900636  0.10363463  1
  C  C1  1  0.47900636  0.75947730  0.60363463  1
  C  C2  1  0.24052270  0.52099364  0.89636537  1
  C  C3  1  0.52099364  0.24052270  0.39636537  1
  N  N4  1  0.84384066  0.27750543  0.05316963  1
  N  N5  1  0.27750543  0.84384066  0.55316963  1
  N  N6  1  0.72249457  0.15615934  0.44683037  1
  N  N7  1  0.15615934  0.72249457  0.94683037  1
  S  S8  1  0.35061112  0.24776440  0.82564614  1
  S  S9  1  0.75223560  0.64938888  0.67435386  1
  S  S10  1  0.64938888  0.75223560  0.17435386  1
  S  S11  1  0.24776440  0.35061112  0.32564614  1
  Sr  Sr12  1  0.90597158  0.09402842  0.75000000  1
  Sr  Sr13  1  0.09402842  0.90597158  0.25000000  1
