# generated using pymatgen
data_Mn2HO4
_symmetry_space_group_name_H-M   'P 1'
_cell_length_a   5.99303564
_cell_length_b   10.25627176
_cell_length_c   10.25755092
_cell_angle_alpha   90.00542939
_cell_angle_beta   89.99993967
_cell_angle_gamma   90.00009359
_symmetry_Int_Tables_number   1
_chemical_formula_structural   Mn2HO4
_chemical_formula_sum   'Mn16 H8 O32'
_cell_volume   630.49269617
_cell_formula_units_Z   8
loop_
 _symmetry_equiv_pos_site_id
 _symmetry_equiv_pos_as_xyz
  1  'x, y, z'
loop_
 _atom_site_type_symbol
 _atom_site_label
 _atom_site_symmetry_multiplicity
 _atom_site_fract_x
 _atom_site_fract_y
 _atom_site_fract_z
 _atom_site_occupancy
  Mn  Mn0  1  0.49627794  0.64740664  0.83310099  1
  Mn  Mn1  1  0.00524606  0.64532397  0.83773709  1
  Mn  Mn2  1  0.50527418  0.16225027  0.64530722  1
  Mn  Mn3  1  0.99630487  0.16688778  0.64738490  1
  Mn  Mn4  1  0.99618804  0.83309537  0.35259697  1
  Mn  Mn5  1  0.50515582  0.83770890  0.35469628  1
  Mn  Mn6  1  0.00520286  0.35467510  0.16225053  1
  Mn  Mn7  1  0.49624718  0.35259619  0.16687735  1
  Mn  Mn8  1  0.25370543  0.14729811  0.33323755  1
  Mn  Mn9  1  0.74473108  0.14518923  0.33787224  1
  Mn  Mn10  1  0.24470995  0.66214957  0.14515338  1
  Mn  Mn11  1  0.75368510  0.66677542  0.14726855  1
  Mn  Mn12  1  0.24481279  0.33784882  0.85482836  1
  Mn  Mn13  1  0.75378445  0.33323258  0.85270136  1
  Mn  Mn14  1  0.25373764  0.85268026  0.66674183  1
  Mn  Mn15  1  0.74477523  0.85479366  0.66211748  1
  H  H16  1  0.25143050  0.64520562  0.43201159  1
  H  H17  1  0.49864741  0.14534283  0.93209293  1
  H  H18  1  0.49841314  0.85482722  0.06809380  1
  H  H19  1  0.99840838  0.06794668  0.14530281  1
  H  H20  1  0.99858946  0.93207265  0.85466958  1
  H  H21  1  0.25173097  0.35489013  0.56811998  1
  H  H22  1  0.75169063  0.56800218  0.64516926  1
  H  H23  1  0.75151208  0.43206006  0.35476347  1
  O  O24  1  0.25325985  0.33812664  0.04767055  1
  O  O25  1  0.74960677  0.33405574  0.04362897  1
  O  O26  1  0.24953944  0.95635244  0.33411098  1
  O  O27  1  0.75319906  0.95230317  0.33818319  1
  O  O28  1  0.24963565  0.04362437  0.66590107  1
  O  O29  1  0.75330947  0.04765836  0.66181124  1
  O  O30  1  0.25329201  0.66189528  0.95230262  1
  O  O31  1  0.74959346  0.66596836  0.95634665  1
  O  O32  1  0.00034523  0.83415409  0.54350769  1
  O  O33  1  0.49672949  0.83827349  0.54751730  1
  O  O34  1  0.99678242  0.45246548  0.83834262  1
  O  O35  1  0.50041008  0.45648018  0.83422182  1
  O  O36  1  0.50032606  0.54352923  0.16576992  1
  O  O37  1  0.99669096  0.54752904  0.16158072  1
  O  O38  1  0.49669886  0.16168412  0.45246352  1
  O  O39  1  0.00036254  0.16582457  0.45647695  1
  O  O40  1  0.50188001  0.16052878  0.20637373  1
  O  O41  1  0.99496236  0.14333611  0.20313436  1
  O  O42  1  0.00184063  0.79365244  0.16054642  1
  O  O43  1  0.49494873  0.79689805  0.14340419  1
  O  O44  1  0.99504582  0.85664684  0.79685199  1
  O  O45  1  0.50191740  0.83946202  0.79358957  1
  O  O46  1  0.49509801  0.20311444  0.85665585  1
  O  O47  1  0.00194566  0.20635548  0.83944604  1
  O  O48  1  0.24810880  0.66059726  0.70621428  1
  O  O49  1  0.75502272  0.64338589  0.70299385  1
  O  O50  1  0.25505992  0.29700057  0.64345986  1
  O  O51  1  0.74814295  0.29378225  0.66063068  1
  O  O52  1  0.24806835  0.33938747  0.29375336  1
  O  O53  1  0.75494593  0.35661277  0.29698468  1
  O  O54  1  0.25487112  0.70298311  0.35657810  1
  O  O55  1  0.74805006  0.70618770  0.33935474  1
