# generated using pymatgen
data_TlVPO6
_symmetry_space_group_name_H-M   'P 1'
_cell_length_a   6.82714763
_cell_length_b   9.69263983
_cell_length_c   18.06332022
_cell_angle_alpha   90.00000000
_cell_angle_beta   90.00000000
_cell_angle_gamma   90.00000000
_symmetry_Int_Tables_number   1
_chemical_formula_structural   TlVPO6
_chemical_formula_sum   'Tl8 V8 P8 O48'
_cell_volume   1195.30558897
_cell_formula_units_Z   8
loop_
 _symmetry_equiv_pos_site_id
 _symmetry_equiv_pos_as_xyz
  1  'x, y, z'
loop_
 _atom_site_type_symbol
 _atom_site_label
 _atom_site_symmetry_multiplicity
 _atom_site_fract_x
 _atom_site_fract_y
 _atom_site_fract_z
 _atom_site_occupancy
  Tl  Tl0  1  0.77205441  0.30298825  0.09900474  1
  Tl  Tl1  1  0.22794559  0.80298825  0.40099526  1
  Tl  Tl2  1  0.72794559  0.69701175  0.59900474  1
  Tl  Tl3  1  0.27205441  0.19701175  0.90099526  1
  Tl  Tl4  1  0.22794559  0.69701175  0.90099526  1
  Tl  Tl5  1  0.77205441  0.19701175  0.59900474  1
  Tl  Tl6  1  0.27205441  0.30298825  0.40099526  1
  Tl  Tl7  1  0.72794559  0.80298825  0.09900474  1
  V  V8  1  0.47604387  0.54608326  0.24197787  1
  V  V9  1  0.52395613  0.04608326  0.25802213  1
  V  V10  1  0.02395613  0.45391674  0.74197787  1
  V  V11  1  0.97604387  0.95391674  0.75802213  1
  V  V12  1  0.52395613  0.45391674  0.75802213  1
  V  V13  1  0.47604387  0.95391674  0.74197787  1
  V  V14  1  0.97604387  0.54608326  0.25802213  1
  V  V15  1  0.02395613  0.04608326  0.24197787  1
  P  P16  1  0.20061201  0.60209440  0.10011757  1
  P  P17  1  0.79938799  0.10209440  0.39988243  1
  P  P18  1  0.29938799  0.39790560  0.60011757  1
  P  P19  1  0.70061201  0.89790560  0.89988243  1
  P  P20  1  0.79938799  0.39790560  0.89988243  1
  P  P21  1  0.20061201  0.89790560  0.60011757  1
  P  P22  1  0.70061201  0.60209440  0.39988243  1
  P  P23  1  0.29938799  0.10209440  0.10011757  1
  O  O24  1  0.14055243  0.73441954  0.05871947  1
  O  O25  1  0.85944757  0.23441954  0.44128053  1
  O  O26  1  0.35944757  0.26558046  0.55871947  1
  O  O27  1  0.64055243  0.76558046  0.94128053  1
  O  O28  1  0.85944757  0.26558046  0.94128053  1
  O  O29  1  0.14055243  0.76558046  0.55871947  1
  O  O30  1  0.64055243  0.73441954  0.44128053  1
  O  O31  1  0.35944757  0.23441954  0.05871947  1
  O  O32  1  0.23089834  0.50435812  0.03384136  1
  O  O33  1  0.76910166  0.00435812  0.46615864  1
  O  O34  1  0.26910166  0.49564188  0.53384136  1
  O  O35  1  0.73089834  0.99564188  0.96615864  1
  O  O36  1  0.76910166  0.49564188  0.96615864  1
  O  O37  1  0.23089834  0.99564188  0.53384136  1
  O  O38  1  0.73089834  0.50435812  0.46615864  1
  O  O39  1  0.26910166  0.00435812  0.03384136  1
  O  O40  1  0.39172964  0.62121420  0.14645337  1
  O  O41  1  0.60827036  0.12121420  0.35354663  1
  O  O42  1  0.10827036  0.37878580  0.64645337  1
  O  O43  1  0.89172964  0.87878580  0.85354663  1
  O  O44  1  0.60827036  0.37878580  0.85354663  1
  O  O45  1  0.39172964  0.87878580  0.64645337  1
  O  O46  1  0.89172964  0.62121420  0.35354663  1
  O  O47  1  0.10827036  0.12121420  0.14645337  1
  O  O48  1  0.47037506  0.38069173  0.22732678  1
  O  O49  1  0.52962494  0.88069173  0.27267322  1
  O  O50  1  0.02962494  0.61930827  0.72732678  1
  O  O51  1  0.97037506  0.11930827  0.77267322  1
  O  O52  1  0.52962494  0.61930827  0.77267322  1
  O  O53  1  0.47037506  0.11930827  0.72732678  1
  O  O54  1  0.97037506  0.38069173  0.27267322  1
  O  O55  1  0.02962494  0.88069173  0.22732678  1
  O  O56  1  0.72119167  0.60124291  0.22458834  1
  O  O57  1  0.27880833  0.10124291  0.27541166  1
  O  O58  1  0.77880833  0.39875709  0.72458834  1
  O  O59  1  0.22119167  0.89875709  0.77541166  1
  O  O60  1  0.27880833  0.39875709  0.77541166  1
  O  O61  1  0.72119167  0.89875709  0.72458834  1
  O  O62  1  0.22119167  0.60124291  0.27541166  1
  O  O63  1  0.77880833  0.10124291  0.22458834  1
  O  O64  1  0.53384639  0.54950978  0.34846425  1
  O  O65  1  0.46615361  0.04950978  0.15153575  1
  O  O66  1  0.96615361  0.45049022  0.84846425  1
  O  O67  1  0.03384639  0.95049022  0.65153575  1
  O  O68  1  0.46615361  0.45049022  0.65153575  1
  O  O69  1  0.53384639  0.95049022  0.84846425  1
  O  O70  1  0.03384639  0.54950978  0.15153575  1
  O  O71  1  0.96615361  0.04950978  0.34846425  1
