# generated using pymatgen
data_Ca2TiO4
_symmetry_space_group_name_H-M   'P 1'
_cell_length_a   3.85578007
_cell_length_b   3.85577964
_cell_length_c   6.58404762
_cell_angle_alpha   107.02639210
_cell_angle_beta   107.02639458
_cell_angle_gamma   89.99998974
_symmetry_Int_Tables_number   1
_chemical_formula_structural   Ca2TiO4
_chemical_formula_sum   'Ca2 Ti1 O4'
_cell_volume   89.09830920
_cell_formula_units_Z   1
loop_
 _symmetry_equiv_pos_site_id
 _symmetry_equiv_pos_as_xyz
  1  'x, y, z'
loop_
 _atom_site_type_symbol
 _atom_site_label
 _atom_site_symmetry_multiplicity
 _atom_site_fract_x
 _atom_site_fract_y
 _atom_site_fract_z
 _atom_site_occupancy
  Ca  Ca0  1  0.35328556  0.35328556  0.70657012  1
  Ca  Ca1  1  0.64671444  0.64671444  0.29342988  1
  Ti  Ti2  1  -0.00000000  -0.00000000  -0.00000000  1
  O  O3  1  0.50000000  -0.00000000  -0.00000000  1
  O  O4  1  -0.00000000  0.50000000  -0.00000000  1
  O  O5  1  0.16601990  0.16601990  0.33203881  1
  O  O6  1  0.83398010  0.83398010  0.66796119  1
