# generated using pymatgen
data_Er3(CuSn)4
_symmetry_space_group_name_H-M   'P 1'
_cell_length_a   4.45873534
_cell_length_b   6.91059060
_cell_length_c   8.41714427
_cell_angle_alpha   114.23668069
_cell_angle_beta   105.35865706
_cell_angle_gamma   90.00000000
_symmetry_Int_Tables_number   1
_chemical_formula_structural   Er3(CuSn)4
_chemical_formula_sum   'Er3 Cu4 Sn4'
_cell_volume   226.29709451
_cell_formula_units_Z   1
loop_
 _symmetry_equiv_pos_site_id
 _symmetry_equiv_pos_as_xyz
  1  'x, y, z'
loop_
 _atom_site_type_symbol
 _atom_site_label
 _atom_site_symmetry_multiplicity
 _atom_site_fract_x
 _atom_site_fract_y
 _atom_site_fract_z
 _atom_site_occupancy
  Er  Er0  1  0.00000000  0.50000000  0.00000000  1
  Er  Er1  1  0.86877777  0.86877777  0.73755554  1
  Er  Er2  1  0.13122223  0.13122223  0.26244446  1
  Cu  Cu3  1  0.66953370  0.48157963  0.33906741  1
  Cu  Cu4  1  0.66953370  0.85748778  0.33906741  1
  Cu  Cu5  1  0.33046630  0.14251222  0.66093259  1
  Cu  Cu6  1  0.33046630  0.51842037  0.66093259  1
  Sn  Sn7  1  0.78410043  0.28410043  0.56820086  1
  Sn  Sn8  1  0.21589957  0.71589957  0.43179914  1
  Sn  Sn9  1  0.50000000  0.79677595  0.00000000  1
  Sn  Sn10  1  0.50000000  0.20322405  1.00000000  1
