# generated using pymatgen
data_Sr2HfCrO6
_symmetry_space_group_name_H-M   'P 1'
_cell_length_a   5.67884174
_cell_length_b   5.67884174
_cell_length_c   5.67884174
_cell_angle_alpha   88.86829767
_cell_angle_beta   120.65552548
_cell_angle_gamma   120.65552548
_symmetry_Int_Tables_number   1
_chemical_formula_structural   Sr2HfCrO6
_chemical_formula_sum   'Sr2 Hf1 Cr1 O6'
_cell_volume   128.18814338
_cell_formula_units_Z   1
loop_
 _symmetry_equiv_pos_site_id
 _symmetry_equiv_pos_as_xyz
  1  'x, y, z'
loop_
 _atom_site_type_symbol
 _atom_site_label
 _atom_site_symmetry_multiplicity
 _atom_site_fract_x
 _atom_site_fract_y
 _atom_site_fract_z
 _atom_site_occupancy
  Sr  Sr0  1  0.50000000  0.25000000  0.75000000  1
  Sr  Sr1  1  0.50000000  0.75000000  0.25000000  1
  Hf  Hf2  1  -0.00000000  0.50000000  0.50000000  1
  Cr  Cr3  1  -0.00000000  0.00000000  0.00000000  1
  O  O4  1  -0.00000000  0.24625302  0.24625302  1
  O  O5  1  0.00000000  0.75374698  0.75374698  1
  O  O6  1  0.48166341  0.24083171  0.24083171  1
  O  O7  1  0.51833659  0.75916829  0.75916829  1
  O  O8  1  -0.00000000  0.75916829  0.24083171  1
  O  O9  1  0.00000000  0.24083171  0.75916829  1
