# generated using pymatgen
data_Y5Mg
_symmetry_space_group_name_H-M   'P 1'
_cell_length_a   12.81489394
_cell_length_b   3.58891585
_cell_length_c   8.35817419
_cell_angle_alpha   90.00000000
_cell_angle_beta   103.81765229
_cell_angle_gamma   90.00000000
_symmetry_Int_Tables_number   1
_chemical_formula_structural   Y5Mg
_chemical_formula_sum   'Y10 Mg2'
_cell_volume   373.28119103
_cell_formula_units_Z   2
loop_
 _symmetry_equiv_pos_site_id
 _symmetry_equiv_pos_as_xyz
  1  'x, y, z'
loop_
 _atom_site_type_symbol
 _atom_site_label
 _atom_site_symmetry_multiplicity
 _atom_site_fract_x
 _atom_site_fract_y
 _atom_site_fract_z
 _atom_site_occupancy
  Y  Y0  1  0.99873786  0.00000000  0.00822507  1
  Y  Y1  1  0.17556362  0.50000000  0.33172747  1
  Y  Y2  1  0.05170904  -0.00000000  0.60027059  1
  Y  Y3  1  0.32975788  0.00000000  0.66979685  1
  Y  Y4  1  0.21926058  0.50000000  0.94401755  1
  Y  Y5  1  0.49873786  0.50000000  0.00822507  1
  Y  Y6  1  0.67556362  0.00000000  0.33172747  1
  Y  Y7  1  0.55170904  0.50000000  0.60027059  1
  Y  Y8  1  0.82975788  0.50000000  0.66979685  1
  Y  Y9  1  0.71926058  0.00000000  0.94401755  1
  Mg  Mg10  1  0.39163802  0.00000000  0.27929547  1
  Mg  Mg11  1  0.89163802  0.50000000  0.27929547  1
