# generated using pymatgen
data_Sr7CaMn3(FeO4)5
_symmetry_space_group_name_H-M   'P 1'
_cell_length_a   11.18364161
_cell_length_b   11.34219088
_cell_length_c   17.75902813
_cell_angle_alpha   108.64314417
_cell_angle_beta   108.53996683
_cell_angle_gamma   89.79453900
_symmetry_Int_Tables_number   1
_chemical_formula_structural   Sr7CaMn3(FeO4)5
_chemical_formula_sum   'Sr28 Ca4 Mn12 Fe20 O80'
_cell_volume   2011.60983932
_cell_formula_units_Z   4
loop_
 _symmetry_equiv_pos_site_id
 _symmetry_equiv_pos_as_xyz
  1  'x, y, z'
loop_
 _atom_site_type_symbol
 _atom_site_label
 _atom_site_symmetry_multiplicity
 _atom_site_fract_x
 _atom_site_fract_y
 _atom_site_fract_z
 _atom_site_occupancy
  Sr  Sr0  1  0.30699530  0.05930796  0.60809349  1
  Sr  Sr1  1  0.30734227  0.55922976  0.60822501  1
  Sr  Sr2  1  0.80722435  0.05952762  0.60823630  1
  Sr  Sr3  1  0.80561478  0.56399093  0.10875522  1
  Sr  Sr4  1  0.80712101  0.55919387  0.60845337  1
  Sr  Sr5  1  0.19657185  0.43604471  0.39013477  1
  Sr  Sr6  1  0.19897749  0.44172463  0.89275767  1
  Sr  Sr7  1  0.19806166  0.93807398  0.38941561  1
  Sr  Sr8  1  0.19914576  0.94107370  0.89276366  1
  Sr  Sr9  1  0.69828189  0.43826701  0.39164903  1
  Sr  Sr10  1  0.69949063  0.44178757  0.89251826  1
  Sr  Sr11  1  0.69789972  0.93969811  0.39023666  1
  Sr  Sr12  1  0.69982041  0.94075409  0.89293504  1
  Sr  Sr13  1  0.05718917  0.29521187  0.10991441  1
  Sr  Sr14  1  0.05681880  0.29856981  0.60786245  1
  Sr  Sr15  1  0.05742993  0.79928486  0.60843257  1
  Sr  Sr16  1  0.55664112  0.29571446  0.10892814  1
  Sr  Sr17  1  0.55728280  0.29888684  0.60807782  1
  Sr  Sr18  1  0.55722017  0.79991757  0.11012810  1
  Sr  Sr19  1  0.55717364  0.79916956  0.60809975  1
  Sr  Sr20  1  0.44613818  0.19962116  0.38852976  1
  Sr  Sr21  1  0.44853881  0.20087203  0.89245234  1
  Sr  Sr22  1  0.44532378  0.70051257  0.38837114  1
  Sr  Sr23  1  0.44893310  0.70188262  0.89268298  1
  Sr  Sr24  1  0.94695774  0.19854817  0.38778428  1
  Sr  Sr25  1  0.94964057  0.20083082  0.89276808  1
  Sr  Sr26  1  0.94657843  0.70347625  0.39055141  1
  Sr  Sr27  1  0.94962365  0.70231959  0.89298069  1
  Ca  Ca28  1  0.30259799  0.06269017  0.10521953  1
  Ca  Ca29  1  0.30352671  0.56413718  0.10536612  1
  Ca  Ca30  1  0.80630299  0.06234137  0.10635148  1
  Ca  Ca31  1  0.05733658  0.79069431  0.10572539  1
  Mn  Mn32  1  0.11129617  0.09745958  0.75079972  1
  Mn  Mn33  1  0.11088346  0.59745432  0.75072727  1
  Mn  Mn34  1  0.60827230  0.09411497  0.24795518  1
  Mn  Mn35  1  0.61116332  0.09692446  0.75057948  1
  Mn  Mn36  1  0.61125397  0.59764813  0.75070227  1
  Mn  Mn37  1  0.35895948  0.40107491  0.24774091  1
  Mn  Mn38  1  0.36096446  0.40336816  0.75063997  1
  Mn  Mn39  1  0.35515767  0.90367259  0.24628733  1
  Mn  Mn40  1  0.36136672  0.90341385  0.75071049  1
  Mn  Mn41  1  0.86131094  0.40353426  0.75077316  1
  Mn  Mn42  1  0.86076191  0.90254048  0.24812299  1
  Mn  Mn43  1  0.86155209  0.90324963  0.75085000  1
  Fe  Fe44  1  0.00731907  0.00172303  0.00507000  1
  Fe  Fe45  1  0.00359074  0.00037801  0.49924085  1
  Fe  Fe46  1  0.00603498  0.50184206  0.00253672  1
  Fe  Fe47  1  0.00408271  0.49954901  0.50000596  1
  Fe  Fe48  1  0.50569502  0.00126809  0.00343703  1
  Fe  Fe49  1  0.50318671  0.00018208  0.49937033  1
  Fe  Fe50  1  0.50449405  0.50159536  0.00188818  1
  Fe  Fe51  1  0.50340517  0.50043962  0.49971196  1
  Fe  Fe52  1  0.25515311  0.25196168  0.00288831  1
  Fe  Fe53  1  0.25424967  0.24984966  0.50017620  1
  Fe  Fe54  1  0.25539287  0.75251389  0.00407012  1
  Fe  Fe55  1  0.25408980  0.75021396  0.50015705  1
  Fe  Fe56  1  0.75466304  0.24946813  0.00106806  1
  Fe  Fe57  1  0.75293232  0.24917321  0.49916989  1
  Fe  Fe58  1  0.75670755  0.75343765  0.00381267  1
  Fe  Fe59  1  0.75387355  0.75063454  0.50043145  1
  Fe  Fe60  1  0.10636521  0.08497704  0.24592925  1
  Fe  Fe61  1  0.10920539  0.58974316  0.24892233  1
  Fe  Fe62  1  0.60549075  0.59002141  0.24786985  1
  Fe  Fe63  1  0.85757938  0.40708175  0.24923284  1
  O  O64  1  0.12481955  0.12291237  0.49270339  1
  O  O65  1  0.12656125  0.12195212  0.99397937  1
  O  O66  1  0.12358409  0.62188504  0.49170851  1
  O  O67  1  0.12617471  0.62402285  0.99577107  1
  O  O68  1  0.62434151  0.12287530  0.49371024  1
  O  O69  1  0.62703778  0.12281084  0.99548285  1
  O  O70  1  0.62451439  0.62289754  0.49240146  1
  O  O71  1  0.62471477  0.62299169  0.99269443  1
  O  O72  1  0.13597304  0.38303913  0.01186142  1
  O  O73  1  0.13161265  0.37690289  0.50629788  1
  O  O74  1  0.13479116  0.88037983  0.01344894  1
  O  O75  1  0.13095257  0.87685673  0.50561043  1
  O  O76  1  0.63241740  0.37773325  0.00897212  1
  O  O77  1  0.63078006  0.37766900  0.50595495  1
  O  O78  1  0.63516625  0.88092453  0.00917235  1
  O  O79  1  0.63034494  0.87675385  0.50525638  1
  O  O80  1  0.37411700  0.12116137  0.49273228  1
  O  O81  1  0.37550697  0.12175974  0.99553063  1
  O  O82  1  0.37396936  0.62110332  0.49241213  1
  O  O83  1  0.37472718  0.62110609  0.99563579  1
  O  O84  1  0.87477572  0.12133289  0.49356527  1
  O  O85  1  0.87529153  0.11982795  0.99532218  1
  O  O86  1  0.87380805  0.62000727  0.49142087  1
  O  O87  1  0.87843518  0.62383138  0.99599577  1
  O  O88  1  0.38203160  0.38417062  0.01133732  1
  O  O89  1  0.38137473  0.37896047  0.50611218  1
  O  O90  1  0.38063020  0.88311072  0.01002088  1
  O  O91  1  0.38153832  0.87907468  0.50634805  1
  O  O92  1  0.88314977  0.38074940  0.00965035  1
  O  O93  1  0.88072354  0.37876204  0.50552511  1
  O  O94  1  0.88639404  0.88318920  0.01341576  1
  O  O95  1  0.88164132  0.87912595  0.50675615  1
  O  O96  1  0.09051144  0.09609585  0.13955024  1
  O  O97  1  0.07613086  0.08570225  0.63631899  1
  O  O98  1  0.08581195  0.60291993  0.14170827  1
  O  O99  1  0.07517158  0.58566899  0.63580582  1
  O  O100  1  0.58034738  0.08537997  0.13569310  1
  O  O101  1  0.57552547  0.08554167  0.63620085  1
  O  O102  1  0.58476982  0.59641140  0.13990020  1
  O  O103  1  0.57548163  0.58599849  0.63600817  1
  O  O104  1  0.43929465  0.41679161  0.36251695  1
  O  O105  1  0.43914017  0.41399239  0.86482534  1
  O  O106  1  0.43622257  0.91782421  0.36191021  1
  O  O107  1  0.43974662  0.91460595  0.86473103  1
  O  O108  1  0.94005529  0.40428577  0.35940082  1
  O  O109  1  0.94040688  0.41475870  0.86519453  1
  O  O110  1  0.94005817  0.91681020  0.36355885  1
  O  O111  1  0.94015526  0.91362387  0.86480569  1
  O  O112  1  0.32553460  0.29091349  0.13676625  1
  O  O113  1  0.32598055  0.30046639  0.63620593  1
  O  O114  1  0.32613627  0.79055824  0.13608695  1
  O  O115  1  0.32530676  0.80021862  0.63588330  1
  O  O116  1  0.83105718  0.28698088  0.14167922  1
  O  O117  1  0.82574182  0.30108868  0.63636652  1
  O  O118  1  0.82772820  0.79753618  0.13571024  1
  O  O119  1  0.82559209  0.80015947  0.63592090  1
  O  O120  1  0.19092349  0.19862221  0.35709899  1
  O  O121  1  0.18989942  0.20087043  0.86511625  1
  O  O122  1  0.19094673  0.70395348  0.35882847  1
  O  O123  1  0.18905019  0.70015202  0.86485950  1
  O  O124  1  0.68548856  0.19801230  0.36303418  1
  O  O125  1  0.69026133  0.19992718  0.86506109  1
  O  O126  1  0.68823303  0.70377333  0.35804459  1
  O  O127  1  0.69118869  0.70067732  0.86452561  1
  O  O128  1  0.43091461  0.05998499  0.24099609  1
  O  O129  1  0.44170747  0.06213781  0.75047572  1
  O  O130  1  0.43213074  0.55615414  0.24142416  1
  O  O131  1  0.44197489  0.56218305  0.75071002  1
  O  O132  1  0.93406023  0.06040831  0.24194032  1
  O  O133  1  0.94178333  0.06207198  0.75056663  1
  O  O134  1  0.93627233  0.55912740  0.24858788  1
  O  O135  1  0.94175045  0.56220580  0.75068339  1
  O  O136  1  0.18334659  0.43622293  0.24944816  1
  O  O137  1  0.19170304  0.43829434  0.75032687  1
  O  O138  1  0.17517596  0.92629674  0.24221755  1
  O  O139  1  0.19192130  0.93824105  0.75063093  1
  O  O140  1  0.68546405  0.43795917  0.24974368  1
  O  O141  1  0.69182362  0.43811478  0.75038254  1
  O  O142  1  0.68995743  0.93837400  0.24999232  1
  O  O143  1  0.69195982  0.93815818  0.75047179  1
