# generated using pymatgen
data_Eu2Sc2O5
_symmetry_space_group_name_H-M   'P 1'
_cell_length_a   5.75961091
_cell_length_b   5.98662014
_cell_length_c   8.84773732
_cell_angle_alpha   109.77203432
_cell_angle_beta   108.99502198
_cell_angle_gamma   90.00013054
_symmetry_Int_Tables_number   1
_chemical_formula_structural   Eu2Sc2O5
_chemical_formula_sum   'Eu4 Sc4 O10'
_cell_volume   269.37060600
_cell_formula_units_Z   2
loop_
 _symmetry_equiv_pos_site_id
 _symmetry_equiv_pos_as_xyz
  1  'x, y, z'
loop_
 _atom_site_type_symbol
 _atom_site_label
 _atom_site_symmetry_multiplicity
 _atom_site_fract_x
 _atom_site_fract_y
 _atom_site_fract_z
 _atom_site_occupancy
  Eu  Eu0  1  0.39794419  0.92110254  0.78593465  1
  Eu  Eu1  1  0.61202710  0.07889358  0.21406081  1
  Eu  Eu2  1  0.89794411  0.36484336  0.78593757  1
  Eu  Eu3  1  0.11204784  0.63518564  0.21406126  1
  Sc  Sc4  1  0.99840466  0.00000506  0.99999644  1
  Sc  Sc5  1  0.49841407  0.49999667  0.99999764  1
  Sc  Sc6  1  0.79535781  0.68055255  0.50000505  1
  Sc  Sc7  1  0.29536872  0.31945749  0.49999847  1
  O  O8  1  0.76469480  0.26764694  0.02585949  1
  O  O9  1  0.73883450  0.73235604  0.97415176  1
  O  O10  1  0.26470271  0.25820433  0.02586577  1
  O  O11  1  0.23880437  0.74177692  0.97412339  1
  O  O12  1  0.83783302  0.93099223  0.72330109  1
  O  O13  1  0.11447077  0.06901042  0.27671732  1
  O  O14  1  0.33785906  0.29232060  0.72330376  1
  O  O15  1  0.61443852  0.70765982  0.27669822  1
  O  O16  1  0.14702367  0.62792579  0.50000584  1
  O  O17  1  0.64703210  0.37206801  0.49998348  1
