# generated using pymatgen
data_LiMg6Ga
_symmetry_space_group_name_H-M   'P 1'
_cell_length_a   6.22439606
_cell_length_b   6.22439542
_cell_length_c   5.06127970
_cell_angle_alpha   90.00000000
_cell_angle_beta   90.00000000
_cell_angle_gamma   120.08327349
_symmetry_Int_Tables_number   1
_chemical_formula_structural   LiMg6Ga
_chemical_formula_sum   'Li1 Mg6 Ga1'
_cell_volume   169.67596486
_cell_formula_units_Z   1
loop_
 _symmetry_equiv_pos_site_id
 _symmetry_equiv_pos_as_xyz
  1  'x, y, z'
loop_
 _atom_site_type_symbol
 _atom_site_label
 _atom_site_symmetry_multiplicity
 _atom_site_fract_x
 _atom_site_fract_y
 _atom_site_fract_z
 _atom_site_occupancy
  Li  Li0  1  0.16830205  0.33169795  0.25000000  1
  Mg  Mg1  1  0.16940955  0.83853356  0.25000000  1
  Mg  Mg2  1  0.66146644  0.33059045  0.25000000  1
  Mg  Mg3  1  0.66620397  0.83379603  0.25000000  1
  Mg  Mg4  1  0.33324188  0.66385513  0.75000000  1
  Mg  Mg5  1  0.83614487  0.16675812  0.75000000  1
  Mg  Mg6  1  0.83268746  0.66731254  0.75000000  1
  Ga  Ga7  1  0.33254378  0.16745622  0.75000000  1
