# generated using pymatgen
data_TaCl3
_symmetry_space_group_name_H-M   'P 1'
_cell_length_a   14.21079670
_cell_length_b   14.21079670
_cell_length_c   14.21079670
_cell_angle_alpha   60.00000000
_cell_angle_beta   60.00000000
_cell_angle_gamma   60.00000000
_symmetry_Int_Tables_number   1
_chemical_formula_structural   TaCl3
_chemical_formula_sum   'Ta12 Cl36'
_cell_volume   2029.27208517
_cell_formula_units_Z   12
loop_
 _symmetry_equiv_pos_site_id
 _symmetry_equiv_pos_as_xyz
  1  'x, y, z'
loop_
 _atom_site_type_symbol
 _atom_site_label
 _atom_site_symmetry_multiplicity
 _atom_site_fract_x
 _atom_site_fract_y
 _atom_site_fract_z
 _atom_site_occupancy
  Ta  Ta0  1  0.23383990  0.01616010  0.01616010  1
  Ta  Ta1  1  0.01616010  0.23383990  0.23383990  1
  Ta  Ta2  1  0.01616010  0.23383990  0.01616010  1
  Ta  Ta3  1  0.23383990  0.01616010  0.23383990  1
  Ta  Ta4  1  0.01616010  0.01616010  0.23383990  1
  Ta  Ta5  1  0.23383990  0.23383990  0.01616010  1
  Ta  Ta6  1  0.76616010  0.98383990  0.98383990  1
  Ta  Ta7  1  0.98383990  0.76616010  0.76616010  1
  Ta  Ta8  1  0.98383990  0.76616010  0.98383990  1
  Ta  Ta9  1  0.76616010  0.98383990  0.76616010  1
  Ta  Ta10  1  0.98383990  0.98383990  0.76616010  1
  Ta  Ta11  1  0.76616010  0.76616010  0.98383990  1
  Cl  Cl12  1  0.35314974  0.89685026  0.89685026  1
  Cl  Cl13  1  0.89685026  0.35314974  0.35314974  1
  Cl  Cl14  1  0.89685026  0.35314974  0.89685026  1
  Cl  Cl15  1  0.35314974  0.89685026  0.35314974  1
  Cl  Cl16  1  0.89685026  0.89685026  0.35314974  1
  Cl  Cl17  1  0.35314974  0.35314974  0.89685026  1
  Cl  Cl18  1  0.64685026  0.10314974  0.10314974  1
  Cl  Cl19  1  0.10314974  0.64685026  0.64685026  1
  Cl  Cl20  1  0.10314974  0.64685026  0.10314974  1
  Cl  Cl21  1  0.64685026  0.10314974  0.64685026  1
  Cl  Cl22  1  0.10314974  0.10314974  0.64685026  1
  Cl  Cl23  1  0.64685026  0.64685026  0.10314974  1
  Cl  Cl24  1  0.12547709  0.36638743  0.88265839  1
  Cl  Cl25  1  0.12547709  0.88265839  0.36638743  1
  Cl  Cl26  1  0.88265839  0.12547709  0.12547709  1
  Cl  Cl27  1  0.36638743  0.12547709  0.12547709  1
  Cl  Cl28  1  0.88265839  0.12547709  0.36638743  1
  Cl  Cl29  1  0.36638743  0.12547709  0.88265839  1
  Cl  Cl30  1  0.12547709  0.88265839  0.12547709  1
  Cl  Cl31  1  0.12547709  0.36638743  0.12547709  1
  Cl  Cl32  1  0.36638743  0.88265839  0.12547709  1
  Cl  Cl33  1  0.88265839  0.36638743  0.12547709  1
  Cl  Cl34  1  0.12547709  0.12547709  0.88265839  1
  Cl  Cl35  1  0.12547709  0.12547709  0.36638743  1
  Cl  Cl36  1  0.87452291  0.63361257  0.11734161  1
  Cl  Cl37  1  0.87452291  0.11734161  0.63361257  1
  Cl  Cl38  1  0.11734161  0.87452291  0.87452291  1
  Cl  Cl39  1  0.63361257  0.87452291  0.87452291  1
  Cl  Cl40  1  0.11734161  0.87452291  0.63361257  1
  Cl  Cl41  1  0.63361257  0.87452291  0.11734161  1
  Cl  Cl42  1  0.87452291  0.11734161  0.87452291  1
  Cl  Cl43  1  0.87452291  0.63361257  0.87452291  1
  Cl  Cl44  1  0.63361257  0.11734161  0.87452291  1
  Cl  Cl45  1  0.11734161  0.63361257  0.87452291  1
  Cl  Cl46  1  0.87452291  0.87452291  0.11734161  1
  Cl  Cl47  1  0.87452291  0.87452291  0.63361257  1
