# generated using pymatgen
data_Li9Mn7O16
_symmetry_space_group_name_H-M   'P 1'
_cell_length_a   3.00773097
_cell_length_b   10.16880857
_cell_length_c   10.18209085
_cell_angle_alpha   72.85451606
_cell_angle_beta   86.51075956
_cell_angle_gamma   91.98484670
_symmetry_Int_Tables_number   1
_chemical_formula_structural   Li9Mn7O16
_chemical_formula_sum   'Li9 Mn7 O16'
_cell_volume   296.57667714
_cell_formula_units_Z   1
loop_
 _symmetry_equiv_pos_site_id
 _symmetry_equiv_pos_as_xyz
  1  'x, y, z'
loop_
 _atom_site_type_symbol
 _atom_site_label
 _atom_site_symmetry_multiplicity
 _atom_site_fract_x
 _atom_site_fract_y
 _atom_site_fract_z
 _atom_site_occupancy
  Li  Li0  1  0.99394520  0.25442182  0.74745109  1
  Li  Li1  1  0.48881188  0.75826169  0.49077436  1
  Li  Li2  1  0.98972761  0.24189672  0.24204233  1
  Li  Li3  1  0.50295119  0.24793008  0.50143198  1
  Li  Li4  1  0.01027239  0.75810328  0.25795767  1
  Li  Li5  1  0.51118812  0.24173831  0.00922564  1
  Li  Li6  1  0.49704881  0.75206992  0.99856802  1
  Li  Li7  1  0.00605480  0.74557818  0.75254891  1
  Li  Li8  1  0.50000000  0.00000000  0.25000000  1
  Mn  Mn9  1  0.00290555  0.00154492  0.00818340  1
  Mn  Mn10  1  0.99709445  0.99845508  0.49181660  1
  Mn  Mn11  1  0.50000000  0.50000000  0.75000000  1
  Mn  Mn12  1  0.50000000  0.50000000  0.25000000  1
  Mn  Mn13  1  0.99882391  0.50031229  0.50001805  1
  Mn  Mn14  1  0.00117609  0.49968771  -0.00001805  1
  Mn  Mn15  1  0.50000000  0.00000000  0.75000000  1
  O  O16  1  0.53156618  0.10593770  0.88702177  1
  O  O17  1  0.96570105  0.61590803  0.62338302  1
  O  O18  1  0.52648096  0.10752826  0.39359609  1
  O  O19  1  0.97099307  0.11350077  0.62700459  1
  O  O20  1  0.46613165  0.61845274  0.37158652  1
  O  O21  1  0.99315452  0.11837080  0.11365625  1
  O  O22  1  0.96423507  0.61720794  0.12182842  1
  O  O23  1  0.46699763  0.61936067  0.87129757  1
  O  O24  1  0.53300237  0.38063933  0.62870243  1
  O  O25  1  0.00684548  0.88162920  0.38634375  1
  O  O26  1  0.53386835  0.38154726  0.12841348  1
  O  O27  1  0.03576493  0.38279206  0.37817158  1
  O  O28  1  0.47351904  0.89247174  0.10640391  1
  O  O29  1  0.03429895  0.38409197  0.87661698  1
  O  O30  1  0.02900693  0.88649923  0.87299541  1
  O  O31  1  0.46843382  0.89406230  0.61297823  1
