# generated using pymatgen
data_Li9Mn7O16
_symmetry_space_group_name_H-M   'P 1'
_cell_length_a   3.00999979
_cell_length_b   10.40236533
_cell_length_c   9.96361804
_cell_angle_alpha   106.31830985
_cell_angle_beta   93.99175575
_cell_angle_gamma   83.36592909
_symmetry_Int_Tables_number   1
_chemical_formula_structural   Li9Mn7O16
_chemical_formula_sum   'Li9 Mn7 O16'
_cell_volume   297.17370769
_cell_formula_units_Z   1
loop_
 _symmetry_equiv_pos_site_id
 _symmetry_equiv_pos_as_xyz
  1  'x, y, z'
loop_
 _atom_site_type_symbol
 _atom_site_label
 _atom_site_symmetry_multiplicity
 _atom_site_fract_x
 _atom_site_fract_y
 _atom_site_fract_z
 _atom_site_occupancy
  Li  Li0  1  0.91840023  0.13878884  0.31092801  1
  Li  Li1  1  0.41951680  0.13084307  0.82405168  1
  Li  Li2  1  0.33048320  0.36915693  0.42594832  1
  Li  Li3  1  0.83159977  0.36121116  0.93907199  1
  Li  Li4  1  0.68036558  0.62549891  0.56862030  1
  Li  Li5  1  0.18153423  0.62503088  0.06515866  1
  Li  Li6  1  0.06963442  0.87450109  0.68137970  1
  Li  Li7  1  0.56846577  0.87496912  0.18484134  1
  Li  Li8  1  0.37500000  0.25000000  0.12500000  1
  Mn  Mn9  1  0.98865044  0.01016930  0.00370040  1
  Mn  Mn10  1  0.76134956  0.48983070  0.24629960  1
  Mn  Mn11  1  0.50190728  0.99957793  0.49786091  1
  Mn  Mn12  1  0.87500000  0.25000000  0.62500000  1
  Mn  Mn13  1  0.24809272  0.50042207  0.75213909  1
  Mn  Mn14  1  0.14102020  0.74784213  0.37063490  1
  Mn  Mn15  1  0.60897980  0.75215787  0.87936510  1
  O  O16  1  0.50063145  0.05435967  0.13353222  1
  O  O17  1  0.93162870  0.06735978  0.64856957  1
  O  O18  1  0.82897389  0.32671574  0.28214067  1
  O  O19  1  0.30511500  0.31883336  0.77855327  1
  O  O20  1  0.25648236  0.56031308  0.38512551  1
  O  O21  1  0.67891401  0.56976863  0.90292587  1
  O  O22  1  0.56507400  0.81634537  0.52605422  1
  O  O23  1  0.05125416  0.82014529  0.02462768  1
  O  O24  1  0.44488500  0.18116664  0.47144573  1
  O  O25  1  0.92102511  0.17328426  0.96785933  1
  O  O26  1  0.81837230  0.43264022  0.60143043  1
  O  O27  1  0.24936855  0.44564033  0.11646878  1
  O  O28  1  0.18492600  0.68365463  0.72394578  1
  O  O29  1  0.69874584  0.67985471  0.22537232  1
  O  O30  1  0.49351764  0.93968692  0.86487449  1
  O  O31  1  0.07108599  0.93023137  0.34707413  1
