# generated using pymatgen
data_Ca3Sn2S7
_symmetry_space_group_name_H-M   'P 1'
_cell_length_a   6.51741777
_cell_length_b   14.42549390
_cell_length_c   16.00922295
_cell_angle_alpha   116.77814173
_cell_angle_beta   101.74474700
_cell_angle_gamma   89.99999769
_symmetry_Int_Tables_number   1
_chemical_formula_structural   Ca3Sn2S7
_chemical_formula_sum   'Ca12 Sn8 S28'
_cell_volume   1308.33090121
_cell_formula_units_Z   4
loop_
 _symmetry_equiv_pos_site_id
 _symmetry_equiv_pos_as_xyz
  1  'x, y, z'
loop_
 _atom_site_type_symbol
 _atom_site_label
 _atom_site_symmetry_multiplicity
 _atom_site_fract_x
 _atom_site_fract_y
 _atom_site_fract_z
 _atom_site_occupancy
  Ca  Ca0  1  0.50000000  0.50659726  0.00000000  1
  Ca  Ca1  1  1.00000000  0.00659726  0.00000000  1
  Ca  Ca2  1  0.25805318  0.97371553  0.50000000  1
  Ca  Ca3  1  0.74194682  0.47371553  0.50000000  1
  Ca  Ca4  1  0.33277949  0.32173613  0.65834046  1
  Ca  Ca5  1  0.66722051  0.66339567  0.34165954  1
  Ca  Ca6  1  0.17443902  0.16339567  0.34165954  1
  Ca  Ca7  1  0.82556098  0.82173613  0.65834046  1
  Ca  Ca8  1  0.89409908  0.16683615  0.78643770  1
  Ca  Ca9  1  0.10590092  0.38039845  0.21356230  1
  Ca  Ca10  1  0.60766138  0.88039845  0.21356230  1
  Ca  Ca11  1  0.39233862  0.66683615  0.78643770  1
  Sn  Sn12  1  0.67684413  0.15580714  0.50000000  1
  Sn  Sn13  1  0.32315587  0.65580714  0.50000000  1
  Sn  Sn14  1  0.33238964  0.97886808  0.78829821  1
  Sn  Sn15  1  0.66761036  0.19056987  0.21170179  1
  Sn  Sn16  1  0.04409143  0.69056987  0.21170179  1
  Sn  Sn17  1  0.95590857  0.47886808  0.78829821  1
  Sn  Sn18  1  0.50000000  0.26623963  0.00000000  1
  Sn  Sn19  1  1.00000000  0.76623963  0.00000000  1
  S  S20  1  0.57360644  0.14621304  0.63321086  1
  S  S21  1  0.42639356  0.51300217  0.36678914  1
  S  S22  1  0.44039557  0.01300217  0.36678914  1
  S  S23  1  0.55960443  0.64621304  0.63321086  1
  S  S24  1  0.50767786  0.30648743  0.50000000  1
  S  S25  1  0.49232214  0.80648743  0.50000000  1
  S  S26  1  0.04285253  0.15216466  0.50000000  1
  S  S27  1  0.95714747  0.65216466  0.50000000  1
  S  S28  1  0.08819957  0.98836493  0.65702141  1
  S  S29  1  0.91180043  0.33134352  0.34297859  1
  S  S30  1  0.93117815  0.83134352  0.34297859  1
  S  S31  1  0.06882185  0.48836493  0.65702141  1
  S  S32  1  0.13956447  0.34404130  0.80946890  1
  S  S33  1  0.86043553  0.53457240  0.19053110  1
  S  S34  1  0.83009557  0.03457240  0.19053110  1
  S  S35  1  0.16990443  0.84404130  0.80946890  1
  S  S36  1  0.20954145  0.12489024  0.92144290  1
  S  S37  1  0.79045855  0.20344734  0.07855710  1
  S  S38  1  0.78809855  0.70344734  0.07855710  1
  S  S39  1  0.21190145  0.62489024  0.92144290  1
  S  S40  1  0.70378743  0.00183026  0.81035991  1
  S  S41  1  0.29621257  0.19147035  0.18964009  1
  S  S42  1  0.39342752  0.69147035  0.18964009  1
  S  S43  1  0.60657248  0.50183026  0.81035991  1
  S  S44  1  0.65823912  0.31387261  0.90313675  1
  S  S45  1  0.34176088  0.41073585  0.09686325  1
  S  S46  1  0.25510237  0.91073585  0.09686325  1
  S  S47  1  0.74489763  0.81387261  0.90313675  1
