# generated using pymatgen
data_V11Sb9O40
_symmetry_space_group_name_H-M   'P 1'
_cell_length_a   3.14760361
_cell_length_b   4.67661896
_cell_length_c   46.63217580
_cell_angle_alpha   89.70752288
_cell_angle_beta   90.00000000
_cell_angle_gamma   90.00000000
_symmetry_Int_Tables_number   1
_chemical_formula_structural   V11Sb9O40
_chemical_formula_sum   'V11 Sb9 O40'
_cell_volume   686.42333943
_cell_formula_units_Z   1
loop_
 _symmetry_equiv_pos_site_id
 _symmetry_equiv_pos_as_xyz
  1  'x, y, z'
loop_
 _atom_site_type_symbol
 _atom_site_label
 _atom_site_symmetry_multiplicity
 _atom_site_fract_x
 _atom_site_fract_y
 _atom_site_fract_z
 _atom_site_occupancy
  V  V0  1  0.00000000  0.01885169  0.00128366  1
  V  V1  1  0.00000000  0.98114831  0.49871634  1
  V  V2  1  -0.00000000  -0.00012973  0.70007025  1
  V  V3  1  -0.00000000  0.99853928  0.59998811  1
  V  V4  1  0.00000000  0.00012973  0.79992975  1
  V  V5  1  0.00000000  0.00146072  0.90001189  1
  V  V6  1  0.50000000  0.52183373  0.04725231  1
  V  V7  1  0.50000000  0.50157699  0.14962481  1
  V  V8  1  0.50000000  0.49842301  0.35037519  1
  V  V9  1  0.50000000  0.50000000  0.25000000  1
  V  V10  1  0.50000000  0.47816627  0.45274769  1
  Sb  Sb11  1  0.00000000  0.00566404  0.09924427  1
  Sb  Sb12  1  0.00000000  0.00061896  0.19979205  1
  Sb  Sb13  1  0.00000000  0.99433596  0.40075573  1
  Sb  Sb14  1  0.00000000  0.99938104  0.30020795  1
  Sb  Sb15  1  0.50000000  0.49892139  0.65004333  1
  Sb  Sb16  1  0.50000000  0.50000000  0.75000000  1
  Sb  Sb17  1  0.50000000  0.49586395  0.54974210  1
  Sb  Sb18  1  0.50000000  0.50107861  0.84995667  1
  Sb  Sb19  1  0.50000000  0.50413605  0.95025790  1
  O  O20  1  0.00000000  0.68927733  0.06992370  1
  O  O21  1  -0.00000000  0.30434138  0.12936358  1
  O  O22  1  -0.00000000  0.69544700  0.17011779  1
  O  O23  1  0.00000000  0.30455300  0.32988221  1
  O  O24  1  0.00000000  0.69565862  0.37063642  1
  O  O25  1  0.00000000  0.31072267  0.43007630  1
  O  O26  1  0.00000000  0.30707551  0.52966199  1
  O  O27  1  0.00000000  0.69191053  0.56951870  1
  O  O28  1  0.00000000  0.30902383  0.73052142  1
  O  O29  1  0.00000000  0.69097617  0.76947858  1
  O  O30  1  -0.00000000  0.30808947  0.93048130  1
  O  O31  1  0.00000000  0.69292449  0.97033801  1
  O  O32  1  0.50000000  0.18916609  0.28054716  1
  O  O33  1  0.50000000  0.19492627  0.07898334  1
  O  O34  1  0.50000000  0.19017949  0.38087325  1
  O  O35  1  0.50000000  0.80135701  0.02047891  1
  O  O36  1  0.50000000  0.19327783  0.17982540  1
  O  O37  1  0.50000000  0.19864299  0.47952109  1
  O  O38  1  0.50000000  0.80982051  0.11912675  1
  O  O39  1  0.50000000  0.81083391  0.21945284  1
  O  O40  1  0.50000000  0.19560773  0.68016661  1
  O  O41  1  0.50000000  0.80672217  0.32017460  1
  O  O42  1  0.50000000  0.19664425  0.57992066  1
  O  O43  1  0.50000000  0.19676776  0.87974592  1
  O  O44  1  0.50000000  0.80412948  0.51970385  1
  O  O45  1  0.50000000  0.80507373  0.42101666  1
  O  O46  1  0.50000000  0.80323224  0.62025408  1
  O  O47  1  0.50000000  0.19543140  0.78002452  1
  O  O48  1  0.50000000  0.80456860  0.71997548  1
  O  O49  1  0.50000000  0.19587052  0.98029615  1
  O  O50  1  0.50000000  0.80439227  0.81983339  1
  O  O51  1  0.50000000  0.80335575  0.92007934  1
  O  O52  1  -0.00000000  0.31608835  0.03168734  1
  O  O53  1  -0.00000000  0.30411902  0.22988286  1
  O  O54  1  0.00000000  0.69588098  0.27011714  1
  O  O55  1  -0.00000000  0.68391165  0.46831266  1
  O  O56  1  0.00000000  0.30475629  0.63031379  1
  O  O57  1  -0.00000000  0.68883395  0.66964368  1
  O  O58  1  0.00000000  0.31116605  0.83035632  1
  O  O59  1  0.00000000  0.69524371  0.86968621  1
