# generated using pymatgen
data_CoB10H23C13
_symmetry_space_group_name_H-M   'P 1'
_cell_length_a   8.47003232
_cell_length_b   9.43887986
_cell_length_c   12.70268390
_cell_angle_alpha   98.17050398
_cell_angle_beta   95.91727202
_cell_angle_gamma   102.40389459
_symmetry_Int_Tables_number   1
_chemical_formula_structural   CoB10H23C13
_chemical_formula_sum   'Co2 B20 H46 C26'
_cell_volume   972.35331415
_cell_formula_units_Z   2
loop_
 _symmetry_equiv_pos_site_id
 _symmetry_equiv_pos_as_xyz
  1  'x, y, z'
loop_
 _atom_site_type_symbol
 _atom_site_label
 _atom_site_symmetry_multiplicity
 _atom_site_fract_x
 _atom_site_fract_y
 _atom_site_fract_z
 _atom_site_occupancy
  Co  Co0  1  0.27412721  0.15929128  0.31661920  1
  Co  Co1  1  0.72587279  0.84070872  0.68338080  1
  B  B2  1  0.28246383  0.10296088  0.14325197  1
  B  B3  1  0.71753617  0.89703912  0.85674803  1
  B  B4  1  0.53863518  0.16466467  0.30547426  1
  B  B5  1  0.46136482  0.83533533  0.69452574  1
  B  B6  1  0.52858643  0.18371825  0.15375385  1
  B  B7  1  0.47141357  0.81628175  0.84624615  1
  B  B8  1  0.48900031  0.33520770  0.36032114  1
  B  B9  1  0.51099969  0.66479230  0.63967886  1
  B  B10  1  0.63194760  0.33347540  0.26823118  1
  B  B11  1  0.36805240  0.66652460  0.73176882  1
  B  B12  1  0.36696622  0.26058648  0.08460396  1
  B  B13  1  0.63303378  0.73941352  0.91539604  1
  B  B14  1  0.31164980  0.37936876  0.29031233  1
  B  B15  1  0.68835020  0.62063124  0.70968767  1
  B  B16  1  0.55038829  0.37651831  0.14848660  1
  B  B17  1  0.44961171  0.62348169  0.85151340  1
  B  B18  1  0.36078359  0.42467371  0.16350912  1
  B  B19  1  0.63921641  0.57532629  0.83649088  1
  B  B20  1  0.51503801  0.46615911  0.27489121  1
  B  B21  1  0.48496199  0.53384089  0.72510879  1
  H  H22  1  0.18638946  0.01017435  0.07955746  1
  H  H23  1  0.81361054  0.98982565  0.92044254  1
  H  H24  1  0.63225041  0.11308716  0.35754096  1
  H  H25  1  0.36774959  0.88691284  0.64245904  1
  H  H26  1  0.60467362  0.11919119  0.09791356  1
  H  H27  1  0.39532638  0.88080881  0.90208644  1
  H  H28  1  0.53197284  0.37611499  0.45461047  1
  H  H29  1  0.46802716  0.62388501  0.54538953  1
  H  H30  1  0.77655057  0.36790049  0.29677413  1
  H  H31  1  0.22344943  0.63209951  0.70322587  1
  H  H32  1  0.31890034  0.23583140  0.99052376  1
  H  H33  1  0.68109966  0.76416860  0.00947624  1
  H  H34  1  0.22688898  0.44863789  0.33461918  1
  H  H35  1  0.77311102  0.55136211  0.66538082  1
  H  H36  1  0.48456117  0.87900217  0.13175934  1
  H  H37  1  0.51543883  0.12099783  0.86824066  1
  H  H38  1  0.47662410  0.86330001  0.26893298  1
  H  H39  1  0.52337590  0.13669999  0.73106702  1
  H  H40  1  0.29294049  0.82246691  0.17567138  1
  H  H41  1  0.70705951  0.17753309  0.82432862  1
  H  H42  1  0.64180662  0.43201474  0.09209178  1
  H  H43  1  0.35819338  0.56798526  0.90790822  1
  H  H44  1  0.30647748  0.51658046  0.12675242  1
  H  H45  1  0.69352252  0.48341954  0.87324758  1
  H  H46  1  0.57454876  0.59249367  0.31166290  1
  H  H47  1  0.42545124  0.40750633  0.68833710  1
  H  H48  1  0.98114959  0.24162058  0.35363402  1
  H  H49  1  0.01885041  0.75837942  0.64636598  1
  H  H50  1  0.24187358  0.31899652  0.51075474  1
  H  H51  1  0.75812642  0.68100348  0.48924526  1
  H  H52  1  0.37486427  0.08454754  0.51784387  1
  H  H53  1  0.62513573  0.91545246  0.48215613  1
  H  H54  1  0.25821222  0.77151757  0.41570734  1
  H  H55  1  0.74178778  0.22848243  0.58429266  1
  H  H56  1  0.03908322  0.60164419  0.28272612  1
  H  H57  1  0.96091678  0.39835581  0.71727388  1
  H  H58  1  0.82545940  0.69239525  0.18290618  1
  H  H59  1  0.17454060  0.30760475  0.81709382  1
  H  H60  1  0.81787663  0.95787063  0.21652015  1
  H  H61  1  0.18212337  0.04212937  0.78347985  1
  H  H62  1  0.04808942  0.26198848  0.03862986  1
  H  H63  1  0.95191058  0.73801152  0.96137014  1
  H  H64  1  0.97096778  0.15499601  0.13400366  1
  H  H65  1  0.02903222  0.84500399  0.86599634  1
  H  H66  1  0.01098618  0.35038768  0.16353563  1
  H  H67  1  0.98901382  0.64961232  0.83646437  1
  C  C68  1  0.40837761  0.05607582  0.21973046  1
  C  C69  1  0.59162239  0.94392418  0.78026954  1
  C  C70  1  0.22986361  0.26700779  0.17180562  1
  C  C71  1  0.77013639  0.73299221  0.82819438  1
  C  C72  1  0.41476110  0.89567895  0.19909326  1
  C  C73  1  0.58523890  0.10432105  0.80090674  1
  C  C74  1  0.03724222  0.01683769  0.33440136  1
  C  C75  1  0.96275778  0.98316231  0.66559864  1
  C  C76  1  0.06067849  0.17115861  0.37660775  1
  C  C77  1  0.93932151  0.82884139  0.62339225  1
  C  C78  1  0.19735256  0.21199178  0.45997762  1
  C  C79  1  0.80264744  0.78800822  0.54002238  1
  C  C80  1  0.26931377  0.08840521  0.46257600  1
  C  C81  1  0.73068623  0.91159479  0.53742400  1
  C  C82  1  0.16517002  0.96423786  0.38992194  1
  C  C83  1  0.83482998  0.03576214  0.61007806  1
  C  C84  1  0.16634255  0.81283614  0.37057496  1
  C  C85  1  0.83365745  0.18716386  0.62942504  1
  C  C86  1  0.04304603  0.71930183  0.29693244  1
  C  C87  1  0.95695397  0.28069817  0.70306756  1
  C  C88  1  0.92009426  0.77132354  0.23975725  1
  C  C89  1  0.07990574  0.22867646  0.76024275  1
  C  C90  1  0.91552966  0.91838682  0.25696940  1
  C  C91  1  0.08447034  0.08161318  0.74303060  1
  C  C92  1  0.05415902  0.25726296  0.12477144  1
  C  C93  1  0.94584098  0.74273704  0.87522856  1
