# generated using pymatgen
data_Li9Mn7O16
_symmetry_space_group_name_H-M   'P 1'
_cell_length_a   3.00672074
_cell_length_b   10.18606287
_cell_length_c   9.94353690
_cell_angle_alpha   77.82709079
_cell_angle_beta   93.86885120
_cell_angle_gamma   93.50714187
_symmetry_Int_Tables_number   1
_chemical_formula_structural   Li9Mn7O16
_chemical_formula_sum   'Li9 Mn7 O16'
_cell_volume   296.66719933
_cell_formula_units_Z   1
loop_
 _symmetry_equiv_pos_site_id
 _symmetry_equiv_pos_as_xyz
  1  'x, y, z'
loop_
 _atom_site_type_symbol
 _atom_site_label
 _atom_site_symmetry_multiplicity
 _atom_site_fract_x
 _atom_site_fract_y
 _atom_site_fract_z
 _atom_site_occupancy
  Li  Li0  1  0.99353589  0.12500378  0.25486127  1
  Li  Li1  1  0.49668013  0.12543217  0.75224589  1
  Li  Li2  1  0.50331987  0.37456783  0.24775411  1
  Li  Li3  1  0.00646411  0.37499622  0.74513873  1
  Li  Li4  1  0.98931546  0.63774096  0.24169619  1
  Li  Li5  1  0.48785299  0.63024138  0.75827487  1
  Li  Li6  1  0.51214701  0.86975862  0.24172513  1
  Li  Li7  1  0.01068454  0.86225904  0.75830381  1
  Li  Li8  1  0.50000000  0.75000000  -0.00000000  1
  Mn  Mn9  1  0.00330856  0.99093897  0.00163399  1
  Mn  Mn10  1  0.99669144  0.50906103  0.99836601  1
  Mn  Mn11  1  0.50080774  0.99958615  0.50186065  1
  Mn  Mn12  1  0.50000000  0.25000000  -0.00000000  1
  Mn  Mn13  1  0.00000000  0.25000000  0.50000000  1
  Mn  Mn14  1  0.49919226  0.50041385  0.49813935  1
  Mn  Mn15  1  0.00000000  0.75000000  0.50000000  1
  O  O16  1  0.53256504  0.05997022  0.10576988  1
  O  O17  1  0.96404701  0.07022868  0.61810156  1
  O  O18  1  0.97094990  0.31617044  0.11362868  1
  O  O19  1  0.46703048  0.31960411  0.61855511  1
  O  O20  1  0.52669543  0.55267932  0.10752191  1
  O  O21  1  0.96554784  0.56824130  0.61500448  1
  O  O22  1  0.99331237  0.82734479  0.11815857  1
  O  O23  1  0.46579906  0.81876992  0.61933376  1
  O  O24  1  0.53296952  0.18039589  0.38144489  1
  O  O25  1  0.02905010  0.18382956  0.88637132  1
  O  O26  1  0.03595299  0.42977132  0.38189844  1
  O  O27  1  0.46743496  0.44002978  0.89423012  1
  O  O28  1  0.53420094  0.68123008  0.38066624  1
  O  O29  1  0.00668763  0.67265521  0.88184143  1
  O  O30  1  0.03445216  0.93175870  0.38499552  1
  O  O31  1  0.47330457  0.94732068  0.89247809  1
