# generated using pymatgen
data_Li9Mn7O16
_symmetry_space_group_name_H-M   'P 1'
_cell_length_a   2.87138743
_cell_length_b   9.91677400
_cell_length_c   10.70772960
_cell_angle_alpha   81.30079253
_cell_angle_beta   90.00000006
_cell_angle_gamma   81.67578874
_symmetry_Int_Tables_number   1
_chemical_formula_structural   Li9Mn7O16
_chemical_formula_sum   'Li9 Mn7 O16'
_cell_volume   298.14392059
_cell_formula_units_Z   1
loop_
 _symmetry_equiv_pos_site_id
 _symmetry_equiv_pos_as_xyz
  1  'x, y, z'
loop_
 _atom_site_type_symbol
 _atom_site_label
 _atom_site_symmetry_multiplicity
 _atom_site_fract_x
 _atom_site_fract_y
 _atom_site_fract_z
 _atom_site_occupancy
  Li  Li0  1  0.37814114  0.24371773  0.06650937  1
  Li  Li1  1  0.12269632  0.75460735  0.18989798  1
  Li  Li2  1  0.87730368  0.24539265  0.31010202  1
  Li  Li3  1  0.62185886  0.75628227  0.43349063  1
  Li  Li4  1  0.37611244  0.24777513  0.56077431  1
  Li  Li5  1  0.12616716  0.74766567  0.68548661  1
  Li  Li6  1  0.87383284  0.25233433  0.81451339  1
  Li  Li7  1  0.62388756  0.75222487  0.93922569  1
  Li  Li8  1  0.50000000  -0.00000000  0.25000000  1
  Mn  Mn9  1  0.99658717  0.00682565  0.01215052  1
  Mn  Mn10  1  0.00341283  0.99317435  0.48784948  1
  Mn  Mn11  1  0.75043147  0.49913706  0.12498339  1
  Mn  Mn12  1  0.24956853  0.50086294  0.37501661  1
  Mn  Mn13  1  0.75063802  0.49872396  0.62514117  1
  Mn  Mn14  1  0.50000000  -0.00000000  0.75000000  1
  Mn  Mn15  1  0.24936198  0.50127604  0.87485883  1
  O  O16  1  0.44347635  0.11304731  0.91787382  1
  O  O17  1  0.19169405  0.61661191  0.04282156  1
  O  O18  1  0.94421313  0.11157375  0.13750700  1
  O  O19  1  0.69100498  0.61799003  0.29158294  1
  O  O20  1  0.44378808  0.11242384  0.41621476  1
  O  O21  1  0.19276643  0.61446714  0.54344707  1
  O  O22  1  0.94561900  0.10876201  0.65772533  1
  O  O23  1  0.69067218  0.61865563  0.79152623  1
  O  O24  1  0.30899502  0.38200997  0.20841706  1
  O  O25  1  0.05578687  0.88842625  0.36249300  1
  O  O26  1  0.80830595  0.38338809  0.45717844  1
  O  O27  1  0.55652365  0.88695269  0.58212618  1
  O  O28  1  0.30932782  0.38134437  0.70847377  1
  O  O29  1  0.05438100  0.89123799  0.84227467  1
  O  O30  1  0.80723357  0.38553286  0.95655293  1
  O  O31  1  0.55621192  0.88757616  0.08378524  1
