# generated using pymatgen
data_Li9Mn7O16
_symmetry_space_group_name_H-M   'P 1'
_cell_length_a   3.01805766
_cell_length_b   8.20226908
_cell_length_c   12.25999782
_cell_angle_alpha   90.25775016
_cell_angle_beta   99.23929766
_cell_angle_gamma   89.02298198
_symmetry_Int_Tables_number   1
_chemical_formula_structural   Li9Mn7O16
_chemical_formula_sum   'Li9 Mn7 O16'
_cell_volume   299.51381567
_cell_formula_units_Z   1
loop_
 _symmetry_equiv_pos_site_id
 _symmetry_equiv_pos_as_xyz
  1  'x, y, z'
loop_
 _atom_site_type_symbol
 _atom_site_label
 _atom_site_symmetry_multiplicity
 _atom_site_fract_x
 _atom_site_fract_y
 _atom_site_fract_z
 _atom_site_occupancy
  Li  Li0  1  0.73840898  0.00145447  0.74604321  1
  Li  Li1  1  0.84969066  0.24911569  0.36517384  1
  Li  Li2  1  0.98868711  0.48173199  0.00016927  1
  Li  Li3  1  0.12500000  0.75000000  0.62500000  1
  Li  Li4  1  0.26131289  0.01826801  0.24983073  1
  Li  Li5  1  0.40030934  0.25088431  0.88482616  1
  Li  Li6  1  0.51159102  0.49854553  0.50395679  1
  Li  Li7  1  0.62500000  0.75000000  0.12500000  1
  Li  Li8  1  0.62500000  0.25000000  0.12500000  1
  Mn  Mn9  1  0.01106925  0.00998406  0.00450862  1
  Mn  Mn10  1  0.23893075  0.49001594  0.24549138  1
  Mn  Mn11  1  0.12500000  0.25000000  0.62500000  1
  Mn  Mn12  1  0.39329820  0.74960856  0.87976301  1
  Mn  Mn13  1  0.49503968  0.00005415  0.49860137  1
  Mn  Mn14  1  0.75496032  0.49994585  0.75139863  1
  Mn  Mn15  1  0.85670180  0.75039144  0.37023699  1
  O  O16  1  0.42751224  0.99170174  0.89167344  1
  O  O17  1  0.47089221  0.23942046  0.50396922  1
  O  O18  1  0.66918527  0.49934942  0.14246706  1
  O  O19  1  0.72973530  0.74068344  0.75550570  1
  O  O20  1  0.84263499  0.99084896  0.37634017  1
  O  O21  1  0.99084023  0.23208583  0.99755569  1
  O  O22  1  0.09380390  0.49121697  0.62685716  1
  O  O23  1  0.21473894  0.73784831  0.25334629  1
  O  O24  1  0.15619710  0.00878303  0.62314384  1
  O  O25  1  0.25916077  0.26791417  0.25244531  1
  O  O26  1  0.40736601  0.50915104  0.87365983  1
  O  O27  1  0.52026570  0.75931656  0.49449530  1
  O  O28  1  0.58081473  0.00065058  0.10753294  1
  O  O29  1  0.77910879  0.26057954  0.74603178  1
  O  O30  1  0.82248876  0.50829826  0.35832656  1
  O  O31  1  0.03526206  0.76215169  0.99665371  1
