# generated using pymatgen
data_Li9Mn7O16
_symmetry_space_group_name_H-M   'P 1'
_cell_length_a   3.02123020
_cell_length_b   15.75484765
_cell_length_c   6.50296089
_cell_angle_alpha   89.79335234
_cell_angle_beta   76.74245678
_cell_angle_gamma   83.86260423
_symmetry_Int_Tables_number   1
_chemical_formula_structural   Li9Mn7O16
_chemical_formula_sum   'Li9 Mn7 O16'
_cell_volume   299.48839817
_cell_formula_units_Z   1
loop_
 _symmetry_equiv_pos_site_id
 _symmetry_equiv_pos_as_xyz
  1  'x, y, z'
loop_
 _atom_site_type_symbol
 _atom_site_label
 _atom_site_symmetry_multiplicity
 _atom_site_fract_x
 _atom_site_fract_y
 _atom_site_fract_z
 _atom_site_occupancy
  Li  Li0  1  0.73535821  0.19014367  0.12906389  1
  Li  Li1  1  0.74940630  0.43805964  0.62487767  1
  Li  Li2  1  0.71875702  0.69596531  0.13069104  1
  Li  Li3  1  0.25059370  0.31194036  0.87512233  1
  Li  Li4  1  0.26464179  0.55985633  0.37093611  1
  Li  Li5  1  0.26663955  0.80918308  0.89137609  1
  Li  Li6  1  0.73336045  0.94081692  0.60862391  1
  Li  Li7  1  0.28124298  0.05403469  0.36930896  1
  Li  Li8  1  0.50000000  0.87500000  0.25000000  1
  Mn  Mn9  1  0.00945452  0.99463989  0.00745017  1
  Mn  Mn10  1  0.99054548  0.75536011  0.49254983  1
  Mn  Mn11  1  0.00445740  0.24923515  0.50205102  1
  Mn  Mn12  1  0.99554260  0.50076485  0.99794898  1
  Mn  Mn13  1  0.50000000  0.37500000  0.25000000  1
  Mn  Mn14  1  0.47749469  0.62875871  0.75359283  1
  Mn  Mn15  1  0.52250531  0.12124129  0.74640717  1
  O  O16  1  0.43380559  0.08175476  0.04181102  1
  O  O17  1  0.35146831  0.34317027  0.54809371  1
  O  O18  1  0.35046422  0.59124712  0.04893963  1
  O  O19  1  0.86084046  0.21530266  0.80091233  1
  O  O20  1  0.85012646  0.46857629  0.29837287  1
  O  O21  1  0.84309497  0.71817907  0.79797859  1
  O  O22  1  0.41341831  0.83093315  0.55643220  1
  O  O23  1  0.87766882  0.97291088  0.29024023  1
  O  O24  1  0.14987354  0.28142371  0.20162713  1
  O  O25  1  0.13915954  0.53469834  0.69908767  1
  O  O26  1  0.12233118  0.77708912  0.20975977  1
  O  O27  1  0.64853169  0.40682973  0.95190629  1
  O  O28  1  0.56619441  0.66824624  0.45818898  1
  O  O29  1  0.58658169  0.91906685  0.94356780  1
  O  O30  1  0.15690503  0.03182093  0.70202141  1
  O  O31  1  0.64953578  0.15875388  0.45106037  1
