# generated using pymatgen
data_Li9Mn7O16
_symmetry_space_group_name_H-M   'P 1'
_cell_length_a   3.01347651
_cell_length_b   10.78974355
_cell_length_c   10.19856535
_cell_angle_alpha   114.92774409
_cell_angle_beta   86.35065512
_cell_angle_gamma   86.43969493
_symmetry_Int_Tables_number   1
_chemical_formula_structural   Li9Mn7O16
_chemical_formula_sum   'Li9 Mn7 O16'
_cell_volume   298.64854548
_cell_formula_units_Z   1
loop_
 _symmetry_equiv_pos_site_id
 _symmetry_equiv_pos_as_xyz
  1  'x, y, z'
loop_
 _atom_site_type_symbol
 _atom_site_label
 _atom_site_symmetry_multiplicity
 _atom_site_fract_x
 _atom_site_fract_y
 _atom_site_fract_z
 _atom_site_occupancy
  Li  Li0  1  0.86455172  0.25574946  0.93893341  1
  Li  Li1  1  0.13224738  0.75814293  0.07709354  1
  Li  Li2  1  0.39267864  0.24123538  0.19023870  1
  Li  Li3  1  0.38034670  0.24774247  0.68725889  1
  Li  Li4  1  0.61965330  0.75225753  0.81274111  1
  Li  Li5  1  0.86775262  0.24185707  0.42290646  1
  Li  Li6  1  0.13544828  0.74425054  0.56106659  1
  Li  Li7  1  0.60732136  0.75876462  0.30976130  1
  Li  Li8  1  0.50000000  -0.00000000  0.25000000  1
  Mn  Mn9  1  0.00356553  0.00143693  0.00923461  1
  Mn  Mn10  1  0.99643447  0.99856307  0.49076539  1
  Mn  Mn11  1  0.24959055  0.50186085  0.12639934  1
  Mn  Mn12  1  0.75040945  0.49813915  0.37360066  1
  Mn  Mn13  1  0.25132814  0.49876097  0.62472406  1
  Mn  Mn14  1  0.50000000  -0.00000000  0.75000000  1
  Mn  Mn15  1  0.74867186  0.50123903  0.87527594  1
  O  O16  1  0.47882193  0.10506797  0.96654544  1
  O  O17  1  0.65612648  0.61924273  0.08474528  1
  O  O18  1  0.93464894  0.11774317  0.20129304  1
  O  O19  1  0.91354729  0.11290520  0.71183789  1
  O  O20  1  0.15584311  0.61717796  0.83457886  1
  O  O21  1  0.47223314  0.10691408  0.47402051  1
  O  O22  1  0.65780665  0.61759995  0.58412114  1
  O  O23  1  0.15734091  0.61582984  0.33677985  1
  O  O24  1  0.34219335  0.38240005  0.91587886  1
  O  O25  1  0.52776686  0.89308592  0.02597949  1
  O  O26  1  0.84265909  0.38417016  0.16322015  1
  O  O27  1  0.84415689  0.38282204  0.66542114  1
  O  O28  1  0.08645271  0.88709480  0.78816211  1
  O  O29  1  0.34387352  0.38075727  0.41525472  1
  O  O30  1  0.52117807  0.89493203  0.53345456  1
  O  O31  1  0.06535106  0.88225683  0.29870696  1
