# generated using pymatgen
data_Ti3Fe7O15
_symmetry_space_group_name_H-M   'P 1'
_cell_length_a   5.54453628
_cell_length_b   5.56899785
_cell_length_c   27.50826861
_cell_angle_alpha   55.61732414
_cell_angle_beta   55.97476203
_cell_angle_gamma   55.31933041
_symmetry_Int_Tables_number   1
_chemical_formula_structural   Ti3Fe7O15
_chemical_formula_sum   'Ti6 Fe14 O30'
_cell_volume   539.76247516
_cell_formula_units_Z   2
loop_
 _symmetry_equiv_pos_site_id
 _symmetry_equiv_pos_as_xyz
  1  'x, y, z'
loop_
 _atom_site_type_symbol
 _atom_site_label
 _atom_site_symmetry_multiplicity
 _atom_site_fract_x
 _atom_site_fract_y
 _atom_site_fract_z
 _atom_site_occupancy
  Ti  Ti0  1  0.35351516  0.35723297  0.06938429  1
  Ti  Ti1  1  0.34773311  0.35772364  0.26927530  1
  Ti  Ti2  1  0.14216137  0.14957088  0.43168149  1
  Ti  Ti3  1  0.15791172  0.13314089  0.63027402  1
  Ti  Ti4  1  0.84061155  0.86607210  0.77022513  1
  Ti  Ti5  1  0.85647333  0.85988320  0.96817657  1
  Fe  Fe6  1  0.13985765  0.14390583  0.02894942  1
  Fe  Fe7  1  0.14375255  0.14551444  0.22803914  1
  Fe  Fe8  1  0.64829071  0.64478853  0.12858920  1
  Fe  Fe9  1  0.85147044  0.85761961  0.17147942  1
  Fe  Fe10  1  0.35458379  0.35514818  0.47194308  1
  Fe  Fe11  1  0.64815830  0.63732836  0.33046433  1
  Fe  Fe12  1  0.86092078  0.85379717  0.36983823  1
  Fe  Fe13  1  0.35927832  0.35555650  0.67105009  1
  Fe  Fe14  1  0.64513857  0.64221702  0.52970217  1
  Fe  Fe15  1  0.14423728  0.14846396  0.82867513  1
  Fe  Fe16  1  0.85846381  0.84944505  0.57081915  1
  Fe  Fe17  1  0.36202906  0.35739383  0.86936037  1
  Fe  Fe18  1  0.63864001  0.64611532  0.72835462  1
  Fe  Fe19  1  0.64081713  0.64542703  0.92932488  1
  O  O20  1  0.06365236  0.70886148  0.09482640  1
  O  O21  1  0.46408238  0.05993642  0.14397337  1
  O  O22  1  0.70648368  0.45796428  0.01732426  1
  O  O23  1  0.24872731  0.56345593  0.18994178  1
  O  O24  1  0.57615853  0.94548843  0.04720629  1
  O  O25  1  0.06419913  0.72142585  0.29050041  1
  O  O26  1  0.94698600  0.23953076  0.11459449  1
  O  O27  1  0.44167268  0.06275754  0.34932713  1
  O  O28  1  0.70969240  0.46011838  0.21599795  1
  O  O29  1  0.25740734  0.55247620  0.38741292  1
  O  O30  1  0.56415659  0.94845438  0.25063558  1
  O  O31  1  0.04072530  0.79325451  0.48329977  1
  O  O32  1  0.94865393  0.24416823  0.31282599  1
  O  O33  1  0.43579180  0.03379447  0.55458386  1
  O  O34  1  0.77817589  0.44095202  0.40826668  1
  O  O35  1  0.25505567  0.55370754  0.58755325  1
  O  O36  1  0.55148013  0.93155334  0.44939186  1
  O  O37  1  0.05327567  0.78015759  0.68645231  1
  O  O38  1  0.93385490  0.25491752  0.50850364  1
  O  O39  1  0.44522333  0.05300473  0.75285703  1
  O  O40  1  0.79620360  0.43722783  0.60450290  1
  O  O41  1  0.20616178  0.56451955  0.79425957  1
  O  O42  1  0.55604100  0.94706822  0.64619101  1
  O  O43  1  0.07178779  0.74100849  0.89168603  1
  O  O44  1  0.94714984  0.22108524  0.71180380  1
  O  O45  1  0.46495905  0.06402751  0.94656905  1
  O  O46  1  0.75008519  0.44957661  0.81038396  1
  O  O47  1  0.21042626  0.57470332  0.99368662  1
  O  O48  1  0.56265455  0.96813880  0.84405991  1
  O  O49  1  0.95503129  0.22032033  0.91577613  1
