# generated using pymatgen
data_CoH12CN5O6
_symmetry_space_group_name_H-M   'P 1'
_cell_length_a   6.98273937
_cell_length_b   7.97970359
_cell_length_c   17.94836128
_cell_angle_alpha   95.59918257
_cell_angle_beta   90.00000000
_cell_angle_gamma   90.00000000
_symmetry_Int_Tables_number   1
_chemical_formula_structural   CoH12CN5O6
_chemical_formula_sum   'Co4 H48 C4 N20 O24'
_cell_volume   995.31448884
_cell_formula_units_Z   4
loop_
 _symmetry_equiv_pos_site_id
 _symmetry_equiv_pos_as_xyz
  1  'x, y, z'
loop_
 _atom_site_type_symbol
 _atom_site_label
 _atom_site_symmetry_multiplicity
 _atom_site_fract_x
 _atom_site_fract_y
 _atom_site_fract_z
 _atom_site_occupancy
  Co  Co0  1  0.89181941  0.26231915  0.08522409  1
  Co  Co1  1  0.39181941  0.73768085  0.41477591  1
  Co  Co2  1  0.10818059  0.73768085  0.91477591  1
  Co  Co3  1  0.60818059  0.26231915  0.58522409  1
  H  H4  1  0.11871154  0.28842578  0.19566805  1
  H  H5  1  0.61871154  0.71157422  0.30433195  1
  H  H6  1  0.88128846  0.71157422  0.80433195  1
  H  H7  1  0.38128846  0.28842578  0.69566805  1
  H  H8  1  0.90557113  0.35060218  0.22569319  1
  H  H9  1  0.40557113  0.64939782  0.27430681  1
  H  H10  1  0.09442887  0.64939782  0.77430681  1
  H  H11  1  0.59442887  0.35060218  0.72569319  1
  H  H12  1  0.95406414  0.14757422  0.21042753  1
  H  H13  1  0.45406414  0.85242578  0.28957247  1
  H  H14  1  0.04593586  0.85242578  0.78957247  1
  H  H15  1  0.54593586  0.14757422  0.71042753  1
  H  H16  1  0.72847140  0.53840583  0.07755831  1
  H  H17  1  0.22847140  0.46159417  0.42244169  1
  H  H18  1  0.27152860  0.46159417  0.92244169  1
  H  H19  1  0.77152860  0.53840583  0.57755831  1
  H  H20  1  0.56568303  0.39976615  0.09796371  1
  H  H21  1  0.06568303  0.60023385  0.40203629  1
  H  H22  1  0.43431697  0.60023385  0.90203629  1
  H  H23  1  0.93431697  0.39976615  0.59796371  1
  H  H24  1  0.70961252  0.49324692  0.16388176  1
  H  H25  1  0.20961252  0.50675308  0.33611824  1
  H  H26  1  0.29038748  0.50675308  0.83611824  1
  H  H27  1  0.79038748  0.49324692  0.66388176  1
  H  H28  1  0.58583718  0.09280158  0.06939927  1
  H  H29  1  0.08583718  0.90719842  0.43060073  1
  H  H30  1  0.41416282  0.90719842  0.93060073  1
  H  H31  1  0.91416282  0.09280158  0.56939927  1
  H  H32  1  0.77188703  0.96798136  0.08199305  1
  H  H33  1  0.27188703  0.03201864  0.41800695  1
  H  H34  1  0.22811297  0.03201864  0.91800695  1
  H  H35  1  0.72811297  0.96798136  0.58199305  1
  H  H36  1  0.67166719  0.07885717  0.15466955  1
  H  H37  1  0.17166719  0.92114283  0.34533045  1
  H  H38  1  0.32833281  0.92114283  0.84533045  1
  H  H39  1  0.82833281  0.07885717  0.65466955  1
  H  H40  1  0.66451299  0.25254045  0.97548338  1
  H  H41  1  0.16451299  0.74745955  0.52451662  1
  H  H42  1  0.33548701  0.74745955  0.02451662  1
  H  H43  1  0.83548701  0.25254045  0.47548338  1
  H  H44  1  0.85823389  0.36121157  0.95714256  1
  H  H45  1  0.35823389  0.63878843  0.54285744  1
  H  H46  1  0.14176611  0.63878843  0.04285744  1
  H  H47  1  0.64176611  0.36121157  0.45714256  1
  H  H48  1  0.86468528  0.14944354  0.95071966  1
  H  H49  1  0.36468528  0.85055646  0.54928034  1
  H  H50  1  0.13531472  0.85055646  0.04928034  1
  H  H51  1  0.63531472  0.14944354  0.45071966  1
  C  C52  1  0.21327331  0.26905747  0.04680757  1
  C  C53  1  0.71327331  0.73094253  0.45319243  1
  C  C54  1  0.78672669  0.73094253  0.95319243  1
  C  C55  1  0.28672669  0.26905747  0.54680757  1
  N  N56  1  0.97560488  0.26242900  0.19072462  1
  N  N57  1  0.47560488  0.73757100  0.30927538  1
  N  N58  1  0.02439512  0.73757100  0.80927538  1
  N  N59  1  0.52439512  0.26242900  0.69072462  1
  N  N60  1  0.70277891  0.44182109  0.10970322  1
  N  N61  1  0.20277891  0.55817891  0.39029678  1
  N  N62  1  0.29722109  0.55817891  0.89029678  1
  N  N63  1  0.79722109  0.44182109  0.60970322  1
  N  N64  1  0.70934987  0.08088185  0.09935833  1
  N  N65  1  0.20934987  0.91911815  0.40064167  1
  N  N66  1  0.29065013  0.91911815  0.90064167  1
  N  N67  1  0.79065013  0.08088185  0.59935833  1
  N  N68  1  0.81078799  0.25576392  0.98011875  1
  N  N69  1  0.31078799  0.74423608  0.51988125  1
  N  N70  1  0.18921201  0.74423608  0.01988125  1
  N  N71  1  0.68921201  0.25576392  0.48011875  1
  N  N72  1  0.47731423  0.23124147  0.28349703  1
  N  N73  1  0.97731423  0.76875853  0.21650297  1
  N  N74  1  0.52268577  0.76875853  0.71650297  1
  N  N75  1  0.02268577  0.23124147  0.78349703  1
  O  O76  1  0.10709360  0.40404645  0.06563877  1
  O  O77  1  0.60709360  0.59595355  0.43436123  1
  O  O78  1  0.89290640  0.59595355  0.93436123  1
  O  O79  1  0.39290640  0.40404645  0.56563877  1
  O  O80  1  0.11622427  0.12986960  0.05444512  1
  O  O81  1  0.61622427  0.87013040  0.44555488  1
  O  O82  1  0.88377573  0.87013040  0.94555488  1
  O  O83  1  0.38377573  0.12986960  0.55444512  1
  O  O84  1  0.38315331  0.27346514  0.02430844  1
  O  O85  1  0.88315331  0.72653486  0.47569156  1
  O  O86  1  0.61684669  0.72653486  0.97569156  1
  O  O87  1  0.11684669  0.27346514  0.52430844  1
  O  O88  1  0.43886206  0.34805048  0.24180522  1
  O  O89  1  0.93886206  0.65194952  0.25819478  1
  O  O90  1  0.56113794  0.65194952  0.75819478  1
  O  O91  1  0.06113794  0.34805048  0.74180522  1
  O  O92  1  0.61182914  0.12768307  0.26542886  1
  O  O93  1  0.11182914  0.87231693  0.23457114  1
  O  O94  1  0.38817086  0.87231693  0.73457114  1
  O  O95  1  0.88817086  0.12768307  0.76542886  1
  O  O96  1  0.38186459  0.21907337  0.34245448  1
  O  O97  1  0.88186459  0.78092663  0.15754552  1
  O  O98  1  0.61813541  0.78092663  0.65754552  1
  O  O99  1  0.11813541  0.21907337  0.84245448  1
