# generated using pymatgen
data_Ti7Fe13O30
_symmetry_space_group_name_H-M   'P 1'
_cell_length_a   5.56238593
_cell_length_b   5.55016349
_cell_length_c   27.70204330
_cell_angle_alpha   55.52051589
_cell_angle_beta   55.51890018
_cell_angle_gamma   55.16707753
_symmetry_Int_Tables_number   1
_chemical_formula_structural   Ti7Fe13O30
_chemical_formula_sum   'Ti7 Fe13 O30'
_cell_volume   540.13289091
_cell_formula_units_Z   1
loop_
 _symmetry_equiv_pos_site_id
 _symmetry_equiv_pos_as_xyz
  1  'x, y, z'
loop_
 _atom_site_type_symbol
 _atom_site_label
 _atom_site_symmetry_multiplicity
 _atom_site_fract_x
 _atom_site_fract_y
 _atom_site_fract_z
 _atom_site_occupancy
  Ti  Ti0  1  0.14606452  0.14009576  0.03057209  1
  Ti  Ti1  1  0.63068013  0.64388583  0.13560734  1
  Ti  Ti2  1  0.14428159  0.13037124  0.43466235  1
  Ti  Ti3  1  0.64530830  0.64337079  0.32923943  1
  Ti  Ti4  1  0.14089153  0.15867349  0.62744150  1
  Ti  Ti5  1  0.15083228  0.14794695  0.82782764  1
  Ti  Ti6  1  0.65256610  0.64037268  0.72846861  1
  Fe  Fe7  1  0.35627898  0.35615753  0.06999123  1
  Fe  Fe8  1  0.13831951  0.14614238  0.22888957  1
  Fe  Fe9  1  0.34605357  0.34490407  0.27361474  1
  Fe  Fe10  1  0.85347505  0.86317451  0.17102044  1
  Fe  Fe11  1  0.36572679  0.34980500  0.47031588  1
  Fe  Fe12  1  0.86136419  0.85005280  0.36912487  1
  Fe  Fe13  1  0.34933510  0.36796786  0.67041783  1
  Fe  Fe14  1  0.64075919  0.64561746  0.52799391  1
  Fe  Fe15  1  0.85045114  0.84998365  0.57200554  1
  Fe  Fe16  1  0.35947192  0.35752811  0.87076921  1
  Fe  Fe17  1  0.85733837  0.85258829  0.77190298  1
  Fe  Fe18  1  0.64476584  0.64964426  0.92803319  1
  Fe  Fe19  1  0.85571445  0.86014644  0.97085257  1
  O  O20  1  0.07168778  0.76383884  0.08432100  1
  O  O21  1  0.45753611  0.05184728  0.14573120  1
  O  O22  1  0.77118608  0.42577855  0.01178916  1
  O  O23  1  0.27399783  0.55477279  0.18466162  1
  O  O24  1  0.54869208  0.94128639  0.05279053  1
  O  O25  1  0.04254897  0.73701594  0.29058014  1
  O  O26  1  0.94212093  0.29060472  0.10700520  1
  O  O27  1  0.44224953  0.04500226  0.35198033  1
  O  O28  1  0.72843362  0.45184434  0.20993396  1
  O  O29  1  0.26540021  0.56834902  0.38323235  1
  O  O30  1  0.54570643  0.93397859  0.25660353  1
  O  O31  1  0.05175062  0.77141677  0.48413030  1
  O  O32  1  0.92462735  0.26730304  0.31167539  1
  O  O33  1  0.43768893  0.04780223  0.55689156  1
  O  O34  1  0.78886692  0.43705611  0.40715980  1
  O  O35  1  0.24169073  0.54600068  0.58969050  1
  O  O36  1  0.55260754  0.95594318  0.44404093  1
  O  O37  1  0.02816711  0.79597521  0.68692048  1
  O  O38  1  0.95748365  0.22971102  0.50782864  1
  O  O39  1  0.40951454  0.04302590  0.75689496  1
  O  O40  1  0.78175645  0.43188408  0.60796614  1
  O  O41  1  0.29076230  0.53413461  0.78460053  1
  O  O42  1  0.55701766  0.92152474  0.65390382  1
  O  O43  1  0.03456929  0.77565591  0.88955218  1
  O  O44  1  0.92309336  0.28349174  0.70900988  1
  O  O45  1  0.43298987  0.03789177  0.95896394  1
  O  O46  1  0.78776435  0.42013962  0.80794125  1
  O  O47  1  0.25566246  0.54775383  0.98919512  1
  O  O48  1  0.53595675  0.93461663  0.85445181  1
  O  O49  1  0.92879201  0.25592510  0.91180284  1
