# generated using pymatgen
data_SmHO2
_symmetry_space_group_name_H-M   'P 1'
_cell_length_a   5.11767996
_cell_length_b   11.36177754
_cell_length_c   3.69235045
_cell_angle_alpha   90.00000000
_cell_angle_beta   90.00000000
_cell_angle_gamma   90.00000000
_symmetry_Int_Tables_number   1
_chemical_formula_structural   SmHO2
_chemical_formula_sum   'Sm4 H4 O8'
_cell_volume   214.69519225
_cell_formula_units_Z   4
loop_
 _symmetry_equiv_pos_site_id
 _symmetry_equiv_pos_as_xyz
  1  'x, y, z'
loop_
 _atom_site_type_symbol
 _atom_site_label
 _atom_site_symmetry_multiplicity
 _atom_site_fract_x
 _atom_site_fract_y
 _atom_site_fract_z
 _atom_site_occupancy
  Sm  Sm0  1  0.08562380  0.85408001  0.25000000  1
  Sm  Sm1  1  0.41437620  0.35408001  0.25000000  1
  Sm  Sm2  1  0.58562380  0.64591999  0.75000000  1
  Sm  Sm3  1  0.91437620  0.14591999  0.75000000  1
  H  H4  1  0.12667908  0.59060187  0.25000000  1
  H  H5  1  0.37332092  0.09060187  0.25000000  1
  H  H6  1  0.62667908  0.90939813  0.75000000  1
  H  H7  1  0.87332092  0.40939813  0.75000000  1
  O  O8  1  0.18910758  0.06388710  0.25000000  1
  O  O9  1  0.17434666  0.30816857  0.75000000  1
  O  O10  1  0.32565334  0.80816857  0.75000000  1
  O  O11  1  0.31089242  0.56388710  0.25000000  1
  O  O12  1  0.68910758  0.43611290  0.75000000  1
  O  O13  1  0.67434666  0.19183143  0.25000000  1
  O  O14  1  0.82565334  0.69183143  0.25000000  1
  O  O15  1  0.81089242  0.93611290  0.75000000  1
