# generated using pymatgen
data_LiMn(PO3)5
_symmetry_space_group_name_H-M   'P 1'
_cell_length_a   10.32700371
_cell_length_b   13.63464915
_cell_length_c   9.01755125
_cell_angle_alpha   90.00000000
_cell_angle_beta   99.76066782
_cell_angle_gamma   90.00000000
_symmetry_Int_Tables_number   1
_chemical_formula_structural   LiMn(PO3)5
_chemical_formula_sum   'Li4 Mn4 P20 O60'
_cell_volume   1251.33718188
_cell_formula_units_Z   4
loop_
 _symmetry_equiv_pos_site_id
 _symmetry_equiv_pos_as_xyz
  1  'x, y, z'
loop_
 _atom_site_type_symbol
 _atom_site_label
 _atom_site_symmetry_multiplicity
 _atom_site_fract_x
 _atom_site_fract_y
 _atom_site_fract_z
 _atom_site_occupancy
  Li  Li0  1  0.47102818  0.61285988  0.91273172  1
  Li  Li1  1  0.97102818  0.88714012  0.91273172  1
  Li  Li2  1  0.02897182  0.38714012  0.08726828  1
  Li  Li3  1  0.52897182  0.11285988  0.08726828  1
  Mn  Mn4  1  0.25000000  0.50000000  0.50000000  1
  Mn  Mn5  1  0.25000000  0.00000000  0.50000000  1
  Mn  Mn6  1  0.75000000  0.00000000  0.50000000  1
  Mn  Mn7  1  0.75000000  0.50000000  0.50000000  1
  P  P8  1  -0.00050195  0.63761157  0.47794642  1
  P  P9  1  0.72935725  0.74394990  0.00358894  1
  P  P10  1  0.99583599  0.35760543  0.52138750  1
  P  P11  1  0.17332086  0.41250583  0.80900967  1
  P  P12  1  0.50050195  0.36238843  0.52205358  1
  P  P13  1  0.27064275  0.24394990  -0.00358894  1
  P  P14  1  0.50416401  0.64239457  0.47861250  1
  P  P15  1  0.82667914  0.91250583  0.19099033  1
  P  P16  1  0.67332086  0.08749417  0.80900967  1
  P  P17  1  0.34359283  0.93320970  0.19358474  1
  P  P18  1  0.77064275  0.25605010  -0.00358894  1
  P  P19  1  0.00050195  0.13761157  0.52205358  1
  P  P20  1  0.49949805  0.86238843  0.47794642  1
  P  P21  1  0.49583599  0.14239457  0.52138750  1
  P  P22  1  0.65640717  0.43320970  0.80641526  1
  P  P23  1  0.15640717  0.06679030  0.80641526  1
  P  P24  1  0.22935725  0.75605010  0.00358894  1
  P  P25  1  0.84359283  0.56679030  0.19358474  1
  P  P26  1  0.00416401  0.85760543  0.47861250  1
  P  P27  1  0.32667914  0.58749417  0.19099033  1
  O  O28  1  0.34125857  0.73665668  0.92080810  1
  O  O29  1  0.08659379  0.07240415  0.44154036  1
  O  O30  1  0.23903859  0.01195933  0.70678459  1
  O  O31  1  0.90378702  0.26670283  0.09220321  1
  O  O32  1  0.15874143  0.26334332  0.07919190  1
  O  O33  1  0.44190784  0.64631020  0.30490608  1
  O  O34  1  0.65219730  0.62559092  0.49133470  1
  O  O35  1  0.26096141  0.98804067  0.29321541  1
  O  O36  1  0.34780270  0.12559092  0.50866530  1
  O  O37  1  0.84125857  0.76334332  0.92080810  1
  O  O38  1  0.74811455  0.64615884  0.10681214  1
  O  O39  1  0.05325441  0.13790698  0.69778968  1
  O  O40  1  0.61367674  0.04573085  0.93223238  1
  O  O41  1  0.55325441  0.36209302  0.69778968  1
  O  O42  1  0.74423154  0.02154216  0.71323994  1
  O  O43  1  0.14526861  0.61913206  0.50967223  1
  O  O44  1  0.56886743  0.07817462  0.42989514  1
  O  O45  1  0.24811455  0.85384116  0.10681214  1
  O  O46  1  0.05809216  0.35368980  0.69509392  1
  O  O47  1  0.75576846  0.97845784  0.28676006  1
  O  O48  1  0.11367674  0.45426915  0.93223238  1
  O  O49  1  0.98139427  0.74704238  0.53054009  1
  O  O50  1  0.84780270  0.37440908  0.50866530  1
  O  O51  1  0.88632326  0.95426915  0.06776762  1
  O  O52  1  0.44674559  0.86209302  0.30221032  1
  O  O53  1  0.06886743  0.42182538  0.42989514  1
  O  O54  1  0.38632326  0.54573085  0.06776762  1
  O  O55  1  0.64526861  0.88086794  0.50967223  1
  O  O56  1  0.91162699  0.50520983  0.09708288  1
  O  O57  1  0.72490621  0.82421970  0.13590265  1
  O  O58  1  0.76096141  0.51195933  0.29321541  1
  O  O59  1  0.75188545  0.35384116  0.89318786  1
  O  O60  1  0.58659379  0.42759585  0.44154036  1
  O  O61  1  0.41162699  0.99479017  0.09708288  1
  O  O62  1  0.27509379  0.32421970  0.86409635  1
  O  O63  1  0.15219730  0.87440908  0.49133470  1
  O  O64  1  0.58837301  0.49479017  0.90291712  1
  O  O65  1  0.73903859  0.48804067  0.70678459  1
  O  O66  1  0.59621298  0.73329717  0.90779679  1
  O  O67  1  0.93113257  0.92182538  0.57010486  1
  O  O68  1  0.94674559  0.63790698  0.30221032  1
  O  O69  1  0.51860573  0.25295762  0.46945991  1
  O  O70  1  0.65874143  0.23665668  0.07919190  1
  O  O71  1  0.09621298  0.76670283  0.90779679  1
  O  O72  1  0.24423154  0.47845784  0.71323994  1
  O  O73  1  0.01860573  0.24704238  0.46945991  1
  O  O74  1  0.85473139  0.11913206  0.49032777  1
  O  O75  1  0.94190784  0.85368980  0.30490608  1
  O  O76  1  0.91340621  0.57240415  0.55845964  1
  O  O77  1  0.77509379  0.17578030  0.86409635  1
  O  O78  1  0.40378702  0.23329717  0.09220321  1
  O  O79  1  0.25188545  0.14615884  0.89318786  1
  O  O80  1  0.43113257  0.57817462  0.57010486  1
  O  O81  1  0.22490621  0.67578030  0.13590265  1
  O  O82  1  0.48139427  0.75295762  0.53054009  1
  O  O83  1  0.55809216  0.14631020  0.69509392  1
  O  O84  1  0.41340621  0.92759585  0.55845964  1
  O  O85  1  0.08837301  0.00520983  0.90291712  1
  O  O86  1  0.25576846  0.52154216  0.28676006  1
  O  O87  1  0.35473139  0.38086794  0.49032777  1
