# generated using pymatgen
data_Ti3NbO8
_symmetry_space_group_name_H-M   'P 1'
_cell_length_a   4.71814798
_cell_length_b   9.89847842
_cell_length_c   5.99747680
_cell_angle_alpha   72.34193573
_cell_angle_beta   90.00154121
_cell_angle_gamma   90.42651940
_symmetry_Int_Tables_number   1
_chemical_formula_structural   Ti3NbO8
_chemical_formula_sum   'Ti6 Nb2 O16'
_cell_volume   266.89182603
_cell_formula_units_Z   2
loop_
 _symmetry_equiv_pos_site_id
 _symmetry_equiv_pos_as_xyz
  1  'x, y, z'
loop_
 _atom_site_type_symbol
 _atom_site_label
 _atom_site_symmetry_multiplicity
 _atom_site_fract_x
 _atom_site_fract_y
 _atom_site_fract_z
 _atom_site_occupancy
  Ti  Ti0  1  0.49534278  0.24721656  0.62385623  1
  Ti  Ti1  1  0.50163640  0.75394103  0.37514344  1
  Ti  Ti2  1  0.99825621  0.00069192  0.49904614  1
  Ti  Ti3  1  0.99876587  0.50167029  0.73913158  1
  Ti  Ti4  1  0.99970096  0.00068489  0.99936086  1
  Ti  Ti5  1  0.99814846  0.49984467  0.25622594  1
  Nb  Nb6  1  0.49614787  0.74837462  0.87795338  1
  Nb  Nb7  1  0.50149606  0.25329208  0.12021335  1
  O  O8  1  0.80553400  0.40444596  0.04620205  1
  O  O9  1  0.80425159  0.40332023  0.54692548  1
  O  O10  1  0.80786625  0.90295084  0.79730187  1
  O  O11  1  0.80249834  0.90366856  0.29836300  1
  O  O12  1  0.69697084  0.15061822  0.91978140  1
  O  O13  1  0.69640544  0.65114601  0.17782005  1
  O  O14  1  0.70001713  0.15242865  0.42578072  1
  O  O15  1  0.69503033  0.65082512  0.67127403  1
  O  O16  1  0.30159914  0.35098376  0.81921104  1
  O  O17  1  0.30273156  0.85120539  0.57094138  1
  O  O18  1  0.29821044  0.84892698  0.07966902  1
  O  O19  1  0.29845582  0.34908874  0.32725684  1
  O  O20  1  0.18994480  0.59790029  0.94978825  1
  O  O21  1  0.19213268  0.59846684  0.44961592  1
  O  O22  1  0.19718514  0.09683178  0.70170278  1
  O  O23  1  0.19112692  0.09795058  0.19949526  1
