# generated using pymatgen
data_Ti2Cr(PO4)3
_symmetry_space_group_name_H-M   'P 1'
_cell_length_a   8.71669238
_cell_length_b   8.71669195
_cell_length_c   8.71669222
_cell_angle_alpha   59.59178505
_cell_angle_beta   59.59178553
_cell_angle_gamma   59.59178204
_symmetry_Int_Tables_number   1
_chemical_formula_structural   Ti2Cr(PO4)3
_chemical_formula_sum   'Ti4 Cr2 P6 O24'
_cell_volume   463.97183299
_cell_formula_units_Z   2
loop_
 _symmetry_equiv_pos_site_id
 _symmetry_equiv_pos_as_xyz
  1  'x, y, z'
loop_
 _atom_site_type_symbol
 _atom_site_label
 _atom_site_symmetry_multiplicity
 _atom_site_fract_x
 _atom_site_fract_y
 _atom_site_fract_z
 _atom_site_occupancy
  Ti  Ti0  1  0.14418519  0.14418519  0.14418519  1
  Ti  Ti1  1  0.35581481  0.35581481  0.35581481  1
  Ti  Ti2  1  0.64418519  0.64418519  0.64418519  1
  Ti  Ti3  1  0.85581481  0.85581481  0.85581481  1
  Cr  Cr4  1  -0.00000000  0.00000000  0.00000000  1
  Cr  Cr5  1  0.50000000  0.50000000  0.50000000  1
  P  P6  1  0.25000000  0.54104953  0.95895047  1
  P  P7  1  0.54104953  0.95895047  0.25000000  1
  P  P8  1  0.95895047  0.25000000  0.54104953  1
  P  P9  1  0.04104953  0.75000000  0.45895047  1
  P  P10  1  0.45895047  0.04104953  0.75000000  1
  P  P11  1  0.75000000  0.45895047  0.04104953  1
  O  O12  1  0.12234768  0.30253368  0.50311148  1
  O  O13  1  0.30253368  0.50311148  0.12234768  1
  O  O14  1  0.05808148  0.91665749  0.26844651  1
  O  O15  1  0.50311148  0.12234768  0.30253368  1
  O  O16  1  0.00311148  0.80253368  0.62234768  1
  O  O17  1  0.23155349  0.58334251  0.44191852  1
  O  O18  1  0.26844651  0.05808148  0.91665749  1
  O  O19  1  0.44191852  0.23155349  0.58334251  1
  O  O20  1  0.19746632  0.37765232  0.99688852  1
  O  O21  1  0.58334251  0.44191852  0.23155349  1
  O  O22  1  0.08334251  0.73155349  0.94191852  1
  O  O23  1  0.37765232  0.99688852  0.19746632  1
  O  O24  1  0.62234768  0.00311148  0.80253368  1
  O  O25  1  0.91665749  0.26844651  0.05808148  1
  O  O26  1  0.41665749  0.55808148  0.76844651  1
  O  O27  1  0.80253368  0.62234768  0.00311148  1
  O  O28  1  0.55808148  0.76844651  0.41665749  1
  O  O29  1  0.73155349  0.94191852  0.08334251  1
  O  O30  1  0.76844651  0.41665749  0.55808148  1
  O  O31  1  0.99688852  0.19746632  0.37765232  1
  O  O32  1  0.49688852  0.87765232  0.69746632  1
  O  O33  1  0.94191852  0.08334251  0.73155349  1
  O  O34  1  0.69746632  0.49688852  0.87765232  1
  O  O35  1  0.87765232  0.69746632  0.49688852  1
