# generated using pymatgen
data_TiNiO3
_symmetry_space_group_name_H-M   'P 1'
_cell_length_a   5.50517890
_cell_length_b   5.49939781
_cell_length_c   33.01173636
_cell_angle_alpha   55.03462708
_cell_angle_beta   54.94943725
_cell_angle_gamma   54.94504034
_symmetry_Int_Tables_number   1
_chemical_formula_structural   TiNiO3
_chemical_formula_sum   'Ti12 Ni12 O36'
_cell_volume   624.09536851
_cell_formula_units_Z   12
loop_
 _symmetry_equiv_pos_site_id
 _symmetry_equiv_pos_as_xyz
  1  'x, y, z'
loop_
 _atom_site_type_symbol
 _atom_site_label
 _atom_site_symmetry_multiplicity
 _atom_site_fract_x
 _atom_site_fract_y
 _atom_site_fract_z
 _atom_site_occupancy
  Ti  Ti0  1  0.15074502  0.14581121  0.19055382  1
  Ti  Ti1  1  0.14674974  0.14554326  0.35627451  1
  Ti  Ti2  1  0.87348842  0.86426331  0.13974837  1
  Ti  Ti3  1  0.14594820  0.14557027  0.52298588  1
  Ti  Ti4  1  0.86152347  0.85899256  0.30857179  1
  Ti  Ti5  1  0.14694573  0.14926249  0.68955296  1
  Ti  Ti6  1  0.86040309  0.85942719  0.47518101  1
  Ti  Ti7  1  0.14312993  0.14002463  0.85804751  1
  Ti  Ti8  1  0.86024148  0.86046692  0.64202775  1
  Ti  Ti9  1  0.86849150  0.85495360  0.80804722  1
  Ti  Ti10  1  0.63691028  0.64726730  0.94556085  1
  Ti  Ti11  1  0.82409507  0.86014710  0.98110025  1
  Ni  Ni12  1  0.14546309  0.15026343  0.02623830  1
  Ni  Ni13  1  0.33863075  0.35643730  0.06188986  1
  Ni  Ni14  1  0.35605317  0.35116767  0.22455234  1
  Ni  Ni15  1  0.65577186  0.65143782  0.11083111  1
  Ni  Ni16  1  0.35240555  0.35148180  0.39091121  1
  Ni  Ni17  1  0.65393312  0.65369245  0.27386753  1
  Ni  Ni18  1  0.35136432  0.35122910  0.55778216  1
  Ni  Ni19  1  0.65140377  0.65164752  0.44118864  1
  Ni  Ni20  1  0.35276985  0.34989260  0.72524343  1
  Ni  Ni21  1  0.65146414  0.65221107  0.60793111  1
  Ni  Ni22  1  0.35598427  0.35030163  0.89149058  1
  Ni  Ni23  1  0.65128129  0.65232719  0.77497940  1
  O  O24  1  0.04977996  0.75648237  0.07692077  1
  O  O25  1  0.44139536  0.05852859  0.12826349  1
  O  O26  1  0.75616133  0.46851048  0.00489245  1
  O  O27  1  0.23602037  0.56684722  0.15831320  1
  O  O28  1  0.57465875  0.95181796  0.03957728  1
  O  O29  1  0.05379291  0.77082688  0.24051541  1
  O  O30  1  0.94544720  0.24684267  0.09388473  1
  O  O31  1  0.43865042  0.05148632  0.29513655  1
  O  O32  1  0.77286115  0.43431740  0.17759438  1
  O  O33  1  0.23172163  0.55950326  0.32501831  1
  O  O34  1  0.56556076  0.94854961  0.20483560  1
  O  O35  1  0.05133117  0.76926945  0.40726167  1
  O  O36  1  0.94910741  0.23047848  0.26142860  1
  O  O37  1  0.43675375  0.05214124  0.46177913  1
  O  O38  1  0.77051780  0.43530751  0.34252084  1
  O  O39  1  0.23000368  0.55959873  0.49184039  1
  O  O40  1  0.56124716  0.94661981  0.37206934  1
  O  O41  1  0.05117766  0.76933827  0.57404233  1
  O  O42  1  0.94596206  0.23056227  0.42800119  1
  O  O43  1  0.43695293  0.05282716  0.62860293  1
  O  O44  1  0.76926921  0.43450475  0.50945461  1
  O  O45  1  0.23039476  0.56005863  0.65877014  1
  O  O46  1  0.56071988  0.94657825  0.53876137  1
  O  O47  1  0.05296681  0.77057436  0.74082061  1
  O  O48  1  0.94583598  0.23127236  0.59473044  1
  O  O49  1  0.43972471  0.05267330  0.79589373  1
  O  O50  1  0.76988859  0.43561564  0.67621749  1
  O  O51  1  0.23472259  0.55919021  0.82490679  1
  O  O52  1  0.56264533  0.94759013  0.70546516  1
  O  O53  1  0.05664864  0.76839679  0.90463586  1
  O  O54  1  0.94824284  0.22967381  0.76170588  1
  O  O55  1  0.46725365  0.04323843  0.95727641  1
  O  O56  1  0.77524663  0.43317784  0.84223814  1
  O  O57  1  0.25185620  0.58811443  0.98534162  1
  O  O58  1  0.56790403  0.93073500  0.87469539  1
  O  O59  1  0.92958055  0.25213195  0.92823022  1
