# generated using pymatgen
data_Li2Mo(PO4)2
_symmetry_space_group_name_H-M   'P 1'
_cell_length_a   4.96876369
_cell_length_b   17.53464742
_cell_length_c   7.40045085
_cell_angle_alpha   89.99997133
_cell_angle_beta   97.52840767
_cell_angle_gamma   90.00005347
_symmetry_Int_Tables_number   1
_chemical_formula_structural   Li2Mo(PO4)2
_chemical_formula_sum   'Li8 Mo4 P8 O32'
_cell_volume   639.21023845
_cell_formula_units_Z   4
loop_
 _symmetry_equiv_pos_site_id
 _symmetry_equiv_pos_as_xyz
  1  'x, y, z'
loop_
 _atom_site_type_symbol
 _atom_site_label
 _atom_site_symmetry_multiplicity
 _atom_site_fract_x
 _atom_site_fract_y
 _atom_site_fract_z
 _atom_site_occupancy
  Li  Li0  1  0.19155167  0.89012237  0.55808426  1
  Li  Li1  1  0.32920873  0.56861212  0.14300291  1
  Li  Li2  1  0.30844793  0.39012223  0.94191566  1
  Li  Li3  1  0.17079151  0.06861206  0.35699781  1
  Li  Li4  1  0.75909085  0.62101477  0.92767972  1
  Li  Li5  1  0.72352260  0.81192534  0.37860885  1
  Li  Li6  1  0.74091003  0.12101458  0.57232025  1
  Li  Li7  1  0.77647756  0.31192429  0.12139195  1
  Mo  Mo8  1  0.20098822  0.86966109  0.98928671  1
  Mo  Mo9  1  0.29901339  0.36965999  0.51071379  1
  Mo  Mo10  1  0.70464326  0.62907923  0.50487666  1
  Mo  Mo11  1  0.79535488  0.12907939  0.99512224  1
  P  P12  1  0.84891579  0.28736646  0.74513947  1
  P  P13  1  0.74615693  0.45718276  0.29314065  1
  P  P14  1  0.75384330  0.95718327  0.20685980  1
  P  P15  1  0.65108436  0.78736688  0.75486097  1
  P  P16  1  0.14466252  0.70850827  0.25870292  1
  P  P17  1  0.24907544  0.53911216  0.72030218  1
  P  P18  1  0.35533701  0.20850751  0.24129638  1
  P  P19  1  0.25092524  0.03911256  0.77969851  1
  O  O20  1  0.22908485  0.45072930  0.71229560  1
  O  O21  1  0.95235065  0.81642108  0.78817120  1
  O  O22  1  0.99187560  0.32460085  0.91646511  1
  O  O23  1  0.95027709  0.57198954  0.70085329  1
  O  O24  1  0.98769092  0.70509948  0.43185398  1
  O  O25  1  0.04574645  0.19316578  0.17941790  1
  O  O26  1  0.04462101  0.64835847  0.11913264  1
  O  O27  1  0.05445707  0.43442365  0.31850914  1
  O  O28  1  0.12582188  0.06860955  0.94872692  1
  O  O29  1  0.09365971  0.06400592  0.60075771  1
  O  O30  1  0.10997181  0.79177341  0.19279272  1
  O  O31  1  0.98758482  0.30209783  0.57010056  1
  O  O32  1  0.27091616  0.95072910  0.78770352  1
  O  O33  1  0.40634087  0.56400644  0.89924334  1
  O  O34  1  0.37418020  0.56860975  0.55127289  1
  O  O35  1  0.39002692  0.29177377  0.30720728  1
  O  O36  1  0.44554038  0.93442384  0.18149133  1
  O  O37  1  0.45537921  0.14835850  0.38086723  1
  O  O38  1  0.87580156  0.93064842  0.03377785  1
  O  O39  1  0.45425248  0.69316631  0.32058136  1
  O  O40  1  0.54764989  0.31642171  0.71182908  1
  O  O41  1  0.50812700  0.82460114  0.58353541  1
  O  O42  1  0.51230913  0.20510044  0.06814612  1
  O  O43  1  0.54972460  0.07198971  0.79914690  1
  O  O44  1  0.66203873  0.69901130  0.73177195  1
  O  O45  1  0.62419761  0.43064899  0.46622245  1
  O  O46  1  0.60969596  0.41958477  0.12041813  1
  O  O47  1  0.78859616  0.04601600  0.21333073  1
  O  O48  1  0.71140543  0.54601624  0.28666900  1
  O  O49  1  0.83796194  0.19901208  0.76822863  1
  O  O50  1  0.89030483  0.91958394  0.37958181  1
  O  O51  1  0.51241387  0.80209737  0.92989851  1
