# generated using pymatgen
data_SiC4(NO)4
_symmetry_space_group_name_H-M   'P 1'
_cell_length_a   7.66894305
_cell_length_b   11.11723859
_cell_length_c   11.46851118
_cell_angle_alpha   100.31478049
_cell_angle_beta   90.00000000
_cell_angle_gamma   90.00000000
_symmetry_Int_Tables_number   1
_chemical_formula_structural   SiC4(NO)4
_chemical_formula_sum   'Si4 C16 N16 O16'
_cell_volume   961.97428446
_cell_formula_units_Z   4
loop_
 _symmetry_equiv_pos_site_id
 _symmetry_equiv_pos_as_xyz
  1  'x, y, z'
loop_
 _atom_site_type_symbol
 _atom_site_label
 _atom_site_symmetry_multiplicity
 _atom_site_fract_x
 _atom_site_fract_y
 _atom_site_fract_z
 _atom_site_occupancy
  Si  Si0  1  0.36172967  0.39441113  0.24086488  1
  Si  Si1  1  0.86172967  0.10558887  0.75913512  1
  Si  Si2  1  0.63827033  0.60558887  0.75913512  1
  Si  Si3  1  0.13827033  0.89441113  0.24086488  1
  C  C4  1  0.34988979  0.18314937  0.05336217  1
  C  C5  1  0.84988979  0.31685063  0.94663783  1
  C  C6  1  0.65011021  0.81685063  0.94663783  1
  C  C7  1  0.15011021  0.68314937  0.05336217  1
  C  C8  1  0.57721395  0.58755884  0.19132520  1
  C  C9  1  0.07721395  0.91244116  0.80867480  1
  C  C10  1  0.42278605  0.41244116  0.80867480  1
  C  C11  1  0.92278605  0.08755884  0.19132520  1
  C  C12  1  0.52433003  0.32647691  0.44687423  1
  C  C13  1  0.02433003  0.17352309  0.55312577  1
  C  C14  1  0.47566997  0.67352309  0.55312577  1
  C  C15  1  0.97566997  0.82647691  0.44687423  1
  C  C16  1  0.01800900  0.46538148  0.32369283  1
  C  C17  1  0.51800900  0.03461852  0.67630717  1
  C  C18  1  0.98199100  0.53461852  0.67630717  1
  C  C19  1  0.48199100  0.96538148  0.32369283  1
  N  N20  1  0.15758240  0.44571397  0.27597163  1
  N  N21  1  0.65758240  0.05428603  0.72402837  1
  N  N22  1  0.84241760  0.55428603  0.72402837  1
  N  N23  1  0.34241760  0.94571397  0.27597163  1
  N  N24  1  0.45626663  0.35384010  0.36087912  1
  N  N25  1  0.95626663  0.14615990  0.63912088  1
  N  N26  1  0.54373337  0.64615990  0.63912088  1
  N  N27  1  0.04373337  0.85384010  0.36087912  1
  N  N28  1  0.47229710  0.50672096  0.19147755  1
  N  N29  1  0.97229710  0.99327904  0.80852245  1
  N  N30  1  0.52770290  0.49327904  0.80852245  1
  N  N31  1  0.02770290  0.00672096  0.19147755  1
  N  N32  1  0.35723843  0.27137419  0.13117606  1
  N  N33  1  0.85723843  0.22862581  0.86882394  1
  N  N34  1  0.64276157  0.72862581  0.86882394  1
  N  N35  1  0.14276157  0.77137419  0.13117606  1
  O  O36  1  0.34223625  0.09665451  0.97684156  1
  O  O37  1  0.84223625  0.40334549  0.02315844  1
  O  O38  1  0.65776375  0.90334549  0.02315844  1
  O  O39  1  0.15776375  0.59665451  0.97684156  1
  O  O40  1  0.59105143  0.29987890  0.53186955  1
  O  O41  1  0.09105143  0.20012110  0.46813045  1
  O  O42  1  0.40894857  0.70012110  0.46813045  1
  O  O43  1  0.90894857  0.79987890  0.53186955  1
  O  O44  1  0.87995778  0.48752032  0.36819864  1
  O  O45  1  0.37995778  0.01247968  0.63180136  1
  O  O46  1  0.12004222  0.51247968  0.63180136  1
  O  O47  1  0.62004222  0.98752032  0.36819864  1
  O  O48  1  0.67629766  0.66799523  0.18704472  1
  O  O49  1  0.17629766  0.83200477  0.81295528  1
  O  O50  1  0.32370234  0.33200477  0.81295528  1
  O  O51  1  0.82370234  0.16799523  0.18704472  1
