# generated using pymatgen
data_NiBiSe
_symmetry_space_group_name_H-M   'P 1'
_cell_length_a   6.23738822
_cell_length_b   6.23738822
_cell_length_c   6.23738822
_cell_angle_alpha   90.00000000
_cell_angle_beta   90.00000000
_cell_angle_gamma   90.00000000
_symmetry_Int_Tables_number   1
_chemical_formula_structural   NiBiSe
_chemical_formula_sum   'Ni4 Bi4 Se4'
_cell_volume   242.66566234
_cell_formula_units_Z   4
loop_
 _symmetry_equiv_pos_site_id
 _symmetry_equiv_pos_as_xyz
  1  'x, y, z'
loop_
 _atom_site_type_symbol
 _atom_site_label
 _atom_site_symmetry_multiplicity
 _atom_site_fract_x
 _atom_site_fract_y
 _atom_site_fract_z
 _atom_site_occupancy
  Ni  Ni0  1  0.26567051  0.73432949  0.23432949  1
  Ni  Ni1  1  0.76567051  0.76567051  0.76567051  1
  Ni  Ni2  1  0.23432949  0.26567051  0.73432949  1
  Ni  Ni3  1  0.73432949  0.23432949  0.26567051  1
  Bi  Bi4  1  0.38299989  0.88299989  0.61700011  1
  Bi  Bi5  1  0.88299989  0.61700011  0.38299989  1
  Bi  Bi6  1  0.61700011  0.38299989  0.88299989  1
  Bi  Bi7  1  0.11700011  0.11700011  0.11700011  1
  Se  Se8  1  0.37878470  0.37878470  0.37878470  1
  Se  Se9  1  0.62121530  0.87878470  0.12121530  1
  Se  Se10  1  0.87878470  0.12121530  0.62121530  1
  Se  Se11  1  0.12121530  0.62121530  0.87878470  1
