# generated using pymatgen
data_Er3(CuSn)4
_symmetry_space_group_name_H-M   'P 1'
_cell_length_a   4.45335078
_cell_length_b   6.93574552
_cell_length_c   8.38308017
_cell_angle_alpha   114.05488394
_cell_angle_beta   105.40352135
_cell_angle_gamma   90.00000000
_symmetry_Int_Tables_number   1
_chemical_formula_structural   Er3(CuSn)4
_chemical_formula_sum   'Er3 Cu4 Sn4'
_cell_volume   226.22035315
_cell_formula_units_Z   1
loop_
 _symmetry_equiv_pos_site_id
 _symmetry_equiv_pos_as_xyz
  1  'x, y, z'
loop_
 _atom_site_type_symbol
 _atom_site_label
 _atom_site_symmetry_multiplicity
 _atom_site_fract_x
 _atom_site_fract_y
 _atom_site_fract_z
 _atom_site_occupancy
  Er  Er0  1  -0.00000000  0.00000000  -0.00000000  1
  Er  Er1  1  0.86977747  0.36004239  0.73955494  1
  Er  Er2  1  0.13022253  0.63995761  0.26044506  1
  Cu  Cu3  1  0.66288485  0.97975693  0.32576970  1
  Cu  Cu4  1  0.33711515  0.02024307  0.67423030  1
  Cu  Cu5  1  0.67887525  0.36902269  0.35775051  1
  Cu  Cu6  1  0.32112475  0.63097731  0.64224949  1
  Sn  Sn7  1  0.78256288  0.79371598  0.56512576  1
  Sn  Sn8  1  0.21743712  0.20628402  0.43487424  1
  Sn  Sn9  1  0.49338164  0.69652194  0.98676327  1
  Sn  Sn10  1  0.50661836  0.30347806  0.01323673  1
