# generated using pymatgen
data_Mo6PbS8
_symmetry_space_group_name_H-M   'P 1'
_cell_length_a   6.66054958
_cell_length_b   6.56606499
_cell_length_c   6.69145193
_cell_angle_alpha   90.29033608
_cell_angle_beta   89.35896139
_cell_angle_gamma   88.93908117
_symmetry_Int_Tables_number   1
_chemical_formula_structural   Mo6PbS8
_chemical_formula_sum   'Mo6 Pb1 S8'
_cell_volume   292.56874116
_cell_formula_units_Z   1
loop_
 _symmetry_equiv_pos_site_id
 _symmetry_equiv_pos_as_xyz
  1  'x, y, z'
loop_
 _atom_site_type_symbol
 _atom_site_label
 _atom_site_symmetry_multiplicity
 _atom_site_fract_x
 _atom_site_fract_y
 _atom_site_fract_z
 _atom_site_occupancy
  Mo  Mo0  1  0.41929216  0.56262589  0.22742528  1
  Mo  Mo1  1  0.58070784  0.43737411  0.77257472  1
  Mo  Mo2  1  0.56113892  0.23573233  0.41994149  1
  Mo  Mo3  1  0.43886108  0.76426767  0.58005851  1
  Mo  Mo4  1  0.22806914  0.41784113  0.56160182  1
  Mo  Mo5  1  0.77193086  0.58215887  0.43839818  1
  Pb  Pb6  1  -0.00000000  -0.00000000  0.00000000  1
  S  S7  1  0.73834075  0.37985852  0.12684650  1
  S  S8  1  0.26165925  0.62014148  0.87315350  1
  S  S9  1  0.24257000  0.24918071  0.24503145  1
  S  S10  1  0.75743000  0.75081929  0.75496855  1
  S  S11  1  0.12715499  0.73563464  0.37651574  1
  S  S12  1  0.87284501  0.26436536  0.62348426  1
  S  S13  1  0.37898050  0.12792094  0.73847938  1
  S  S14  1  0.62101950  0.87207906  0.26152062  1
