# generated using pymatgen
data_Co2(PO3)5
_symmetry_space_group_name_H-M   'P 1'
_cell_length_a   12.89018744
_cell_length_b   8.26210753
_cell_length_c   5.28364343
_cell_angle_alpha   90.00000000
_cell_angle_beta   94.93920580
_cell_angle_gamma   90.00000000
_symmetry_Int_Tables_number   1
_chemical_formula_structural   Co2(PO3)5
_chemical_formula_sum   'Co4 P10 O30'
_cell_volume   560.61907781
_cell_formula_units_Z   2
loop_
 _symmetry_equiv_pos_site_id
 _symmetry_equiv_pos_as_xyz
  1  'x, y, z'
loop_
 _atom_site_type_symbol
 _atom_site_label
 _atom_site_symmetry_multiplicity
 _atom_site_fract_x
 _atom_site_fract_y
 _atom_site_fract_z
 _atom_site_occupancy
  Co  Co0  1  0.96872612  0.29249156  0.88704063  1
  Co  Co1  1  0.53317106  0.29246172  0.61179074  1
  Co  Co2  1  0.46872612  0.70750844  0.38703863  1
  Co  Co3  1  0.03317106  0.70753828  0.11178974  1
  P  P4  1  0.60441691  0.82523083  0.94167920  1
  P  P5  1  0.64347479  0.49676657  0.13174709  1
  P  P6  1  0.75109619  0.07519195  0.74960770  1
  P  P7  1  0.85872534  0.49698195  0.36724448  1
  P  P8  1  0.10441791  0.17476917  0.44167820  1
  P  P9  1  0.14347479  0.50323343  0.63174809  1
  P  P10  1  0.25109619  0.92480805  0.24960870  1
  P  P11  1  0.35872534  0.50301805  0.86724548  1
  P  P12  1  0.39774444  0.17461170  0.05688545  1
  P  P13  1  0.89774444  0.82538830  0.55688545  1
  O  O14  1  0.60572511  0.38736870  0.92008731  1
  O  O15  1  0.96134201  0.86187546  0.33889295  1
  O  O16  1  0.92556546  0.51803506  0.14615460  1
  O  O17  1  0.95176009  0.79869106  0.81668333  1
  O  O18  1  0.04114118  0.13828939  0.66026166  1
  O  O19  1  0.05062613  0.20112749  0.18225129  1
  O  O20  1  0.07682157  0.48217509  0.85307155  1
  O  O21  1  0.10572411  0.61263130  0.42008531  1
  O  O22  1  0.17628516  0.33285878  0.51854488  1
  O  O23  1  0.16815952  0.83622368  0.08646462  1
  O  O24  1  0.19653123  0.04581554  0.43961006  1
  O  O25  1  0.25118857  0.57400672  0.74898723  1
  O  O26  1  0.33409264  0.83643099  0.41253286  1
  O  O27  1  0.30587167  0.04550986  0.05949093  1
  O  O28  1  0.32574972  0.33241406  0.97963466  1
  O  O29  1  0.39616509  0.61222079  0.07891578  1
  O  O30  1  0.42556546  0.48196494  0.64615560  1
  O  O31  1  0.46134201  0.13812554  0.83889395  1
  O  O32  1  0.45176009  0.20130894  0.31668333  1
  O  O33  1  0.82574972  0.66758594  0.47963366  1
  O  O34  1  0.54114118  0.86171061  0.16026166  1
  O  O35  1  0.57682157  0.51782491  0.35307255  1
  O  O36  1  0.89616509  0.38777921  0.57891678  1
  O  O37  1  0.67628416  0.66714122  0.01854388  1
  O  O38  1  0.66815952  0.16377632  0.58646562  1
  O  O39  1  0.69653223  0.95418446  0.93960906  1
  O  O40  1  0.75118857  0.42599328  0.24898623  1
  O  O41  1  0.83409364  0.16356901  0.91253186  1
  O  O42  1  0.80587267  0.95449014  0.55949193  1
  O  O43  1  0.55062613  0.79887251  0.68225229  1
