# generated using pymatgen
data_Eu(Mo3Se4)2
_symmetry_space_group_name_H-M   'P 1'
_cell_length_a   6.86067802
_cell_length_b   6.86067802
_cell_length_c   6.86067798
_cell_angle_alpha   88.84553284
_cell_angle_beta   88.84553284
_cell_angle_gamma   88.84554353
_symmetry_Int_Tables_number   1
_chemical_formula_structural   Eu(Mo3Se4)2
_chemical_formula_sum   'Eu1 Mo6 Se8'
_cell_volume   322.73053875
_cell_formula_units_Z   1
loop_
 _symmetry_equiv_pos_site_id
 _symmetry_equiv_pos_as_xyz
  1  'x, y, z'
loop_
 _atom_site_type_symbol
 _atom_site_label
 _atom_site_symmetry_multiplicity
 _atom_site_fract_x
 _atom_site_fract_y
 _atom_site_fract_z
 _atom_site_occupancy
  Eu  Eu0  1  0.00000000  0.00000000  -0.00000000  1
  Mo  Mo1  1  0.57630455  0.76196131  0.43978546  1
  Mo  Mo2  1  0.76196131  0.43978546  0.57630455  1
  Mo  Mo3  1  0.43978546  0.57630455  0.76196131  1
  Mo  Mo4  1  0.42369545  0.23803869  0.56021454  1
  Mo  Mo5  1  0.23803869  0.56021454  0.42369545  1
  Mo  Mo6  1  0.56021454  0.42369545  0.23803869  1
  Se  Se7  1  0.75725091  0.75725091  0.75725091  1
  Se  Se8  1  0.24274909  0.24274909  0.24274909  1
  Se  Se9  1  0.62245769  0.24996138  0.87743751  1
  Se  Se10  1  0.24996138  0.87743751  0.62245769  1
  Se  Se11  1  0.87743751  0.62245769  0.24996138  1
  Se  Se12  1  0.37754231  0.75003862  0.12256249  1
  Se  Se13  1  0.75003862  0.12256249  0.37754231  1
  Se  Se14  1  0.12256249  0.37754231  0.75003862  1
