# generated using pymatgen
data_Na7Cr4(PO4)6
_symmetry_space_group_name_H-M   'P 1'
_cell_length_a   8.83650841
_cell_length_b   12.88201172
_cell_length_c   9.02930719
_cell_angle_alpha   89.83951074
_cell_angle_beta   90.00000000
_cell_angle_gamma   90.00000000
_symmetry_Int_Tables_number   1
_chemical_formula_structural   Na7Cr4(PO4)6
_chemical_formula_sum   'Na14 Cr8 P12 O48'
_cell_volume   1027.82010797
_cell_formula_units_Z   2
loop_
 _symmetry_equiv_pos_site_id
 _symmetry_equiv_pos_as_xyz
  1  'x, y, z'
loop_
 _atom_site_type_symbol
 _atom_site_label
 _atom_site_symmetry_multiplicity
 _atom_site_fract_x
 _atom_site_fract_y
 _atom_site_fract_z
 _atom_site_occupancy
  Na  Na0  1  0.18322784  0.18597210  0.77670513  1
  Na  Na1  1  0.18322784  0.81402790  0.72329487  1
  Na  Na2  1  0.26341605  0.33254389  0.30213445  1
  Na  Na3  1  0.26341605  0.66745611  0.19786555  1
  Na  Na4  1  0.44241146  0.17729088  0.01403619  1
  Na  Na5  1  0.44241146  0.82270912  0.48596381  1
  Na  Na6  1  0.57257933  0.18550387  0.47985729  1
  Na  Na7  1  0.57257933  0.81449613  0.02014271  1
  Na  Na8  1  0.69529309  0.32941675  0.78564494  1
  Na  Na9  1  0.69529309  0.67058325  0.71435506  1
  Na  Na10  1  0.81896823  0.16733925  0.28331165  1
  Na  Na11  1  0.81896823  0.83266075  0.21668835  1
  Na  Na12  1  0.93023340  0.68010611  0.49837754  1
  Na  Na13  1  0.93023340  0.31989389  0.00162246  1
  Cr  Cr14  1  0.24486257  0.89958037  0.03496650  1
  Cr  Cr15  1  0.24486257  0.10041963  0.46503350  1
  Cr  Cr16  1  0.25579105  0.40315401  0.96234532  1
  Cr  Cr17  1  0.25579105  0.59684599  0.53765468  1
  Cr  Cr18  1  0.75541749  0.39755058  0.46011364  1
  Cr  Cr19  1  0.75541749  0.60244942  0.03988636  1
  Cr  Cr20  1  0.76007985  0.09413052  0.94876107  1
  Cr  Cr21  1  0.76007985  0.90586948  0.55123893  1
  P  P22  1  0.02837438  0.50000000  0.25000000  1
  P  P23  1  0.11849282  0.14490772  0.10538888  1
  P  P24  1  0.11849282  0.85509228  0.39461112  1
  P  P25  1  0.38910845  0.35349526  0.61102770  1
  P  P26  1  0.38910845  0.64650474  0.88897230  1
  P  P27  1  0.45745607  -0.00000000  0.75000000  1
  P  P28  1  0.53012424  -0.00000000  0.25000000  1
  P  P29  1  0.60771353  0.36035346  0.11911715  1
  P  P30  1  0.60771353  0.63964654  0.38088185  1
  P  P31  1  0.88828055  0.16092337  0.60018743  1
  P  P32  1  0.88828055  0.83907663  0.89981257  1
  P  P33  1  0.96996961  0.50000000  0.75000000  1
  O  O34  1  0.06749243  0.42100129  0.83970760  1
  O  O35  1  0.06749243  0.57899871  0.66029240  1
  O  O36  1  0.06010244  0.14786569  0.57335340  1
  O  O37  1  0.06010244  0.85213431  0.92664660  1
  O  O38  1  0.12990811  0.56491892  0.35613010  1
  O  O39  1  0.12990811  0.43508108  0.14386990  1
  O  O40  1  0.19684400  0.04913216  0.03860444  1
  O  O41  1  0.19684400  0.95086784  0.46139556  1
  O  O42  1  0.14938222  0.15925294  0.27324436  1
  O  O43  1  0.14938222  0.84074706  0.22675564  1
  O  O44  1  0.18487006  0.24067507  0.01779223  1
  O  O45  1  0.18487006  0.75932493  0.48220777  1
  O  O46  1  0.33052708  0.25901415  0.51971368  1
  O  O47  1  0.33052708  0.74098585  0.98028632  1
  O  O48  1  0.35926556  0.66365654  0.71912821  1
  O  O49  1  0.35926556  0.33634346  0.78087179  1
  O  O50  1  0.30961789  0.45093793  0.55067115  1
  O  O51  1  0.30961789  0.54906207  0.94932885  1
  O  O52  1  0.35315412  0.07308860  0.65684248  1
  O  O53  1  0.35315412  0.92691140  0.84315752  1
  O  O54  1  0.43147850  0.36387447  0.10088979  1
  O  O55  1  0.43147850  0.63612553  0.39911021  1
  O  O56  1  0.43146506  0.07053719  0.35222145  1
  O  O57  1  0.43146506  0.92946281  0.14777855  1
  O  O58  1  0.55439937  0.92665690  0.65455083  1
  O  O59  1  0.55439937  0.07334310  0.84544917  1
  O  O60  1  0.56296186  0.35946325  0.58768519  1
  O  O61  1  0.56296186  0.64053675  0.91231481  1
  O  O62  1  0.62769913  0.07687286  0.16051816  1
  O  O63  1  0.62769913  0.92312714  0.33948184  1
  O  O64  1  0.68683149  0.45950543  0.06535991  1
  O  O65  1  0.68683149  0.54049457  0.43464009  1
  O  O66  1  0.64149581  0.33403826  0.28451991  1
  O  O67  1  0.64149581  0.66596174  0.21548009  1
  O  O68  1  0.67131686  0.27230604  0.01986673  1
  O  O69  1  0.67131686  0.72769396  0.48013327  1
  O  O70  1  0.82291418  0.25220146  0.50439503  1
  O  O71  1  0.82291418  0.74779854  0.99560497  1
  O  O72  1  0.86382721  0.18322767  0.76762921  1
  O  O73  1  0.86382721  0.81677233  0.73237079  1
  O  O74  1  0.79855659  0.06779004  0.54097032  1
  O  O75  1  0.79855659  0.93220996  0.95902968  1
  O  O76  1  0.86467476  0.43554598  0.64918962  1
  O  O77  1  0.86467476  0.56445402  0.85081038  1
  O  O78  1  0.94622390  0.85706536  0.42199339  1
  O  O79  1  0.94622390  0.14293464  0.07800661  1
  O  O80  1  0.93575352  0.41730362  0.33365867  1
  O  O81  1  0.93575352  0.58269638  0.16634133  1
