# generated using pymatgen
data_Ce3Ir
_symmetry_space_group_name_H-M   'P 1'
_cell_length_a   6.16850317
_cell_length_b   7.08026973
_cell_length_c   9.80998943
_cell_angle_alpha   90.00000000
_cell_angle_beta   90.00000000
_cell_angle_gamma   90.00000000
_symmetry_Int_Tables_number   1
_chemical_formula_structural   Ce3Ir
_chemical_formula_sum   'Ce12 Ir4'
_cell_volume   428.44801451
_cell_formula_units_Z   4
loop_
 _symmetry_equiv_pos_site_id
 _symmetry_equiv_pos_as_xyz
  1  'x, y, z'
loop_
 _atom_site_type_symbol
 _atom_site_label
 _atom_site_symmetry_multiplicity
 _atom_site_fract_x
 _atom_site_fract_y
 _atom_site_fract_z
 _atom_site_occupancy
  Ce  Ce0  1  0.34715705  0.67101647  0.05699074  1
  Ce  Ce1  1  0.15284295  0.17101647  0.44300926  1
  Ce  Ce2  1  0.65284295  0.32898353  0.55699074  1
  Ce  Ce3  1  0.84715705  0.82898353  0.94300926  1
  Ce  Ce4  1  0.65284295  0.32898353  0.94300926  1
  Ce  Ce5  1  0.84715705  0.82898353  0.55699074  1
  Ce  Ce6  1  0.34715705  0.67101647  0.44300926  1
  Ce  Ce7  1  0.15284295  0.17101647  0.05699074  1
  Ce  Ce8  1  0.85460231  0.53440741  0.25000000  1
  Ce  Ce9  1  0.64539769  0.03440741  0.25000000  1
  Ce  Ce10  1  0.14539769  0.46559259  0.75000000  1
  Ce  Ce11  1  0.35460231  0.96559259  0.75000000  1
  Ir  Ir12  1  0.08939257  0.87626902  0.25000000  1
  Ir  Ir13  1  0.41060743  0.37626902  0.25000000  1
  Ir  Ir14  1  0.91060743  0.12373098  0.75000000  1
  Ir  Ir15  1  0.58939257  0.62373098  0.75000000  1
