# generated using pymatgen
data_Ba3InSe4Cl
_symmetry_space_group_name_H-M   'P 1'
_cell_length_a   8.71001003
_cell_length_b   8.71001003
_cell_length_c   9.83850391
_cell_angle_alpha   116.27302746
_cell_angle_beta   116.27302746
_cell_angle_gamma   90.00000000
_symmetry_Int_Tables_number   1
_chemical_formula_structural   Ba3InSe4Cl
_chemical_formula_sum   'Ba6 In2 Se8 Cl2'
_cell_volume   582.05265638
_cell_formula_units_Z   2
loop_
 _symmetry_equiv_pos_site_id
 _symmetry_equiv_pos_as_xyz
  1  'x, y, z'
loop_
 _atom_site_type_symbol
 _atom_site_label
 _atom_site_symmetry_multiplicity
 _atom_site_fract_x
 _atom_site_fract_y
 _atom_site_fract_z
 _atom_site_occupancy
  Ba  Ba0  1  0.65454025  0.15454025  -0.00000000  1
  Ba  Ba1  1  0.34545975  0.84545975  -0.00000000  1
  Ba  Ba2  1  0.84545975  0.65454025  -0.00000000  1
  Ba  Ba3  1  0.15454025  0.34545975  -0.00000000  1
  Ba  Ba4  1  0.75000000  0.75000000  0.50000000  1
  Ba  Ba5  1  0.25000000  0.25000000  0.50000000  1
  In  In6  1  0.75000000  0.25000000  0.50000000  1
  In  In7  1  0.25000000  0.75000000  0.50000000  1
  Se  Se8  1  0.69722506  0.19722506  0.71584918  1
  Se  Se9  1  0.01862412  0.51862412  0.71584918  1
  Se  Se10  1  0.51862412  0.69722506  0.71584918  1
  Se  Se11  1  0.19722506  0.01862412  0.71584918  1
  Se  Se12  1  0.30277494  0.80277494  0.28415082  1
  Se  Se13  1  0.98137588  0.48137588  0.28415082  1
  Se  Se14  1  0.48137588  0.30277494  0.28415082  1
  Se  Se15  1  0.80277494  0.98137588  0.28415082  1
  Cl  Cl16  1  -0.00000000  -0.00000000  -0.00000000  1
  Cl  Cl17  1  0.50000000  0.50000000  -0.00000000  1
