# generated using pymatgen
data_Tm2Te5
_symmetry_space_group_name_H-M   'P 1'
_cell_length_a   4.36799424
_cell_length_b   4.38299446
_cell_length_c   21.58445983
_cell_angle_alpha   90.00000000
_cell_angle_beta   95.80734294
_cell_angle_gamma   90.00000000
_symmetry_Int_Tables_number   1
_chemical_formula_structural   Tm2Te5
_chemical_formula_sum   'Tm4 Te10'
_cell_volume   411.11139617
_cell_formula_units_Z   2
loop_
 _symmetry_equiv_pos_site_id
 _symmetry_equiv_pos_as_xyz
  1  'x, y, z'
loop_
 _atom_site_type_symbol
 _atom_site_label
 _atom_site_symmetry_multiplicity
 _atom_site_fract_x
 _atom_site_fract_y
 _atom_site_fract_z
 _atom_site_occupancy
  Tm  Tm0  1  0.90235198  0.75000000  0.80470397  1
  Tm  Tm1  1  0.09764802  0.25000000  0.19529603  1
  Tm  Tm2  1  0.69307536  0.75000000  0.38615071  1
  Tm  Tm3  1  0.30692464  0.25000000  0.61384929  1
  Te  Te4  1  0.04178350  0.75000000  0.08356700  1
  Te  Te5  1  0.95821650  0.25000000  0.91643300  1
  Te  Te6  1  0.45777107  0.75000000  0.91554213  1
  Te  Te7  1  0.54222893  0.25000000  0.08445787  1
  Te  Te8  1  0.24999871  0.75000000  0.49999742  1
  Te  Te9  1  0.75000129  0.25000000  0.50000258  1
  Te  Te10  1  0.82762809  0.75000000  0.65525617  1
  Te  Te11  1  0.17237191  0.25000000  0.34474383  1
  Te  Te12  1  0.62007820  0.75000000  0.24015640  1
  Te  Te13  1  0.37992180  0.25000000  0.75984360  1
