# generated using pymatgen
data_MnH11C5NO6
_symmetry_space_group_name_H-M   'P 1'
_cell_length_a   8.47931980
_cell_length_b   8.47931980
_cell_length_c   9.02265420
_cell_angle_alpha   63.84519227
_cell_angle_beta   63.84519227
_cell_angle_gamma   60.15254822
_symmetry_Int_Tables_number   1
_chemical_formula_structural   MnH11C5NO6
_chemical_formula_sum   'Mn2 H22 C10 N2 O12'
_cell_volume   484.19905805
_cell_formula_units_Z   2
loop_
 _symmetry_equiv_pos_site_id
 _symmetry_equiv_pos_as_xyz
  1  'x, y, z'
loop_
 _atom_site_type_symbol
 _atom_site_label
 _atom_site_symmetry_multiplicity
 _atom_site_fract_x
 _atom_site_fract_y
 _atom_site_fract_z
 _atom_site_occupancy
  Mn  Mn0  1  0.82759336  0.32090100  0.60450725  1
  Mn  Mn1  1  0.32090100  0.82759336  0.10450725  1
  H  H2  1  0.69217664  0.18470796  0.35515671  1
  H  H3  1  0.18470796  0.69217664  0.85515671  1
  H  H4  1  0.81924887  0.96107731  0.32615977  1
  H  H5  1  0.96107731  0.81924887  0.82615977  1
  H  H6  1  0.16994731  0.48598678  0.34831217  1
  H  H7  1  0.48598678  0.16994731  0.84831217  1
  H  H8  1  0.64733644  0.56375264  0.87325922  1
  H  H9  1  0.56375264  0.64733644  0.37325922  1
  H  H10  1  0.16215771  0.01909340  0.77305979  1
  H  H11  1  0.01909340  0.16215771  0.27305979  1
  H  H12  1  0.59700614  0.95411613  0.61173987  1
  H  H13  1  0.95411613  0.59700614  0.11173987  1
  H  H14  1  0.40771792  0.12039071  0.51390772  1
  H  H15  1  0.12039071  0.40771792  0.01390772  1
  H  H16  1  0.53472332  0.88735345  0.48815640  1
  H  H17  1  0.88735345  0.53472332  0.98815640  1
  H  H18  1  0.73336181  0.17986328  0.07101073  1
  H  H19  1  0.17986328  0.73336181  0.57101073  1
  H  H20  1  0.61058786  0.01839067  0.17803065  1
  H  H21  1  0.01839067  0.61058786  0.67803065  1
  H  H22  1  0.48911590  0.25588288  0.19513695  1
  H  H23  1  0.25588288  0.48911590  0.69513695  1
  C  C24  1  0.03472885  0.61168611  0.35500326  1
  C  C25  1  0.61168611  0.03472885  0.85500326  1
  C  C26  1  0.52354938  0.57773285  0.84800490  1
  C  C27  1  0.57773285  0.52354938  0.34800490  1
  C  C28  1  0.08661753  0.12793703  0.84377290  1
  C  C29  1  0.12793703  0.08661753  0.34377290  1
  C  C30  1  0.54655109  0.00345798  0.50040752  1
  C  C31  1  0.00345798  0.54655109  0.00040752  1
  C  C32  1  0.62568573  0.13600887  0.18453984  1
  C  C33  1  0.13600887  0.62568573  0.68453984  1
  N  N34  1  0.68390447  0.07156494  0.34143514  1
  N  N35  1  0.07156494  0.68390447  0.84143514  1
  O  O36  1  0.88090790  0.58568114  0.44162512  1
  O  O37  1  0.58568114  0.88090790  0.94162512  1
  O  O38  1  0.68184292  0.35981603  0.42191426  1
  O  O39  1  0.35981603  0.68184292  0.92191426  1
  O  O40  1  0.04694204  0.77405108  0.27296585  1
  O  O41  1  0.77405108  0.04694204  0.77296585  1
  O  O42  1  0.09365450  0.13859134  0.47039527  1
  O  O43  1  0.13859134  0.09365450  0.97039527  1
  O  O44  1  0.95478537  0.27744977  0.79156554  1
  O  O45  1  0.27744977  0.95478537  0.29156554  1
  O  O46  1  0.55182055  0.49098305  0.74973318  1
  O  O47  1  0.49098305  0.55182055  0.24973318  1
