# generated using pymatgen
data_P3(PbO5)2
_symmetry_space_group_name_H-M   'P 1'
_cell_length_a   5.01726884
_cell_length_b   5.68339416
_cell_length_c   8.02248512
_cell_angle_alpha   69.12528394
_cell_angle_beta   86.78291961
_cell_angle_gamma   81.00530394
_symmetry_Int_Tables_number   1
_chemical_formula_structural   P3(PbO5)2
_chemical_formula_sum   'P3 Pb2 O10'
_cell_volume   211.11806508
_cell_formula_units_Z   1
loop_
 _symmetry_equiv_pos_site_id
 _symmetry_equiv_pos_as_xyz
  1  'x, y, z'
loop_
 _atom_site_type_symbol
 _atom_site_label
 _atom_site_symmetry_multiplicity
 _atom_site_fract_x
 _atom_site_fract_y
 _atom_site_fract_z
 _atom_site_occupancy
  P  P0  1  0.76326618  0.07473329  0.49944048  1
  P  P1  1  0.47766947  0.78686222  0.82006258  1
  P  P2  1  0.47678314  0.10608119  0.18016843  1
  Pb  Pb3  1  0.01745437  0.38496258  0.79528495  1
  Pb  Pb4  1  0.01720967  0.67972103  0.20273571  1
  O  O5  1  0.40312523  0.61464742  0.72690627  1
  O  O6  1  0.40185923  0.84019565  0.27232706  1
  O  O7  1  0.89624857  0.81695787  0.50013224  1
  O  O8  1  0.93595152  0.27252849  0.49787193  1
  O  O9  1  0.24661203  0.31572991  0.08534616  1
  O  O10  1  0.24649102  0.90163957  0.91390085  1
  O  O11  1  0.73273747  0.65783628  0.93562216  1
  O  O12  1  0.73308012  0.09334011  0.06551768  1
  O  O13  1  0.56237280  0.04511436  0.66693135  1
  O  O14  1  0.55913917  0.21005003  0.33375217  1
