# generated using pymatgen
data_LiNdTi2O6
_symmetry_space_group_name_H-M   'P 1'
_cell_length_a   5.51541079
_cell_length_b   5.44464298
_cell_length_c   7.71616511
_cell_angle_alpha   90.00000000
_cell_angle_beta   90.00000000
_cell_angle_gamma   89.13492877
_symmetry_Int_Tables_number   1
_chemical_formula_structural   LiNdTi2O6
_chemical_formula_sum   'Li2 Nd2 Ti4 O12'
_cell_volume   231.68572735
_cell_formula_units_Z   2
loop_
 _symmetry_equiv_pos_site_id
 _symmetry_equiv_pos_as_xyz
  1  'x, y, z'
loop_
 _atom_site_type_symbol
 _atom_site_label
 _atom_site_symmetry_multiplicity
 _atom_site_fract_x
 _atom_site_fract_y
 _atom_site_fract_z
 _atom_site_occupancy
  Li  Li0  1  0.16779639  0.85163687  0.50000000  1
  Li  Li1  1  0.87080989  0.29668619  0.50000000  1
  Nd  Nd2  1  0.78719729  0.26695077  -0.00000000  1
  Nd  Nd3  1  0.27245369  0.75313597  -0.00000000  1
  Ti  Ti4  1  0.26930202  0.26702137  0.73828102  1
  Ti  Ti5  1  0.26930202  0.26702137  0.26171898  1
  Ti  Ti6  1  0.75459995  0.77133109  0.73132091  1
  Ti  Ti7  1  0.75459995  0.77133109  0.26867909  1
  O  O8  1  0.45624921  0.96798350  0.72537414  1
  O  O9  1  0.45624921  0.96798350  0.27462586  1
  O  O10  1  0.51459205  0.48189841  0.80442065  1
  O  O11  1  0.51459205  0.48189841  0.19557935  1
  O  O12  1  0.96159052  0.03326730  0.70360491  1
  O  O13  1  0.96159052  0.03326730  0.29639509  1
  O  O14  1  0.01429868  0.52279892  0.79866076  1
  O  O15  1  0.01429868  0.52279892  0.20133924  1
  O  O16  1  0.22299891  0.17914262  -0.00000000  1
  O  O17  1  0.24486057  0.33373747  0.50000000  1
  O  O18  1  0.75061588  0.83233224  -0.00000000  1
  O  O19  1  0.77200251  0.65607670  0.50000000  1
