# generated using pymatgen
data_Yb3Ga8Ir3
_symmetry_space_group_name_H-M   'P 1'
_cell_length_a   4.23954052
_cell_length_b   8.23305468
_cell_length_c   8.23305468
_cell_angle_alpha   72.36203883
_cell_angle_beta   75.07996546
_cell_angle_gamma   75.07996546
_symmetry_Int_Tables_number   1
_chemical_formula_structural   Yb3Ga8Ir3
_chemical_formula_sum   'Yb3 Ga8 Ir3'
_cell_volume   259.55383273
_cell_formula_units_Z   1
loop_
 _symmetry_equiv_pos_site_id
 _symmetry_equiv_pos_as_xyz
  1  'x, y, z'
loop_
 _atom_site_type_symbol
 _atom_site_label
 _atom_site_symmetry_multiplicity
 _atom_site_fract_x
 _atom_site_fract_y
 _atom_site_fract_z
 _atom_site_occupancy
  Yb  Yb0  1  0.50000000  0.50000000  0.50000000  1
  Yb  Yb1  1  0.17376640  0.82623360  0.82623360  1
  Yb  Yb2  1  0.82623360  0.17376640  0.17376640  1
  Ga  Ga3  1  0.37801657  0.33295821  0.91100864  1
  Ga  Ga4  1  0.62198343  0.66704179  0.08899136  1
  Ga  Ga5  1  0.37801657  0.91100864  0.33295821  1
  Ga  Ga6  1  0.62198343  0.08899136  0.66704179  1
  Ga  Ga7  1  0.16885022  0.46649119  0.19580836  1
  Ga  Ga8  1  0.83114978  0.53350881  0.80419164  1
  Ga  Ga9  1  0.16885022  0.19580836  0.46649119  1
  Ga  Ga10  1  0.83114978  0.80419164  0.53350881  1
  Ir  Ir11  1  0.50000000  0.00000000  0.00000000  1
  Ir  Ir12  1  -0.00000000  0.77826058  0.22173942  1
  Ir  Ir13  1  -0.00000000  0.22173942  0.77826058  1
