# generated using pymatgen
data_Tb4HfAl15
_symmetry_space_group_name_H-M   'P 1'
_cell_length_a   6.05102117
_cell_length_b   6.05102117
_cell_length_c   12.50588604
_cell_angle_alpha   75.99970560
_cell_angle_beta   75.99970560
_cell_angle_gamma   60.00000036
_symmetry_Int_Tables_number   1
_chemical_formula_structural   Tb4HfAl15
_chemical_formula_sum   'Tb4 Hf1 Al15'
_cell_volume   380.76666365
_cell_formula_units_Z   1
loop_
 _symmetry_equiv_pos_site_id
 _symmetry_equiv_pos_as_xyz
  1  'x, y, z'
loop_
 _atom_site_type_symbol
 _atom_site_label
 _atom_site_symmetry_multiplicity
 _atom_site_fract_x
 _atom_site_fract_y
 _atom_site_fract_z
 _atom_site_occupancy
  Tb  Tb0  1  0.13095440  0.13095440  0.60713681  1
  Tb  Tb1  1  0.86904560  0.86904560  0.39286319  1
  Tb  Tb2  1  0.39988001  0.39988001  0.80035996  1
  Tb  Tb3  1  0.60011999  0.60011999  0.19964004  1
  Hf  Hf4  1  -0.00000000  0.00000000  -0.00000000  1
  Al  Al5  1  0.50000000  0.50000000  -0.00000000  1
  Al  Al6  1  0.50000000  0.00000000  -0.00000000  1
  Al  Al7  1  -0.00000000  0.50000000  -0.00000000  1
  Al  Al8  1  0.12842712  0.63592283  0.59972722  1
  Al  Al9  1  0.63592283  0.63592283  0.59972722  1
  Al  Al10  1  0.63592283  0.12842712  0.59972722  1
  Al  Al11  1  0.87157288  0.36407717  0.40027278  1
  Al  Al12  1  0.36407717  0.36407717  0.40027278  1
  Al  Al13  1  0.36407717  0.87157288  0.40027278  1
  Al  Al14  1  0.42545239  0.88362946  0.80728870  1
  Al  Al15  1  0.88362946  0.88362946  0.80728870  1
  Al  Al16  1  0.88362946  0.42545239  0.80728870  1
  Al  Al17  1  0.57454761  0.11637054  0.19271130  1
  Al  Al18  1  0.11637054  0.11637054  0.19271130  1
  Al  Al19  1  0.11637054  0.57454761  0.19271130  1
