# generated using pymatgen
data_Cd(Mo3S4)2
_symmetry_space_group_name_H-M   'P 1'
_cell_length_a   6.56754362
_cell_length_b   6.56754362
_cell_length_c   6.56754377
_cell_angle_alpha   92.49006871
_cell_angle_beta   92.49006871
_cell_angle_gamma   92.49006599
_symmetry_Int_Tables_number   1
_chemical_formula_structural   Cd(Mo3S4)2
_chemical_formula_sum   'Cd1 Mo6 S8'
_cell_volume   282.44893910
_cell_formula_units_Z   1
loop_
 _symmetry_equiv_pos_site_id
 _symmetry_equiv_pos_as_xyz
  1  'x, y, z'
loop_
 _atom_site_type_symbol
 _atom_site_label
 _atom_site_symmetry_multiplicity
 _atom_site_fract_x
 _atom_site_fract_y
 _atom_site_fract_z
 _atom_site_occupancy
  Cd  Cd0  1  0.00000000  0.00000000  -0.00000000  1
  Mo  Mo1  1  0.59059034  0.77993238  0.44648960  1
  Mo  Mo2  1  0.77993238  0.44648960  0.59059034  1
  Mo  Mo3  1  0.44648960  0.59059034  0.77993238  1
  Mo  Mo4  1  0.40940966  0.22006762  0.55351040  1
  Mo  Mo5  1  0.22006762  0.55351040  0.40940966  1
  Mo  Mo6  1  0.55351040  0.40940966  0.22006762  1
  S  S7  1  0.77375958  0.77375958  0.77375958  1
  S  S8  1  0.22624042  0.22624042  0.22624042  1
  S  S9  1  0.61974856  0.27332797  0.86796101  1
  S  S10  1  0.27332797  0.86796101  0.61974856  1
  S  S11  1  0.86796101  0.61974856  0.27332797  1
  S  S12  1  0.38025144  0.72667203  0.13203899  1
  S  S13  1  0.72667203  0.13203899  0.38025144  1
  S  S14  1  0.13203899  0.38025144  0.72667203  1
