# generated using pymatgen
data_LaH16C4Cl3O4
_symmetry_space_group_name_H-M   'P 1'
_cell_length_a   8.60568247
_cell_length_b   9.03314312
_cell_length_c   18.85469240
_cell_angle_alpha   89.99997198
_cell_angle_beta   90.00005735
_cell_angle_gamma   109.00212865
_symmetry_Int_Tables_number   1
_chemical_formula_structural   LaH16C4Cl3O4
_chemical_formula_sum   'La4 H64 C16 Cl12 O16'
_cell_volume   1385.82429237
_cell_formula_units_Z   4
loop_
 _symmetry_equiv_pos_site_id
 _symmetry_equiv_pos_as_xyz
  1  'x, y, z'
loop_
 _atom_site_type_symbol
 _atom_site_label
 _atom_site_symmetry_multiplicity
 _atom_site_fract_x
 _atom_site_fract_y
 _atom_site_fract_z
 _atom_site_occupancy
  La  La0  1  0.62982566  0.17681529  0.08822052  1
  La  La1  1  0.87017832  0.82318694  0.58822010  1
  La  La2  1  0.37017237  0.82318958  0.91177999  1
  La  La3  1  0.12981812  0.17681073  0.41178089  1
  H  H4  1  0.93116126  0.16442999  0.17622544  1
  H  H5  1  0.56884311  0.83557214  0.67622520  1
  H  H6  1  0.06883753  0.83557017  0.82377388  1
  H  H7  1  0.43115601  0.16442895  0.32377480  1
  H  H8  1  0.37605482  0.28878906  0.17255566  1
  H  H9  1  0.12394318  0.71120985  0.67255668  1
  H  H10  1  0.62394611  0.71120980  0.82744469  1
  H  H11  1  0.87605718  0.28878805  0.32744216  1
  H  H12  1  0.31456055  0.89495854  0.09759489  1
  H  H13  1  0.18543972  0.10503897  0.59759488  1
  H  H14  1  0.68543785  0.10504021  0.90240560  1
  H  H15  1  0.81456071  0.89496331  0.40240531  1
  H  H16  1  0.88586778  0.51239250  0.06480253  1
  H  H17  1  0.61412894  0.48760447  0.56480226  1
  H  H18  1  0.11412995  0.48760398  0.93519796  1
  H  H19  1  0.38586768  0.51239146  0.43519670  1
  H  H20  1  0.92185784  0.62317557  0.17809641  1
  H  H21  1  0.57814356  0.37682169  0.67809693  1
  H  H22  1  0.07814594  0.37682550  0.82190279  1
  H  H23  1  0.42185579  0.62317657  0.32190331  1
  H  H24  1  0.78330651  0.69087735  0.12585131  1
  H  H25  1  0.71669537  0.30912146  0.62585103  1
  H  H26  1  0.21669631  0.30912330  0.87414753  1
  H  H27  1  0.28330415  0.69087638  0.37414901  1
  H  H28  1  0.70482032  0.53670958  0.18972080  1
  H  H29  1  0.79518151  0.46328966  0.68972079  1
  H  H30  1  0.29518436  0.46329307  0.81027870  1
  H  H31  1  0.20481823  0.53670962  0.31027884  1
  H  H32  1  0.07247966  0.14620995  0.05684039  1
  H  H33  1  0.42752181  0.85379361  0.55684044  1
  H  H34  1  0.92751891  0.85379259  0.94315978  1
  H  H35  1  0.57247643  0.14620764  0.44315997  1
  H  H36  1  0.08352807  0.03706398  0.13511651  1
  H  H37  1  0.41647221  0.96293640  0.63511690  1
  H  H38  1  0.91646959  0.96293749  0.86488337  1
  H  H39  1  0.58352691  0.03706566  0.36488346  1
  H  H40  1  0.93419491  0.95138591  0.06753867  1
  H  H41  1  0.56580578  0.04861731  0.56753898  1
  H  H42  1  0.06580498  0.04861645  0.93246108  1
  H  H43  1  0.43419310  0.95138482  0.43246099  1
  H  H44  1  0.32556760  0.39460097  0.04090221  1
  H  H45  1  0.17443412  0.60539716  0.54090414  1
  H  H46  1  0.67443485  0.60539949  0.95909726  1
  H  H47  1  0.82556577  0.39459844  0.45909600  1
  H  H48  1  0.26471391  0.44363112  0.12603847  1
  H  H49  1  0.23528666  0.55636711  0.62604003  1
  H  H50  1  0.73529004  0.55636735  0.87396154  1
  H  H51  1  0.76471320  0.44362895  0.37395999  1
  H  H52  1  0.46298602  0.55087176  0.09143871  1
  H  H53  1  0.03701633  0.44912557  0.59144021  1
  H  H54  1  0.53701848  0.44913052  0.90856192  1
  H  H55  1  0.96298375  0.55087027  0.40855963  1
  H  H56  1  0.33276662  0.93186955  0.24432100  1
  H  H57  1  0.16723408  0.06812893  0.74432064  1
  H  H58  1  0.66723372  0.06812858  0.75567940  1
  H  H59  1  0.83276770  0.93187493  0.25567937  1
  H  H60  1  0.24737441  0.76046446  0.19062021  1
  H  H61  1  0.25262518  0.23953368  0.69061914  1
  H  H62  1  0.75262510  0.23953388  0.80938002  1
  H  H63  1  0.74737774  0.76046962  0.30938064  1
  H  H64  1  0.46344671  0.83009783  0.20863940  1
  H  H65  1  0.03655307  0.16990075  0.70863891  1
  H  H66  1  0.53655323  0.16990023  0.79136035  1
  H  H67  1  0.96344950  0.83010411  0.29136170  1
  C  C68  1  0.80214087  0.58821523  0.15101583  1
  C  C69  1  0.69786063  0.41178506  0.65101524  1
  C  C70  1  0.19786083  0.41178529  0.84898402  1
  C  C71  1  0.30213881  0.58821543  0.34898401  1
  C  C72  1  0.00118198  0.05960418  0.09537909  1
  C  C73  1  0.49881895  0.94039900  0.59537960  1
  C  C74  1  0.99881528  0.94039835  0.90462048  1
  C  C75  1  0.50117947  0.05960266  0.40462074  1
  C  C76  1  0.36830948  0.43492467  0.09464966  1
  C  C77  1  0.13169078  0.56507257  0.59465130  1
  C  C78  1  0.63169165  0.56507589  0.90535107  1
  C  C79  1  0.86830834  0.43492238  0.40534836  1
  C  C80  1  0.35426686  0.86542233  0.19876097  1
  C  C81  1  0.14573317  0.13457632  0.69876072  1
  C  C82  1  0.64573286  0.13457597  0.80123921  1
  C  C83  1  0.85426851  0.86542721  0.30123920  1
  Cl  Cl84  1  0.38893453  0.12470498  0.97741472  1
  Cl  Cl85  1  0.11105691  0.87529657  0.47741596  1
  Cl  Cl86  1  0.61105793  0.87529446  0.02258540  1
  Cl  Cl87  1  0.88894059  0.12470089  0.52258530  1
  Cl  Cl88  1  0.84331570  0.28692128  0.96789042  1
  Cl  Cl89  1  0.65668995  0.71307877  0.46789316  1
  Cl  Cl90  1  0.15668511  0.71307840  0.03210830  1
  Cl  Cl91  1  0.34331143  0.28692084  0.53210777  1
  Cl  Cl92  1  0.66737436  0.21926556  0.23985693  1
  Cl  Cl93  1  0.83262603  0.78073387  0.73985426  1
  Cl  Cl94  1  0.33262837  0.78073572  0.76014574  1
  Cl  Cl95  1  0.16737174  0.21926458  0.26014546  1
  O  O96  1  0.79454118  0.47014127  0.09855558  1
  O  O97  1  0.70546059  0.52985776  0.59855732  1
  O  O98  1  0.20546383  0.52985964  0.90144261  1
  O  O99  1  0.29453961  0.47014016  0.40144314  1
  O  O100  1  0.88284099  0.11736241  0.13092809  1
  O  O101  1  0.61716069  0.88263858  0.63092815  1
  O  O102  1  0.11715573  0.88263892  0.86907165  1
  O  O103  1  0.38283883  0.11736390  0.36907208  1
  O  O104  1  0.43513543  0.32432076  0.12769216  1
  O  O105  1  0.06486276  0.67567510  0.62769295  1
  O  O106  1  0.56486781  0.67568060  0.87230662  1
  O  O107  1  0.93513625  0.32431976  0.37230748  1
  O  O108  1  0.37696294  0.96280225  0.13659427  1
  O  O109  1  0.12303653  0.03719640  0.63659341  1
  O  O110  1  0.62303587  0.03719675  0.86340601  1
  O  O111  1  0.87696291  0.96280643  0.36340657  1
