# generated using pymatgen
data_Na14(WO3)19
_symmetry_space_group_name_H-M   'P 1'
_cell_length_a   3.94263892
_cell_length_b   3.94263892
_cell_length_c   75.06713637
_cell_angle_alpha   90.00000000
_cell_angle_beta   90.00000000
_cell_angle_gamma   90.00000000
_symmetry_Int_Tables_number   1
_chemical_formula_structural   Na14(WO3)19
_chemical_formula_sum   'Na14 W19 O57'
_cell_volume   1166.87371871
_cell_formula_units_Z   1
loop_
 _symmetry_equiv_pos_site_id
 _symmetry_equiv_pos_as_xyz
  1  'x, y, z'
loop_
 _atom_site_type_symbol
 _atom_site_label
 _atom_site_symmetry_multiplicity
 _atom_site_fract_x
 _atom_site_fract_y
 _atom_site_fract_z
 _atom_site_occupancy
  Na  Na0  1  -0.00000000  0.00000000  0.26317548  1
  Na  Na1  1  0.00000000  0.00000000  0.52619595  1
  Na  Na2  1  -0.00000000  0.00000000  0.78956264  1
  Na  Na3  1  -0.00000000  -0.00000000  0.89485705  1
  Na  Na4  1  0.00000000  -0.00000000  0.05267634  1
  Na  Na5  1  -0.00000000  -0.00000000  0.15787752  1
  Na  Na6  1  -0.00000000  0.00000000  0.36837666  1
  Na  Na7  1  -0.00000000  -0.00000000  0.47257601  1
  Na  Na8  1  0.00000000  -0.00000000  0.57898953  1
  Na  Na9  1  0.00000000  -0.00000000  0.63149036  1
  Na  Na10  1  -0.00000000  -0.00000000  0.68434724  1
  Na  Na11  1  0.00000000  -0.00000000  0.73670576  1
  Na  Na12  1  -0.00000000  0.00000000  0.84206247  1
  Na  Na13  1  -0.00000000  0.00000000  0.94847599  1
  W  W14  1  0.50000000  0.50000000  0.07958963  1
  W  W15  1  0.50000000  0.50000000  0.02601923  1
  W  W16  1  0.50000000  0.50000000  0.18459877  1
  W  W17  1  0.50000000  0.50000000  0.13120485  1
  W  W18  1  0.50000000  0.50000000  0.28984815  1
  W  W19  1  0.50000000  0.50000000  0.23645423  1
  W  W20  1  0.50000000  0.50000000  0.34146237  1
  W  W21  1  0.50000000  0.50000000  0.39503377  1
  W  W22  1  0.50000000  0.50000000  0.44648473  1
  W  W23  1  0.50000000  0.50000000  0.49950727  1
  W  W24  1  0.50000000  0.50000000  0.55246847  1
  W  W25  1  0.50000000  0.50000000  0.65787662  1
  W  W26  1  0.50000000  0.50000000  0.60516400  1
  W  W27  1  0.50000000  0.50000000  0.76317638  1
  W  W28  1  0.50000000  0.50000000  0.71052600  1
  W  W29  1  0.50000000  0.50000000  0.81588800  1
  W  W30  1  0.50000000  0.50000000  0.86858453  1
  W  W31  1  0.50000000  0.50000000  0.92154573  1
  W  W32  1  0.50000000  0.50000000  0.97456727  1
  O  O33  1  -0.00000000  0.50000000  0.02755212  1
  O  O34  1  -0.00000000  0.50000000  0.07802267  1
  O  O35  1  -0.00000000  0.50000000  0.13220203  1
  O  O36  1  0.00000000  0.50000000  0.18378431  1
  O  O37  1  0.00000000  0.50000000  0.34302933  1
  O  O38  1  0.00000000  0.50000000  0.39350088  1
  O  O39  1  0.00000000  0.50000000  0.97321397  1
  O  O40  1  0.50000000  0.50000000  0.00107350  1
  O  O41  1  0.50000000  0.50000000  0.05278753  1
  O  O42  1  0.50000000  -0.00000000  0.02755212  1
  O  O43  1  0.50000000  -0.00000000  0.13220203  1
  O  O44  1  0.50000000  0.50000000  0.10463437  1
  O  O45  1  0.50000000  0.00000000  0.07802267  1
  O  O46  1  0.50000000  0.50000000  0.15859008  1
  O  O47  1  0.50000000  0.50000000  0.21052600  1
  O  O48  1  0.50000000  -0.00000000  0.18378431  1
  O  O49  1  0.50000000  0.50000000  0.26246292  1
  O  O50  1  0.50000000  -0.00000000  0.23726869  1
  O  O51  1  0.50000000  0.50000000  0.31641763  1
  O  O52  1  0.50000000  -0.00000000  0.28885097  1
  O  O53  1  0.50000000  -0.00000000  0.34302933  1
  O  O54  1  0.50000000  0.00000000  0.39350088  1
  O  O55  1  0.50000000  -0.00000000  0.44783803  1
  O  O56  1  0.50000000  0.50000000  0.36826547  1
  O  O57  1  0.50000000  0.50000000  0.41997950  1
  O  O58  1  0.50000000  0.50000000  0.47403622  1
  O  O59  1  0.50000000  0.00000000  0.49962754  1
  O  O60  1  0.50000000  -0.00000000  0.55251538  1
  O  O61  1  0.50000000  0.50000000  0.52508792  1
  O  O62  1  0.50000000  0.00000000  0.60523802  1
  O  O63  1  0.50000000  0.50000000  0.63068269  1
  O  O64  1  0.50000000  -0.00000000  0.65787485  1
  O  O65  1  0.50000000  0.50000000  0.57975040  1
  O  O66  1  0.50000000  -0.00000000  0.71052600  1
  O  O67  1  0.50000000  0.50000000  0.73595059  1
  O  O68  1  0.50000000  -0.00000000  0.76317815  1
  O  O69  1  0.50000000  -0.00000000  0.81581398  1
  O  O70  1  0.50000000  0.50000000  0.68510241  1
  O  O71  1  0.50000000  0.50000000  0.84130160  1
  O  O72  1  0.50000000  0.00000000  0.86853762  1
  O  O73  1  0.50000000  0.00000000  0.92142546  1
  O  O74  1  0.50000000  0.50000000  0.79037031  1
  O  O75  1  0.50000000  0.50000000  0.94701578  1
  O  O76  1  0.50000000  0.50000000  0.89596508  1
  O  O77  1  0.50000000  0.00000000  0.97321397  1
  O  O78  1  0.00000000  0.50000000  0.23726869  1
  O  O79  1  -0.00000000  0.50000000  0.28885097  1
  O  O80  1  -0.00000000  0.50000000  0.44783803  1
  O  O81  1  -0.00000000  0.50000000  0.49962754  1
  O  O82  1  -0.00000000  0.50000000  0.55251538  1
  O  O83  1  -0.00000000  0.50000000  0.60523802  1
  O  O84  1  -0.00000000  0.50000000  0.65787485  1
  O  O85  1  -0.00000000  0.50000000  0.71052600  1
  O  O86  1  -0.00000000  0.50000000  0.76317815  1
  O  O87  1  0.00000000  0.50000000  0.81581398  1
  O  O88  1  0.00000000  0.50000000  0.86853762  1
  O  O89  1  0.00000000  0.50000000  0.92142546  1
