# generated using pymatgen
data_NaCaAlFe(SiO3)4
_symmetry_space_group_name_H-M   'P 1'
_cell_length_a   15.97813575
_cell_length_b   6.60606073
_cell_length_c   6.60606125
_cell_angle_alpha   85.09154027
_cell_angle_beta   77.41382730
_cell_angle_gamma   77.41383118
_symmetry_Int_Tables_number   1
_chemical_formula_structural   NaCaAlFe(SiO3)4
_chemical_formula_sum   'Na3 Ca3 Al3 Fe3 Si12 O36'
_cell_volume   663.64574273
_cell_formula_units_Z   3
loop_
 _symmetry_equiv_pos_site_id
 _symmetry_equiv_pos_as_xyz
  1  'x, y, z'
loop_
 _atom_site_type_symbol
 _atom_site_label
 _atom_site_symmetry_multiplicity
 _atom_site_fract_x
 _atom_site_fract_y
 _atom_site_fract_z
 _atom_site_occupancy
  Na  Na0  1  0.08422247  0.70023951  0.29575251  1
  Na  Na1  1  0.25000000  0.29997448  0.70002552  1
  Na  Na2  1  0.41577753  0.70424749  0.29976049  1
  Ca  Ca3  1  0.58128317  0.30289743  0.70433241  1
  Ca  Ca4  1  0.75000000  0.69834350  0.30165650  1
  Ca  Ca5  1  0.91871683  0.29566759  0.69710257  1
  Al  Al6  1  0.08915202  0.09235793  0.89893516  1
  Al  Al7  1  0.25000000  0.89926864  0.10073136  1
  Al  Al8  1  0.41084798  0.10106484  0.90764207  1
  Fe  Fe9  1  0.57836093  0.90931595  0.09931106  1
  Fe  Fe10  1  0.75000000  0.09075084  0.90924916  1
  Fe  Fe11  1  0.92163907  0.90068894  0.09068405  1
  Si  Si12  1  0.09504913  0.19402997  0.37667814  1
  Si  Si13  1  0.08007074  0.61209755  0.80124490  1
  Si  Si14  1  0.25847005  0.38590632  0.19706112  1
  Si  Si15  1  0.24152995  0.80293888  0.61409368  1
  Si  Si16  1  0.41992926  0.19875510  0.38790245  1
  Si  Si17  1  0.40495087  0.62332186  0.80597003  1
  Si  Si18  1  0.58541431  0.38349766  0.19795099  1
  Si  Si19  1  0.57318200  0.80628785  0.63053015  1
  Si  Si20  1  0.75454165  0.19487202  0.37770068  1
  Si  Si21  1  0.74545835  0.62229932  0.80512798  1
  Si  Si22  1  0.92681800  0.36946985  0.19371215  1
  Si  Si23  1  0.91458569  0.80204901  0.61650234  1
  O  O24  1  0.99974019  0.62100950  0.67172585  1
  O  O25  1  0.07099772  0.11160837  0.61732676  1
  O  O26  1  0.12779767  0.03466295  0.18095865  1
  O  O27  1  0.05615767  0.81058408  0.95211594  1
  O  O28  1  0.10394438  0.37514623  0.89215683  1
  O  O29  1  0.16534313  0.34747270  0.35143622  1
  O  O30  1  0.16960214  0.65236742  0.63051563  1
  O  O31  1  0.23778197  0.62165835  0.10285543  1
  O  O32  1  0.29008764  0.18906278  0.03702971  1
  O  O33  1  0.20991236  0.96297029  0.81093722  1
  O  O34  1  0.26221803  0.89714457  0.37834165  1
  O  O35  1  0.33039786  0.36948437  0.34763258  1
  O  O36  1  0.33465687  0.64856378  0.65252730  1
  O  O37  1  0.39605562  0.10784317  0.62485377  1
  O  O38  1  0.44384233  0.04788406  0.18941592  1
  O  O39  1  0.37220233  0.81904135  0.96533705  1
  O  O40  1  0.42900228  0.38267324  0.88839163  1
  O  O41  1  0.50025981  0.32827415  0.37899050  1
  O  O42  1  0.50104207  0.65416371  0.65407435  1
  O  O43  1  0.55621863  0.61058948  0.10398087  1
  O  O44  1  0.61543360  0.20551447  0.02778591  1
  O  O45  1  0.53344193  0.98308403  0.80504417  1
  O  O46  1  0.60376597  0.88917489  0.39816952  1
  O  O47  1  0.66564862  0.37309770  0.33229030  1
  O  O48  1  0.66604229  0.64045790  0.67105951  1
  O  O49  1  0.72232168  0.11468243  0.61121133  1
  O  O50  1  0.78570294  0.02066232  0.20560483  1
  O  O51  1  0.71429706  0.79439517  0.97933768  1
  O  O52  1  0.77767832  0.38878867  0.88531757  1
  O  O53  1  0.83395771  0.32894049  0.35954210  1
  O  O54  1  0.83435138  0.66770970  0.62690230  1
  O  O55  1  0.89623403  0.60183048  0.11082511  1
  O  O56  1  0.96655807  0.19495583  0.01691597  1
  O  O57  1  0.88456640  0.97221409  0.79448553  1
  O  O58  1  0.94378137  0.89601913  0.38941052  1
  O  O59  1  0.99895793  0.34592565  0.34583629  1
