# generated using pymatgen
data_KSbAs(O2F)2
_symmetry_space_group_name_H-M   'P 1'
_cell_length_a   7.93608064
_cell_length_b   7.17480467
_cell_length_c   10.88261530
_cell_angle_alpha   98.24832397
_cell_angle_beta   90.00000000
_cell_angle_gamma   90.00000000
_symmetry_Int_Tables_number   1
_chemical_formula_structural   KSbAs(O2F)2
_chemical_formula_sum   'K4 Sb4 As4 O16 F8'
_cell_volume   613.24428701
_cell_formula_units_Z   4
loop_
 _symmetry_equiv_pos_site_id
 _symmetry_equiv_pos_as_xyz
  1  'x, y, z'
loop_
 _atom_site_type_symbol
 _atom_site_label
 _atom_site_symmetry_multiplicity
 _atom_site_fract_x
 _atom_site_fract_y
 _atom_site_fract_z
 _atom_site_occupancy
  K  K0  1  0.58343866  0.24816945  0.02442960  1
  K  K1  1  0.08343866  0.75183055  0.47557040  1
  K  K2  1  0.41656134  0.75183055  0.97557040  1
  K  K3  1  0.91656134  0.24816945  0.52442960  1
  Sb  Sb4  1  0.61476519  0.76828227  0.64273241  1
  Sb  Sb5  1  0.11476519  0.23171773  0.85726759  1
  Sb  Sb6  1  0.38523481  0.23171773  0.35726759  1
  Sb  Sb7  1  0.88523481  0.76828227  0.14273241  1
  As  As8  1  0.55114101  0.67899360  0.32437530  1
  As  As9  1  0.05114101  0.32100640  0.17562470  1
  As  As10  1  0.44885899  0.32100640  0.67562470  1
  As  As11  1  0.94885899  0.67899360  0.82437530  1
  O  O12  1  0.73498077  0.74229632  0.80849229  1
  O  O13  1  0.23498077  0.25770368  0.69150771  1
  O  O14  1  0.26501923  0.25770368  0.19150771  1
  O  O15  1  0.76501923  0.74229632  0.30849229  1
  O  O16  1  0.57727595  0.23335676  0.77492270  1
  O  O17  1  0.07727595  0.76664324  0.72507730  1
  O  O18  1  0.42272405  0.76664324  0.22507730  1
  O  O19  1  0.92272405  0.23335676  0.27492270  1
  O  O20  1  0.55658011  0.43086384  0.31248632  1
  O  O21  1  0.05658011  0.56913616  0.18751368  1
  O  O22  1  0.44341989  0.56913616  0.68751368  1
  O  O23  1  0.94341989  0.43086384  0.81248632  1
  O  O24  1  0.50747914  0.22760641  0.52287216  1
  O  O25  1  0.00747914  0.77239359  0.97712784  1
  O  O26  1  0.49252086  0.77239359  0.47712784  1
  O  O27  1  0.99252086  0.22760641  0.02287216  1
  F  F28  1  0.76516359  0.57056139  0.56222743  1
  F  F29  1  0.26516359  0.42943861  0.93777257  1
  F  F30  1  0.23483641  0.42943861  0.43777257  1
  F  F31  1  0.73483641  0.57056139  0.06222743  1
  F  F32  1  0.70696601  0.94265839  0.09354573  1
  F  F33  1  0.20696601  0.05734161  0.40645427  1
  F  F34  1  0.29303399  0.05734161  0.90645427  1
  F  F35  1  0.79303399  0.94265839  0.59354573  1
