# generated using pymatgen
data_Li4Mn3O7
_symmetry_space_group_name_H-M   'P 1'
_cell_length_a   2.87845996
_cell_length_b   9.89266979
_cell_length_c   9.88601358
_cell_angle_alpha   110.88180232
_cell_angle_beta   90.00000000
_cell_angle_gamma   98.36533570
_symmetry_Int_Tables_number   1
_chemical_formula_structural   Li4Mn3O7
_chemical_formula_sum   'Li8 Mn6 O14'
_cell_volume   259.81224662
_cell_formula_units_Z   2
loop_
 _symmetry_equiv_pos_site_id
 _symmetry_equiv_pos_as_xyz
  1  'x, y, z'
loop_
 _atom_site_type_symbol
 _atom_site_label
 _atom_site_symmetry_multiplicity
 _atom_site_fract_x
 _atom_site_fract_y
 _atom_site_fract_z
 _atom_site_occupancy
  Li  Li0  1  0.63897682  0.27795363  0.07544151  1
  Li  Li1  1  0.93425895  0.86851890  0.22093850  1
  Li  Li2  1  0.20859805  0.41719510  0.35049050  1
  Li  Li3  1  0.50388018  0.00776037  0.49598749  1
  Li  Li4  1  0.77974378  0.55948857  0.63216538  1
  Li  Li5  1  0.07142900  0.14285700  0.78571400  1
  Li  Li6  1  0.36311322  0.72622643  0.93926262  1
  Li  Li7  1  0.57142900  0.14285700  0.28571400  1
  Mn  Mn8  1  0.00718277  0.01436554  0.01623480  1
  Mn  Mn9  1  0.13567423  0.27134846  0.55519420  1
  Mn  Mn10  1  0.28444933  0.56889967  0.13992313  1
  Mn  Mn11  1  0.85840767  0.71681533  0.43150487  1
  Mn  Mn12  1  0.43073252  0.86146604  0.72342285  1
  Mn  Mn13  1  0.71212448  0.42424796  0.84800615  1
  O  O14  1  0.53449891  0.06899882  0.91058804  1
  O  O15  1  0.82002101  0.64004103  0.04629219  1
  O  O16  1  0.09668306  0.19336612  0.16083328  1
  O  O17  1  0.39332854  0.78665708  0.33725049  1
  O  O18  1  0.67509234  0.35018569  0.47371772  1
  O  O19  1  0.96350424  0.92700748  0.62783341  1
  O  O20  1  0.23989625  0.47979249  0.74103693  1
  O  O21  1  0.74952846  0.49905692  0.23417851  1
  O  O22  1  0.04617394  0.09234888  0.41059472  1
  O  O23  1  0.32283699  0.64567297  0.52513581  1
  O  O24  1  0.60835809  0.21671618  0.66083996  1
  O  O25  1  0.90296075  0.80592151  0.83039207  1
  O  O26  1  0.17935276  0.35870652  0.94359559  1
  O  O27  1  0.46776466  0.93552831  0.09771128  1
