# generated using pymatgen
data_CuH36S8N11O18
_symmetry_space_group_name_H-M   'P 1'
_cell_length_a   12.52930264
_cell_length_b   12.52930264
_cell_length_c   12.52930264
_cell_angle_alpha   98.90780434
_cell_angle_beta   114.99742449
_cell_angle_gamma   114.99742449
_symmetry_Int_Tables_number   1
_chemical_formula_structural   CuH36S8N11O18
_chemical_formula_sum   'Cu2 H72 S16 N22 O36'
_cell_volume   1476.58202203
_cell_formula_units_Z   2
loop_
 _symmetry_equiv_pos_site_id
 _symmetry_equiv_pos_as_xyz
  1  'x, y, z'
loop_
 _atom_site_type_symbol
 _atom_site_label
 _atom_site_symmetry_multiplicity
 _atom_site_fract_x
 _atom_site_fract_y
 _atom_site_fract_z
 _atom_site_occupancy
  Cu  Cu0  1  0.50000000  0.75000000  0.25000000  1
  Cu  Cu1  1  -0.00000000  0.00000000  -0.00000000  1
  H  H2  1  0.56010348  0.21033294  0.77767205  1
  H  H3  1  0.06733911  0.53966706  0.59977054  1
  H  H4  1  0.43989652  0.21756856  0.65022946  1
  H  H5  1  0.93266089  0.53243144  0.47232795  1
  H  H6  1  0.43266089  0.22232795  0.78243144  1
  H  H7  1  0.06010348  0.52767205  0.46033294  1
  H  H8  1  0.56733911  0.34977054  0.78966706  1
  H  H9  1  0.93989652  0.40022946  0.46756856  1
  H  H10  1  0.42591110  0.45992727  0.00748885  1
  H  H11  1  0.04756158  0.29007273  0.21598383  1
  H  H12  1  0.57408890  0.58157775  0.03401617  1
  H  H13  1  0.95243842  0.16842225  0.24251115  1
  H  H14  1  0.45243842  0.99251115  0.41842225  1
  H  H15  1  0.92591110  0.75748885  0.70992727  1
  H  H16  1  0.54756158  0.96598383  0.54007273  1
  H  H17  1  0.07408890  0.78401617  0.83157775  1
  H  H18  1  0.54751839  0.43366874  0.01091382  1
  H  H19  1  0.07724508  0.31633126  0.36384964  1
  H  H20  1  0.45248161  0.46339544  0.88615036  1
  H  H21  1  0.92275492  0.28660456  0.23908618  1
  H  H22  1  0.42275492  0.98908618  0.53660456  1
  H  H23  1  0.04751839  0.76091382  0.68366874  1
  H  H24  1  0.57724508  0.11384964  0.56633126  1
  H  H25  1  0.95248161  0.63615036  0.71339544  1
  H  H26  1  0.24146831  0.42109610  0.17611165  1
  H  H27  1  0.25501555  0.32890390  0.07037222  1
  H  H28  1  0.75853169  0.93464334  0.17962778  1
  H  H29  1  0.74498445  0.81535666  0.07388835  1
  H  H30  1  0.24498445  0.82388835  0.06535666  1
  H  H31  1  0.74146831  0.92611165  0.67109610  1
  H  H32  1  0.75501555  0.82037222  0.57890390  1
  H  H33  1  0.25853169  0.92962778  0.18464334  1
  H  H34  1  0.22199461  0.44241469  0.04001991  1
  H  H35  1  0.09760521  0.30758531  0.02957992  1
  H  H36  1  0.77800539  0.81802529  0.22042008  1
  H  H37  1  0.90239479  0.93197471  0.20998009  1
  H  H38  1  0.40239479  0.95998009  0.18197471  1
  H  H39  1  0.72199461  0.79001991  0.69241469  1
  H  H40  1  0.59760521  0.77957992  0.55758531  1
  H  H41  1  0.27800539  0.97042008  0.06802529  1
  H  H42  1  0.51694748  0.95608299  0.00725618  1
  H  H43  1  0.55117320  0.79391701  0.81086450  1
  H  H44  1  0.48305252  0.49030870  0.43913550  1
  H  H45  1  0.44882680  0.25969130  0.24274382  1
  H  H46  1  0.94882680  0.99274382  0.50969130  1
  H  H47  1  0.01694748  0.75725618  0.20608299  1
  H  H48  1  0.05117320  0.56086450  0.04391701  1
  H  H49  1  0.98305252  0.18913550  0.74030870  1
  H  H50  1  0.61981203  0.11741298  0.08284071  1
  H  H51  1  0.46542773  0.63258702  0.75239905  1
  H  H52  1  0.38018797  0.46302868  0.49760095  1
  H  H53  1  0.53457227  0.28697132  0.16715929  1
  H  H54  1  0.03457227  0.91715929  0.53697132  1
  H  H55  1  0.11981203  0.83284071  0.36741298  1
  H  H56  1  0.96542773  0.50239905  0.88258702  1
  H  H57  1  0.88018797  0.24760095  0.71302868  1
  H  H58  1  0.56368562  0.04946554  0.92857170  1
  H  H59  1  0.37910617  0.70053446  0.76422009  1
  H  H60  1  0.43631438  0.36488608  0.48577991  1
  H  H61  1  0.62089383  0.38511392  0.32142830  1
  H  H62  1  0.12089383  0.07142830  0.63511392  1
  H  H63  1  0.06368562  0.67857170  0.29946554  1
  H  H64  1  0.87910617  0.51422009  0.95053446  1
  H  H65  1  0.93631438  0.23577991  0.61488608  1
  H  H66  1  0.44690366  0.04483824  0.96836606  1
  H  H67  1  0.42352781  0.70516176  0.65206542  1
  H  H68  1  0.55309634  0.52146239  0.59793458  1
  H  H69  1  0.57647219  0.22853761  0.28163394  1
  H  H70  1  0.07647219  0.03163394  0.47853761  1
  H  H71  1  0.94690366  0.71836606  0.29483824  1
  H  H72  1  0.92352781  0.40206542  0.95516176  1
  H  H73  1  0.05309634  0.34793458  0.77146239  1
  S  S74  1  0.45525133  0.75090506  0.04934994  1
  S  S75  1  0.79844487  0.99909494  0.95434627  1
  S  S76  1  0.54474867  0.59409860  0.29565373  1
  S  S77  1  0.20155513  0.15590140  0.20065006  1
  S  S78  1  0.70155513  0.95065006  0.40590140  1
  S  S79  1  0.95525133  0.79934994  0.00090506  1
  S  S80  1  0.29844487  0.70434627  0.24909494  1
  S  S81  1  0.04474867  0.04565373  0.84409860  1
  S  S82  1  0.24701334  0.62763581  0.90763256  1
  S  S83  1  0.77999675  0.12236419  0.86937753  1
  S  S84  1  0.75298666  0.66061921  0.38062247  1
  S  S85  1  0.22000325  0.08938079  0.34236744  1
  S  S86  1  0.72000325  0.09236744  0.33938079  1
  S  S87  1  0.74701334  0.65763256  0.87763581  1
  S  S88  1  0.27999675  0.61937753  0.37236419  1
  S  S89  1  0.25298666  0.13062247  0.91061921  1
  N  N90  1  0.50000000  0.25000000  0.75000000  1
  N  N91  1  -0.00000000  0.50000000  0.50000000  1
  N  N92  1  0.50000000  0.48461572  0.98461572  1
  N  N93  1  0.00000000  0.26538428  0.26538428  1
  N  N94  1  0.50000000  0.01538428  0.51538428  1
  N  N95  1  -0.00000000  0.73461572  0.73461572  1
  N  N96  1  0.20539560  0.37500000  0.08039560  1
  N  N97  1  0.79460440  0.87500000  0.16960440  1
  N  N98  1  0.29460440  0.91960440  0.12500000  1
  N  N99  1  0.70539560  0.83039560  0.62500000  1
  N  N100  1  0.53577142  0.04104883  0.99565887  1
  N  N101  1  0.45461004  0.70895117  0.74472259  1
  N  N102  1  0.46422858  0.45988745  0.50527741  1
  N  N103  1  0.54538996  0.29011255  0.25434113  1
  N  N104  1  0.04538996  0.00434113  0.54011255  1
  N  N105  1  0.03577142  0.74565887  0.29104883  1
  N  N106  1  0.95461004  0.49472259  0.95895117  1
  N  N107  1  0.96422858  0.25527741  0.70988745  1
  N  N108  1  0.24429434  0.87500000  0.61929434  1
  N  N109  1  0.75570566  0.37500000  0.63070566  1
  N  N110  1  0.25570566  0.38070566  0.62500000  1
  N  N111  1  0.74429434  0.36929434  0.12500000  1
  O  O112  1  0.11493061  0.80855905  0.58295808  1
  O  O113  1  0.27439902  0.94144095  0.55637155  1
  O  O114  1  0.88506939  0.46802747  0.69362845  1
  O  O115  1  0.72560098  0.28197253  0.66704192  1
  O  O116  1  0.22560098  0.41704192  0.53197253  1
  O  O117  1  0.61493061  0.33295808  0.05855905  1
  O  O118  1  0.77439902  0.30637155  0.19144095  1
  O  O119  1  0.38506939  0.44362845  0.71802747  1
  O  O120  1  0.33682224  0.87500000  0.71182224  1
  O  O121  1  0.66317776  0.37500000  0.53817776  1
  O  O122  1  0.16317776  0.28817776  0.62500000  1
  O  O123  1  0.83682224  0.46182224  0.12500000  1
  O  O124  1  0.19874164  0.49770547  0.91184843  1
  O  O125  1  0.91414296  0.25229453  0.95103617  1
  O  O126  1  0.80125836  0.71310679  0.29896383  1
  O  O127  1  0.08585704  0.03689321  0.33815157  1
  O  O128  1  0.58585704  0.08815157  0.28689321  1
  O  O129  1  0.69874164  0.66184843  0.74770547  1
  O  O130  1  0.41414296  0.70103617  0.50229453  1
  O  O131  1  0.30125836  0.04896383  0.96310679  1
  O  O132  1  0.22772172  0.61863503  0.78013242  1
  O  O133  1  0.66149738  0.13136497  0.85908669  1
  O  O134  1  0.77227828  0.55241069  0.39091331  1
  O  O135  1  0.33850262  0.19758931  0.46986758  1
  O  O136  1  0.83850262  0.21986758  0.44758931  1
  O  O137  1  0.72772172  0.53013242  0.86863503  1
  O  O138  1  0.16149738  0.60908669  0.38136497  1
  O  O139  1  0.27227828  0.14091331  0.80241069  1
  O  O140  1  0.16848796  0.67915493  0.93198099  1
  O  O141  1  0.75282606  0.07084507  0.73933303  1
  O  O142  1  0.83151204  0.76349302  0.51066697  1
  O  O143  1  0.24717394  0.98650698  0.31801901  1
  O  O144  1  0.74717394  0.06801901  0.23650698  1
  O  O145  1  0.66848796  0.68198099  0.92915493  1
  O  O146  1  0.25282606  0.48933303  0.32084507  1
  O  O147  1  0.33151204  0.26066697  0.01349302  1
