# generated using pymatgen
data_Li4Mn3O7
_symmetry_space_group_name_H-M   'P 1'
_cell_length_a   2.88362112
_cell_length_b   5.10322686
_cell_length_c   18.73817553
_cell_angle_alpha   98.27246509
_cell_angle_beta   94.41299977
_cell_angle_gamma   73.58878506
_symmetry_Int_Tables_number   1
_chemical_formula_structural   Li4Mn3O7
_chemical_formula_sum   'Li8 Mn6 O14'
_cell_volume   261.56881417
_cell_formula_units_Z   2
loop_
 _symmetry_equiv_pos_site_id
 _symmetry_equiv_pos_as_xyz
  1  'x, y, z'
loop_
 _atom_site_type_symbol
 _atom_site_label
 _atom_site_symmetry_multiplicity
 _atom_site_fract_x
 _atom_site_fract_y
 _atom_site_fract_z
 _atom_site_occupancy
  Li  Li0  1  0.28922317  0.49710439  0.07555173  1
  Li  Li1  1  0.85363383  0.50289561  0.21016327  1
  Li  Li2  1  0.43251982  0.48574819  0.35078883  1
  Li  Li3  1  0.99913859  0.50172715  0.50000432  1
  Li  Li4  1  0.57142900  0.50000000  0.64285700  1
  Li  Li5  1  0.14371841  0.49827285  0.78570968  1
  Li  Li6  1  0.71033718  0.51425181  0.93492517  1
  Li  Li7  1  0.57142900  -0.00000000  0.14285700  1
  Mn  Mn8  1  0.99484519  0.02037653  0.01006692  1
  Mn  Mn9  1  0.14801181  0.97962347  0.27564708  1
  Mn  Mn10  1  0.71692144  0.98915819  0.42300007  1
  Mn  Mn11  1  0.28491353  0.00005684  0.56988490  1
  Mn  Mn12  1  0.85794347  0.99994316  0.71583010  1
  Mn  Mn13  1  0.42593556  0.01084181  0.86271393  1
  O  O14  1  0.36796184  0.23571748  0.97164117  1
  O  O15  1  0.93242909  0.23204518  0.09690236  1
  O  O16  1  0.51814437  0.21717428  0.25346402  1
  O  O17  1  0.08821413  0.21139998  0.38782824  1
  O  O18  1  0.65304626  0.23302571  0.53911922  1
  O  O19  1  0.22631289  0.23212493  0.68475070  1
  O  O20  1  0.79586251  0.23704716  0.82877118  1
  O  O21  1  0.21042791  0.76795482  0.18881164  1
  O  O22  1  0.77489516  0.76428252  0.31407283  1
  O  O23  1  0.34699549  0.76295284  0.45694282  1
  O  O24  1  0.91654411  0.76787507  0.60096330  1
  O  O25  1  0.48981074  0.76697429  0.74659478  1
  O  O26  1  0.05464287  0.78860002  0.89788676  1
  O  O27  1  0.62471263  0.78282572  0.03225098  1
