# generated using pymatgen
data_Li2CoO3
_symmetry_space_group_name_H-M   'P 1'
_cell_length_a   2.97767094
_cell_length_b   5.95060286
_cell_length_c   6.30215300
_cell_angle_alpha   76.42638038
_cell_angle_beta   76.57316768
_cell_angle_gamma   93.65294084
_symmetry_Int_Tables_number   1
_chemical_formula_structural   Li2CoO3
_chemical_formula_sum   'Li4 Co2 O6'
_cell_volume   104.75314415
_cell_formula_units_Z   2
loop_
 _symmetry_equiv_pos_site_id
 _symmetry_equiv_pos_as_xyz
  1  'x, y, z'
loop_
 _atom_site_type_symbol
 _atom_site_label
 _atom_site_symmetry_multiplicity
 _atom_site_fract_x
 _atom_site_fract_y
 _atom_site_fract_z
 _atom_site_occupancy
  Li  Li0  1  0.00174316  0.49573881  0.99482321  1
  Li  Li1  1  0.33158984  0.17092819  0.33850979  1
  Li  Li2  1  0.66666700  0.83333300  0.66666700  1
  Li  Li3  1  0.66666700  0.33333300  0.66666700  1
  Co  Co4  1  0.00185661  0.01292035  0.99031242  1
  Co  Co5  1  0.33147639  0.65374665  0.34302058  1
  O  O6  1  0.47465463  0.22987769  0.00193089  1
  O  O7  1  0.82109782  0.90850247  0.31085185  1
  O  O8  1  0.18063911  0.59711231  0.63646028  1
  O  O9  1  0.51223518  0.75816453  0.02248115  1
  O  O10  1  0.85867837  0.43678931  0.33140211  1
  O  O11  1  0.15269489  0.06955369  0.69687372  1
