# generated using pymatgen
data_Li3Mn2CoO6
_symmetry_space_group_name_H-M   'P 1'
_cell_length_a   2.85572386
_cell_length_b   5.11111263
_cell_length_c   8.30677888
_cell_angle_alpha   97.44657280
_cell_angle_beta   80.10220998
_cell_angle_gamma   106.22225937
_symmetry_Int_Tables_number   1
_chemical_formula_structural   Li3Mn2CoO6
_chemical_formula_sum   'Li3 Mn2 Co1 O6'
_cell_volume   114.25766671
_cell_formula_units_Z   1
loop_
 _symmetry_equiv_pos_site_id
 _symmetry_equiv_pos_as_xyz
  1  'x, y, z'
loop_
 _atom_site_type_symbol
 _atom_site_label
 _atom_site_symmetry_multiplicity
 _atom_site_fract_x
 _atom_site_fract_y
 _atom_site_fract_z
 _atom_site_occupancy
  Li  Li0  1  0.66633119  0.48826056  0.15559918  1
  Li  Li1  1  -0.00000000  0.50000000  0.50000000  1
  Li  Li2  1  0.33366881  0.51173944  0.84440082  1
  Mn  Mn3  1  0.33058377  0.98835281  0.32718427  1
  Mn  Mn4  1  0.66941623  0.01164719  0.67281573  1
  Co  Co5  1  -0.00000000  -0.00000000  0.00000000  1
  O  O6  1  0.64988742  0.23142001  0.93164617  1
  O  O7  1  0.98415388  0.21761530  0.24930754  1
  O  O8  1  0.32299284  0.23884416  0.59285749  1
  O  O9  1  0.67700716  0.76115584  0.40714251  1
  O  O10  1  0.01584612  0.78238470  0.75069246  1
  O  O11  1  0.35011258  0.76857999  0.06835383  1
