# generated using pymatgen
data_Li2CoO3
_symmetry_space_group_name_H-M   'P 1'
_cell_length_a   4.96318005
_cell_length_b   5.05839226
_cell_length_c   5.03272197
_cell_angle_alpha   98.93866547
_cell_angle_beta   108.24500575
_cell_angle_gamma   60.69950817
_symmetry_Int_Tables_number   1
_chemical_formula_structural   Li2CoO3
_chemical_formula_sum   'Li4 Co2 O6'
_cell_volume   104.64570553
_cell_formula_units_Z   2
loop_
 _symmetry_equiv_pos_site_id
 _symmetry_equiv_pos_as_xyz
  1  'x, y, z'
loop_
 _atom_site_type_symbol
 _atom_site_label
 _atom_site_symmetry_multiplicity
 _atom_site_fract_x
 _atom_site_fract_y
 _atom_site_fract_z
 _atom_site_occupancy
  Li  Li0  1  0.16615399  0.66319873  0.49516193  1
  Li  Li1  1  0.83990459  0.32311559  0.50301630  1
  Li  Li2  1  0.49433235  0.00981686  0.50216196  1
  Li  Li3  1  0.33359724  0.33390747  0.00106702  1
  Co  Co4  1  -0.00242004  0.00722561  0.99853070  1
  Co  Co5  1  0.67118235  0.65707316  0.00151926  1
  O  O6  1  0.78116051  0.98942034  0.22330291  1
  O  O7  1  0.40233106  0.69714471  0.22519268  1
  O  O8  1  0.06313908  0.31758670  0.23148226  1
  O  O9  1  0.62096794  0.31577095  0.76975808  1
  O  O10  1  0.23077019  0.98746626  0.77417280  1
  O  O11  1  0.89888074  0.69827361  0.77463412  1
