# generated using pymatgen
data_Li7Mn4CoO12
_symmetry_space_group_name_H-M   'P 1'
_cell_length_a   5.91878883
_cell_length_b   5.95178186
_cell_length_c   6.45802660
_cell_angle_alpha   103.20663901
_cell_angle_beta   76.80221215
_cell_angle_gamma   87.42772400
_symmetry_Int_Tables_number   1
_chemical_formula_structural   Li7Mn4CoO12
_chemical_formula_sum   'Li7 Mn4 Co1 O12'
_cell_volume   214.49935109
_cell_formula_units_Z   1
loop_
 _symmetry_equiv_pos_site_id
 _symmetry_equiv_pos_as_xyz
  1  'x, y, z'
loop_
 _atom_site_type_symbol
 _atom_site_label
 _atom_site_symmetry_multiplicity
 _atom_site_fract_x
 _atom_site_fract_y
 _atom_site_fract_z
 _atom_site_occupancy
  Li  Li0  1  0.49796575  0.99331392  0.98795328  1
  Li  Li1  1  0.16870125  0.34001908  0.34537972  1
  Li  Li2  1  0.83333300  0.16666700  0.66666700  1
  Li  Li3  1  0.49923477  0.50138525  0.98841978  1
  Li  Li4  1  0.83333300  0.66666700  0.66666700  1
  Li  Li5  1  0.16743223  0.83194775  0.34491322  1
  Li  Li6  1  0.33333300  0.66666700  0.66666700  1
  Mn  Mn7  1  0.00807139  0.99795824  0.99243476  1
  Mn  Mn8  1  0.65859561  0.33537476  0.34089824  1
  Mn  Mn9  1  0.00937613  0.50383702  0.99441757  1
  Mn  Mn10  1  0.65729087  0.82949598  0.33891543  1
  Co  Co11  1  0.33333300  0.16666700  0.66666700  1
  O  O12  1  0.21871262  0.74016611  0.99938050  1
  O  O13  1  0.88883569  0.06909463  0.31832366  1
  O  O14  1  0.57904061  0.92521823  0.64938644  1
  O  O15  1  0.24921357  0.27032598  0.98941565  1
  O  O16  1  0.56741628  0.39143974  0.65034506  1
  O  O17  1  0.91328023  0.59897576  0.32217338  1
  O  O18  1  0.77783131  0.26423837  0.01500934  1
  O  O19  1  0.44795438  0.59316689  0.33395250  1
  O  O20  1  0.08762539  0.40811577  0.68394756  1
  O  O21  1  0.75338677  0.73435724  0.01115962  1
  O  O22  1  0.09924972  0.94189426  0.68298894  1
  O  O23  1  0.41745343  0.06300702  0.34391735  1
