# generated using pymatgen
data_Li4Mn3O7
_symmetry_space_group_name_H-M   'P 1'
_cell_length_a   3.00550593
_cell_length_b   11.29925260
_cell_length_c   7.85564646
_cell_angle_alpha   99.23463039
_cell_angle_beta   96.43960132
_cell_angle_gamma   83.25866398
_symmetry_Int_Tables_number   1
_chemical_formula_structural   Li4Mn3O7
_chemical_formula_sum   'Li8 Mn6 O14'
_cell_volume   260.31168529
_cell_formula_units_Z   2
loop_
 _symmetry_equiv_pos_site_id
 _symmetry_equiv_pos_as_xyz
  1  'x, y, z'
loop_
 _atom_site_type_symbol
 _atom_site_label
 _atom_site_symmetry_multiplicity
 _atom_site_fract_x
 _atom_site_fract_y
 _atom_site_fract_z
 _atom_site_occupancy
  Li  Li0  1  0.75505323  0.07510260  0.62525784  1
  Li  Li1  1  0.92235392  0.34597978  0.20789776  1
  Li  Li2  1  0.07142900  0.64285700  0.78571400  1
  Li  Li3  1  0.22050308  0.93973422  0.36353124  1
  Li  Li4  1  0.38780377  0.21061240  0.94617016  1
  Li  Li5  1  0.50470628  0.49877070  0.50166677  1
  Li  Li6  1  0.63815072  0.78694330  0.06976223  1
  Li  Li7  1  0.57142900  0.14285700  0.28571400  1
  Mn  Mn8  1  0.00745360  0.00578200  0.01000684  1
  Mn  Mn9  1  0.13540340  0.27993200  0.56142216  1
  Mn  Mn10  1  0.28576638  0.57056590  0.14291312  1
  Mn  Mn11  1  0.43894916  0.85780823  0.71817756  1
  Mn  Mn12  1  0.70390784  0.42790577  0.85325144  1
  Mn  Mn13  1  0.85709062  0.71514910  0.42851488  1
  O  O14  1  0.43889227  0.02590860  0.84244481  1
  O  O15  1  0.57320458  0.31573396  0.41615458  1
  O  O16  1  0.64946158  0.59814986  0.96352703  1
  O  O17  1  0.79674863  0.88682290  0.53752353  1
  O  O18  1  0.95719187  0.16744614  0.09371489  1
  O  O19  1  0.07627082  0.45348621  0.67895642  1
  O  O20  1  0.21862230  0.74216500  0.24974511  1
  O  O21  1  0.18566513  0.11826786  0.47771411  1
  O  O22  1  0.34610837  0.39889210  0.03390447  1
  O  O23  1  0.49339542  0.68756414  0.60790197  1
  O  O24  1  0.56965342  0.96998004  0.15527342  1
  O  O25  1  0.70396473  0.25980540  0.72898419  1
  O  O26  1  0.92423470  0.54355000  0.32168289  1
  O  O27  1  0.06658618  0.83222779  0.89247258  1
