# generated using pymatgen
data_Li7Mn4CoO12
_symmetry_space_group_name_H-M   'P 1'
_cell_length_a   5.95438304
_cell_length_b   6.47243911
_cell_length_c   6.51352795
_cell_angle_alpha   83.15599426
_cell_angle_beta   115.02395093
_cell_angle_gamma   76.77049028
_symmetry_Int_Tables_number   1
_chemical_formula_structural   Li7Mn4CoO12
_chemical_formula_sum   'Li7 Mn4 Co1 O12'
_cell_volume   214.68750808
_cell_formula_units_Z   1
loop_
 _symmetry_equiv_pos_site_id
 _symmetry_equiv_pos_as_xyz
  1  'x, y, z'
loop_
 _atom_site_type_symbol
 _atom_site_label
 _atom_site_symmetry_multiplicity
 _atom_site_fract_x
 _atom_site_fract_y
 _atom_site_fract_z
 _atom_site_occupancy
  Li  Li0  1  0.25606737  0.99084148  0.50467430  1
  Li  Li1  1  0.74393241  0.34249209  0.16199278  1
  Li  Li2  1  0.74645547  0.66440472  0.83077164  1
  Li  Li3  1  0.24870356  0.34793791  0.17322984  1
  Li  Li4  1  0.75129743  0.98539631  0.49343724  1
  Li  Li5  1  0.25354391  0.66892921  0.83589410  1
  Li  Li6  1  0.00000024  0.66666668  0.33333348  1
  Mn  Mn7  1  0.00640191  0.99191377  0.00887507  1
  Mn  Mn8  1  0.99360017  0.34141653  0.65779228  1
  Mn  Mn9  1  0.48913736  0.33843869  0.65746014  1
  Mn  Mn10  1  0.51086300  0.99489645  0.00921002  1
  Co  Co11  1  0.50000035  0.66666661  0.33333331  1
  O  O12  1  0.85210101  0.00165659  0.22313841  1
  O  O13  1  0.39358514  0.32100427  0.91071630  1
  O  O14  1  0.38983825  0.64751873  0.57788014  1
  O  O15  1  0.85759363  0.31900489  0.89363915  1
  O  O16  1  0.39930544  0.98720060  0.24683411  1
  O  O17  1  0.85287506  0.65099494  0.57069639  1
  O  O18  1  0.60641391  0.01232857  0.75594943  1
  O  O19  1  0.14789997  0.33167699  0.44352868  1
  O  O20  1  0.14712324  0.68233998  0.09596583  1
  O  O21  1  0.60069585  0.34613124  0.41983331  1
  O  O22  1  0.14240246  0.01432825  0.77302735  1
  O  O23  1  0.61016286  0.68581450  0.08878670  1
