# generated using pymatgen
data_Li5Mn3O8
_symmetry_space_group_name_H-M   'P 1'
_cell_length_a   5.75463729
_cell_length_b   5.89293502
_cell_length_c   5.82275175
_cell_angle_alpha   119.30838996
_cell_angle_beta   90.00000000
_cell_angle_gamma   60.77333858
_symmetry_Int_Tables_number   1
_chemical_formula_structural   Li5Mn3O8
_chemical_formula_sum   'Li5 Mn3 O8'
_cell_volume   142.66034980
_cell_formula_units_Z   1
loop_
 _symmetry_equiv_pos_site_id
 _symmetry_equiv_pos_as_xyz
  1  'x, y, z'
loop_
 _atom_site_type_symbol
 _atom_site_label
 _atom_site_symmetry_multiplicity
 _atom_site_fract_x
 _atom_site_fract_y
 _atom_site_fract_z
 _atom_site_occupancy
  Li  Li0  1  0.50000000  0.50000000  0.00000000  1
  Li  Li1  1  -0.00000000  0.50000000  -0.00000000  1
  Li  Li2  1  -0.00000000  0.00000000  0.50000000  1
  Li  Li3  1  0.50000000  -0.00000000  0.50000000  1
  Li  Li4  1  0.50000000  -0.00000000  -0.00000000  1
  Mn  Mn5  1  -0.00000000  0.00000000  0.00000000  1
  Mn  Mn6  1  0.50000000  0.50000000  0.50000000  1
  Mn  Mn7  1  -0.00000000  0.50000000  0.50000000  1
  O  O8  1  0.78302466  0.95673235  0.74227500  1
  O  O9  1  0.26024299  0.95673235  0.74227500  1
  O  O10  1  0.24910598  0.50178805  0.27448726  1
  O  O11  1  0.73845326  0.52309347  0.28384692  1
  O  O12  1  0.21697534  0.04326765  0.25772500  1
  O  O13  1  0.73975701  0.04326765  0.25772500  1
  O  O14  1  0.75089402  0.49821195  0.72551274  1
  O  O15  1  0.26154674  0.47690653  0.71615308  1
