# generated using pymatgen
data_Li7Mn4CoO12
_symmetry_space_group_name_H-M   'P 1'
_cell_length_a   5.24825621
_cell_length_b   6.48936316
_cell_length_c   6.48936322
_cell_angle_alpha   82.95655440
_cell_angle_beta   95.79484272
_cell_angle_gamma   95.79484191
_symmetry_Int_Tables_number   1
_chemical_formula_structural   Li7Mn4CoO12
_chemical_formula_sum   'Li7 Mn4 Co1 O12'
_cell_volume   217.34485042
_cell_formula_units_Z   1
loop_
 _symmetry_equiv_pos_site_id
 _symmetry_equiv_pos_as_xyz
  1  'x, y, z'
loop_
 _atom_site_type_symbol
 _atom_site_label
 _atom_site_symmetry_multiplicity
 _atom_site_fract_x
 _atom_site_fract_y
 _atom_site_fract_z
 _atom_site_occupancy
  Li  Li0  1  0.25003382  0.08514159  0.41806968  1
  Li  Li1  1  0.74996618  0.58193032  0.91485841  1
  Li  Li2  1  0.74331071  0.92061469  0.59179875  1
  Li  Li3  1  0.25668929  0.40820125  0.07938531  1
  Li  Li4  1  0.25113761  0.75047930  0.74623260  1
  Li  Li5  1  0.74886239  0.25376740  0.24952070  1
  Li  Li6  1  0.50000000  0.16828209  0.83171791  1
  Mn  Mn7  1  0.00000000  0.00131705  0.99868295  1
  Mn  Mn8  1  1.00000000  0.33348197  0.66651803  1
  Mn  Mn9  1  0.50000000  0.83497503  0.16502497  1
  Mn  Mn10  1  1.00000000  0.66571549  0.33428451  1
  Co  Co11  1  0.50000000  0.49826050  0.50173950  1
  O  O12  1  0.89263598  0.95173177  0.28166343  1
  O  O13  1  0.35101252  0.44953380  0.76352136  1
  O  O14  1  0.39426322  0.78065073  0.45302181  1
  O  O15  1  0.89684478  0.28270543  0.94841472  1
  O  O16  1  0.89151507  0.61442052  0.61838698  1
  O  O17  1  0.34736667  0.10042272  0.11662334  1
  O  O18  1  0.64898748  0.23647864  0.55046620  1
  O  O19  1  0.10736402  0.71833657  0.04826823  1
  O  O20  1  0.10315522  0.05158528  0.71729457  1
  O  O21  1  0.60573678  0.54697819  0.21934927  1
  O  O22  1  0.65263333  0.88337666  0.89957728  1
  O  O23  1  0.10848493  0.38161302  0.38557948  1
