# generated using pymatgen
data_Si
_symmetry_space_group_name_H-M   'P 1'
_cell_length_a   9.90215407
_cell_length_b   14.84162406
_cell_length_c   14.84162406
_cell_angle_alpha   118.30193819
_cell_angle_beta   93.54679651
_cell_angle_gamma   86.45320349
_symmetry_Int_Tables_number   1
_chemical_formula_structural   Si
_chemical_formula_sum   Si82
_cell_volume   1915.45676658
_cell_formula_units_Z   82
loop_
 _symmetry_equiv_pos_site_id
 _symmetry_equiv_pos_as_xyz
  1  'x, y, z'
loop_
 _atom_site_type_symbol
 _atom_site_label
 _atom_site_symmetry_multiplicity
 _atom_site_fract_x
 _atom_site_fract_y
 _atom_site_fract_z
 _atom_site_occupancy
  Si  Si0  1  0.10093162  0.45496127  0.34644896  1
  Si  Si1  1  0.39906838  0.34644896  0.45496127  1
  Si  Si2  1  0.89906838  0.54503873  0.65355104  1
  Si  Si3  1  0.60093162  0.65355104  0.54503873  1
  Si  Si4  1  0.10620512  0.59919195  0.32127510  1
  Si  Si5  1  0.39379488  0.32127510  0.59919195  1
  Si  Si6  1  0.89379488  0.40080805  0.67872490  1
  Si  Si7  1  0.60620512  0.67872490  0.40080805  1
  Si  Si8  1  0.23338719  0.72402413  0.45699087  1
  Si  Si9  1  0.26661281  0.45699087  0.72402413  1
  Si  Si10  1  0.76661281  0.27597587  0.54300913  1
  Si  Si11  1  0.73338719  0.54300913  0.27597587  1
  Si  Si12  1  0.11927945  0.88431643  0.54678094  1
  Si  Si13  1  0.38072055  0.54678094  0.88431643  1
  Si  Si14  1  0.88072055  0.11568357  0.45321906  1
  Si  Si15  1  0.61927945  0.45321906  0.11568357  1
  Si  Si16  1  0.14061553  0.55492274  0.65695006  1
  Si  Si17  1  0.35938447  0.65695006  0.55492274  1
  Si  Si18  1  0.85938447  0.44507726  0.34304994  1
  Si  Si19  1  0.64061553  0.34304994  0.44507726  1
  Si  Si20  1  0.99263388  0.95502727  0.82373530  1
  Si  Si21  1  0.50736612  0.82373530  0.95502727  1
  Si  Si22  1  0.00736612  0.04497273  0.17626470  1
  Si  Si23  1  0.49263388  0.17626470  0.04497273  1
  Si  Si24  1  0.17795260  0.93008834  0.71882593  1
  Si  Si25  1  0.32204740  0.71882593  0.93008834  1
  Si  Si26  1  0.82204740  0.06991166  0.28117407  1
  Si  Si27  1  0.67795260  0.28117407  0.06991166  1
  Si  Si28  1  0.99551764  0.82339031  0.87296247  1
  Si  Si29  1  0.50448236  0.87296247  0.82339031  1
  Si  Si30  1  0.00448236  0.17660969  0.12703753  1
  Si  Si31  1  0.49551764  0.12703753  0.17660969  1
  Si  Si32  1  0.31260236  0.79410809  0.72022526  1
  Si  Si33  1  0.18739764  0.72022526  0.79410809  1
  Si  Si34  1  0.68739764  0.20589191  0.27977474  1
  Si  Si35  1  0.81260236  0.27977474  0.20589191  1
  Si  Si36  1  0.09627399  0.35114105  0.88417960  1
  Si  Si37  1  0.40372601  0.88417960  0.35114105  1
  Si  Si38  1  0.90372601  0.64885895  0.11582040  1
  Si  Si39  1  0.59627399  0.11582040  0.64885895  1
  Si  Si40  1  0.10381188  0.34764618  0.72505641  1
  Si  Si41  1  0.39618812  0.72505641  0.34764618  1
  Si  Si42  1  0.89618812  0.65235382  0.27494359  1
  Si  Si43  1  0.60381188  0.27494359  0.65235382  1
  Si  Si44  1  0.26658884  0.60117559  0.21327562  1
  Si  Si45  1  0.23341116  0.21327562  0.60117559  1
  Si  Si46  1  0.73341116  0.39882441  0.78672438  1
  Si  Si47  1  0.76658884  0.78672438  0.39882441  1
  Si  Si48  1  0.37835380  0.45021577  0.09714932  1
  Si  Si49  1  0.12164620  0.09714932  0.45021577  1
  Si  Si50  1  0.62164620  0.54978423  0.90285068  1
  Si  Si51  1  0.87835380  0.90285068  0.54978423  1
  Si  Si52  1  0.25301167  0.48687691  0.97533447  1
  Si  Si53  1  0.24698833  0.97533447  0.48687691  1
  Si  Si54  1  0.74698833  0.51312309  0.02466553  1
  Si  Si55  1  0.75301167  0.02466553  0.51312309  1
  Si  Si56  1  0.14201974  0.64029264  0.09438090  1
  Si  Si57  1  0.35798026  0.09438090  0.64029264  1
  Si  Si58  1  0.85798026  0.35970736  0.90561910  1
  Si  Si59  1  0.64201974  0.90561910  0.35970736  1
  Si  Si60  1  0.18229029  0.29275774  0.21188836  1
  Si  Si61  1  0.31770971  0.21188836  0.29275774  1
  Si  Si62  1  0.81770971  0.70724226  0.78811164  1
  Si  Si63  1  0.68229029  0.78811164  0.70724226  1
  Si  Si64  1  0.30347003  0.29174857  0.07537430  1
  Si  Si65  1  0.19652997  0.07537430  0.29174857  1
  Si  Si66  1  0.69652997  0.70825143  0.92462570  1
  Si  Si67  1  0.80347003  0.92462570  0.70825143  1
  Si  Si68  1  0.99708832  0.13184214  0.94925648  1
  Si  Si69  1  0.50291168  0.94925648  0.13184214  1
  Si  Si70  1  0.00291168  0.86815786  0.05074352  1
  Si  Si71  1  0.49708832  0.05074352  0.86815786  1
  Si  Si72  1  0.17449180  0.21464009  0.91760436  1
  Si  Si73  1  0.32550820  0.91760436  0.21464009  1
  Si  Si74  1  0.82550820  0.78535991  0.08239564  1
  Si  Si75  1  0.67449180  0.08239564  0.78535991  1
  Si  Si76  1  0.30106944  0.08066638  0.78638428  1
  Si  Si77  1  0.19893056  0.78638428  0.08066638  1
  Si  Si78  1  0.69893056  0.91933362  0.21361572  1
  Si  Si79  1  0.80106944  0.21361572  0.91933362  1
  Si  Si80  1  0.25000000  0.49805055  0.49805055  1
  Si  Si81  1  0.75000000  0.50194945  0.50194945  1
