# generated using pymatgen
data_Li7Mn4CoO12
_symmetry_space_group_name_H-M   'P 1'
_cell_length_a   5.11100726
_cell_length_b   7.84849013
_cell_length_c   5.82746405
_cell_angle_alpha   100.61039061
_cell_angle_beta   106.81346181
_cell_angle_gamma   95.45734809
_symmetry_Int_Tables_number   1
_chemical_formula_structural   Li7Mn4CoO12
_chemical_formula_sum   'Li7 Mn4 Co1 O12'
_cell_volume   217.19049830
_cell_formula_units_Z   1
loop_
 _symmetry_equiv_pos_site_id
 _symmetry_equiv_pos_as_xyz
  1  'x, y, z'
loop_
 _atom_site_type_symbol
 _atom_site_label
 _atom_site_symmetry_multiplicity
 _atom_site_fract_x
 _atom_site_fract_y
 _atom_site_fract_z
 _atom_site_occupancy
  Li  Li0  1  0.49610909  0.17448927  0.91793434  1
  Li  Li1  1  0.49221439  0.50632716  0.25073934  1
  Li  Li2  1  0.50291559  0.50090793  0.75355543  1
  Li  Li3  1  0.51857770  0.82270321  0.08773295  1
  Li  Li4  1  0.49752135  0.81969024  0.57619985  1
  Li  Li5  1  0.49156639  0.17512943  0.41439229  1
  Li  Li6  1  0.00060160  0.66183342  0.16704085  1
  Mn  Mn7  1  0.00491426  0.99964228  0.00232098  1
  Mn  Mn8  1  0.00288985  0.66277161  0.66381878  1
  Mn  Mn9  1  0.99056130  0.33467010  0.83450844  1
  Mn  Mn10  1  0.00150640  0.99895072  0.49674841  1
  Co  Co11  1  0.00157462  0.34709364  0.33356166  1
  O  O12  1  0.23291987  0.93302505  0.79117252  1
  O  O13  1  0.22195590  0.23860476  0.09922346  1
  O  O14  1  0.20780147  0.23552067  0.61940466  1
  O  O15  1  0.22184811  0.56119790  0.93667525  1
  O  O16  1  0.23922018  0.58684357  0.47188027  1
  O  O17  1  0.23057887  0.93490388  0.29106357  1
  O  O18  1  0.76198558  0.40537824  0.02806722  1
  O  O19  1  0.78092818  0.76790854  0.39655523  1
  O  O20  1  0.78913174  0.77048849  0.87738766  1
  O  O21  1  0.77813125  0.06948285  0.21041179  1
  O  O22  1  0.78476752  0.08693603  0.71787089  1
  O  O23  1  0.74977878  0.40550101  0.56173415  1
