# generated using pymatgen
data_MnCuO3
_symmetry_space_group_name_H-M   'P 1'
_cell_length_a   5.41547405
_cell_length_b   5.41547405
_cell_length_c   5.41547411
_cell_angle_alpha   55.24450998
_cell_angle_beta   55.24450998
_cell_angle_gamma   55.24450807
_symmetry_Int_Tables_number   1
_chemical_formula_structural   MnCuO3
_chemical_formula_sum   'Mn2 Cu2 O6'
_cell_volume   99.89042161
_cell_formula_units_Z   2
loop_
 _symmetry_equiv_pos_site_id
 _symmetry_equiv_pos_as_xyz
  1  'x, y, z'
loop_
 _atom_site_type_symbol
 _atom_site_label
 _atom_site_symmetry_multiplicity
 _atom_site_fract_x
 _atom_site_fract_y
 _atom_site_fract_z
 _atom_site_occupancy
  Mn  Mn0  1  0.15502643  0.15502643  0.15502643  1
  Mn  Mn1  1  0.84497357  0.84497357  0.84497357  1
  Cu  Cu2  1  0.35711203  0.35711203  0.35711203  1
  Cu  Cu3  1  0.64288797  0.64288797  0.64288797  1
  O  O4  1  0.05224486  0.76801350  0.44121511  1
  O  O5  1  0.55878489  0.94775514  0.23198650  1
  O  O6  1  0.23198650  0.55878489  0.94775514  1
  O  O7  1  0.76801350  0.44121511  0.05224486  1
  O  O8  1  0.44121511  0.05224486  0.76801350  1
  O  O9  1  0.94775514  0.23198650  0.55878489  1
