# generated using pymatgen
data_Li7Mn4CoO12
_symmetry_space_group_name_H-M   'P 1'
_cell_length_a   5.02682205
_cell_length_b   5.82752956
_cell_length_c   7.93913955
_cell_angle_alpha   100.60648574
_cell_angle_beta   99.63889493
_cell_angle_gamma   73.14493935
_symmetry_Int_Tables_number   1
_chemical_formula_structural   Li7Mn4CoO12
_chemical_formula_sum   'Li7 Mn4 Co1 O12'
_cell_volume   217.16067491
_cell_formula_units_Z   1
loop_
 _symmetry_equiv_pos_site_id
 _symmetry_equiv_pos_as_xyz
  1  'x, y, z'
loop_
 _atom_site_type_symbol
 _atom_site_label
 _atom_site_symmetry_multiplicity
 _atom_site_fract_x
 _atom_site_fract_y
 _atom_site_fract_z
 _atom_site_occupancy
  Li  Li0  1  0.49741046  0.66829145  0.16070554  1
  Li  Li1  1  0.00545561  0.16390697  0.67189676  1
  Li  Li2  1  0.00436251  0.83211197  0.33402949  1
  Li  Li3  1  0.50063283  0.33409346  0.82981824  1
  Li  Li4  1  0.50325804  0.99869050  0.51089165  1
  Li  Li5  1  0.98997355  0.50096251  0.99141638  1
  Li  Li6  1  0.50197312  0.83079657  0.82955403  1
  Mn  Mn7  1  0.99039223  0.99769294  0.99188093  1
  Mn  Mn8  1  0.00021954  0.66976163  0.67164902  1
  Mn  Mn9  1  0.49431663  0.16576608  0.16227308  1
  Mn  Mn10  1  0.00471620  0.33467156  0.33662349  1
  Co  Co11  1  0.50717005  0.50491147  0.51391146  1
  O  O12  1  0.21135898  0.68252762  0.89867420  1
  O  O13  1  0.72995392  0.19123590  0.39575260  1
  O  O14  1  0.74648927  0.85909223  0.09227333  1
  O  O15  1  0.25927564  0.35797602  0.59056873  1
  O  O16  1  0.25935676  0.02134706  0.25578737  1
  O  O17  1  0.76639575  0.50309677  0.73872662  1
  O  O18  1  0.76831457  0.64703653  0.43716929  1
  O  O19  1  0.25909084  0.15710489  0.94507224  1
  O  O20  1  0.24669308  0.80588154  0.57673363  1
  O  O21  1  0.73445064  0.31426859  0.07815249  1
  O  O22  1  0.76732853  0.97998919  0.73652425  1
  O  O23  1  0.25141126  0.47878657  0.24991522  1
