# generated using pymatgen
data_Li7Mn4CoO12
_symmetry_space_group_name_H-M   'P 1'
_cell_length_a   5.03510043
_cell_length_b   5.09184954
_cell_length_c   8.95392182
_cell_angle_alpha   88.26502671
_cell_angle_beta   87.54603197
_cell_angle_gamma   108.01418709
_symmetry_Int_Tables_number   1
_chemical_formula_structural   Li7Mn4CoO12
_chemical_formula_sum   'Li7 Mn4 Co1 O12'
_cell_volume   217.87825234
_cell_formula_units_Z   1
loop_
 _symmetry_equiv_pos_site_id
 _symmetry_equiv_pos_as_xyz
  1  'x, y, z'
loop_
 _atom_site_type_symbol
 _atom_site_label
 _atom_site_symmetry_multiplicity
 _atom_site_fract_x
 _atom_site_fract_y
 _atom_site_fract_z
 _atom_site_occupancy
  Li  Li0  1  0.99544081  0.49664012  0.16155154  1
  Li  Li1  1  0.49127992  0.49493283  0.33246093  1
  Li  Li2  1  0.01971519  0.51450687  0.51174033  1
  Li  Li3  1  0.50626155  0.49986110  0.67501232  1
  Li  Li4  1  0.98511553  0.48895982  0.82184329  1
  Li  Li5  1  0.50263518  0.50519653  0.99119120  1
  Li  Li6  1  0.50062729  0.99735295  0.82943174  1
  Mn  Mn7  1  0.98883205  0.99265086  0.99429853  1
  Mn  Mn8  1  0.00270098  0.00373210  0.67151095  1
  Mn  Mn9  1  0.49186117  0.99371233  0.16322697  1
  Mn  Mn10  1  0.00313638  0.00156329  0.33673019  1
  Co  Co11  1  0.51163064  0.01324858  0.51108344  1
  O  O12  1  0.74327794  0.22748628  0.01309222  1
  O  O13  1  0.25477205  0.22955163  0.17866824  1
  O  O14  1  0.72634011  0.20591454  0.32702439  1
  O  O15  1  0.26390418  0.23652585  0.51321641  1
  O  O16  1  0.76969582  0.23654831  0.65940497  1
  O  O17  1  0.21130657  0.22004094  0.82730993  1
  O  O18  1  0.24642891  0.76587519  0.32673142  1
  O  O19  1  0.77261955  0.79175138  0.50776321  1
  O  O20  1  0.25521797  0.78038099  0.65454046  1
  O  O21  1  0.76644831  0.75538843  0.81829078  1
  O  O22  1  0.25734155  0.78391922  0.01654773  1
  O  O23  1  0.73341036  0.76425986  0.15732882  1
