# generated using pymatgen
data_LiCo2(PO4)2
_symmetry_space_group_name_H-M   'P 1'
_cell_length_a   8.80203601
_cell_length_b   8.17870738
_cell_length_c   15.13462611
_cell_angle_alpha   89.27660771
_cell_angle_beta   89.18281926
_cell_angle_gamma   89.88879350
_symmetry_Int_Tables_number   1
_chemical_formula_structural   LiCo2(PO4)2
_chemical_formula_sum   'Li6 Co12 P12 O48'
_cell_volume   1089.33145695
_cell_formula_units_Z   6
loop_
 _symmetry_equiv_pos_site_id
 _symmetry_equiv_pos_as_xyz
  1  'x, y, z'
loop_
 _atom_site_type_symbol
 _atom_site_label
 _atom_site_symmetry_multiplicity
 _atom_site_fract_x
 _atom_site_fract_y
 _atom_site_fract_z
 _atom_site_occupancy
  Li  Li0  1  0.23620833  0.96079497  0.58507458  1
  Li  Li1  1  0.25408750  0.33406963  0.25041006  1
  Li  Li2  1  0.29525285  0.53208581  0.91565764  1
  Li  Li3  1  0.74922680  0.66766463  0.74851506  1
  Li  Li4  1  0.76998945  0.02483324  0.41814310  1
  Li  Li5  1  0.85168326  0.98963843  0.05434474  1
  Co  Co6  1  0.05624813  0.66256928  0.40715979  1
  Co  Co7  1  0.08677916  0.83624768  0.77209487  1
  Co  Co8  1  0.09849070  0.66000920  0.07933692  1
  Co  Co9  1  0.39986926  0.16388207  0.42414990  1
  Co  Co10  1  0.42176847  0.33254421  0.72698484  1
  Co  Co11  1  0.43808684  0.14612984  0.08987596  1
  Co  Co12  1  0.55815888  0.84174752  0.91088026  1
  Co  Co13  1  0.57793622  0.66152890  0.26784874  1
  Co  Co14  1  0.59485583  0.83620390  0.58149758  1
  Co  Co15  1  0.89889847  0.34605444  0.92883498  1
  Co  Co16  1  0.92093426  0.16808019  0.23298991  1
  Co  Co17  1  0.94472054  0.35215582  0.59037984  1
  P  P18  1  0.05364900  0.26925753  0.40937035  1
  P  P19  1  0.07672085  0.22546988  0.77213205  1
  P  P20  1  0.11297664  0.27613856  0.07099071  1
  P  P21  1  0.38939329  0.77655838  0.42713963  1
  P  P22  1  0.41562971  0.71318120  0.73509712  1
  P  P23  1  0.43575376  0.75856640  0.09038052  1
  P  P24  1  0.55216428  0.23715284  0.90521795  1
  P  P25  1  0.58168539  0.26940714  0.26499685  1
  P  P26  1  0.61616901  0.22381385  0.57430450  1
  P  P27  1  0.89070912  0.72674625  0.92666482  1
  P  P28  1  0.91195142  0.78119836  0.23057802  1
  P  P29  1  0.94881623  0.73954069  0.59071398  1
  O  O30  1  0.01825721  0.56435010  0.59904764  1
  O  O31  1  0.04377980  0.77041112  0.96804167  1
  O  O32  1  0.05534468  0.85716208  0.63960172  1
  O  O33  1  0.04311463  0.77040930  0.29903005  1
  O  O34  1  0.06623033  0.35466745  0.84786064  1
  O  O35  1  0.05471874  0.05660048  0.81302244  1
  O  O36  1  0.05918995  0.22409470  0.51009335  1
  O  O37  1  0.08768198  0.29315480  0.17204020  1
  O  O38  1  0.15826529  0.44183625  0.02810954  1
  O  O39  1  0.21583000  0.26096983  0.36847830  1
  O  O40  1  0.23333553  0.23679782  0.72233283  1
  O  O41  1  0.23659899  0.14541883  0.05239113  1
  O  O42  1  0.27284112  0.71113953  0.79638298  1
  O  O43  1  0.25762374  0.65012199  0.44156910  1
  O  O44  1  0.27567686  0.76037404  0.13072477  1
  O  O45  1  0.32877381  0.94344885  0.46263296  1
  O  O46  1  0.42862387  0.78813414  0.32636802  1
  O  O47  1  0.43570223  0.70104720  0.99273116  1
  O  O48  1  0.43074735  0.54774250  0.68493905  1
  O  O49  1  0.41021193  0.85003623  0.66298200  1
  O  O50  1  0.43833071  0.23301921  0.20561655  1
  O  O51  1  0.45315131  0.36440004  0.85239729  1
  O  O52  1  0.46669837  0.27308837  0.53027781  1
  O  O53  1  0.49775176  0.06579374  0.88403644  1
  O  O54  1  0.51169190  0.93435873  0.09097718  1
  O  O55  1  0.53206266  0.72215336  0.47679478  1
  O  O56  1  0.54404706  0.64943308  0.14659530  1
  O  O57  1  0.55835741  0.73165752  0.79360662  1
  O  O58  1  0.58285164  0.14779784  0.34407218  1
  O  O59  1  0.54955442  0.44301426  0.30248280  1
  O  O60  1  0.53355196  0.27833413  0.00559817  1
  O  O61  1  0.58847188  0.22354296  0.67699070  1
  O  O62  1  0.67343074  0.05412436  0.54195779  1
  O  O63  1  0.72257074  0.26146056  0.87925664  1
  O  O64  1  0.74502156  0.34986640  0.55235160  1
  O  O65  1  0.72356106  0.25788578  0.20651009  1
  O  O66  1  0.76957785  0.85264160  0.95725155  1
  O  O67  1  0.76047614  0.77172018  0.28621695  1
  O  O68  1  0.78593013  0.74032199  0.63066616  1
  O  O69  1  0.83625109  0.55333508  0.95945532  1
  O  O70  1  0.90695719  0.72235310  0.82443908  1
  O  O71  1  0.94519092  0.78937873  0.49062383  1
  O  O72  1  0.91956847  0.94812703  0.18001664  1
  O  O73  1  0.92772314  0.64260103  0.16427374  1
  O  O74  1  0.95118685  0.26816236  0.70459238  1
  O  O75  1  0.94589395  0.14804672  0.36376006  1
  O  O76  1  0.96154516  0.21311524  0.02786780  1
  O  O77  1  0.98802724  0.44508151  0.39699074  1
