# generated using pymatgen
data_LuNbO4
_symmetry_space_group_name_H-M   'P 1'
_cell_length_a   3.99749660
_cell_length_b   6.97607643
_cell_length_c   7.12914866
_cell_angle_alpha   73.44098627
_cell_angle_beta   90.00000004
_cell_angle_gamma   73.35058650
_symmetry_Int_Tables_number   1
_chemical_formula_structural   LuNbO4
_chemical_formula_sum   'Lu2 Nb2 O8'
_cell_volume   181.85171671
_cell_formula_units_Z   2
loop_
 _symmetry_equiv_pos_site_id
 _symmetry_equiv_pos_as_xyz
  1  'x, y, z'
loop_
 _atom_site_type_symbol
 _atom_site_label
 _atom_site_symmetry_multiplicity
 _atom_site_fract_x
 _atom_site_fract_y
 _atom_site_fract_z
 _atom_site_occupancy
  Lu  Lu0  1  0.19748130  0.60863083  0.79545771  1
  Lu  Lu1  1  0.80611214  0.39136917  0.20454229  1
  Nb  Nb2  1  0.10481118  0.79810797  0.21397847  1
  Nb  Nb3  1  0.90291915  0.20189203  0.78602153  1
  O  O4  1  0.05301059  0.90208852  0.86764156  1
  O  O5  1  0.13132595  0.73437535  0.48210558  1
  O  O6  1  0.75600090  0.49143595  0.85856624  1
  O  O7  1  0.63155484  0.73996385  0.19945812  1
  O  O8  1  0.37151768  0.26003615  0.80054188  1
  O  O9  1  0.24743585  0.50856405  0.14143376  1
  O  O10  1  0.86570030  0.26562465  0.51789442  1
  O  O11  1  0.95509911  0.09791148  0.13235844  1
