# generated using pymatgen
data_Li7Mn4CoO12
_symmetry_space_group_name_H-M   'P 1'
_cell_length_a   5.93713873
_cell_length_b   5.97365278
_cell_length_c   6.51325826
_cell_angle_alpha   103.38431161
_cell_angle_beta   104.50400427
_cell_angle_gamma   86.71774482
_symmetry_Int_Tables_number   1
_chemical_formula_structural   Li7Mn4CoO12
_chemical_formula_sum   'Li7 Mn4 Co1 O12'
_cell_volume   217.56558132
_cell_formula_units_Z   1
loop_
 _symmetry_equiv_pos_site_id
 _symmetry_equiv_pos_as_xyz
  1  'x, y, z'
loop_
 _atom_site_type_symbol
 _atom_site_label
 _atom_site_symmetry_multiplicity
 _atom_site_fract_x
 _atom_site_fract_y
 _atom_site_fract_z
 _atom_site_occupancy
  Li  Li0  1  0.16555614  0.17286641  0.67630368  1
  Li  Li1  1  0.83502976  0.33895771  0.32902686  1
  Li  Li2  1  0.49927984  0.50287608  0.00370425  1
  Li  Li3  1  0.16581066  0.66269701  0.66899723  1
  Li  Li4  1  0.83647275  0.82288771  0.32122053  1
  Li  Li5  1  0.50153015  0.00110635  0.00384237  1
  Li  Li6  1  0.00013829  0.50023944  0.00410534  1
  Mn  Mn7  1  0.00187923  0.99925498  0.00035581  1
  Mn  Mn8  1  0.67134515  0.66855349  0.66554096  1
  Mn  Mn9  1  0.67006653  0.17204206  0.66791918  1
  Mn  Mn10  1  0.32676524  0.33376413  0.33281940  1
  Co  Co11  1  0.32431705  0.82441574  0.32607987  1
  O  O12  1  0.92055031  0.94294199  0.68370452  1
  O  O13  1  0.57481003  0.09801216  0.35244037  1
  O  O14  1  0.23127892  0.22973678  0.01656203  1
  O  O15  1  0.88057285  0.40456693  0.66292868  1
  O  O16  1  0.57766764  0.60423552  0.34277205  1
  O  O17  1  0.24561965  0.76555598  0.01184517  1
  O  O18  1  0.42055605  0.39631996  0.66239331  1
  O  O19  1  0.10345007  0.57821666  0.34329309  1
  O  O20  1  0.76836169  0.76776245  0.97961637  1
  O  O21  1  0.44477089  0.92631764  0.64974880  1
  O  O22  1  0.07994633  0.05465362  0.31245479  1
  O  O23  1  0.75422479  0.23201918  0.98232534  1
