# generated using pymatgen
data_KMg30BO31
_symmetry_space_group_name_H-M   'P 1'
_cell_length_a   8.61628087
_cell_length_b   8.53790568
_cell_length_c   8.66382759
_cell_angle_alpha   90.00000000
_cell_angle_beta   90.00000000
_cell_angle_gamma   90.00000000
_symmetry_Int_Tables_number   1
_chemical_formula_structural   KMg30BO31
_chemical_formula_sum   'K1 Mg30 B1 O31'
_cell_volume   637.35441931
_cell_formula_units_Z   1
loop_
 _symmetry_equiv_pos_site_id
 _symmetry_equiv_pos_as_xyz
  1  'x, y, z'
loop_
 _atom_site_type_symbol
 _atom_site_label
 _atom_site_symmetry_multiplicity
 _atom_site_fract_x
 _atom_site_fract_y
 _atom_site_fract_z
 _atom_site_occupancy
  K  K0  1  0.00011951  0.00000000  -0.00000000  1
  Mg  Mg1  1  0.00329285  -0.00000000  0.50000000  1
  Mg  Mg2  1  0.00272277  0.50000000  -0.00000000  1
  Mg  Mg3  1  0.49962598  0.00000000  -0.00000000  1
  Mg  Mg4  1  0.50511883  -0.00000000  0.50000000  1
  Mg  Mg5  1  0.49867827  0.50000000  -0.00000000  1
  Mg  Mg6  1  0.50545899  0.50000000  0.50000000  1
  Mg  Mg7  1  0.99996116  0.26276512  0.24441675  1
  Mg  Mg8  1  0.99996116  0.26276512  0.75558325  1
  Mg  Mg9  1  0.99996116  0.73723488  0.24441675  1
  Mg  Mg10  1  0.99996116  0.73723488  0.75558325  1
  Mg  Mg11  1  0.50058694  0.25022419  0.24920488  1
  Mg  Mg12  1  0.50058694  0.25022419  0.75079512  1
  Mg  Mg13  1  0.50058694  0.74977581  0.24920488  1
  Mg  Mg14  1  0.50058694  0.74977581  0.75079512  1
  Mg  Mg15  1  0.24997858  -0.00000000  0.24838416  1
  Mg  Mg16  1  0.24997858  0.00000000  0.75161584  1
  Mg  Mg17  1  0.24718632  0.50000000  0.25403801  1
  Mg  Mg18  1  0.24718632  0.50000000  0.74596199  1
  Mg  Mg19  1  0.75041177  0.00000000  0.24948095  1
  Mg  Mg20  1  0.75041177  0.00000000  0.75051905  1
  Mg  Mg21  1  0.75141463  0.50000000  0.23650303  1
  Mg  Mg22  1  0.75141463  0.50000000  0.76349697  1
  Mg  Mg23  1  0.25179395  0.25305530  -0.00000000  1
  Mg  Mg24  1  0.25471387  0.26854422  0.50000000  1
  Mg  Mg25  1  0.25179395  0.74694470  -0.00000000  1
  Mg  Mg26  1  0.25471387  0.73145578  0.50000000  1
  Mg  Mg27  1  0.74846593  0.24942733  -0.00000000  1
  Mg  Mg28  1  0.74656302  0.24755494  0.50000000  1
  Mg  Mg29  1  0.74846593  0.75057267  -0.00000000  1
  Mg  Mg30  1  0.74656302  0.75244506  0.50000000  1
  B  B31  1  0.93496517  0.50000000  0.50000000  1
  O  O32  1  0.27348329  0.00000000  -0.00000000  1
  O  O33  1  0.25782902  0.50000000  -0.00000000  1
  O  O34  1  0.27691110  0.50000000  0.50000000  1
  O  O35  1  0.72607355  0.00000000  -0.00000000  1
  O  O36  1  0.75588948  -0.00000000  0.50000000  1
  O  O37  1  0.74157948  0.50000000  -0.00000000  1
  O  O38  1  0.76438907  0.50000000  0.50000000  1
  O  O39  1  0.24818712  0.25161180  0.25284778  1
  O  O40  1  0.24818712  0.25161180  0.74715222  1
  O  O41  1  0.24818712  0.74838820  0.25284778  1
  O  O42  1  0.24818712  0.74838820  0.74715222  1
  O  O43  1  0.75226830  0.24935776  0.25229233  1
  O  O44  1  0.75226830  0.24935776  0.74770767  1
  O  O45  1  0.75226830  0.75064224  0.25229233  1
  O  O46  1  0.75226830  0.75064224  0.74770767  1
  O  O47  1  0.00042150  -0.00000000  0.27893939  1
  O  O48  1  0.00042150  -0.00000000  0.72106061  1
  O  O49  1  0.99554094  0.50000000  0.23558762  1
  O  O50  1  0.99554094  0.50000000  0.76441238  1
  O  O51  1  0.49955581  0.00000000  0.25763658  1
  O  O52  1  0.49955581  -0.00000000  0.74236342  1
  O  O53  1  0.50710890  0.50000000  0.25262275  1
  O  O54  1  0.50710890  0.50000000  0.74737725  1
  O  O55  1  0.00004506  0.27168626  -0.00000000  1
  O  O56  1  0.98975449  0.33893739  0.50000000  1
  O  O57  1  0.00004506  0.72831374  -0.00000000  1
  O  O58  1  0.98975449  0.66106261  0.50000000  1
  O  O59  1  0.50008839  0.25319153  -0.00000000  1
  O  O60  1  0.50688010  0.25024938  0.50000000  1
  O  O61  1  0.50008839  0.74680847  -0.00000000  1
  O  O62  1  0.50688010  0.74975062  0.50000000  1
