# generated using pymatgen
data_Li5V3P8O29
_symmetry_space_group_name_H-M   'P 1'
_cell_length_a   9.86525146
_cell_length_b   9.82058394
_cell_length_c   14.10880990
_cell_angle_alpha   89.90726455
_cell_angle_beta   90.46515463
_cell_angle_gamma   59.64662414
_symmetry_Int_Tables_number   1
_chemical_formula_structural   Li5V3P8O29
_chemical_formula_sum   'Li10 V6 P16 O58'
_cell_volume   1179.46519832
_cell_formula_units_Z   2
loop_
 _symmetry_equiv_pos_site_id
 _symmetry_equiv_pos_as_xyz
  1  'x, y, z'
loop_
 _atom_site_type_symbol
 _atom_site_label
 _atom_site_symmetry_multiplicity
 _atom_site_fract_x
 _atom_site_fract_y
 _atom_site_fract_z
 _atom_site_occupancy
  Li  Li0  1  0.90673637  0.77236869  0.05863567  1
  Li  Li1  1  0.77687427  0.30523698  0.05786560  1
  Li  Li2  1  0.31824912  0.90943315  0.05784896  1
  Li  Li3  1  0.67539909  0.23251824  0.44090234  1
  Li  Li4  1  0.33178232  0.76621105  0.56015052  1
  Li  Li5  1  0.22640559  0.68163858  0.94091387  1
  Li  Li6  1  0.32551595  0.33573084  0.61109449  1
  Li  Li7  1  0.22843793  0.08877159  0.44396177  1
  Li  Li8  1  0.08893901  0.23348967  0.93617849  1
  Li  Li9  1  0.96775678  0.98304212  0.50714297  1
  V  V10  1  0.56919570  0.43183577  0.25101826  1
  V  V11  1  0.43332375  0.56749367  0.75313936  1
  V  V12  1  0.57502444  0.99596430  0.75343743  1
  V  V13  1  0.43769714  0.00259398  0.25158129  1
  V  V14  1  0.00286576  0.56527257  0.25609570  1
  V  V15  1  0.99370679  0.43946951  0.74079022  1
  P  P16  1  0.91699852  0.76553913  0.84191251  1
  P  P17  1  0.77685983  0.91569158  0.34083465  1
  P  P18  1  0.91843599  0.30557788  0.34010771  1
  P  P19  1  0.66578090  0.66830382  0.13264698  1
  P  P20  1  0.65783560  0.67588544  0.62813383  1
  P  P21  1  0.77337092  0.31591249  0.84021251  1
  P  P22  1  0.68302710  0.22307751  0.65912028  1
  P  P23  1  0.31941570  0.91499643  0.84197654  1
  P  P24  1  0.68343131  0.08573683  0.15562781  1
  P  P25  1  0.31775288  0.77448819  0.34265155  1
  P  P26  1  0.23059285  0.68113979  0.16211665  1
  P  P27  1  0.33853699  0.32946882  0.37268113  1
  P  P28  1  0.32857723  0.33193541  0.86834523  1
  P  P29  1  0.08814393  0.69356212  0.65831148  1
  P  P30  1  0.22958629  0.08948857  0.65808367  1
  P  P31  1  0.08705736  0.23446045  0.15694757  1
  O  O32  1  0.00528986  0.79771553  0.57656989  1
  O  O33  1  0.91215784  0.74335679  0.33505303  1
  O  O34  1  0.76040128  0.99191731  0.07048772  1
  O  O35  1  0.74897486  0.91383936  0.83542390  1
  O  O36  1  0.90574945  0.61810418  0.82503042  1
  O  O37  1  0.81507646  0.66948239  0.16835478  1
  O  O38  1  0.91693681  0.46148585  0.33249336  1
  O  O39  1  0.00414393  0.24437145  0.06522204  1
  O  O40  1  0.91766000  0.33633608  0.83495794  1
  O  O41  1  0.66066435  0.81886398  0.67907356  1
  O  O42  1  0.61797834  0.91839719  0.32854653  1
  O  O43  1  0.81040705  0.52650329  0.67033913  1
  O  O44  1  0.64190649  0.68491630  0.02789260  1
  O  O45  1  0.65468354  0.68883495  0.52359641  1
  O  O46  1  0.67032963  0.51538955  0.17101134  1
  O  O47  1  0.47792184  0.90473931  0.82412098  1
  O  O48  1  0.51698126  0.81856221  0.17997617  1
  O  O49  1  0.74687525  0.33512288  0.33685754  1
  O  O50  1  0.78966386  0.20785405  0.74976416  1
  O  O51  1  0.76809225  0.20923717  0.56927245  1
  O  O52  1  0.76025324  0.24793920  0.93100679  1
  O  O53  1  0.62014672  0.47673948  0.81734933  1
  O  O54  1  0.51087937  0.67413125  0.66656170  1
  O  O55  1  0.66217070  0.25285485  0.15746718  1
  O  O56  1  0.47307350  0.62050217  0.32975510  1
  O  O57  1  0.34095483  0.92136096  0.33355372  1
  O  O58  1  0.79225062  0.00017136  0.24771331  1
  O  O59  1  0.78626806  0.00254638  0.42472909  1
  O  O60  1  0.23432319  0.99601635  0.57218921  1
  O  O61  1  0.65871874  0.07886146  0.66929657  1
  O  O62  1  0.51972752  0.37350274  0.66931988  1
  O  O63  1  0.33614589  0.74925415  0.84304357  1
  O  O64  1  0.49391598  0.31864647  0.33894875  1
  O  O65  1  0.38131323  0.51959830  0.18216823  1
  O  O66  1  0.24611667  0.75516892  0.07241125  1
  O  O67  1  0.23258685  0.79123050  0.43273202  1
  O  O68  1  0.20893237  0.79330483  0.25106376  1
  O  O69  1  0.26147257  0.66029703  0.66405521  1
  O  O70  1  0.47502547  0.18470643  0.82156680  1
  O  O71  1  0.52239715  0.09701826  0.17829112  1
  O  O72  1  0.32851011  0.48537300  0.83376913  1
  O  O73  1  0.32795295  0.32105459  0.97329386  1
  O  O74  1  0.33888138  0.31235944  0.47865073  1
  O  O75  1  0.19665153  0.47836865  0.33013963  1
  O  O76  1  0.38084037  0.09909747  0.67081830  1
  O  O77  1  0.33097168  0.18213382  0.32890987  1
  O  O78  1  0.08386090  0.66412715  0.16180519  1
  O  O79  1  0.01192570  0.78557954  0.75609864  1
  O  O80  1  0.99989881  0.76009126  0.93276280  1
  O  O81  1  0.10018618  0.52957304  0.66347278  1
  O  O82  1  0.18017507  0.33576197  0.82224627  1
  O  O83  1  0.09447147  0.38433595  0.17848044  1
  O  O84  1  0.25521822  0.08638438  0.16053225  1
  O  O85  1  0.24139063  0.00454992  0.93047221  1
  O  O86  1  0.21056869  0.00363891  0.75110755  1
  O  O87  1  0.08815213  0.25657866  0.65613154  1
  O  O88  1  0.00776304  0.19751988  0.42054677  1
  O  O89  1  0.99234772  0.21156733  0.24119048  1
