# generated using pymatgen
data_Li5V3P8O29
_symmetry_space_group_name_H-M   'P 1'
_cell_length_a   9.78131818
_cell_length_b   9.82053548
_cell_length_c   14.08454199
_cell_angle_alpha   90.47018113
_cell_angle_beta   90.45180905
_cell_angle_gamma   60.15030699
_symmetry_Int_Tables_number   1
_chemical_formula_structural   Li5V3P8O29
_chemical_formula_sum   'Li10 V6 P16 O58'
_cell_volume   1173.39142651
_cell_formula_units_Z   2
loop_
 _symmetry_equiv_pos_site_id
 _symmetry_equiv_pos_as_xyz
  1  'x, y, z'
loop_
 _atom_site_type_symbol
 _atom_site_label
 _atom_site_symmetry_multiplicity
 _atom_site_fract_x
 _atom_site_fract_y
 _atom_site_fract_z
 _atom_site_occupancy
  Li  Li0  1  0.77040945  0.91380872  0.55961072  1
  Li  Li1  1  0.90323438  0.32547066  0.55719035  1
  Li  Li2  1  0.66706404  0.67244768  0.88925787  1
  Li  Li3  1  0.76490219  0.32819800  0.06469427  1
  Li  Li4  1  0.32026637  0.91143824  0.06190235  1
  Li  Li5  1  0.32187947  0.76965542  0.55865768  1
  Li  Li6  1  0.23312606  0.66432926  0.94363618  1
  Li  Li7  1  0.09039958  0.67734885  0.43318304  1
  Li  Li8  1  0.22455240  0.09277579  0.43844226  1
  Li  Li9  1  0.95461418  0.01588002  0.99840394  1
  V  V10  1  0.56725357  0.42972635  0.25365758  1
  V  V11  1  0.43263988  0.56676097  0.74696696  1
  V  V12  1  0.57046935  0.00193676  0.75274669  1
  V  V13  1  0.43727936  0.99923458  0.24761947  1
  V  V14  1  0.99326220  0.56861966  0.24122634  1
  V  V15  1  0.00790167  0.42685775  0.75337893  1
  P  P16  1  0.91546784  0.77593724  0.83874666  1
  P  P17  1  0.77092384  0.91182903  0.34260456  1
  P  P18  1  0.91355278  0.32127995  0.34252151  1
  P  P19  1  0.66211041  0.66324913  0.12665989  1
  P  P20  1  0.67033382  0.66617265  0.62970627  1
  P  P21  1  0.77334765  0.31856028  0.84516717  1
  P  P22  1  0.68712140  0.22854835  0.66174911  1
  P  P23  1  0.31776793  0.90795388  0.84400958  1
  P  P24  1  0.69373747  0.08464485  0.15955056  1
  P  P25  1  0.32014050  0.77005890  0.34085079  1
  P  P26  1  0.22862917  0.68299328  0.15865047  1
  P  P27  1  0.32690389  0.33830741  0.36827615  1
  P  P28  1  0.33611752  0.33719347  0.87249062  1
  P  P29  1  0.08522878  0.68028683  0.65428648  1
  P  P30  1  0.23191315  0.08432535  0.66120145  1
  P  P31  1  0.08451369  0.22174979  0.16018695  1
  O  O32  1  0.00030599  0.75117085  0.56307936  1
  O  O33  1  0.91812721  0.74750204  0.33489026  1
  O  O34  1  0.79650066  0.00845508  0.07646729  1
  O  O35  1  0.74310624  0.91340206  0.83772147  1
  O  O36  1  0.90639341  0.62182125  0.83079014  1
  O  O37  1  0.80665080  0.67182301  0.16763196  1
  O  O38  1  0.90506121  0.47910362  0.32421379  1
  O  O39  1  0.99250906  0.20641864  0.07977586  1
  O  O40  1  0.92059945  0.33988622  0.83158158  1
  O  O41  1  0.67469561  0.81499665  0.66763307  1
  O  O42  1  0.61971942  0.90083794  0.31795035  1
  O  O43  1  0.81862168  0.51759766  0.67547731  1
  O  O44  1  0.66430035  0.65055739  0.01986118  1
  O  O45  1  0.67583588  0.65407971  0.52409883  1
  O  O46  1  0.67114938  0.50990811  0.16855301  1
  O  O47  1  0.48280771  0.88981236  0.83008619  1
  O  O48  1  0.50803485  0.80994951  0.16162441  1
  O  O49  1  0.74506324  0.34341918  0.33472583  1
  O  O50  1  0.78522411  0.20564427  0.75953881  1
  O  O51  1  0.77552077  0.23616735  0.57935572  1
  O  O52  1  0.78387158  0.23876534  0.93660708  1
  O  O53  1  0.62692520  0.48243161  0.83060188  1
  O  O54  1  0.51526004  0.67320185  0.66862993  1
  O  O55  1  0.65873195  0.26010896  0.16601028  1
  O  O56  1  0.48103267  0.62016174  0.32225323  1
  O  O57  1  0.33733334  0.91764657  0.34179746  1
  O  O58  1  0.78843847  0.01009804  0.25758348  1
  O  O59  1  0.75641882  0.99006629  0.43551645  1
  O  O60  1  0.23805731  0.99919918  0.57083606  1
  O  O61  1  0.66439047  0.08340925  0.66135999  1
  O  O62  1  0.52565521  0.38118710  0.67828895  1
  O  O63  1  0.33742584  0.74005091  0.83612072  1
  O  O64  1  0.47689264  0.34001469  0.32254561  1
  O  O65  1  0.38545974  0.52784839  0.17418141  1
  O  O66  1  0.23208012  0.76710103  0.07021772  1
  O  O67  1  0.24436508  0.75556723  0.43002801  1
  O  O68  1  0.20906680  0.79147409  0.25065846  1
  O  O69  1  0.25010023  0.66620223  0.65744439  1
  O  O70  1  0.48001536  0.19221272  0.82925709  1
  O  O71  1  0.53800697  0.08339799  0.16663018  1
  O  O72  1  0.32560240  0.49027932  0.83166706  1
  O  O73  1  0.31820636  0.34730258  0.97697511  1
  O  O74  1  0.33191598  0.34283517  0.47386178  1
  O  O75  1  0.18111715  0.48746560  0.32677760  1
  O  O76  1  0.38304402  0.09213199  0.67951891  1
  O  O77  1  0.33015883  0.18629550  0.32969732  1
  O  O78  1  0.08799791  0.65604571  0.15963609  1
  O  O79  1  0.98865285  0.79553307  0.74068531  1
  O  O80  1  0.00832387  0.78753740  0.91968141  1
  O  O81  1  0.09560160  0.52219891  0.67787541  1
  O  O82  1  0.18498140  0.33644685  0.82356492  1
  O  O83  1  0.08966794  0.37478372  0.16867821  1
  O  O84  1  0.25623505  0.07950758  0.16225162  1
  O  O85  1  0.23413679  0.98558445  0.93334425  1
  O  O86  1  0.20988803  0.99891489  0.75209748  1
  O  O87  1  0.08464525  0.25231875  0.66162307  1
  O  O88  1  0.99580242  0.24638767  0.43404428  1
  O  O89  1  0.01121732  0.20103760  0.25879755  1
