# generated using pymatgen
data_Li5V3P8O29
_symmetry_space_group_name_H-M   'P 1'
_cell_length_a   9.83900974
_cell_length_b   9.83839891
_cell_length_c   14.12351585
_cell_angle_alpha   90.40644714
_cell_angle_beta   90.42920538
_cell_angle_gamma   60.03292776
_symmetry_Int_Tables_number   1
_chemical_formula_structural   Li5V3P8O29
_chemical_formula_sum   'Li10 V6 P16 O58'
_cell_volume   1184.34393089
_cell_formula_units_Z   2
loop_
 _symmetry_equiv_pos_site_id
 _symmetry_equiv_pos_as_xyz
  1  'x, y, z'
loop_
 _atom_site_type_symbol
 _atom_site_label
 _atom_site_symmetry_multiplicity
 _atom_site_fract_x
 _atom_site_fract_y
 _atom_site_fract_z
 _atom_site_occupancy
  Li  Li0  1  0.90895205  0.32048230  0.56242959  1
  Li  Li1  1  0.67676337  0.67356189  0.88922666  1
  Li  Li2  1  0.77387145  0.31229586  0.05950851  1
  Li  Li3  1  0.30152195  0.91886613  0.06095595  1
  Li  Li4  1  0.68396507  0.22105170  0.44199509  1
  Li  Li5  1  0.31456831  0.77508450  0.55796749  1
  Li  Li6  1  0.68788275  0.08775658  0.93865006  1
  Li  Li7  1  0.22368321  0.68564190  0.94596952  1
  Li  Li8  1  0.08726157  0.68629603  0.43806729  1
  Li  Li9  1  0.22863651  0.09458648  0.44088088  1
  V  V10  1  0.56848194  0.42890482  0.25272346  1
  V  V11  1  0.43034428  0.56500439  0.74853593  1
  V  V12  1  0.56955118  0.99526363  0.74613484  1
  V  V13  1  0.43403156  0.00108740  0.24891979  1
  V  V14  1  0.99748299  0.57002781  0.24509388  1
  V  V15  1  0.00386635  0.43252503  0.75486674  1
  P  P16  1  0.91431048  0.77242490  0.83897863  1
  P  P17  1  0.77041515  0.91301932  0.33805298  1
  P  P18  1  0.91459978  0.32164601  0.34339743  1
  P  P19  1  0.66590331  0.66294562  0.12792675  1
  P  P20  1  0.66443879  0.66269005  0.62942857  1
  P  P21  1  0.76948174  0.32291635  0.84101336  1
  P  P22  1  0.68356464  0.22829071  0.65928481  1
  P  P23  1  0.32329003  0.90656349  0.84224607  1
  P  P24  1  0.67903525  0.08704888  0.15632019  1
  P  P25  1  0.32309955  0.76765382  0.33993082  1
  P  P26  1  0.23292422  0.67670022  0.16040174  1
  P  P27  1  0.32907094  0.33688822  0.37064156  1
  P  P28  1  0.33812061  0.33038482  0.87056479  1
  P  P29  1  0.08491984  0.67973885  0.65575116  1
  P  P30  1  0.23182350  0.08733749  0.66040035  1
  P  P31  1  0.08430896  0.23103355  0.16010713  1
  O  O32  1  0.01628568  0.75348341  0.56345038  1
  O  O33  1  0.91767008  0.74421209  0.33584088  1
  O  O34  1  0.74728094  0.01367974  0.06366621  1
  O  O35  1  0.74940589  0.91979097  0.84102185  1
  O  O36  1  0.88799674  0.62871530  0.82429978  1
  O  O37  1  0.81557006  0.66342177  0.17304466  1
  O  O38  1  0.90480948  0.48025929  0.32256529  1
  O  O39  1  0.98887593  0.24121333  0.07590318  1
  O  O40  1  0.91113374  0.34635054  0.84173186  1
  O  O41  1  0.66196189  0.81217437  0.67409738  1
  O  O42  1  0.62108386  0.90172434  0.32311939  1
  O  O43  1  0.81359129  0.51430765  0.66894936  1
  O  O44  1  0.67301460  0.66157209  0.02162441  1
  O  O45  1  0.65081642  0.66557986  0.52456346  1
  O  O46  1  0.67191218  0.51151061  0.16513545  1
  O  O47  1  0.48938211  0.88458383  0.82742138  1
  O  O48  1  0.51551386  0.81264525  0.16501755  1
  O  O49  1  0.75049073  0.33656929  0.34266463  1
  O  O50  1  0.79051782  0.21414295  0.74999250  1
  O  O51  1  0.75444569  0.24858078  0.57061918  1
  O  O52  1  0.74887234  0.24937956  0.92834500  1
  O  O53  1  0.62016166  0.48772909  0.82296435  1
  O  O54  1  0.51128869  0.66674150  0.67246942  1
  O  O55  1  0.66224699  0.25350424  0.16591051  1
  O  O56  1  0.48282239  0.61844806  0.32158678  1
  O  O57  1  0.33920991  0.91610436  0.33896043  1
  O  O58  1  0.79294572  0.99034708  0.24232335  1
  O  O59  1  0.77137379  0.00382781  0.42218897  1
  O  O60  1  0.24263281  0.99803329  0.57080468  1
  O  O61  1  0.65976440  0.08793773  0.66142496  1
  O  O62  1  0.52418126  0.38227080  0.68005057  1
  O  O63  1  0.33885988  0.73909458  0.83718386  1
  O  O64  1  0.48494494  0.32861660  0.33370589  1
  O  O65  1  0.37914404  0.51797576  0.17737936  1
  O  O66  1  0.23810473  0.75780453  0.07208782  1
  O  O67  1  0.24624045  0.75636597  0.42887312  1
  O  O68  1  0.21251532  0.78911801  0.25007011  1
  O  O69  1  0.25457692  0.66049247  0.66536484  1
  O  O70  1  0.48504003  0.17864343  0.83148807  1
  O  O71  1  0.51830901  0.10018625  0.17729791  1
  O  O72  1  0.33878197  0.48005967  0.82533821  1
  O  O73  1  0.34037439  0.34500430  0.97511083  1
  O  O74  1  0.32111279  0.34872247  0.47621320  1
  O  O75  1  0.18168073  0.48799830  0.32614178  1
  O  O76  1  0.37865229  0.10214108  0.67620240  1
  O  O77  1  0.32429922  0.18861743  0.33254920  1
  O  O78  1  0.08448100  0.65935690  0.16584211  1
  O  O79  1  0.99054313  0.79340113  0.74250336  1
  O  O80  1  0.01440886  0.75603340  0.92156582  1
  O  O81  1  0.09412970  0.52169171  0.67400374  1
  O  O82  1  0.18693006  0.33638707  0.82801748  1
  O  O83  1  0.09429837  0.38289448  0.17731669  1
  O  O84  1  0.25121604  0.08584773  0.15985011  1
  O  O85  1  0.24744632  0.98527629  0.93232570  1
  O  O86  1  0.21719529  0.99439153  0.75092251  1
  O  O87  1  0.08125521  0.24891752  0.66272471  1
  O  O88  1  0.00176727  0.24785479  0.43389615  1
  O  O89  1  0.00732974  0.20838889  0.25583925  1
