# generated using pymatgen
data_Li5V3P8O29
_symmetry_space_group_name_H-M   'P 1'
_cell_length_a   9.82236634
_cell_length_b   9.81043080
_cell_length_c   14.14924809
_cell_angle_alpha   90.74695360
_cell_angle_beta   90.44203646
_cell_angle_gamma   60.24782406
_symmetry_Int_Tables_number   1
_chemical_formula_structural   Li5V3P8O29
_chemical_formula_sum   'Li10 V6 P16 O58'
_cell_volume   1183.61367738
_cell_formula_units_Z   2
loop_
 _symmetry_equiv_pos_site_id
 _symmetry_equiv_pos_as_xyz
  1  'x, y, z'
loop_
 _atom_site_type_symbol
 _atom_site_label
 _atom_site_symmetry_multiplicity
 _atom_site_fract_x
 _atom_site_fract_y
 _atom_site_fract_z
 _atom_site_occupancy
  Li  Li0  1  0.77041938  0.90992197  0.55741878  1
  Li  Li1  1  0.91683242  0.31023303  0.56121076  1
  Li  Li2  1  0.66869615  0.67740539  0.89226664  1
  Li  Li3  1  0.76865617  0.32371567  0.06156221  1
  Li  Li4  1  0.32218720  0.91095363  0.06465331  1
  Li  Li5  1  0.68519374  0.22653882  0.44121656  1
  Li  Li6  1  0.31252287  0.77816426  0.55445225  1
  Li  Li7  1  0.23221895  0.66717111  0.94401134  1
  Li  Li8  1  0.09379950  0.67730387  0.43356694  1
  Li  Li9  1  0.95450728  0.01497353  -0.00017784  1
  V  V10  1  0.56686725  0.43435152  0.24855923  1
  V  V11  1  0.43227433  0.56742748  0.74693464  1
  V  V12  1  0.56350502  0.00145089  0.75502873  1
  V  V13  1  0.43316008  0.00363755  0.24910181  1
  V  V14  1  0.99478354  0.56795521  0.24509381  1
  V  V15  1  0.00787502  0.42898354  0.75267009  1
  P  P16  1  0.91496200  0.77764442  0.83920624  1
  P  P17  1  0.76722042  0.91412389  0.33988084  1
  P  P18  1  0.91300558  0.32051346  0.34374034  1
  P  P19  1  0.66234804  0.66597138  0.12764230  1
  P  P20  1  0.66992372  0.66506738  0.63133835  1
  P  P21  1  0.77427406  0.31974254  0.84133523  1
  P  P22  1  0.68200178  0.22872492  0.65990012  1
  P  P23  1  0.31529808  0.90980865  0.84604157  1
  P  P24  1  0.69265483  0.08420233  0.15760917  1
  P  P25  1  0.32131967  0.77225606  0.33986010  1
  P  P26  1  0.22764276  0.68230970  0.16043679  1
  P  P27  1  0.33321503  0.33864375  0.36667005  1
  P  P28  1  0.33393922  0.33657027  0.87126622  1
  P  P29  1  0.08505014  0.68158372  0.65496164  1
  P  P30  1  0.23017400  0.08328270  0.66332476  1
  P  P31  1  0.08287125  0.22200180  0.16093253  1
  O  O32  1  0.99946973  0.75092001  0.56424836  1
  O  O33  1  0.91519797  0.75010342  0.33811478  1
  O  O34  1  0.79759727  0.00916780  0.07567899  1
  O  O35  1  0.74511885  0.91039411  0.84076824  1
  O  O36  1  0.90999938  0.62005235  0.82921747  1
  O  O37  1  0.80377405  0.67285820  0.17032644  1
  O  O38  1  0.90542374  0.47861561  0.32201348  1
  O  O39  1  0.99165307  0.20366771  0.08137536  1
  O  O40  1  0.91874985  0.34453041  0.83140275  1
  O  O41  1  0.66680357  0.81598477  0.67451696  1
  O  O42  1  0.61955638  0.90055764  0.31930375  1
  O  O43  1  0.81955043  0.51774824  0.67448264  1
  O  O44  1  0.66362290  0.64931130  0.02146816  1
  O  O45  1  0.67458979  0.66134107  0.52633519  1
  O  O46  1  0.66938820  0.51047126  0.16827436  1
  O  O47  1  0.48162789  0.88980432  0.83181619  1
  O  O48  1  0.50707525  0.81083462  0.16230114  1
  O  O49  1  0.74356332  0.34186422  0.33514292  1
  O  O50  1  0.78967150  0.21143424  0.75090054  1
  O  O51  1  0.75703463  0.24440487  0.57182852  1
  O  O52  1  0.78469957  0.23591154  0.93048667  1
  O  O53  1  0.62621552  0.48212674  0.82843092  1
  O  O54  1  0.51798468  0.66700613  0.66916746  1
  O  O55  1  0.65744123  0.25987749  0.16421659  1
  O  O56  1  0.48005353  0.61935507  0.31898694  1
  O  O57  1  0.34438518  0.91424393  0.33819762  1
  O  O58  1  0.78804386  0.00954296  0.25536570  1
  O  O59  1  0.75267856  0.00155455  0.43111549  1
  O  O60  1  0.22547770  0.99249547  0.58034069  1
  O  O61  1  0.66576623  0.08131288  0.66016479  1
  O  O62  1  0.52214450  0.37935777  0.67957129  1
  O  O63  1  0.33509711  0.74122270  0.83510219  1
  O  O64  1  0.48495070  0.33798529  0.32165076  1
  O  O65  1  0.38320489  0.52582918  0.17369332  1
  O  O66  1  0.22929200  0.76486769  0.07185113  1
  O  O67  1  0.24812680  0.75284056  0.42781483  1
  O  O68  1  0.20854036  0.79058606  0.25105481  1
  O  O69  1  0.25046295  0.66449871  0.65694076  1
  O  O70  1  0.47824341  0.18515381  0.82790857  1
  O  O71  1  0.54059988  0.07767662  0.16400462  1
  O  O72  1  0.33090617  0.48538089  0.83174918  1
  O  O73  1  0.32216465  0.34111865  0.97536413  1
  O  O74  1  0.35567783  0.33540996  0.47104264  1
  O  O75  1  0.18408069  0.49001019  0.33206606  1
  O  O76  1  0.38010612  0.09327911  0.67563161  1
  O  O77  1  0.33346865  0.19283288  0.32137326  1
  O  O78  1  0.08804283  0.65316771  0.16499707  1
  O  O79  1  0.98947789  0.79631209  0.74115549  1
  O  O80  1  0.01187100  0.78259892  0.91947442  1
  O  O81  1  0.09518145  0.52298138  0.67785641  1
  O  O82  1  0.18563968  0.33601975  0.82260154  1
  O  O83  1  0.08250655  0.37791088  0.16824311  1
  O  O84  1  0.25392101  0.08206130  0.16227263  1
  O  O85  1  0.23891567  0.98101626  0.93785821  1
  O  O86  1  0.20587283  0.00876509  0.76006835  1
  O  O87  1  0.08358428  0.25378460  0.66457220  1
  O  O88  1  0.98237178  0.25312440  0.43651845  1
  O  O89  1  0.00946803  0.20249519  0.25948436  1
