# generated using pymatgen
data_YbCl3O13
_symmetry_space_group_name_H-M   'P 1'
_cell_length_a   6.87432864
_cell_length_b   8.21369692
_cell_length_c   9.99950715
_cell_angle_alpha   75.92002391
_cell_angle_beta   74.93531006
_cell_angle_gamma   76.74868909
_symmetry_Int_Tables_number   1
_chemical_formula_structural   YbCl3O13
_chemical_formula_sum   'Yb2 Cl6 O26'
_cell_volume   520.45413285
_cell_formula_units_Z   2
loop_
 _symmetry_equiv_pos_site_id
 _symmetry_equiv_pos_as_xyz
  1  'x, y, z'
loop_
 _atom_site_type_symbol
 _atom_site_label
 _atom_site_symmetry_multiplicity
 _atom_site_fract_x
 _atom_site_fract_y
 _atom_site_fract_z
 _atom_site_occupancy
  Yb  Yb0  1  0.36048128  0.33558408  0.32079403  1
  Yb  Yb1  1  0.63951872  0.66441592  0.67920597  1
  Cl  Cl2  1  0.70944303  0.90062540  0.30541446  1
  Cl  Cl3  1  0.29055697  0.09937460  0.69458554  1
  Cl  Cl4  1  0.19963337  0.68290741  0.52168336  1
  Cl  Cl5  1  0.80036663  0.31709259  0.47831664  1
  Cl  Cl6  1  0.76668603  0.33378673  0.99206998  1
  Cl  Cl7  1  0.23331397  0.66621327  0.00793002  1
  O  O8  1  0.62369210  0.81560892  0.23062166  1
  O  O9  1  0.37630790  0.18439108  0.76937834  1
  O  O10  1  0.56602027  0.06036174  0.33215988  1
  O  O11  1  0.43397973  0.93963826  0.66784012  1
  O  O12  1  0.73155031  0.79269399  0.44309835  1
  O  O13  1  0.26844969  0.20730601  0.55690165  1
  O  O14  1  0.90594582  0.94106658  0.22833662  1
  O  O15  1  0.09405418  0.05893342  0.77166338  1
  O  O16  1  0.18535931  0.86160961  0.46533479  1
  O  O17  1  0.81464069  0.13839039  0.53466521  1
  O  O18  1  0.22811421  0.58970593  0.40870219  1
  O  O19  1  0.77188579  0.41029407  0.59129781  1
  O  O20  1  0.01248924  0.64735270  0.62708009  1
  O  O21  1  0.98751076  0.35264730  0.37291991  1
  O  O22  1  0.37049789  0.61690771  0.59312106  1
  O  O23  1  0.62950211  0.38309229  0.40687894  1
  O  O24  1  0.97265484  0.28290271  0.01549645  1
  O  O25  1  0.02734516  0.71709729  0.98450355  1
  O  O26  1  0.69175983  0.20330784  0.95902237  1
  O  O27  1  0.30824017  0.79669216  0.04097763  1
  O  O28  1  0.76608001  0.48618539  0.87666916  1
  O  O29  1  0.23391999  0.51381461  0.12333084  1
  O  O30  1  0.63292810  0.39105508  0.12041269  1
  O  O31  1  0.36707190  0.60894492  0.87958731  1
  O  O32  1  0.72998715  0.85627105  0.80691357  1
  O  O33  1  0.27001285  0.14372895  0.19308643  1
