# generated using pymatgen
data_Li5V3P8O29
_symmetry_space_group_name_H-M   'P 1'
_cell_length_a   9.79989693
_cell_length_b   9.82395787
_cell_length_c   14.13550568
_cell_angle_alpha   90.09629506
_cell_angle_beta   90.57668910
_cell_angle_gamma   60.21871863
_symmetry_Int_Tables_number   1
_chemical_formula_structural   Li5V3P8O29
_chemical_formula_sum   'Li10 V6 P16 O58'
_cell_volume   1181.07576676
_cell_formula_units_Z   2
loop_
 _symmetry_equiv_pos_site_id
 _symmetry_equiv_pos_as_xyz
  1  'x, y, z'
loop_
 _atom_site_type_symbol
 _atom_site_label
 _atom_site_symmetry_multiplicity
 _atom_site_fract_x
 _atom_site_fract_y
 _atom_site_fract_z
 _atom_site_occupancy
  Li  Li0  1  0.77552642  0.91816809  0.55648733  1
  Li  Li1  1  0.90979516  0.31975503  0.55652248  1
  Li  Li2  1  0.67707515  0.67199819  0.89291326  1
  Li  Li3  1  0.76941064  0.32136579  0.06459709  1
  Li  Li4  1  0.32788130  0.90504860  0.06062099  1
  Li  Li5  1  0.32281870  0.77108008  0.56033507  1
  Li  Li6  1  0.66902677  0.09723659  0.94284274  1
  Li  Li7  1  0.09107189  0.68372302  0.43541020  1
  Li  Li8  1  0.22250121  0.09387125  0.44148264  1
  Li  Li9  1  0.03935361  0.94505804  0.99986753  1
  V  V10  1  0.56785657  0.43486948  0.25098478  1
  V  V11  1  0.42980865  0.56307750  0.75083547  1
  V  V12  1  0.56925465  0.00013933  0.74668095  1
  V  V13  1  0.43316194  0.00152093  0.24796318  1
  V  V14  1  0.99867004  0.56762760  0.24182857  1
  V  V15  1  0.00274200  0.43481427  0.75694780  1
  P  P16  1  0.91421893  0.78138211  0.84137983  1
  P  P17  1  0.77106866  0.90924443  0.33953864  1
  P  P18  1  0.91484221  0.32149445  0.34035419  1
  P  P19  1  0.66121946  0.67059819  0.12852344  1
  P  P20  1  0.66700091  0.66470722  0.63139463  1
  P  P21  1  0.77067384  0.31709751  0.84433640  1
  P  P22  1  0.68666663  0.23092442  0.65938274  1
  P  P23  1  0.31983472  0.90453667  0.84141036  1
  P  P24  1  0.68411326  0.08886262  0.15849649  1
  P  P25  1  0.32277886  0.76871930  0.34415785  1
  P  P26  1  0.22618856  0.69128981  0.16229235  1
  P  P27  1  0.33316348  0.33218158  0.36629537  1
  P  P28  1  0.33922291  0.33058326  0.87174763  1
  P  P29  1  0.08446734  0.68129856  0.65729337  1
  P  P30  1  0.22819426  0.08863290  0.66103482  1
  P  P31  1  0.08347362  0.22091910  0.15857712  1
  O  O32  1  0.00263624  0.75840520  0.56616362  1
  O  O33  1  0.91844525  0.74488099  0.33563330  1
  O  O34  1  0.76057534  0.01081067  0.06814039  1
  O  O35  1  0.74052136  0.92222132  0.83601988  1
  O  O36  1  0.90024757  0.63011220  0.83540392  1
  O  O37  1  0.80302662  0.67960350  0.16900498  1
  O  O38  1  0.90796301  0.47840726  0.31878504  1
  O  O39  1  0.99434081  0.19782092  0.07962249  1
  O  O40  1  0.90984185  0.34555657  0.84294987  1
  O  O41  1  0.67178796  0.81421137  0.66858057  1
  O  O42  1  0.61839474  0.90041400  0.31666937  1
  O  O43  1  0.81635426  0.51873302  0.67646163  1
  O  O44  1  0.64474159  0.68279130  0.02213003  1
  O  O45  1  0.66228502  0.66194607  0.52624206  1
  O  O46  1  0.67147731  0.51437898  0.16267688  1
  O  O47  1  0.48265361  0.89125761  0.82964737  1
  O  O48  1  0.50512894  0.81710298  0.16919579  1
  O  O49  1  0.74745938  0.34536497  0.33245453  1
  O  O50  1  0.78690365  0.20735074  0.75616889  1
  O  O51  1  0.77124038  0.24258861  0.57676098  1
  O  O52  1  0.75973656  0.23900437  0.93308032  1
  O  O53  1  0.61831503  0.48015353  0.82716499  1
  O  O54  1  0.51653547  0.66599150  0.67328448  1
  O  O55  1  0.66015376  0.25625917  0.16259810  1
  O  O56  1  0.48223452  0.62579808  0.32470183  1
  O  O57  1  0.33537150  0.92115275  0.33968155  1
  O  O58  1  0.78987223  0.00095311  0.25017330  1
  O  O59  1  0.75598905  0.99108898  0.43024031  1
  O  O60  1  0.24419083  0.99870288  0.57179172  1
  O  O61  1  0.66465314  0.08490293  0.65806966  1
  O  O62  1  0.52601850  0.38145083  0.67788519  1
  O  O63  1  0.34224044  0.73680039  0.82887634  1
  O  O64  1  0.47792152  0.33226489  0.32336735  1
  O  O65  1  0.38583034  0.53928822  0.17030068  1
  O  O66  1  0.21004132  0.79714198  0.08198981  1
  O  O67  1  0.24642695  0.76136192  0.43462711  1
  O  O68  1  0.20384402  0.78807194  0.25931577  1
  O  O69  1  0.25276727  0.66288125  0.66096559  1
  O  O70  1  0.48759610  0.18434562  0.83286544  1
  O  O71  1  0.52525672  0.09076600  0.17447459  1
  O  O72  1  0.33728382  0.47855698  0.82166609  1
  O  O73  1  0.34300554  0.34101226  0.97595397  1
  O  O74  1  0.33302022  0.31021998  0.47056820  1
  O  O75  1  0.18328164  0.48290107  0.32989737  1
  O  O76  1  0.38054999  0.09616951  0.68147863  1
  O  O77  1  0.33103787  0.18146152  0.31934286  1
  O  O78  1  0.09149759  0.65276541  0.16408327  1
  O  O79  1  0.99061616  0.79639074  0.74340712  1
  O  O80  1  0.99777151  0.80128849  0.92304088  1
  O  O81  1  0.09575153  0.52297037  0.67561204  1
  O  O82  1  0.18691757  0.33632199  0.82852832  1
  O  O83  1  0.08200850  0.37682892  0.16360120  1
  O  O84  1  0.25677366  0.07937415  0.16039097  1
  O  O85  1  0.23617106  0.97408424  0.93144341  1
  O  O86  1  0.21062891  0.99849917  0.75145114  1
  O  O87  1  0.08287914  0.25237401  0.66173060  1
  O  O88  1  0.99782467  0.25041790  0.43233831  1
  O  O89  1  0.01440705  0.20003975  0.25839958  1
