# generated using pymatgen
data_Li9Cr12Ni7O48
_symmetry_space_group_name_H-M   'P 1'
_cell_length_a   5.07085356
_cell_length_b   10.24664027
_cell_length_c   17.34732313
_cell_angle_alpha   89.81791438
_cell_angle_beta   89.80283548
_cell_angle_gamma   89.97784807
_symmetry_Int_Tables_number   1
_chemical_formula_structural   Li9Cr12Ni7O48
_chemical_formula_sum   'Li9 Cr12 Ni7 O48'
_cell_volume   901.34329287
_cell_formula_units_Z   1
loop_
 _symmetry_equiv_pos_site_id
 _symmetry_equiv_pos_as_xyz
  1  'x, y, z'
loop_
 _atom_site_type_symbol
 _atom_site_label
 _atom_site_symmetry_multiplicity
 _atom_site_fract_x
 _atom_site_fract_y
 _atom_site_fract_z
 _atom_site_occupancy
  Li  Li0  1  0.09459091  0.24959593  0.24858009  1
  Li  Li1  1  0.24545705  0.42109856  0.97200464  1
  Li  Li2  1  0.24937972  0.57878648  0.47493368  1
  Li  Li3  1  0.24938422  0.92132029  0.47521364  1
  Li  Li4  1  0.25455978  0.25109876  0.80263986  1
  Li  Li5  1  0.74812587  0.75101671  0.19367428  1
  Li  Li6  1  0.75386511  0.92171774  0.02796224  1
  Li  Li7  1  0.75978782  0.25092406  0.69814206  1
  Li  Li8  1  0.90517528  0.74985681  0.74817660  1
  Cr  Cr9  1  0.22663372  0.74917964  0.94372968  1
  Cr  Cr10  1  0.22676668  0.02896179  0.65443858  1
  Cr  Cr11  1  0.22645361  0.47099771  0.65415128  1
  Cr  Cr12  1  0.27977744  0.52755747  0.15383382  1
  Cr  Cr13  1  0.27692585  0.97229285  0.15656024  1
  Cr  Cr14  1  0.28062582  0.25020502  0.44459528  1
  Cr  Cr15  1  0.72010828  0.75001457  0.55727518  1
  Cr  Cr16  1  0.72319712  0.47328054  0.84425837  1
  Cr  Cr17  1  0.72016901  0.02819187  0.84606135  1
  Cr  Cr18  1  0.77106271  0.53002024  0.34334702  1
  Cr  Cr19  1  0.77133537  0.97071014  0.34410605  1
  Cr  Cr20  1  0.77356101  0.24891757  0.05613580  1
  Ni  Ni21  1  0.25681956  0.75604139  0.30930048  1
  Ni  Ni22  1  0.24509834  0.06944672  0.97540662  1
  Ni  Ni23  1  0.40668068  0.74973793  0.75063167  1
  Ni  Ni24  1  0.59191227  0.25006179  0.24767104  1
  Ni  Ni25  1  0.75411644  0.06976581  0.52685492  1
  Ni  Ni26  1  0.75352938  0.43047908  0.52659748  1
  Ni  Ni27  1  0.75457471  0.56948681  0.02474485  1
  O  O28  1  0.04995566  0.24314908  0.00120151  1
  O  O29  1  0.04989639  0.61144339  0.36596364  1
  O  O30  1  0.05062458  0.89042742  0.36803794  1
  O  O31  1  0.10201631  0.62418806  0.20858101  1
  O  O32  1  0.09616153  0.87266805  0.21201671  1
  O  O33  1  0.09628998  0.12111586  0.46575328  1
  O  O34  1  0.09597238  0.37904016  0.46562995  1
  O  O35  1  0.09575659  0.00511078  0.07801160  1
  O  O36  1  0.09192162  0.49688313  0.07703174  1
  O  O37  1  0.16703669  0.74845817  0.84863102  1
  O  O38  1  0.16765931  0.61150916  0.70127420  1
  O  O39  1  0.16774689  0.88807094  0.70172382  1
  O  O40  1  0.34594146  0.11136277  0.20379663  1
  O  O41  1  0.34668932  0.38854810  0.20158382  1
  O  O42  1  0.35312026  0.25034049  0.35085613  1
  O  O43  1  0.41294144  0.49962638  0.57631069  1
  O  O44  1  0.41354102  0.00087319  0.57665111  1
  O  O45  1  0.39753312  0.88304635  0.96565043  1
  O  O46  1  0.41786756  0.62343531  0.96596284  1
  O  O47  1  0.39691343  0.12578945  0.70966578  1
  O  O48  1  0.39894604  0.37361284  0.70880750  1
  O  O49  1  0.44289263  0.10837428  0.87446742  1
  O  O50  1  0.45276540  0.39320323  0.87007257  1
  O  O51  1  0.45679270  0.75013550  0.50074299  1
  O  O52  1  0.55898660  0.25007859  0.50218435  1
  O  O53  1  0.55760125  0.60726370  0.12594015  1
  O  O54  1  0.54809031  0.89503420  0.13033038  1
  O  O55  1  0.57441259  0.62569103  0.29200244  1
  O  O56  1  0.57490358  0.87467639  0.29309618  1
  O  O57  1  0.58220122  0.12342210  0.03397675  1
  O  O58  1  0.60271026  0.38272487  0.03423467  1
  O  O59  1  0.60466475  0.00526732  0.42411596  1
  O  O60  1  0.60480826  0.49539706  0.42379915  1
  O  O61  1  0.64390691  0.75029363  0.65133044  1
  O  O62  1  0.65265968  0.61205483  0.79582125  1
  O  O63  1  0.65218975  0.88960556  0.79845160  1
  O  O64  1  0.83130255  0.10934421  0.29599384  1
  O  O65  1  0.83109028  0.39095976  0.29567290  1
  O  O66  1  0.83425401  0.24818578  0.15122167  1
  O  O67  1  0.90439441  0.50592828  0.92297626  1
  O  O68  1  0.90870838  0.99713706  0.92289017  1
  O  O69  1  0.90361659  0.61852169  0.53625450  1
  O  O70  1  0.90355664  0.88158512  0.53617160  1
  O  O71  1  0.89309905  0.12539342  0.79048608  1
  O  O72  1  0.90622800  0.37714156  0.79021146  1
  O  O73  1  0.94486597  0.10624338  0.62741038  1
  O  O74  1  0.94467251  0.39351514  0.62717379  1
  O  O75  1  0.95041838  0.74335893  0.99880090  1
