# generated using pymatgen
data_Li5V3P8O29
_symmetry_space_group_name_H-M   'P 1'
_cell_length_a   9.78766279
_cell_length_b   9.85382094
_cell_length_c   14.07200938
_cell_angle_alpha   90.08107807
_cell_angle_beta   90.54972901
_cell_angle_gamma   60.00266434
_symmetry_Int_Tables_number   1
_chemical_formula_structural   Li5V3P8O29
_chemical_formula_sum   'Li10 V6 P16 O58'
_cell_volume   1175.32715399
_cell_formula_units_Z   2
loop_
 _symmetry_equiv_pos_site_id
 _symmetry_equiv_pos_as_xyz
  1  'x, y, z'
loop_
 _atom_site_type_symbol
 _atom_site_label
 _atom_site_symmetry_multiplicity
 _atom_site_fract_x
 _atom_site_fract_y
 _atom_site_fract_z
 _atom_site_occupancy
  Li  Li0  1  0.77473401  0.91654958  0.55892285  1
  Li  Li1  1  0.90675582  0.32161617  0.56118392  1
  Li  Li2  1  0.77345899  0.32185773  0.05703750  1
  Li  Li3  1  0.31488026  0.91040260  0.05973626  1
  Li  Li4  1  0.32021537  0.77194840  0.55988261  1
  Li  Li5  1  0.69479117  0.08285270  0.93895926  1
  Li  Li6  1  0.22202829  0.69567055  0.94220746  1
  Li  Li7  1  0.32531218  0.33651827  0.11175832  1
  Li  Li8  1  0.08996287  0.67809531  0.43777694  1
  Li  Li9  1  0.22637336  0.09185530  0.44190105  1
  V  V10  1  0.57232514  0.42739448  0.25636959  1
  V  V11  1  0.43608843  0.56423294  0.74949188  1
  V  V12  1  0.56962102  0.99776547  0.74901210  1
  V  V13  1  0.43151672  0.00063083  0.25234754  1
  V  V14  1  0.99450922  0.56975163  0.24327730  1
  V  V15  1  0.00382098  0.43303038  0.75528602  1
  P  P16  1  0.91506573  0.76892513  0.83910350  1
  P  P17  1  0.77110578  0.91302102  0.34096839  1
  P  P18  1  0.91717962  0.32022279  0.34341277  1
  P  P19  1  0.65938095  0.66380514  0.12844732  1
  P  P20  1  0.66718630  0.66540373  0.62987270  1
  P  P21  1  0.77166243  0.31762853  0.84253179  1
  P  P22  1  0.68374182  0.23008751  0.65925492  1
  P  P23  1  0.32316280  0.90763815  0.84168782  1
  P  P24  1  0.67694268  0.09341938  0.15860814  1
  P  P25  1  0.31910613  0.76703997  0.34101612  1
  P  P26  1  0.23216172  0.67760438  0.15795655  1
  P  P27  1  0.32909457  0.33741173  0.37131255  1
  P  P28  1  0.33859175  0.33371594  0.87210962  1
  P  P29  1  0.08678252  0.67868887  0.65676290  1
  P  P30  1  0.23046213  0.08780306  0.66055936  1
  P  P31  1  0.08775929  0.22885529  0.16013416  1
  O  O32  1  0.00329731  0.75735660  0.56549704  1
  O  O33  1  0.91715006  0.74818204  0.33621185  1
  O  O34  1  0.75083194  0.01602828  0.06812013  1
  O  O35  1  0.74756012  0.91868076  0.83666757  1
  O  O36  1  0.89653061  0.62394708  0.82384129  1
  O  O37  1  0.81203501  0.65989506  0.17191923  1
  O  O38  1  0.90459743  0.47900115  0.32714884  1
  O  O39  1  0.99104901  0.23652789  0.07700880  1
  O  O40  1  0.91359425  0.34010522  0.83934076  1
  O  O41  1  0.67252830  0.81362777  0.66695250  1
  O  O42  1  0.61779838  0.90462697  0.31851535  1
  O  O43  1  0.81569759  0.51423540  0.66903750  1
  O  O44  1  0.66388783  0.64741282  0.02337580  1
  O  O45  1  0.65190203  0.66735794  0.52412194  1
  O  O46  1  0.66264095  0.51440964  0.17505693  1
  O  O47  1  0.48290989  0.89468363  0.82273588  1
  O  O48  1  0.51215536  0.81405644  0.16575253  1
  O  O49  1  0.74925899  0.33803212  0.33510476  1
  O  O50  1  0.78529657  0.20574506  0.75582044  1
  O  O51  1  0.76627936  0.24422251  0.57559157  1
  O  O52  1  0.75067888  0.24931384  0.93254806  1
  O  O53  1  0.61795890  0.47849815  0.82066044  1
  O  O54  1  0.51310097  0.66916641  0.67298491  1
  O  O55  1  0.66204922  0.25997129  0.16449045  1
  O  O56  1  0.47995115  0.61688608  0.32292156  1
  O  O57  1  0.33519448  0.91517934  0.34169967  1
  O  O58  1  0.78584564  0.00388506  0.24962213  1
  O  O59  1  0.75821419  0.99424037  0.43185021  1
  O  O60  1  0.24597497  0.99747379  0.57081165  1
  O  O61  1  0.66255589  0.08509121  0.65811698  1
  O  O62  1  0.52110536  0.38203362  0.67778037  1
  O  O63  1  0.33845199  0.74092371  0.83379373  1
  O  O64  1  0.47932269  0.33630549  0.32525751  1
  O  O65  1  0.38095250  0.51353364  0.17607005  1
  O  O66  1  0.24943647  0.75450593  0.07082149  1
  O  O67  1  0.24372162  0.75351138  0.43030701  1
  O  O68  1  0.21214258  0.78635499  0.24951242  1
  O  O69  1  0.25466116  0.66098987  0.66050586  1
  O  O70  1  0.48911162  0.18607839  0.83666330  1
  O  O71  1  0.50942993  0.11813874  0.17576156  1
  O  O72  1  0.33429537  0.48617190  0.82949481  1
  O  O73  1  0.33549519  0.34647452  0.97853026  1
  O  O74  1  0.33339737  0.34364747  0.47681288  1
  O  O75  1  0.18204889  0.48687179  0.32805454  1
  O  O76  1  0.38206322  0.09804531  0.67916464  1
  O  O77  1  0.32720942  0.18672110  0.33485565  1
  O  O78  1  0.08816431  0.65685495  0.15744458  1
  O  O79  1  0.99434933  0.79265994  0.74362093  1
  O  O80  1  0.00807461  0.76418921  0.92386777  1
  O  O81  1  0.09741943  0.52024133  0.67317014  1
  O  O82  1  0.18903383  0.33504891  0.82960652  1
  O  O83  1  0.11396251  0.37142141  0.17228506  1
  O  O84  1  0.25594966  0.07962210  0.16126540  1
  O  O85  1  0.24688912  0.98113833  0.93274855  1
  O  O86  1  0.21101014  0.99877571  0.75081672  1
  O  O87  1  0.08381571  0.25118806  0.66022796  1
  O  O88  1  0.99877111  0.24146160  0.43440005  1
  O  O89  1  0.01230857  0.20644672  0.25680424  1
