# generated using pymatgen
data_Li3SbS3
_symmetry_space_group_name_H-M   'P 1'
_cell_length_a   6.35229071
_cell_length_b   6.35229071
_cell_length_c   6.35229059
_cell_angle_alpha   115.14668834
_cell_angle_beta   115.14668834
_cell_angle_gamma   115.14669026
_symmetry_Int_Tables_number   1
_chemical_formula_structural   Li3SbS3
_chemical_formula_sum   'Li3 Sb1 S3'
_cell_volume   141.51880979
_cell_formula_units_Z   1
loop_
 _symmetry_equiv_pos_site_id
 _symmetry_equiv_pos_as_xyz
  1  'x, y, z'
loop_
 _atom_site_type_symbol
 _atom_site_label
 _atom_site_symmetry_multiplicity
 _atom_site_fract_x
 _atom_site_fract_y
 _atom_site_fract_z
 _atom_site_occupancy
  Li  Li0  1  0.98541552  0.54949594  0.54949594  1
  Li  Li1  1  0.54949594  0.54949594  0.98541552  1
  Li  Li2  1  0.54949594  0.98541552  0.54949594  1
  Sb  Sb3  1  0.13373577  0.13373577  0.13373577  1
  S  S4  1  0.62655786  0.97760949  0.97760949  1
  S  S5  1  0.97760949  0.97760949  0.62655786  1
  S  S6  1  0.97760949  0.62655786  0.97760949  1
