# generated using pymatgen
data_Li3MnV(PO4)3
_symmetry_space_group_name_H-M   'P 1'
_cell_length_a   8.61799246
_cell_length_b   11.99189851
_cell_length_c   8.79195486
_cell_angle_alpha   89.91402635
_cell_angle_beta   89.22727834
_cell_angle_gamma   91.66255762
_symmetry_Int_Tables_number   1
_chemical_formula_structural   Li3MnV(PO4)3
_chemical_formula_sum   'Li12 Mn4 V4 P12 O48'
_cell_volume   908.14744732
_cell_formula_units_Z   4
loop_
 _symmetry_equiv_pos_site_id
 _symmetry_equiv_pos_as_xyz
  1  'x, y, z'
loop_
 _atom_site_type_symbol
 _atom_site_label
 _atom_site_symmetry_multiplicity
 _atom_site_fract_x
 _atom_site_fract_y
 _atom_site_fract_z
 _atom_site_occupancy
  Li  Li0  1  0.06503636  0.34769485  0.51376655  1
  Li  Li1  1  0.07888719  0.69007695  0.08592748  1
  Li  Li2  1  0.18048143  0.17791243  0.77944297  1
  Li  Li3  1  0.32100631  0.32273590  0.27758455  1
  Li  Li4  1  0.41879596  0.80970159  0.58669130  1
  Li  Li5  1  0.43553544  0.15388697  0.01101729  1
  Li  Li6  1  0.56386449  0.84708868  0.98484183  1
  Li  Li7  1  0.58062315  0.19121217  0.41464160  1
  Li  Li8  1  0.67993475  0.67788558  0.72299078  1
  Li  Li9  1  0.82063880  0.82259101  0.22109379  1
  Li  Li10  1  0.92115410  0.30984402  0.91463744  1
  Li  Li11  1  0.93517863  0.65196438  0.48686358  1
  Mn  Mn12  1  0.25244111  0.39197736  0.96429924  1
  Mn  Mn13  1  0.74808033  0.60818962  0.03522487  1
  Mn  Mn14  1  0.75207534  0.89112756  0.53663686  1
  Mn  Mn15  1  0.75163843  0.10681539  0.97218459  1
  V  V16  1  0.24421890  0.89525780  0.02801392  1
  V  V17  1  0.24582489  0.10812983  0.46515983  1
  V  V18  1  0.25410925  0.60620456  0.52782880  1
  V  V19  1  0.74521190  0.39468654  0.47273919  1
  P  P20  1  0.04321893  0.48967557  0.24960930  1
  P  P21  1  0.11382132  0.84616963  0.38229957  1
  P  P22  1  0.11643091  0.14787097  0.11276162  1
  P  P23  1  0.38433424  0.65193844  0.88216194  1
  P  P24  1  0.38541755  0.35359483  0.61080914  1
  P  P25  1  0.45603104  0.01059726  0.74741593  1
  P  P26  1  0.54321158  0.98936013  0.24885521  1
  P  P27  1  0.61638194  0.64885368  0.38933961  1
  P  P28  1  0.61557006  0.34917097  0.11814494  1
  P  P29  1  0.88395096  0.85146585  0.88939154  1
  P  P30  1  0.88363338  0.14947523  0.61888234  1
  P  P31  1  0.95690928  0.50994086  0.75020267  1
  O  O32  1  0.05116381  0.89532900  0.89284920  1
  O  O33  1  0.04494413  0.44567075  0.87011628  1
  O  O34  1  0.05489973  0.60120225  0.66480949  1
  O  O35  1  0.05584088  0.18724265  0.57989602  1
  O  O36  1  0.10147564  0.58127828  0.36273173  1
  O  O37  1  0.12507476  0.82958114  0.20586387  1
  O  O38  1  0.13919430  0.96951242  0.42053175  1
  O  O39  1  0.13081867  0.24839991  0.99395071  1
  O  O40  1  0.17623257  0.18814624  0.26969797  1
  O  O41  1  0.18878818  0.43410681  0.17878400  1
  O  O42  1  0.22983244  0.77624374  0.47092060  1
  O  O43  1  0.23680046  0.06270778  0.04993813  1
  O  O44  1  0.26608767  0.43774902  0.55121441  1
  O  O45  1  0.26758056  0.72330763  0.97135870  1
  O  O46  1  0.31108966  0.06501206  0.67582811  1
  O  O47  1  0.32688997  0.31233599  0.76998536  1
  O  O48  1  0.36229464  0.52743639  0.91971684  1
  O  O49  1  0.37241666  0.25406356  0.49393279  1
  O  O50  1  0.37246525  0.66889022  0.70574935  1
  O  O51  1  0.39936731  0.91765945  0.86002290  1
  O  O52  1  0.44572181  0.90011981  0.16374776  1
  O  O53  1  0.44620639  0.30917933  0.08254864  1
  O  O54  1  0.44869730  0.60539596  0.39506324  1
  O  O55  1  0.45151006  0.05607473  0.36736537  1
  O  O56  1  0.54617969  0.94652911  0.62545666  1
  O  O57  1  0.55300567  0.39780694  0.60842260  1
  O  O58  1  0.55417892  0.69096119  0.91831217  1
  O  O59  1  0.54958283  0.10312452  0.82959109  1
  O  O60  1  0.60178996  0.08445243  0.13569482  1
  O  O61  1  0.62842152  0.33130507  0.29461123  1
  O  O62  1  0.62987028  0.74900185  0.50796541  1
  O  O63  1  0.63632503  0.47398663  0.08178766  1
  O  O64  1  0.67257477  0.68943756  0.23026575  1
  O  O65  1  0.68649413  0.93515816  0.31866943  1
  O  O66  1  0.73287374  0.27983025  0.02717670  1
  O  O67  1  0.73472635  0.56393416  0.44921591  1
  O  O68  1  0.76335153  0.93540670  0.95103131  1
  O  O69  1  0.76965779  0.22156854  0.53145156  1
  O  O70  1  0.81125702  0.56561147  0.82022494  1
  O  O71  1  0.82908132  0.80995918  0.73177675  1
  O  O72  1  0.87098073  0.75006815  0.00732938  1
  O  O73  1  0.86219396  0.02534075  0.58067453  1
  O  O74  1  0.87525273  0.16594262  0.79691378  1
  O  O75  1  0.89935812  0.41804898  0.63693305  1
  O  O76  1  0.94237995  0.80761440  0.41971822  1
  O  O77  1  0.94578847  0.39836240  0.33546474  1
  O  O78  1  0.95474516  0.55381873  0.12981545  1
  O  O79  1  0.95088654  0.10298947  0.11341237  1
