# generated using pymatgen
data_Li4Fe2(PO4)3
_symmetry_space_group_name_H-M   'P 1'
_cell_length_a   8.45947832
_cell_length_b   8.44370239
_cell_length_c   8.99458824
_cell_angle_alpha   90.57196800
_cell_angle_beta   61.72557381
_cell_angle_gamma   60.80407979
_symmetry_Int_Tables_number   1
_chemical_formula_structural   Li4Fe2(PO4)3
_chemical_formula_sum   'Li8 Fe4 P6 O24'
_cell_volume   469.03199252
_cell_formula_units_Z   2
loop_
 _symmetry_equiv_pos_site_id
 _symmetry_equiv_pos_as_xyz
  1  'x, y, z'
loop_
 _atom_site_type_symbol
 _atom_site_label
 _atom_site_symmetry_multiplicity
 _atom_site_fract_x
 _atom_site_fract_y
 _atom_site_fract_z
 _atom_site_occupancy
  Li  Li0  1  0.44042577  0.12715947  0.32341600  1
  Li  Li1  1  0.81513606  0.41583623  0.32121662  1
  Li  Li2  1  0.16179686  0.84455294  0.03875971  1
  Li  Li3  1  0.91669399  0.24126062  0.64445261  1
  Li  Li4  1  0.08427049  0.75953060  0.35469818  1
  Li  Li5  1  0.83804469  0.15653867  0.96160144  1
  Li  Li6  1  0.18625265  0.58412635  0.67986296  1
  Li  Li7  1  0.55869335  0.87224961  0.67740865  1
  Fe  Fe8  1  0.70850251  0.14254083  0.43127219  1
  Fe  Fe9  1  0.29515010  0.85742288  0.56865267  1
  Fe  Fe10  1  0.30727594  0.34446895  0.03367250  1
  Fe  Fe11  1  0.69208779  0.65513296  0.96617491  1
  P  P12  1  0.21029483  0.04438412  0.24107115  1
  P  P13  1  0.49118914  0.45477946  0.24944397  1
  P  P14  1  0.80616141  0.74034621  0.24563992  1
  P  P15  1  0.19378937  0.25854015  0.75359128  1
  P  P16  1  0.50854014  0.54572504  0.75196669  1
  P  P17  1  0.78877025  0.95687121  0.75816700  1
  O  O18  1  0.30401394  0.16825003  0.18683453  1
  O  O19  1  0.99925128  0.13336168  0.24424723  1
  O  O20  1  0.17310799  0.03516707  0.42571963  1
  O  O21  1  0.67631547  0.47221973  0.10940127  1
  O  O22  1  0.61268345  0.24295868  0.24669546  1
  O  O23  1  0.32337850  0.49419854  0.20209760  1
  O  O24  1  0.97910348  0.52297620  0.18935106  1
  O  O25  1  0.71754413  0.79677329  0.12491164  1
  O  O26  1  0.38350774  0.20556525  0.56319352  1
  O  O27  1  0.36219347  0.83641519  0.11039705  1
  O  O28  1  0.09240709  0.14497122  0.75575787  1
  O  O29  1  0.63895823  0.40220433  0.56619054  1
  O  O30  1  0.36177400  0.59924031  0.43408634  1
  O  O31  1  0.90715577  0.85320423  0.24468776  1
  O  O32  1  0.63785882  0.16379208  0.88968028  1
  O  O33  1  0.61500134  0.79147798  0.43610180  1
  O  O34  1  0.28206711  0.20294881  0.87477085  1
  O  O35  1  0.02030012  0.47615384  0.81067009  1
  O  O36  1  0.67713293  0.50440477  0.79901024  1
  O  O37  1  0.38750492  0.75782784  0.75754399  1
  O  O38  1  0.32390590  0.52660003  0.89050422  1
  O  O39  1  0.82215076  0.96808630  0.57400148  1
  O  O40  1  0.00211459  0.86782153  0.75145924  1
  O  O41  1  0.69725665  0.83162280  0.81179684  1
