# generated using pymatgen
data_Li5V3P8O29
_symmetry_space_group_name_H-M   'P 1'
_cell_length_a   9.81760106
_cell_length_b   9.81299308
_cell_length_c   13.98298431
_cell_angle_alpha   89.81084550
_cell_angle_beta   89.97336587
_cell_angle_gamma   60.04954855
_symmetry_Int_Tables_number   1
_chemical_formula_structural   Li5V3P8O29
_chemical_formula_sum   'Li10 V6 P16 O58'
_cell_volume   1167.21597528
_cell_formula_units_Z   2
loop_
 _symmetry_equiv_pos_site_id
 _symmetry_equiv_pos_as_xyz
  1  'x, y, z'
loop_
 _atom_site_type_symbol
 _atom_site_label
 _atom_site_symmetry_multiplicity
 _atom_site_fract_x
 _atom_site_fract_y
 _atom_site_fract_z
 _atom_site_occupancy
  Li  Li0  1  0.09034704  0.22750504  0.93777838  1
  Li  Li1  1  0.09279545  0.67952260  0.44316966  1
  Li  Li2  1  0.22729839  0.67793058  0.93667050  1
  Li  Li3  1  0.32167326  0.77518419  0.56245493  1
  Li  Li4  1  0.67694616  0.09864564  0.93687928  1
  Li  Li5  1  0.32110617  0.90842044  0.05721725  1
  Li  Li6  1  0.67880508  0.22868142  0.44293939  1
  Li  Li7  1  0.90993154  0.31749659  0.56211332  1
  Li  Li8  1  0.77097441  0.90443489  0.56416389  1
  Li  Li9  1  0.90663003  0.77328104  0.05727737  1
  V  V10  1  0.00087858  0.56309555  0.25039826  1
  V  V11  1  0.42854183  0.00515837  0.25557772  1
  V  V12  1  0.43525317  0.56410930  0.75177877  1
  V  V13  1  0.57191280  0.43352436  0.24450503  1
  V  V14  1  0.56623770  0.00000599  0.74864951  1
  V  V15  1  0.00024233  0.43016380  0.74926836  1
  P  P16  1  0.08807904  0.23063072  0.15828406  1
  P  P17  1  0.23224449  0.08548238  0.65782060  1
  P  P18  1  0.08791571  0.68049318  0.65814784  1
  P  P19  1  0.33667000  0.33571379  0.37176640  1
  P  P20  1  0.33402310  0.33260683  0.87357594  1
  P  P21  1  0.23079820  0.68098594  0.15764165  1
  P  P22  1  0.32075469  0.76621419  0.34095116  1
  P  P23  1  0.67953025  0.08795726  0.15885709  1
  P  P24  1  0.31964943  0.91239209  0.84306725  1
  P  P25  1  0.68081320  0.23225493  0.65798063  1
  P  P26  1  0.76930665  0.31692761  0.84194187  1
  P  P27  1  0.66318432  0.67375026  0.12856228  1
  P  P28  1  0.66632505  0.66535710  0.62728655  1
  P  P29  1  0.91175204  0.31834120  0.34210421  1
  P  P30  1  0.76962996  0.91153084  0.34221210  1
  P  P31  1  0.91061337  0.76726500  0.84101452  1
  O  O32  1  0.98905757  0.24393923  0.43342997  1
  O  O33  1  0.08500613  0.25248854  0.65832679  1
  O  O34  1  0.20865517  0.00525175  0.75335152  1
  O  O35  1  0.24178108  0.00125923  0.93324593  1
  O  O36  1  0.10014336  0.38041797  0.17608955  1
  O  O37  1  0.25699329  0.08157418  0.16545309  1
  O  O38  1  0.18823140  0.32546976  0.83323794  1
  O  O39  1  0.09789130  0.52057028  0.67613762  1
  O  O40  1  0.99927187  0.75943426  0.93100411  1
  O  O41  1  0.08353776  0.66470934  0.15858399  1
  O  O42  1  0.33530113  0.18616541  0.32539531  1
  O  O43  1  0.18615788  0.48655838  0.33254816  1
  O  O44  1  0.38227616  0.09789956  0.67581184  1
  O  O45  1  0.34082015  0.32728229  0.47752176  1
  O  O46  1  0.33321947  0.33913667  0.98039508  1
  O  O47  1  0.52114450  0.09425224  0.17752502  1
  O  O48  1  0.32741042  0.48844572  0.83107284  1
  O  O49  1  0.48783926  0.18813298  0.83357642  1
  O  O50  1  0.25063042  0.66619246  0.65764918  1
  O  O51  1  0.21027679  0.78885029  0.24986535  1
  O  O52  1  0.24604177  0.75704325  0.06845384  1
  O  O53  1  0.24349058  0.75683399  0.43062004  1
  O  O54  1  0.38249009  0.52087363  0.17743338  1
  O  O55  1  0.48809875  0.33020135  0.32945072  1
  O  O56  1  0.66658440  0.08176402  0.65892549  1
  O  O57  1  0.33257274  0.74925539  0.84286793  1
  O  O58  1  0.52008768  0.38030871  0.67348725  1
  O  O59  1  0.24185542  0.99239090  0.57230236  1
  O  O60  1  0.75387855  0.00208785  0.43142684  1
  O  O61  1  0.47910852  0.61448496  0.32254136  1
  O  O62  1  0.65646600  0.25563340  0.16444755  1
  O  O63  1  0.79021219  0.99925351  0.25002195  1
  O  O64  1  0.34390021  0.91101411  0.33542930  1
  O  O65  1  0.51331514  0.67060397  0.66974373  1
  O  O66  1  0.62261908  0.47973011  0.82512011  1
  O  O67  1  0.76259098  0.23173736  0.92781781  1
  O  O68  1  0.75853964  0.24146492  0.56712559  1
  O  O69  1  0.79271333  0.21167461  0.74680820  1
  O  O70  1  0.74288299  0.33712210  0.33474897  1
  O  O71  1  0.51154617  0.81946435  0.17077300  1
  O  O72  1  0.47983469  0.89922734  0.82478809  1
  O  O73  1  0.66399887  0.52239187  0.17440910  1
  O  O74  1  0.66257844  0.66682209  0.52035813  1
  O  O75  1  0.65836973  0.67144023  0.02274074  1
  O  O76  1  0.61795710  0.90288558  0.32266896  1
  O  O77  1  0.81342259  0.51047100  0.66626795  1
  O  O78  1  0.67435290  0.81232808  0.66657808  1
  O  O79  1  0.91867503  0.33470237  0.83924794  1
  O  O80  1  0.99979923  0.20990530  0.25008415  1
  O  O81  1  0.01114860  0.23397162  0.06691074  1
  O  O82  1  0.89629445  0.48046162  0.32260894  1
  O  O83  1  0.81389253  0.67270156  0.16808834  1
  O  O84  1  0.74579410  0.91714260  0.84025251  1
  O  O85  1  0.89924969  0.61938763  0.82454624  1
  O  O86  1  0.75648541  0.00187457  0.06925322  1
  O  O87  1  0.91669477  0.74714666  0.34171424  1
  O  O88  1  0.99704363  0.75859830  0.56814201  1
  O  O89  1  0.99866747  0.78973143  0.74963394  1
