# generated using pymatgen
data_Li5V3P8O29
_symmetry_space_group_name_H-M   'P 1'
_cell_length_a   9.78119454
_cell_length_b   9.77777635
_cell_length_c   14.12854117
_cell_angle_alpha   90.38401018
_cell_angle_beta   90.73591511
_cell_angle_gamma   60.15227918
_symmetry_Int_Tables_number   1
_chemical_formula_structural   Li5V3P8O29
_chemical_formula_sum   'Li10 V6 P16 O58'
_cell_volume   1171.89436041
_cell_formula_units_Z   2
loop_
 _symmetry_equiv_pos_site_id
 _symmetry_equiv_pos_as_xyz
  1  'x, y, z'
loop_
 _atom_site_type_symbol
 _atom_site_label
 _atom_site_symmetry_multiplicity
 _atom_site_fract_x
 _atom_site_fract_y
 _atom_site_fract_z
 _atom_site_occupancy
  Li  Li0  1  0.76579484  0.89652289  0.55601410  1
  Li  Li1  1  0.90870146  0.32726634  0.56284378  1
  Li  Li2  1  0.76542708  0.33238004  0.05859406  1
  Li  Li3  1  0.33442361  0.90049608  0.06086781  1
  Li  Li4  1  0.66884374  0.23323247  0.44074697  1
  Li  Li5  1  0.34019610  0.76053387  0.56015591  1
  Li  Li6  1  0.22883256  0.68280395  0.93972963  1
  Li  Li7  1  0.32449563  0.32909921  0.10623974  1
  Li  Li8  1  0.94001377  0.00970541  0.99384101  1
  Li  Li9  1  0.04572277  0.97742740  0.49686842  1
  V  V10  1  0.56858319  0.43342405  0.24958447  1
  V  V11  1  0.43329687  0.56550998  0.75045880  1
  V  V12  1  0.56654394  0.99868928  0.75470417  1
  V  V13  1  0.43446999  0.00035376  0.25193917  1
  V  V14  1  0.99901009  0.56411322  0.25033366  1
  V  V15  1  0.00037025  0.43768114  0.74905155  1
  P  P16  1  0.91774138  0.77949726  0.84194965  1
  P  P17  1  0.77658044  0.91543354  0.34012964  1
  P  P18  1  0.91755299  0.30997698  0.34710956  1
  P  P19  1  0.66537916  0.66691001  0.13040674  1
  P  P20  1  0.66296310  0.67111293  0.63043523  1
  P  P21  1  0.77569080  0.31516988  0.84000480  1
  P  P22  1  0.68326981  0.22433311  0.65949471  1
  P  P23  1  0.31456410  0.91416168  0.84673147  1
  P  P24  1  0.68912523  0.08869428  0.15630851  1
  P  P25  1  0.31426931  0.77522864  0.34110699  1
  P  P26  1  0.22384822  0.68342902  0.15982891  1
  P  P27  1  0.33537547  0.33232392  0.36880964  1
  P  P28  1  0.33335966  0.33335177  0.86812811  1
  P  P29  1  0.08175924  0.69520568  0.65672342  1
  P  P30  1  0.22229515  0.08330450  0.66302294  1
  P  P31  1  0.08577987  0.21796532  0.16236233  1
  O  O32  1  0.99630477  0.79548691  0.57279229  1
  O  O33  1  0.91498063  0.74952096  0.33518810  1
  O  O34  1  0.78705504  0.00109240  0.07436254  1
  O  O35  1  0.74420515  0.91895019  0.83355829  1
  O  O36  1  0.92173087  0.62229386  0.83347553  1
  O  O37  1  0.81456810  0.66054645  0.17676053  1
  O  O38  1  0.91360667  0.46691799  0.33475671  1
  O  O39  1  0.98870750  0.20686044  0.08350332  1
  O  O40  1  0.91197696  0.34961608  0.82833435  1
  O  O41  1  0.67350838  0.81313073  0.67910233  1
  O  O42  1  0.61831079  0.91505714  0.32178884  1
  O  O43  1  0.80999290  0.51455086  0.66451434  1
  O  O44  1  0.65497240  0.67216381  0.02523898  1
  O  O45  1  0.65645624  0.69211431  0.52528483  1
  O  O46  1  0.66773112  0.51431234  0.16805258  1
  O  O47  1  0.47395032  0.90950265  0.82771116  1
  O  O48  1  0.51676248  0.81612544  0.17318946  1
  O  O49  1  0.74653357  0.33507457  0.33387900  1
  O  O50  1  0.79234511  0.20184261  0.75193678  1
  O  O51  1  0.77156204  0.22147137  0.57173664  1
  O  O52  1  0.78632605  0.23375030  0.93132609  1
  O  O53  1  0.61752097  0.47104813  0.82549524  1
  O  O54  1  0.51057009  0.67637470  0.66840897  1
  O  O55  1  0.65637247  0.26194012  0.15724854  1
  O  O56  1  0.46826202  0.62028493  0.32925536  1
  O  O57  1  0.34411644  0.91719449  0.32924946  1
  O  O58  1  0.78671644  0.01605437  0.25430934  1
  O  O59  1  0.76876651  0.00023649  0.43142910  1
  O  O60  1  0.21125983  0.98714119  0.58332486  1
  O  O61  1  0.65977415  0.07808905  0.66080544  1
  O  O62  1  0.52656181  0.37643844  0.67211011  1
  O  O63  1  0.33744969  0.74583794  0.83807525  1
  O  O64  1  0.48916631  0.32545558  0.33290563  1
  O  O65  1  0.37690718  0.51988837  0.17497238  1
  O  O66  1  0.23611310  0.76416854  0.07225428  1
  O  O67  1  0.23007339  0.79382052  0.43193914  1
  O  O68  1  0.20335783  0.79278079  0.25117064  1
  O  O69  1  0.25668602  0.65702101  0.66076651  1
  O  O70  1  0.48232684  0.18624000  0.82198094  1
  O  O71  1  0.52718053  0.09521116  0.16685710  1
  O  O72  1  0.32914136  0.48824237  0.83441639  1
  O  O73  1  0.34261935  0.32595245  0.97412605  1
  O  O74  1  0.33454659  0.31939278  0.47315644  1
  O  O75  1  0.19006540  0.47566289  0.32104291  1
  O  O76  1  0.38323426  0.07699434  0.67346727  1
  O  O77  1  0.33683577  0.18423511  0.31696280  1
  O  O78  1  0.08448942  0.65566014  0.15888968  1
  O  O79  1  0.00326555  0.79907584  0.75001944  1
  O  O80  1  0.00002097  0.80315574  0.92556921  1
  O  O81  1  0.07649373  0.54086548  0.66845216  1
  O  O82  1  0.19180669  0.32906038  0.82289473  1
  O  O83  1  0.09863638  0.36943591  0.16740977  1
  O  O84  1  0.25932633  0.07625988  0.15935211  1
  O  O85  1  0.24355481  0.98610576  0.93941507  1
  O  O86  1  0.19858232  0.01308347  0.76145174  1
  O  O87  1  0.08409390  0.25494704  0.65907943  1
  O  O88  1  0.98269186  0.22445515  0.43889303  1
  O  O89  1  0.01863678  0.19531243  0.26166890  1
