# generated using pymatgen
data_Li5Fe2P5O18
_symmetry_space_group_name_H-M   'P 1'
_cell_length_a   9.30271471
_cell_length_b   10.63795794
_cell_length_c   6.51358852
_cell_angle_alpha   92.98229958
_cell_angle_beta   91.16341800
_cell_angle_gamma   96.06091110
_symmetry_Int_Tables_number   1
_chemical_formula_structural   Li5Fe2P5O18
_chemical_formula_sum   'Li10 Fe4 P10 O36'
_cell_volume   639.90970125
_cell_formula_units_Z   2
loop_
 _symmetry_equiv_pos_site_id
 _symmetry_equiv_pos_as_xyz
  1  'x, y, z'
loop_
 _atom_site_type_symbol
 _atom_site_label
 _atom_site_symmetry_multiplicity
 _atom_site_fract_x
 _atom_site_fract_y
 _atom_site_fract_z
 _atom_site_occupancy
  Li  Li0  1  0.05769373  0.87168550  0.98500098  1
  Li  Li1  1  0.12926857  0.35706025  0.82700647  1
  Li  Li2  1  0.21621331  0.66006711  0.12439849  1
  Li  Li3  1  0.27887711  0.59042515  0.55486288  1
  Li  Li4  1  0.37208361  0.86540700  0.34447113  1
  Li  Li5  1  0.62791639  0.13459300  0.65552887  1
  Li  Li6  1  0.72112289  0.40957485  0.44513712  1
  Li  Li7  1  0.78378669  0.33993289  0.87560151  1
  Li  Li8  1  0.87073143  0.64293975  0.17299353  1
  Li  Li9  1  0.94230627  0.12831450  0.01499902  1
  Fe  Fe10  1  0.23186822  0.05455692  0.66864081  1
  Fe  Fe11  1  0.35626234  0.40394388  0.23220301  1
  Fe  Fe12  1  0.64373766  0.59605612  0.76779699  1
  Fe  Fe13  1  0.76813178  0.94544308  0.33135919  1
  P  P14  1  0.05210350  0.79971568  0.48631408  1
  P  P15  1  0.00984334  0.40229478  0.22238161  1
  P  P16  1  0.26914062  0.10525412  0.17054709  1
  P  P17  1  0.41903674  0.82630153  0.83350427  1
  P  P18  1  0.41752649  0.34942022  0.72133322  1
  P  P19  1  0.58247351  0.65057978  0.27866678  1
  P  P20  1  0.58096326  0.17369847  0.16649573  1
  P  P21  1  0.73085938  0.89474588  0.82945291  1
  P  P22  1  0.99015666  0.59770522  0.77761839  1
  P  P23  1  0.94789650  0.20028432  0.51368592  1
  O  O24  1  0.01608065  0.68659466  0.97087112  1
  O  O25  1  0.07989088  0.90278582  0.66241242  1
  O  O26  1  0.02982504  0.32131613  0.41964305  1
  O  O27  1  0.11766002  0.52391679  0.73669133  1
  O  O28  1  0.06268836  0.16729197  0.67292766  1
  O  O29  1  0.18736749  0.75514124  0.39270548  1
  O  O30  1  0.15901162  0.48273245  0.22169326  1
  O  O31  1  0.17024010  0.05082064  0.98701863  1
  O  O32  1  0.32175738  0.81726594  0.01613643  1
  O  O33  1  0.24653367  0.23973880  0.23516089  1
  O  O34  1  0.37581295  0.91946347  0.67297982  1
  O  O35  1  0.25634799  0.02249553  0.35740454  1
  O  O36  1  0.33811641  0.38393448  0.92026151  1
  O  O37  1  0.35233059  0.41762460  0.54200839  1
  O  O38  1  0.44950653  0.69577726  0.73551522  1
  O  O39  1  0.42022163  0.59694794  0.25078147  1
  O  O40  1  0.39825208  0.20263595  0.67809886  1
  O  O41  1  0.42628727  0.10413242  0.07786546  1
  O  O42  1  0.57371273  0.89586758  0.92213454  1
  O  O43  1  0.60174792  0.79736405  0.32190114  1
  O  O44  1  0.57977837  0.40305206  0.74921853  1
  O  O45  1  0.55049347  0.30422274  0.26448478  1
  O  O46  1  0.64766941  0.58237540  0.45799161  1
  O  O47  1  0.66188459  0.61606552  0.07973849  1
  O  O48  1  0.74365201  0.97750447  0.64259546  1
  O  O49  1  0.62418705  0.08053653  0.32702018  1
  O  O50  1  0.75346633  0.76026120  0.76483911  1
  O  O51  1  0.67824262  0.18273406  0.98386357  1
  O  O52  1  0.82975990  0.94917936  0.01298137  1
  O  O53  1  0.84098838  0.51726755  0.77830674  1
  O  O54  1  0.81263251  0.24485876  0.60729452  1
  O  O55  1  0.93731164  0.83270803  0.32707234  1
  O  O56  1  0.88233998  0.47608321  0.26330867  1
  O  O57  1  0.97017496  0.67868387  0.58035695  1
  O  O58  1  0.92010912  0.09721418  0.33758758  1
  O  O59  1  0.98392035  0.31340534  0.02912888  1
