# generated using pymatgen
data_H13PtC3N3Cl2O
_symmetry_space_group_name_H-M   'P 1'
_cell_length_a   6.42301962
_cell_length_b   7.24643022
_cell_length_c   12.07487332
_cell_angle_alpha   105.79134583
_cell_angle_beta   96.57896151
_cell_angle_gamma   98.65231138
_symmetry_Int_Tables_number   1
_chemical_formula_structural   H13PtC3N3Cl2O
_chemical_formula_sum   'H26 Pt2 C6 N6 Cl4 O2'
_cell_volume   527.45494108
_cell_formula_units_Z   2
loop_
 _symmetry_equiv_pos_site_id
 _symmetry_equiv_pos_as_xyz
  1  'x, y, z'
loop_
 _atom_site_type_symbol
 _atom_site_label
 _atom_site_symmetry_multiplicity
 _atom_site_fract_x
 _atom_site_fract_y
 _atom_site_fract_z
 _atom_site_occupancy
  H  H0  1  0.43875269  0.06485727  0.28788528  1
  H  H1  1  0.56124731  0.93514273  0.71211472  1
  H  H2  1  0.60561190  0.28322602  0.32696783  1
  H  H3  1  0.39438810  0.71677398  0.67303217  1
  H  H4  1  0.68292823  0.09300707  0.36113133  1
  H  H5  1  0.31707177  0.90699293  0.63886867  1
  H  H6  1  0.83833568  0.20686165  0.56370484  1
  H  H7  1  0.16166432  0.79313835  0.43629516  1
  H  H8  1  0.81870474  0.43980016  0.61030815  1
  H  H9  1  0.18129526  0.56019984  0.38969185  1
  H  H10  1  0.72949268  0.28412672  0.68222498  1
  H  H11  1  0.27050732  0.71587328  0.31777502  1
  H  H12  1  0.33600841  0.24686580  0.94129056  1
  H  H13  1  0.66399159  0.75313420  0.05870944  1
  H  H14  1  0.33043467  0.42787116  0.07524543  1
  H  H15  1  0.66956533  0.57212884  0.92475457  1
  H  H16  1  0.31000925  0.17830035  0.07154023  1
  H  H17  1  0.68999075  0.82169965  0.92845977  1
  H  H18  1  0.74556260  0.23360791  0.05632488  1
  H  H19  1  0.25443740  0.76639209  0.94367512  1
  H  H20  1  0.97022752  0.21143416  0.15266071  1
  H  H21  1  0.02977248  0.78856584  0.84733929  1
  H  H22  1  0.94482420  0.44228768  0.13489504  1
  H  H23  1  0.05517580  0.55771232  0.86510496  1
  H  H24  1  0.05030797  0.16467726  0.81767426  1
  H  H25  1  0.94969203  0.83532274  0.18232574  1
  Pt  Pt26  1  0.44191455  0.25460114  0.50669668  1
  Pt  Pt27  1  0.55808545  0.74539886  0.49330332  1
  C  C28  1  0.26569438  0.27668000  0.02155066  1
  C  C29  1  0.73430562  0.72332000  0.97844934  1
  C  C30  1  0.91656089  0.28511801  0.08933337  1
  C  C31  1  0.08343911  0.71488199  0.91066663  1
  C  C32  1  0.93673397  0.18742950  0.88030075  1
  C  C33  1  0.06326603  0.81257050  0.11969925  1
  N  N34  1  0.55561747  0.16108264  0.35210429  1
  N  N35  1  0.44438253  0.83891736  0.64789571  1
  N  N36  1  0.74258853  0.29962744  0.60107038  1
  N  N37  1  0.25741147  0.70037256  0.39892962  1
  N  N38  1  0.03440424  0.24626650  0.99232655  1
  N  N39  1  0.96559576  0.75373350  0.00767345  1
  Cl  Cl40  1  0.32321441  0.36937276  0.68325677  1
  Cl  Cl41  1  0.67678559  0.63062724  0.31674323  1
  Cl  Cl42  1  0.10506027  0.21055539  0.39769724  1
  Cl  Cl43  1  0.89493973  0.78944461  0.60230276  1
  O  O44  1  0.73982541  0.16115867  0.84709190  1
  O  O45  1  0.26017459  0.83884133  0.15290810  1
