# generated using pymatgen
data_Li5V3P8O29
_symmetry_space_group_name_H-M   'P 1'
_cell_length_a   9.79620603
_cell_length_b   9.86385912
_cell_length_c   14.08155495
_cell_angle_alpha   90.04626585
_cell_angle_beta   90.22641187
_cell_angle_gamma   60.18753673
_symmetry_Int_Tables_number   1
_chemical_formula_structural   Li5V3P8O29
_chemical_formula_sum   'Li10 V6 P16 O58'
_cell_volume   1180.59203227
_cell_formula_units_Z   2
loop_
 _symmetry_equiv_pos_site_id
 _symmetry_equiv_pos_as_xyz
  1  'x, y, z'
loop_
 _atom_site_type_symbol
 _atom_site_label
 _atom_site_symmetry_multiplicity
 _atom_site_fract_x
 _atom_site_fract_y
 _atom_site_fract_z
 _atom_site_occupancy
  Li  Li0  1  0.77248963  0.91387231  0.56215007  1
  Li  Li1  1  0.90691761  0.32306779  0.56183866  1
  Li  Li2  1  0.67505399  0.67148604  0.88892692  1
  Li  Li3  1  0.76897736  0.32284558  0.05844479  1
  Li  Li4  1  0.32330328  0.90529556  0.05797136  1
  Li  Li5  1  0.32651500  0.76897509  0.56286806  1
  Li  Li6  1  0.33042688  0.33545419  0.10788673  1
  Li  Li7  1  0.09116596  0.67940433  0.43922126  1
  Li  Li8  1  0.22593185  0.09081356  0.44244127  1
  Li  Li9  1  0.98390330  0.96623174  0.99563923  1
  V  V10  1  0.57178232  0.42981338  0.25384326  1
  V  V11  1  0.43167927  0.56347304  0.75258480  1
  V  V12  1  0.57021028  0.00173333  0.75050085  1
  V  V13  1  0.43375731  0.99865663  0.24894689  1
  V  V14  1  0.99607268  0.57239726  0.24396639  1
  V  V15  1  0.00310893  0.43473840  0.75444098  1
  P  P16  1  0.91365562  0.77749779  0.84117681  1
  P  P17  1  0.76860556  0.91387169  0.34207699  1
  P  P18  1  0.91750449  0.32023826  0.34183842  1
  P  P19  1  0.66073339  0.66560750  0.12705675  1
  P  P20  1  0.66676299  0.66621590  0.62922864  1
  P  P21  1  0.77289421  0.31634851  0.84455445  1
  P  P22  1  0.68559020  0.23153899  0.66021915  1
  P  P23  1  0.31848889  0.90631044  0.84199798  1
  P  P24  1  0.69012885  0.08893361  0.15858805  1
  P  P25  1  0.31987962  0.76592622  0.34314898  1
  P  P26  1  0.22714946  0.68599530  0.15937895  1
  P  P27  1  0.32948691  0.33713522  0.37007774  1
  P  P28  1  0.33656998  0.33227474  0.87111026  1
  P  P29  1  0.08689906  0.68019769  0.65741534  1
  P  P30  1  0.23108848  0.08653697  0.66054517  1
  P  P31  1  0.08785767  0.22530101  0.15867698  1
  O  O32  1  0.00321850  0.75864656  0.56681281  1
  O  O33  1  0.91551339  0.74867577  0.33465951  1
  O  O34  1  0.79003293  0.01053496  0.07555880  1
  O  O35  1  0.74150603  0.91622813  0.83239742  1
  O  O36  1  0.89862133  0.62751293  0.83302442  1
  O  O37  1  0.80465018  0.66919681  0.16912414  1
  O  O38  1  0.91011051  0.47650827  0.32018865  1
  O  O39  1  0.99243712  0.21871356  0.07861447  1
  O  O40  1  0.91089060  0.34644630  0.83773628  1
  O  O41  1  0.67107907  0.81470594  0.66587180  1
  O  O42  1  0.61728719  0.90453595  0.31637470  1
  O  O43  1  0.81727491  0.51813240  0.67149832  1
  O  O44  1  0.66001593  0.65210283  0.02078405  1
  O  O45  1  0.65904555  0.66188798  0.52348257  1
  O  O46  1  0.66402248  0.51375057  0.16979862  1
  O  O47  1  0.48260433  0.89082939  0.83076302  1
  O  O48  1  0.50732125  0.81274392  0.16229461  1
  O  O49  1  0.74848926  0.34347198  0.33393776  1
  O  O50  1  0.78614725  0.20767819  0.75635974  1
  O  O51  1  0.76835963  0.24464989  0.57629082  1
  O  O52  1  0.76846229  0.24089680  0.93497315  1
  O  O53  1  0.61914709  0.48004801  0.82737120  1
  O  O54  1  0.51659181  0.66663892  0.67337463  1
  O  O55  1  0.65935508  0.26237248  0.16486638  1
  O  O56  1  0.47947810  0.61798286  0.31992932  1
  O  O57  1  0.33593749  0.91415378  0.34074332  1
  O  O58  1  0.78504949  0.01154533  0.25623835  1
  O  O59  1  0.75552923  0.98909199  0.43490872  1
  O  O60  1  0.24524446  0.99680193  0.57088744  1
  O  O61  1  0.66266464  0.08711593  0.65887252  1
  O  O62  1  0.52519211  0.38289031  0.67975873  1
  O  O63  1  0.34175323  0.73833745  0.83008707  1
  O  O64  1  0.47687555  0.34076369  0.32059289  1
  O  O65  1  0.37902733  0.52448720  0.16924383  1
  O  O66  1  0.21810649  0.78675079  0.07850374  1
  O  O67  1  0.25131917  0.74924460  0.43446299  1
  O  O68  1  0.20546068  0.78246396  0.25719211  1
  O  O69  1  0.25522981  0.66105050  0.66078013  1
  O  O70  1  0.48000241  0.18860826  0.82993892  1
  O  O71  1  0.52586496  0.10216689  0.16735676  1
  O  O72  1  0.33659879  0.48134045  0.82599827  1
  O  O73  1  0.33324019  0.34288283  0.97657017  1
  O  O74  1  0.34066845  0.33734521  0.47519862  1
  O  O75  1  0.18272611  0.48845126  0.33125775  1
  O  O76  1  0.38314706  0.09247791  0.68037984  1
  O  O77  1  0.32943532  0.18717419  0.33074755  1
  O  O78  1  0.08721336  0.65367405  0.16168485  1
  O  O79  1  0.99512089  0.79285072  0.74480972  1
  O  O80  1  0.99718196  0.79174856  0.92454922  1
  O  O81  1  0.09726561  0.52238016  0.67379823  1
  O  O82  1  0.18301097  0.34028645  0.82964458  1
  O  O83  1  0.10648730  0.37145985  0.16781051  1
  O  O84  1  0.25815849  0.08031956  0.16021372  1
  O  O85  1  0.23397559  0.97872055  0.93175217  1
  O  O86  1  0.21081936  0.99798354  0.75120913  1
  O  O87  1  0.08597869  0.25051470  0.66046843  1
  O  O88  1  0.99766359  0.24813596  0.43378261  1
  O  O89  1  0.01445237  0.20370498  0.25739574  1
