# generated using pymatgen
data_Li3Mn28O56
_symmetry_space_group_name_H-M   'P 1'
_cell_length_a   13.12761542
_cell_length_b   8.30934731
_cell_length_c   10.17356097
_cell_angle_alpha   114.10307754
_cell_angle_beta   97.31196938
_cell_angle_gamma   90.00000000
_symmetry_Int_Tables_number   1
_chemical_formula_structural   Li3Mn28O56
_chemical_formula_sum   'Li3 Mn28 O56'
_cell_volume   1003.10002115
_cell_formula_units_Z   1
loop_
 _symmetry_equiv_pos_site_id
 _symmetry_equiv_pos_as_xyz
  1  'x, y, z'
loop_
 _atom_site_type_symbol
 _atom_site_label
 _atom_site_symmetry_multiplicity
 _atom_site_fract_x
 _atom_site_fract_y
 _atom_site_fract_z
 _atom_site_occupancy
  Li  Li0  1  0.03571400  0.05438015  0.85714300  1
  Li  Li1  1  0.39271567  0.08922308  0.42850677  1
  Li  Li2  1  0.67871333  0.51785831  0.28577823  1
  Mn  Mn3  1  0.14315511  0.71254357  0.92842016  1
  Mn  Mn4  1  0.07204098  0.35942975  0.71479197  1
  Mn  Mn5  1  0.99931713  0.99887364  0.49773132  1
  Mn  Mn6  1  0.07211087  0.35828532  0.21655468  1
  Mn  Mn7  1  0.28680752  0.92851449  0.85663643  1
  Mn  Mn8  1  -0.00061198  0.50178078  -0.00050597  1
  Mn  Mn9  1  0.14253793  0.21512499  0.43035688  1
  Mn  Mn10  1  0.21439571  0.07265034  0.64380550  1
  Mn  Mn11  1  0.28585855  0.42948997  0.35799468  1
  Mn  Mn12  1  0.42901060  0.14437355  0.78736921  1
  Mn  Mn13  1  0.21430599  0.07091415  0.14339349  1
  Mn  Mn14  1  0.35696931  0.78439405  0.57235552  1
  Mn  Mn15  1  0.64241740  0.21414734  0.92691679  1
  Mn  Mn16  1  0.42775666  0.64154688  0.28559472  1
  Mn  Mn17  1  0.49909035  0.50164418  0.50102735  1
  Mn  Mn18  1  0.35687158  0.78486731  0.06972188  1
  Mn  Mn19  1  0.57156829  0.35883868  0.71576704  1
  Mn  Mn20  1  0.49985971  0.50021465  0.99851796  1
  Mn  Mn21  1  0.71455742  0.57228844  0.64456312  1
  Mn  Mn22  1  0.64367234  0.21309516  0.42869128  1
  Mn  Mn23  1  0.57233865  0.85775984  0.21325865  1
  Mn  Mn24  1  0.78462148  0.92902006  0.85764857  1
  Mn  Mn25  1  0.92827389  0.64126541  0.78586484  1
  Mn  Mn26  1  0.85712201  0.78466366  0.57089251  1
  Mn  Mn27  1  0.78557045  0.92863829  0.35629132  1
  Mn  Mn28  1  0.71445969  0.06918053  0.14192948  1
  Mn  Mn29  1  0.92889007  0.64191111  0.28392812  1
  Mn  Mn30  1  0.85703329  0.28598784  0.07047950  1
  O  O31  1  0.00447347  0.72609398  0.98227296  1
  O  O32  1  0.06695553  0.60096402  0.73201304  1
  O  O33  1  0.12979904  0.47504955  0.91999630  1
  O  O34  1  0.15409494  0.95396732  0.93565449  1
  O  O35  1  0.07721444  0.11700777  0.70272370  1
  O  O36  1  0.01403484  0.24306943  0.50981707  1
  O  O37  1  0.28180891  0.70272345  0.87479554  1
  O  O38  1  0.20123367  0.30175007  0.63412574  1
  O  O39  1  0.05739316  0.59039536  0.20446893  1
  O  O40  1  0.13908450  0.98979088  0.44741775  1
  O  O41  1  0.15002933  0.44106784  0.41591268  1
  O  O42  1  0.22773168  0.84186982  0.65290001  1
  O  O43  1  0.08555309  0.12489419  0.22475912  1
  O  O44  1  0.29032244  0.15425001  0.84009362  1
  O  O45  1  0.35351943  0.03253302  0.58773784  1
  O  O46  1  0.21019572  0.31490727  0.16204370  1
  O  O47  1  0.27483833  0.18836754  0.34997744  1
  O  O48  1  0.41592775  0.90573093  0.77835591  1
  O  O49  1  0.50466907  0.25740811  0.98278039  1
  O  O50  1  0.29760933  0.66640663  0.36622701  1
  O  O51  1  0.21917540  0.82708097  0.12485031  1
  O  O52  1  0.44147106  0.38257308  0.79469090  1
  O  O53  1  0.36166982  0.53868720  0.55388065  1
  O  O54  1  0.42475672  0.41677451  0.30370086  1
  O  O55  1  0.34385223  0.01513020  0.06242541  1
  O  O56  1  0.56675893  0.13177072  0.73150561  1
  O  O57  1  0.62995694  0.44502518  0.91959410  1
  O  O58  1  0.48679567  0.72946423  0.49082042  1
  O  O59  1  0.43235740  0.87113293  0.26958713  1
  O  O60  1  0.51052283  0.26904334  0.50901049  1
  O  O61  1  0.65550025  0.98451902  0.93593009  1
  O  O62  1  0.57543170  0.58301995  0.69672518  1
  O  O63  1  0.37079404  0.55565791  0.07981411  1
  O  O64  1  0.63907160  0.45868879  0.44469787  1
  O  O65  1  0.78110556  0.17129939  0.87419138  1
  O  O66  1  0.56090617  0.61717585  0.20527551  1
  O  O67  1  0.49599730  0.74343777  0.01756082  1
  O  O68  1  0.70063496  0.33298680  0.63447189  1
  O  O69  1  0.78962009  0.68507191  0.83949046  1
  O  O70  1  0.64667228  0.97021565  0.41058514  1
  O  O71  1  0.58463233  0.09578681  0.22346458  1
  O  O72  1  0.72757577  0.80984679  0.65185959  1
  O  O73  1  0.91733406  0.87545582  0.77863151  1
  O  O74  1  0.77381867  0.15732261  0.34805799  1
  O  O75  1  0.70975818  0.84194955  0.16040535  1
  O  O76  1  0.85225360  0.55937266  0.58943469  1
  O  O77  1  0.94162996  0.41219624  0.79428970  1
  O  O78  1  0.86123228  0.01000658  0.55224230  1
  O  O79  1  0.79658967  0.69553210  0.36430856  1
  O  O80  1  0.71790857  0.30193718  0.12654716  1
  O  O81  1  0.98587591  0.75727707  0.48952688  1
  O  O82  1  0.92139967  0.88229816  0.29837332  1
  O  O83  1  0.84369732  0.04611282  0.06138599  1
  O  O84  1  0.93234450  0.39951613  0.26686825  1
  O  O85  1  0.87019433  0.52476733  0.08016026  1
  O  O86  1  0.99421456  0.27142708  0.01156230  1
