# generated using pymatgen
data_Y5Pt3
_symmetry_space_group_name_H-M   'P 1'
_cell_length_a   8.51416227
_cell_length_b   8.51416278
_cell_length_c   6.21555850
_cell_angle_alpha   90.00000000
_cell_angle_beta   90.00000000
_cell_angle_gamma   120.01011155
_symmetry_Int_Tables_number   1
_chemical_formula_structural   Y5Pt3
_chemical_formula_sum   'Y10 Pt6'
_cell_volume   390.16688169
_cell_formula_units_Z   2
loop_
 _symmetry_equiv_pos_site_id
 _symmetry_equiv_pos_as_xyz
  1  'x, y, z'
loop_
 _atom_site_type_symbol
 _atom_site_label
 _atom_site_symmetry_multiplicity
 _atom_site_fract_x
 _atom_site_fract_y
 _atom_site_fract_z
 _atom_site_occupancy
  Y  Y0  1  0.66666896  0.33337405  0.50000032  1
  Y  Y1  1  0.33337405  0.66666896  0.50000032  1
  Y  Y2  1  0.33333104  0.66662595  0.00000032  1
  Y  Y3  1  0.66662595  0.33333104  0.00000032  1
  Y  Y4  1  0.74639541  0.74639541  0.24998584  1
  Y  Y5  1  0.25362548  0.00004042  0.25000687  1
  Y  Y6  1  0.00004042  0.25362548  0.25000687  1
  Y  Y7  1  0.25360459  0.25360459  0.74998584  1
  Y  Y8  1  0.74637452  0.99995958  0.75000687  1
  Y  Y9  1  0.99995958  0.74637452  0.75000687  1
  Pt  Pt10  1  0.38934114  0.38934114  0.25000739  1
  Pt  Pt11  1  0.61057505  0.00000902  0.24999620  1
  Pt  Pt12  1  0.00000902  0.61057505  0.24999620  1
  Pt  Pt13  1  0.61065886  0.61065886  0.75000739  1
  Pt  Pt14  1  0.38942495  -0.00000902  0.74999620  1
  Pt  Pt15  1  -0.00000902  0.38942495  0.74999620  1
