# generated using pymatgen
data_Li3MnFeCo(PO4)3
_symmetry_space_group_name_H-M   'P 1'
_cell_length_a   10.43335622
_cell_length_b   6.10363421
_cell_length_c   14.30654287
_cell_angle_alpha   90.00000000
_cell_angle_beta   90.31238351
_cell_angle_gamma   90.00000000
_symmetry_Int_Tables_number   1
_chemical_formula_structural   Li3MnFeCo(PO4)3
_chemical_formula_sum   'Li12 Mn4 Fe4 Co4 P12 O48'
_cell_volume   911.04699495
_cell_formula_units_Z   4
loop_
 _symmetry_equiv_pos_site_id
 _symmetry_equiv_pos_as_xyz
  1  'x, y, z'
loop_
 _atom_site_type_symbol
 _atom_site_label
 _atom_site_symmetry_multiplicity
 _atom_site_fract_x
 _atom_site_fract_y
 _atom_site_fract_z
 _atom_site_occupancy
  Li  Li0  1  0.99655964  0.49974714  0.66603130  1
  Li  Li1  1  0.99733964  0.00038102  0.99998186  1
  Li  Li2  1  0.99733964  0.49961898  0.99998186  1
  Li  Li3  1  0.99790391  0.99935622  0.33340541  1
  Li  Li4  1  0.99790391  0.50064378  0.33340541  1
  Li  Li5  1  0.99655964  0.00025286  0.66603130  1
  Li  Li6  1  0.50314757  0.00155904  0.49971474  1
  Li  Li7  1  0.50314757  0.49844096  0.49971474  1
  Li  Li8  1  0.50247682  0.00010723  0.16731490  1
  Li  Li9  1  0.50247682  0.49989277  0.16731490  1
  Li  Li10  1  0.50206768  0.99890827  0.83332993  1
  Li  Li11  1  0.50206768  0.50109173  0.83332993  1
  Mn  Mn12  1  0.21780757  0.75000000  0.49279582  1
  Mn  Mn13  1  0.21838097  0.75000000  0.82666785  1
  Mn  Mn14  1  0.28027924  0.25000000  0.65980735  1
  Mn  Mn15  1  0.28072478  0.25000000  0.99380381  1
  Fe  Fe16  1  0.21744974  0.75000000  0.15966590  1
  Fe  Fe17  1  0.28138227  0.25000000  0.32543993  1
  Fe  Fe18  1  0.72049786  0.75000000  0.00916684  1
  Fe  Fe19  1  0.72029241  0.75000000  0.34303802  1
  Co  Co20  1  0.71521408  0.75000000  0.68143913  1
  Co  Co21  1  0.77669360  0.25000000  0.84077573  1
  Co  Co22  1  0.78206905  0.25000000  0.50536679  1
  Co  Co23  1  0.78228687  0.25000000  0.17381893  1
  P  P24  1  0.08852350  0.25000000  0.80564097  1
  P  P25  1  0.09153265  0.25000000  0.14063105  1
  P  P26  1  0.09121017  0.25000000  0.47053214  1
  P  P27  1  0.40837620  0.75000000  0.30561943  1
  P  P28  1  0.41140005  0.75000000  0.63911374  1
  P  P29  1  0.40884961  0.75000000  0.97271444  1
  P  P30  1  0.59625389  0.25000000  0.36014126  1
  P  P31  1  0.59744252  0.25000000  0.02780319  1
  P  P32  1  0.59694561  0.25000000  0.69360283  1
  P  P33  1  0.90247230  0.75000000  0.86079595  1
  P  P34  1  0.90366773  0.75000000  0.19413076  1
  P  P35  1  0.90136727  0.75000000  0.52719520  1
  O  O36  1  0.04167702  0.75000000  0.23624680  1
  O  O37  1  0.04002522  0.75000000  0.56909919  1
  O  O38  1  0.04067378  0.75000000  0.90240236  1
  O  O39  1  0.09582054  0.25000000  0.57796293  1
  O  O40  1  0.09428063  0.25000000  0.91312043  1
  O  O41  1  0.09455923  0.25000000  0.24786858  1
  O  O42  1  0.16247491  0.04737449  0.09657951  1
  O  O43  1  0.16247491  0.45262551  0.09657951  1
  O  O44  1  0.16179256  0.04857794  0.42572261  1
  O  O45  1  0.16179256  0.45142206  0.42572261  1
  O  O46  1  0.15915255  0.04842519  0.76071124  1
  O  O47  1  0.15915255  0.45157481  0.76071124  1
  O  O48  1  0.34175228  0.54815083  0.59394288  1
  O  O49  1  0.34175228  0.95184917  0.59394288  1
  O  O50  1  0.33670453  0.54767883  0.26105373  1
  O  O51  1  0.33670453  0.95232117  0.26105373  1
  O  O52  1  0.33891833  0.54781655  0.92755182  1
  O  O53  1  0.33891833  0.95218345  0.92755182  1
  O  O54  1  0.40575416  0.75000000  0.41285612  1
  O  O55  1  0.40458964  0.75000000  0.08015044  1
  O  O56  1  0.40681963  0.75000000  0.74648570  1
  O  O57  1  0.45805319  0.25000000  0.40092052  1
  O  O58  1  0.46020872  0.25000000  0.06926957  1
  O  O59  1  0.46004931  0.25000000  0.73656181  1
  O  O60  1  0.54683920  0.75000000  0.26523125  1
  O  O61  1  0.54676945  0.75000000  0.93188774  1
  O  O62  1  0.55111271  0.75000000  0.60056549  1
  O  O63  1  0.59949489  0.25000000  0.25266991  1
  O  O64  1  0.59953549  0.25000000  0.92024649  1
  O  O65  1  0.59796532  0.25000000  0.58654289  1
  O  O66  1  0.66857303  0.04808393  0.07241387  1
  O  O67  1  0.66684354  0.04809877  0.40552133  1
  O  O68  1  0.66885411  0.04904968  0.73852630  1
  O  O69  1  0.66885411  0.45095032  0.73852630  1
  O  O70  1  0.66857303  0.45191607  0.07241387  1
  O  O71  1  0.66684354  0.45190123  0.40552133  1
  O  O72  1  0.83333022  0.54577997  0.90460336  1
  O  O73  1  0.83333022  0.95422003  0.90460336  1
  O  O74  1  0.83262399  0.54677319  0.23782082  1
  O  O75  1  0.83369641  0.54397942  0.56970256  1
  O  O76  1  0.83262399  0.95322681  0.23782082  1
  O  O77  1  0.83369641  0.95602058  0.56970256  1
  O  O78  1  0.89780583  0.75000000  0.75297291  1
  O  O79  1  0.89894416  0.75000000  0.41876649  1
  O  O80  1  0.90324044  0.75000000  0.08653097  1
  O  O81  1  0.95008307  0.25000000  0.76546954  1
  O  O82  1  0.95357075  0.25000000  0.09856579  1
  O  O83  1  0.95258422  0.25000000  0.43004670  1
