# generated using pymatgen
data_Rb
_symmetry_space_group_name_H-M   'P 1'
_cell_length_a   8.00665496
_cell_length_b   12.61302052
_cell_length_c   12.59377127
_cell_angle_alpha   36.23970323
_cell_angle_beta   74.72894962
_cell_angle_gamma   74.57377367
_symmetry_Int_Tables_number   1
_chemical_formula_structural   Rb
_chemical_formula_sum   Rb8
_cell_volume   722.10192606
_cell_formula_units_Z   8
loop_
 _symmetry_equiv_pos_site_id
 _symmetry_equiv_pos_as_xyz
  1  'x, y, z'
loop_
 _atom_site_type_symbol
 _atom_site_label
 _atom_site_symmetry_multiplicity
 _atom_site_fract_x
 _atom_site_fract_y
 _atom_site_fract_z
 _atom_site_occupancy
  Rb  Rb0  1  0.55918105  0.69968820  0.17236126  1
  Rb  Rb1  1  0.93211463  0.82124837  0.30571069  1
  Rb  Rb2  1  0.68620471  0.08582895  0.53680720  1
  Rb  Rb3  1  0.43424264  0.30510313  0.82069292  1
  Rb  Rb4  1  0.30691847  0.91325144  0.46516014  1
  Rb  Rb5  1  0.80825925  0.45899815  0.91682058  1
  Rb  Rb6  1  0.06140812  0.17261880  0.70016725  1
  Rb  Rb7  1  0.18318814  0.53502796  0.08886795  1
