# generated using pymatgen
data_Li3Mn4(BO3)4
_symmetry_space_group_name_H-M   'P 1'
_cell_length_a   9.12613978
_cell_length_b   9.10429451
_cell_length_c   10.45568483
_cell_angle_alpha   89.76139333
_cell_angle_beta   92.02628323
_cell_angle_gamma   119.79971179
_symmetry_Int_Tables_number   1
_chemical_formula_structural   Li3Mn4(BO3)4
_chemical_formula_sum   'Li9 Mn12 B12 O36'
_cell_volume   753.29650872
_cell_formula_units_Z   3
loop_
 _symmetry_equiv_pos_site_id
 _symmetry_equiv_pos_as_xyz
  1  'x, y, z'
loop_
 _atom_site_type_symbol
 _atom_site_label
 _atom_site_symmetry_multiplicity
 _atom_site_fract_x
 _atom_site_fract_y
 _atom_site_fract_z
 _atom_site_occupancy
  Li  Li0  1  0.10415591  0.03646874  0.65935878  1
  Li  Li1  1  0.21992729  0.60611343  0.90926861  1
  Li  Li2  1  0.55570701  0.27203989  0.40434949  1
  Li  Li3  1  0.77208749  0.37193379  0.66191569  1
  Li  Li4  1  0.43695449  0.71053443  0.67374460  1
  Li  Li5  1  0.43147763  0.72479270  0.15927560  1
  Li  Li6  1  0.77067922  0.40562395  0.16735664  1
  Li  Li7  1  0.90108408  0.96313408  0.92156890  1
  Li  Li8  1  0.89384621  0.95345850  0.41196689  1
  Mn  Mn9  1  0.09618481  0.34795311  0.12360765  1
  Mn  Mn10  1  0.25151382  0.27778312  0.87860445  1
  Mn  Mn11  1  0.41963295  0.05146452  0.13324303  1
  Mn  Mn12  1  0.09809136  0.70404665  0.63382897  1
  Mn  Mn13  1  0.44715153  0.38287729  0.63068286  1
  Mn  Mn14  1  0.77189762  0.05323703  0.62809213  1
  Mn  Mn15  1  0.54831597  0.61015326  0.37533559  1
  Mn  Mn16  1  0.21516260  0.92905820  0.38249885  1
  Mn  Mn17  1  0.91296730  0.31215820  0.38673917  1
  Mn  Mn18  1  0.86710786  0.59688517  0.88325249  1
  Mn  Mn19  1  0.55608290  0.95963697  0.88454322  1
  Mn  Mn20  1  0.79930891  0.75330358  0.13827315  1
  B  B21  1  0.11651460  0.38346783  0.63655962  1
  B  B22  1  0.44179793  0.04763949  0.62300400  1
  B  B23  1  0.22037016  0.27009747  0.36675293  1
  B  B24  1  0.10960533  0.70230202  0.12472514  1
  B  B25  1  0.77846944  0.07611096  0.12335442  1
  B  B26  1  0.45338317  0.39993168  0.13734094  1
  B  B27  1  0.20285402  0.92547042  0.88528669  1
  B  B28  1  0.89718459  0.26751973  0.87168121  1
  B  B29  1  0.56213691  0.62296782  0.87840829  1
  B  B30  1  0.77145211  0.71835735  0.61167329  1
  B  B31  1  0.87754276  0.61529867  0.38162009  1
  B  B32  1  0.56980701  0.96199582  0.35858601  1
  O  O33  1  0.12130080  0.01473180  0.85875927  1
  O  O34  1  0.12951340  0.10092234  0.38294498  1
  O  O35  1  0.36491326  0.00737374  0.94818222  1
  O  O36  1  0.06045768  0.34038854  0.93251349  1
  O  O37  1  0.18566901  0.28025281  0.66895818  1
  O  O38  1  0.14596698  0.35984152  0.31009579  1
  O  O39  1  0.48102043  0.05072128  0.32308016  1
  O  O40  1  0.29221634  0.32967460  0.08200588  1
  O  O41  1  0.04043428  0.68519151  0.43118412  1
  O  O42  1  0.39131378  0.36341182  0.41003228  1
  O  O43  1  0.20948657  0.55511202  0.64940308  1
  O  O44  1  0.54247060  0.21896712  0.59933650  1
  O  O45  1  0.73177881  0.05108363  0.41233498  1
  O  O46  1  0.19813660  0.62033776  0.10321653  1
  O  O47  1  0.13415971  0.75755468  0.84637532  1
  O  O48  1  0.53422902  0.30821700  0.13986361  1
  O  O49  1  0.81583488  0.09545125  0.83929415  1
  O  O50  1  0.50065508  0.45880617  0.83101592  1
  O  O51  1  0.19104566  0.86939502  0.17445141  1
  O  O52  1  0.53021028  0.56855425  0.18535297  1
  O  O53  1  0.85469731  0.24998083  0.15690477  1
  O  O54  1  0.46318738  0.69848663  0.87031458  1
  O  O55  1  0.82442653  0.36194033  0.84138355  1
  O  O56  1  0.26867570  0.96578623  0.59447372  1
  O  O57  1  0.59676284  0.63960993  0.56699860  1
  O  O58  1  0.78010543  0.44282540  0.36203012  1
  O  O59  1  0.94761630  0.30894855  0.59015609  1
  O  O60  1  0.48817753  0.79059448  0.34065170  1
  O  O61  1  0.72795401  0.71258777  0.93034295  1
  O  O62  1  0.83014091  0.61542357  0.66151297  1
  O  O63  1  0.51432234  0.95456693  0.67279760  1
  O  O64  1  0.81082874  0.72168947  0.34764631  1
  O  O65  1  0.93556828  0.62739340  0.09725091  1
  O  O66  1  0.60492330  0.98466270  0.09575630  1
  O  O67  1  0.86978571  0.89070464  0.60426646  1
  O  O68  1  0.88072850  0.00726443  0.11259513  1
