# generated using pymatgen
data_Li12Fe3CoP4(CO7)4
_symmetry_space_group_name_H-M   'P 1'
_cell_length_a   8.49718600
_cell_length_b   10.03073152
_cell_length_c   6.48304057
_cell_angle_alpha   90.00000000
_cell_angle_beta   90.00000000
_cell_angle_gamma   84.78621975
_symmetry_Int_Tables_number   1
_chemical_formula_structural   Li12Fe3CoP4(CO7)4
_chemical_formula_sum   'Li12 Fe3 Co1 P4 C4 O28'
_cell_volume   550.28272680
_cell_formula_units_Z   1
loop_
 _symmetry_equiv_pos_site_id
 _symmetry_equiv_pos_as_xyz
  1  'x, y, z'
loop_
 _atom_site_type_symbol
 _atom_site_label
 _atom_site_symmetry_multiplicity
 _atom_site_fract_x
 _atom_site_fract_y
 _atom_site_fract_z
 _atom_site_occupancy
  Li  Li0  1  0.09493321  0.38061729  0.25000000  1
  Li  Li1  1  0.09697707  0.88274518  0.25000000  1
  Li  Li2  1  0.27466491  0.12430279  0.02162954  1
  Li  Li3  1  0.27466491  0.12430279  0.47837046  1
  Li  Li4  1  0.27489080  0.62545421  0.02195483  1
  Li  Li5  1  0.27489080  0.62545421  0.47804517  1
  Li  Li6  1  0.72562064  0.37668173  0.52185122  1
  Li  Li7  1  0.72562064  0.37668173  0.97814878  1
  Li  Li8  1  0.72510879  0.87371561  0.52153585  1
  Li  Li9  1  0.72510879  0.87371561  0.97846415  1
  Li  Li10  1  0.90516606  0.11864854  0.75000000  1
  Li  Li11  1  0.90553752  0.61890436  0.75000000  1
  Fe  Fe12  1  0.33364486  0.39470000  0.75000000  1
  Fe  Fe13  1  0.33411822  0.89334803  0.75000000  1
  Fe  Fe14  1  0.66683650  0.10628583  0.25000000  1
  Co  Co15  1  0.66630660  0.60489044  0.25000000  1
  P  P16  1  0.41248898  0.36113963  0.25000000  1
  P  P17  1  0.41318715  0.85826886  0.25000000  1
  P  P18  1  0.58833440  0.14060935  0.75000000  1
  P  P19  1  0.58863696  0.64037240  0.75000000  1
  C  C20  1  0.03417225  0.34977418  0.75000000  1
  C  C21  1  0.03405500  0.84990444  0.75000000  1
  C  C22  1  0.96594977  0.14982942  0.25000000  1
  C  C23  1  0.96215951  0.64946180  0.25000000  1
  O  O24  1  0.07074491  0.47236470  0.75000000  1
  O  O25  1  0.11244976  0.17843080  0.25000000  1
  O  O26  1  0.07087803  0.97238836  0.75000000  1
  O  O27  1  0.14803912  0.25308933  0.75000000  1
  O  O28  1  0.10775514  0.67993537  0.25000000  1
  O  O29  1  0.14760201  0.75300857  0.75000000  1
  O  O30  1  0.30939004  0.41448257  0.06333414  1
  O  O31  1  0.30939004  0.41448257  0.43666586  1
  O  O32  1  0.30937016  0.91123228  0.06354652  1
  O  O33  1  0.30937016  0.91123228  0.43645348  1
  O  O34  1  0.42194201  0.09044255  0.75000000  1
  O  O35  1  0.42978351  0.20495516  0.25000000  1
  O  O36  1  0.42149730  0.59157825  0.75000000  1
  O  O37  1  0.43202847  0.70187214  0.25000000  1
  O  O38  1  0.57119613  0.29688161  0.75000000  1
  O  O39  1  0.57887852  0.41152049  0.25000000  1
  O  O40  1  0.57187853  0.79684467  0.75000000  1
  O  O41  1  0.57838735  0.90952793  0.25000000  1
  O  O42  1  0.69092379  0.08707168  0.93686387  1
  O  O43  1  0.69092379  0.08707168  0.56313613  1
  O  O44  1  0.69116647  0.58717862  0.56264231  1
  O  O45  1  0.69116647  0.58717862  0.93735769  1
  O  O46  1  0.85272706  0.24665955  0.25000000  1
  O  O47  1  0.88831903  0.32114219  0.75000000  1
  O  O48  1  0.84631666  0.74419245  0.25000000  1
  O  O49  1  0.92977350  0.02736036  0.25000000  1
  O  O50  1  0.88811648  0.82142477  0.75000000  1
  O  O51  1  0.92690922  0.52664100  0.25000000  1
