# generated using pymatgen
data_K4Ce(S2O9)2
_symmetry_space_group_name_H-M   'P 1'
_cell_length_a   11.09275912
_cell_length_b   12.60714194
_cell_length_c   13.71848345
_cell_angle_alpha   111.27156610
_cell_angle_beta   90.00000000
_cell_angle_gamma   90.00000000
_symmetry_Int_Tables_number   1
_chemical_formula_structural   K4Ce(S2O9)2
_chemical_formula_sum   'K16 Ce4 S16 O72'
_cell_volume   1787.79740715
_cell_formula_units_Z   4
loop_
 _symmetry_equiv_pos_site_id
 _symmetry_equiv_pos_as_xyz
  1  'x, y, z'
loop_
 _atom_site_type_symbol
 _atom_site_label
 _atom_site_symmetry_multiplicity
 _atom_site_fract_x
 _atom_site_fract_y
 _atom_site_fract_z
 _atom_site_occupancy
  K  K0  1  0.66113785  0.69860372  0.64084078  1
  K  K1  1  0.16113785  0.30139628  0.85915922  1
  K  K2  1  0.33886215  0.30139628  0.35915922  1
  K  K3  1  0.83886215  0.69860372  0.14084078  1
  K  K4  1  0.57004224  0.45852907  0.12828386  1
  K  K5  1  0.07004224  0.54147093  0.37171614  1
  K  K6  1  0.42995776  0.54147093  0.87171614  1
  K  K7  1  0.92995776  0.45852907  0.62828386  1
  K  K8  1  0.28158434  0.63551240  0.63282342  1
  K  K9  1  0.78158434  0.36448760  0.86717658  1
  K  K10  1  0.71841566  0.36448760  0.36717658  1
  K  K11  1  0.21841566  0.63551240  0.13282342  1
  K  K12  1  0.72197200  0.01208327  0.13924429  1
  K  K13  1  0.22197200  0.98791673  0.36075571  1
  K  K14  1  0.27802800  0.98791673  0.86075571  1
  K  K15  1  0.77802800  0.01208327  0.63924429  1
  Ce  Ce16  1  0.54756311  0.78396873  0.37977461  1
  Ce  Ce17  1  0.04756311  0.21603127  0.12022539  1
  Ce  Ce18  1  0.45243689  0.21603127  0.62022539  1
  Ce  Ce19  1  0.95243689  0.78396873  0.87977461  1
  S  S20  1  0.39790261  0.91629840  0.57966743  1
  S  S21  1  0.89790261  0.08370160  0.92033257  1
  S  S22  1  0.60209739  0.08370160  0.42033257  1
  S  S23  1  0.10209739  0.91629840  0.07966743  1
  S  S24  1  0.79485555  0.67765993  0.39910186  1
  S  S25  1  0.29485555  0.32234007  0.10089814  1
  S  S26  1  0.20514445  0.32234007  0.60089814  1
  S  S27  1  0.70514445  0.67765993  0.89910186  1
  S  S28  1  0.48626881  0.79000865  0.16152550  1
  S  S29  1  0.98626881  0.20999135  0.33847450  1
  S  S30  1  0.51373119  0.20999135  0.83847450  1
  S  S31  1  0.01373119  0.79000865  0.66152550  1
  S  S32  1  0.43602672  0.56214885  0.38287027  1
  S  S33  1  0.93602672  0.43785115  0.11712973  1
  S  S34  1  0.56397328  0.43785115  0.61712973  1
  S  S35  1  0.06397328  0.56214885  0.88287027  1
  O  O36  1  0.35631669  0.86037415  0.46716357  1
  O  O37  1  0.85631669  0.13962585  0.03283643  1
  O  O38  1  0.64368331  0.13962585  0.53283643  1
  O  O39  1  0.14368331  0.86037415  0.96716357  1
  O  O40  1  0.65514913  0.13598182  0.35155703  1
  O  O41  1  0.15514913  0.86401818  0.14844297  1
  O  O42  1  0.34485087  0.86401818  0.64844297  1
  O  O43  1  0.84485087  0.13598182  0.85155703  1
  O  O44  1  0.53324072  0.90236216  0.57126010  1
  O  O45  1  0.03324072  0.09763784  0.92873990  1
  O  O46  1  0.46675928  0.09763784  0.42873990  1
  O  O47  1  0.96675928  0.90236216  0.07126010  1
  O  O48  1  0.63308413  0.95946633  0.38394941  1
  O  O49  1  0.13308413  0.04053367  0.11605059  1
  O  O50  1  0.36691587  0.04053367  0.61605059  1
  O  O51  1  0.86691587  0.95946633  0.88394941  1
  O  O52  1  0.70069409  0.63822079  0.31165682  1
  O  O53  1  0.20069409  0.36177921  0.18834318  1
  O  O54  1  0.29930591  0.36177921  0.68834318  1
  O  O55  1  0.79930591  0.63822079  0.81165682  1
  O  O56  1  0.73392733  0.78296982  0.47671177  1
  O  O57  1  0.23392733  0.21703018  0.02328823  1
  O  O58  1  0.26607267  0.21703018  0.52328823  1
  O  O59  1  0.76607267  0.78296982  0.97671177  1
  O  O60  1  0.81215510  0.59075138  0.44610504  1
  O  O61  1  0.31215510  0.40924862  0.05389496  1
  O  O62  1  0.18784490  0.40924862  0.55389496  1
  O  O63  1  0.68784490  0.59075138  0.94610504  1
  O  O64  1  0.90623158  0.70648108  0.35691895  1
  O  O65  1  0.40623158  0.29351892  0.14308105  1
  O  O66  1  0.09376842  0.29351892  0.64308105  1
  O  O67  1  0.59376842  0.70648108  0.85691895  1
  O  O68  1  0.60084258  0.74797434  0.19745222  1
  O  O69  1  0.10084258  0.25202566  0.30254778  1
  O  O70  1  0.39915742  0.25202566  0.80254778  1
  O  O71  1  0.89915742  0.74797434  0.69745222  1
  O  O72  1  0.40821486  0.82231584  0.25943848  1
  O  O73  1  0.90821486  0.17768416  0.24056152  1
  O  O74  1  0.59178514  0.17768416  0.74056152  1
  O  O75  1  0.09178514  0.82231584  0.75943848  1
  O  O76  1  0.56915915  0.30364028  0.92433658  1
  O  O77  1  0.06915915  0.69635972  0.57566342  1
  O  O78  1  0.43084085  0.69635972  0.07566342  1
  O  O79  1  0.93084085  0.30364028  0.42433658  1
  O  O80  1  0.51255915  0.89050719  0.13434185  1
  O  O81  1  0.01255915  0.10949281  0.36565815  1
  O  O82  1  0.48744085  0.10949281  0.86565815  1
  O  O83  1  0.98744085  0.89050719  0.63434185  1
  O  O84  1  0.50086671  0.65573775  0.46997828  1
  O  O85  1  0.00086671  0.34426225  0.03002172  1
  O  O86  1  0.49913329  0.34426225  0.53002172  1
  O  O87  1  0.99913329  0.65573775  0.96997828  1
  O  O88  1  0.42795435  0.61196214  0.29702697  1
  O  O89  1  0.92795435  0.38803786  0.20297303  1
  O  O90  1  0.57204565  0.38803786  0.70297303  1
  O  O91  1  0.07204565  0.61196214  0.79702697  1
  O  O92  1  0.50822185  0.45745977  0.34658390  1
  O  O93  1  0.00822185  0.54254023  0.15341610  1
  O  O94  1  0.49177815  0.54254023  0.65341610  1
  O  O95  1  0.99177815  0.45745977  0.84658390  1
  O  O96  1  0.68461075  0.45693097  0.58240666  1
  O  O97  1  0.18461075  0.54306903  0.91759334  1
  O  O98  1  0.31538925  0.54306903  0.41759334  1
  O  O99  1  0.81538925  0.45693097  0.08240666  1
  O  O100  1  0.61367887  0.95067751  0.78849604  1
  O  O101  1  0.11367887  0.04932249  0.71150396  1
  O  O102  1  0.38632113  0.04932249  0.21150396  1
  O  O103  1  0.88632113  0.95067751  0.28849604  1
  O  O104  1  0.63796755  0.23477253  0.13308467  1
  O  O105  1  0.13796755  0.76522747  0.36691533  1
  O  O106  1  0.36203245  0.76522747  0.86691533  1
  O  O107  1  0.86203245  0.23477253  0.63308467  1
