# generated using pymatgen
data_Li2V2P2O11
_symmetry_space_group_name_H-M   'P 1'
_cell_length_a   7.85271054
_cell_length_b   10.20630121
_cell_length_c   6.20337902
_cell_angle_alpha   90.00000000
_cell_angle_beta   90.00000000
_cell_angle_gamma   90.00000000
_symmetry_Int_Tables_number   1
_chemical_formula_structural   Li2V2P2O11
_chemical_formula_sum   'Li4 V4 P4 O22'
_cell_volume   497.18301909
_cell_formula_units_Z   2
loop_
 _symmetry_equiv_pos_site_id
 _symmetry_equiv_pos_as_xyz
  1  'x, y, z'
loop_
 _atom_site_type_symbol
 _atom_site_label
 _atom_site_symmetry_multiplicity
 _atom_site_fract_x
 _atom_site_fract_y
 _atom_site_fract_z
 _atom_site_occupancy
  Li  Li0  1  0.30872008  0.63676047  0.54004661  1
  Li  Li1  1  0.69127992  0.36323953  0.54004661  1
  Li  Li2  1  0.80872008  0.86323953  0.45995339  1
  Li  Li3  1  0.19127992  0.13676047  0.45995339  1
  V  V4  1  0.70671921  0.53975572  0.04278562  1
  V  V5  1  0.29328079  0.46024428  0.04278562  1
  V  V6  1  0.20671921  0.96024428  0.95721438  1
  V  V7  1  0.79328079  0.03975572  0.95721438  1
  P  P8  1  0.55934387  0.80427180  0.78169686  1
  P  P9  1  0.44065613  0.19572820  0.78169686  1
  P  P10  1  0.05934387  0.69572820  0.21830314  1
  P  P11  1  0.94065613  0.30427180  0.21830314  1
  O  O12  1  0.50651567  0.74466263  0.56967401  1
  O  O13  1  0.49348433  0.25533737  0.56967401  1
  O  O14  1  0.00651567  0.75533737  0.43032599  1
  O  O15  1  0.99348433  0.24466263  0.43032599  1
  O  O16  1  0.70759939  0.90494098  0.74327561  1
  O  O17  1  0.29240061  0.09505902  0.74327561  1
  O  O18  1  0.20759939  0.59505902  0.25672439  1
  O  O19  1  0.79240061  0.40494098  0.25672439  1
  O  O20  1  0.41338896  0.87600798  0.90240593  1
  O  O21  1  0.58661104  0.12399202  0.90240593  1
  O  O22  1  0.91338896  0.62399202  0.09759407  1
  O  O23  1  0.08661104  0.37600798  0.09759407  1
  O  O24  1  0.62424055  0.70070823  0.94686414  1
  O  O25  1  0.37575945  0.29929177  0.94686414  1
  O  O26  1  0.12424055  0.79929177  0.05313586  1
  O  O27  1  0.87575945  0.20070823  0.05313586  1
  O  O28  1  0.72775017  0.45628313  0.82057545  1
  O  O29  1  0.27224983  0.54371687  0.82057545  1
  O  O30  1  0.22775017  0.04371687  0.17942455  1
  O  O31  1  0.77224983  0.95628313  0.17942455  1
  O  O32  1  0.50000000  0.50000000  0.16066049  1
  O  O33  1  0.00000000  0.00000000  0.83933951  1
