# generated using pymatgen
data_ZrTi3
_symmetry_space_group_name_H-M   'P 1'
_cell_length_a   6.06670598
_cell_length_b   6.06670696
_cell_length_c   4.76309290
_cell_angle_alpha   90.00000000
_cell_angle_beta   90.00000000
_cell_angle_gamma   120.00000050
_symmetry_Int_Tables_number   1
_chemical_formula_structural   ZrTi3
_chemical_formula_sum   'Zr2 Ti6'
_cell_volume   151.81883242
_cell_formula_units_Z   2
loop_
 _symmetry_equiv_pos_site_id
 _symmetry_equiv_pos_as_xyz
  1  'x, y, z'
loop_
 _atom_site_type_symbol
 _atom_site_label
 _atom_site_symmetry_multiplicity
 _atom_site_fract_x
 _atom_site_fract_y
 _atom_site_fract_z
 _atom_site_occupancy
  Zr  Zr0  1  0.33333400  0.66666700  0.75000100  1
  Zr  Zr1  1  0.66666700  0.33333300  0.24999900  1
  Ti  Ti2  1  0.16029399  0.32058799  0.24999900  1
  Ti  Ti3  1  0.67941201  0.83970701  0.24999900  1
  Ti  Ti4  1  0.16029399  0.83970701  0.24999900  1
  Ti  Ti5  1  0.83970501  0.67941101  0.75000100  1
  Ti  Ti6  1  0.32058899  0.16029499  0.75000100  1
  Ti  Ti7  1  0.83970601  0.16029499  0.75000100  1
