# generated using pymatgen
data_BaCd3
_symmetry_space_group_name_H-M   'P 1'
_cell_length_a   7.40934004
_cell_length_b   7.44755884
_cell_length_c   5.32422404
_cell_angle_alpha   90.00001382
_cell_angle_beta   89.99998031
_cell_angle_gamma   118.61035194
_symmetry_Int_Tables_number   1
_chemical_formula_structural   BaCd3
_chemical_formula_sum   'Ba2 Cd6'
_cell_volume   257.92479628
_cell_formula_units_Z   2
loop_
 _symmetry_equiv_pos_site_id
 _symmetry_equiv_pos_as_xyz
  1  'x, y, z'
loop_
 _atom_site_type_symbol
 _atom_site_label
 _atom_site_symmetry_multiplicity
 _atom_site_fract_x
 _atom_site_fract_y
 _atom_site_fract_z
 _atom_site_occupancy
  Ba  Ba0  1  0.33307832  0.66723994  0.75000100  1
  Ba  Ba1  1  0.66692068  0.33276006  0.25000000  1
  Cd  Cd2  1  0.14086992  0.28171790  0.25000000  1
  Cd  Cd3  1  0.71853579  0.85954006  0.25000000  1
  Cd  Cd4  1  0.14052442  0.86003844  0.25000000  1
  Cd  Cd5  1  0.85913108  0.71828210  0.75000100  1
  Cd  Cd6  1  0.28146521  0.14045994  0.75000100  1
  Cd  Cd7  1  0.85947558  0.13996156  0.75000000  1
