# generated using pymatgen
data_LuVO4
_symmetry_space_group_name_H-M   'P 1'
_cell_length_a   4.98111588
_cell_length_b   5.05946109
_cell_length_c   6.54803446
_cell_angle_alpha   112.34041117
_cell_angle_beta   111.96427447
_cell_angle_gamma   90.93787134
_symmetry_Int_Tables_number   1
_chemical_formula_structural   LuVO4
_chemical_formula_sum   'Lu2 V2 O8'
_cell_volume   139.11835602
_cell_formula_units_Z   2
loop_
 _symmetry_equiv_pos_site_id
 _symmetry_equiv_pos_as_xyz
  1  'x, y, z'
loop_
 _atom_site_type_symbol
 _atom_site_label
 _atom_site_symmetry_multiplicity
 _atom_site_fract_x
 _atom_site_fract_y
 _atom_site_fract_z
 _atom_site_occupancy
  Lu  Lu0  1  0.62416633  0.37416633  0.24833266  1
  Lu  Lu1  1  0.37583367  0.62583367  0.75166734  1
  V  V2  1  0.13008108  0.88008108  0.26016216  1
  V  V3  1  0.86991892  0.11991892  0.73983784  1
  O  O4  1  0.69713144  0.05747208  0.91066953  1
  O  O5  1  0.78646191  0.64680255  0.08933047  1
  O  O6  1  0.63516537  0.30270196  0.58441599  1
  O  O7  1  0.30286856  0.94252792  0.08933047  1
  O  O8  1  0.94925062  0.78171403  0.58441599  1
  O  O9  1  0.36483463  0.69729804  0.41558401  1
  O  O10  1  0.05074938  0.21828597  0.41558401  1
  O  O11  1  0.21353809  0.35319745  0.91066953  1
