# generated using pymatgen
data_Pb10SO13F2
_symmetry_space_group_name_H-M   'P 1'
_cell_length_a   9.70494650
_cell_length_b   10.58359679
_cell_length_c   11.17605881
_cell_angle_alpha   109.88365865
_cell_angle_beta   90.69485814
_cell_angle_gamma   107.41409135
_symmetry_Int_Tables_number   1
_chemical_formula_structural   Pb10SO13F2
_chemical_formula_sum   'Pb20 S2 O26 F4'
_cell_volume   1021.68447146
_cell_formula_units_Z   2
loop_
 _symmetry_equiv_pos_site_id
 _symmetry_equiv_pos_as_xyz
  1  'x, y, z'
loop_
 _atom_site_type_symbol
 _atom_site_label
 _atom_site_symmetry_multiplicity
 _atom_site_fract_x
 _atom_site_fract_y
 _atom_site_fract_z
 _atom_site_occupancy
  Pb  Pb0  1  0.53563303  0.55405018  0.81635237  1
  Pb  Pb1  1  0.46436697  0.44594982  0.18364763  1
  Pb  Pb2  1  0.65513865  0.95394476  0.90678398  1
  Pb  Pb3  1  0.34486135  0.04605524  0.09321602  1
  Pb  Pb4  1  0.56211138  0.69624337  0.55115306  1
  Pb  Pb5  1  0.43788862  0.30375663  0.44884694  1
  Pb  Pb6  1  0.17178785  0.50342857  0.41386804  1
  Pb  Pb7  1  0.82821215  0.49657143  0.58613196  1
  Pb  Pb8  1  0.58859171  0.83028924  0.17317140  1
  Pb  Pb9  1  0.41140829  0.16971076  0.82682860  1
  Pb  Pb10  1  0.18395231  0.65278882  0.16064064  1
  Pb  Pb11  1  0.81604769  0.34721118  0.83935936  1
  Pb  Pb12  1  0.91910150  0.76150667  0.96311805  1
  Pb  Pb13  1  0.08089850  0.23849333  0.03688195  1
  Pb  Pb14  1  0.27365803  0.75192675  0.75682111  1
  Pb  Pb15  1  0.72634197  0.24807325  0.24317889  1
  Pb  Pb16  1  0.27865762  0.89578480  0.47350776  1
  Pb  Pb17  1  0.72134238  0.10421520  0.52649224  1
  Pb  Pb18  1  0.89483216  0.72840255  0.31258020  1
  Pb  Pb19  1  0.10516784  0.27159745  0.68741980  1
  S  S20  1  0.97243602  0.92515562  0.70577465  1
  S  S21  1  0.02756398  0.07484438  0.29422535  1
  O  O22  1  0.50095252  0.73751557  0.76487978  1
  O  O23  1  0.49904748  0.26248443  0.23512022  1
  O  O24  1  0.40149230  0.48865994  0.39584900  1
  O  O25  1  0.59850770  0.51134006  0.60415100  1
  O  O26  1  0.57583794  0.00766740  0.11735742  1
  O  O27  1  0.42416206  0.99233260  0.88264258  1
  O  O28  1  0.32325383  0.73590202  0.55369272  1
  O  O29  1  0.67674617  0.26409798  0.44630728  1
  O  O30  1  0.68571405  0.75835452  0.97562358  1
  O  O31  1  0.31428595  0.24164548  0.02437642  1
  O  O32  1  0.10166212  0.69462652  0.35372086  1
  O  O33  1  0.89833788  0.30537348  0.64627914  1
  O  O34  1  0.20408695  0.46657501  0.18133029  1
  O  O35  1  0.79591305  0.53342499  0.81866971  1
  O  O36  1  0.85911198  0.81726012  0.74221678  1
  O  O37  1  0.14088802  0.18273988  0.25778322  1
  O  O38  1  0.90038064  0.00079626  0.19070646  1
  O  O39  1  0.09961936  0.99920374  0.80929354  1
  O  O40  1  0.02068514  0.85195461  0.58251404  1
  O  O41  1  0.97931486  0.14804539  0.41748596  1
  O  O42  1  0.90780671  0.03211777  0.69073752  1
  O  O43  1  0.09219329  0.96788223  0.30926248  1
  O  O44  1  0.36302004  0.82791789  0.27504806  1
  O  O45  1  0.63697996  0.17208211  0.72495194  1
  O  O46  1  0.97129540  0.64434600  0.10246074  1
  O  O47  1  0.02870460  0.35565400  0.89753926  1
  F  F48  1  0.34901022  0.66383940  0.01865037  1
  F  F49  1  0.65098978  0.33616060  0.98134963  1
  F  F50  1  0.77200807  0.52006771  0.35221581  1
  F  F51  1  0.22799193  0.47993229  0.64778419  1
