# generated using pymatgen
data_Dy(Mg4Al3)4
_symmetry_space_group_name_H-M   'P 1'
_cell_length_a   8.82143385
_cell_length_b   9.25721730
_cell_length_c   9.25721801
_cell_angle_alpha   110.40511157
_cell_angle_beta   108.52035701
_cell_angle_gamma   108.52036211
_symmetry_Int_Tables_number   1
_chemical_formula_structural   Dy(Mg4Al3)4
_chemical_formula_sum   'Dy1 Mg16 Al12'
_cell_volume   588.62758680
_cell_formula_units_Z   1
loop_
 _symmetry_equiv_pos_site_id
 _symmetry_equiv_pos_as_xyz
  1  'x, y, z'
loop_
 _atom_site_type_symbol
 _atom_site_label
 _atom_site_symmetry_multiplicity
 _atom_site_fract_x
 _atom_site_fract_y
 _atom_site_fract_z
 _atom_site_occupancy
  Dy  Dy0  1  0.37221584  0.00000100  1.00000000  1
  Mg  Mg1  1  0.99545805  0.34091347  1.00000000  1
  Mg  Mg2  1  0.31465580  0.59805142  0.99999900  1
  Mg  Mg3  1  0.99716919  1.00000000  0.00000100  1
  Mg  Mg4  1  0.61077297  0.33059947  0.00000000  1
  Mg  Mg5  1  0.68897530  0.68717734  0.29476777  1
  Mg  Mg6  1  0.00179797  0.60759043  0.31282266  1
  Mg  Mg7  1  0.61077397  0.00000000  0.33059947  1
  Mg  Mg8  1  0.99545805  0.99999900  0.34091347  1
  Mg  Mg9  1  0.39420854  0.70523323  0.39241057  1
  Mg  Mg10  1  0.71660538  0.40194858  0.40194958  1
  Mg  Mg11  1  0.31465580  1.00000000  0.59805142  1
  Mg  Mg12  1  0.00179797  0.31282266  0.60759043  1
  Mg  Mg13  1  0.65454458  0.65908553  0.65908553  1
  Mg  Mg14  1  0.28017350  0.66940053  0.66940053  1
  Mg  Mg15  1  0.68897530  0.29476777  0.68717734  1
  Mg  Mg16  1  0.39420854  0.39241057  0.70523323  1
  Al  Al17  1  0.62988915  0.81992605  0.00000000  1
  Al  Al18  1  0.81035240  0.63541842  0.00000000  1
  Al  Al19  1  0.36394863  0.36171007  0.17904526  1
  Al  Al20  1  0.80996210  0.18007595  0.18007495  1
  Al  Al21  1  0.18490237  0.82095274  0.18266281  1
  Al  Al22  1  0.17493398  0.36458258  0.36458258  1
  Al  Al23  1  0.36394863  0.17904626  0.36170907  1
  Al  Al24  1  0.00223856  0.81733719  0.63829093  1
  Al  Al25  1  0.81035240  1.00000000  0.63541842  1
  Al  Al26  1  0.00223856  0.63829093  0.81733719  1
  Al  Al27  1  0.62988915  0.00000000  0.81992605  1
  Al  Al28  1  0.18490137  0.18266381  0.82095274  1
