# generated using pymatgen
data_CeI3
_symmetry_space_group_name_H-M   'P 1'
_cell_length_a   11.00791500
_cell_length_b   11.00791698
_cell_length_c   4.13835677
_cell_angle_alpha   90.00000000
_cell_angle_beta   90.00000000
_cell_angle_gamma   119.99999870
_symmetry_Int_Tables_number   1
_chemical_formula_structural   CeI3
_chemical_formula_sum   'Ce2 I6'
_cell_volume   434.27895002
_cell_formula_units_Z   2
loop_
 _symmetry_equiv_pos_site_id
 _symmetry_equiv_pos_as_xyz
  1  'x, y, z'
loop_
 _atom_site_type_symbol
 _atom_site_label
 _atom_site_symmetry_multiplicity
 _atom_site_fract_x
 _atom_site_fract_y
 _atom_site_fract_z
 _atom_site_occupancy
  Ce  Ce0  1  0.66666600  0.33333300  0.24999900  1
  Ce  Ce1  1  0.33333300  0.66666700  0.75000000  1
  I  I2  1  0.41672005  0.20836003  0.75000000  1
  I  I3  1  0.79163997  0.20836003  0.75000000  1
  I  I4  1  0.20836003  0.41672005  0.24999900  1
  I  I5  1  0.58327995  0.79163997  0.24999900  1
  I  I6  1  0.20836003  0.79163997  0.24999900  1
  I  I7  1  0.79164097  0.58328095  0.75000000  1
