# generated using pymatgen
data_Er(Mg4Al3)4
_symmetry_space_group_name_H-M   'P 1'
_cell_length_a   8.84200965
_cell_length_b   9.24140659
_cell_length_c   9.24140716
_cell_angle_alpha   110.33008965
_cell_angle_beta   108.59806389
_cell_angle_gamma   108.59806813
_symmetry_Int_Tables_number   1
_chemical_formula_structural   Er(Mg4Al3)4
_chemical_formula_sum   'Er1 Mg16 Al12'
_cell_volume   587.45160169
_cell_formula_units_Z   1
loop_
 _symmetry_equiv_pos_site_id
 _symmetry_equiv_pos_as_xyz
  1  'x, y, z'
loop_
 _atom_site_type_symbol
 _atom_site_label
 _atom_site_symmetry_multiplicity
 _atom_site_fract_x
 _atom_site_fract_y
 _atom_site_fract_z
 _atom_site_occupancy
  Er  Er0  1  0.37188591  0.00000100  0.00000100  1
  Mg  Mg1  1  0.60995918  0.33026952  0.00000100  1
  Mg  Mg2  1  0.99831868  0.00000100  -0.00000000  1
  Mg  Mg3  1  0.31486794  0.59781930  1.00000000  1
  Mg  Mg4  1  0.99589074  0.34086730  1.00000000  1
  Mg  Mg5  1  0.68875355  0.68728458  0.29484252  1
  Mg  Mg6  1  0.00146897  0.60755794  0.31271542  1
  Mg  Mg7  1  0.60995818  0.00000000  0.33026952  1
  Mg  Mg8  1  0.99589174  1.00000000  0.34086730  1
  Mg  Mg9  1  0.39391303  0.70515848  0.39244406  1
  Mg  Mg10  1  0.71704965  0.40218170  0.40218170  1
  Mg  Mg11  1  0.31486794  0.00000100  0.59782030  1
  Mg  Mg12  1  0.00146897  0.31271542  0.60755794  1
  Mg  Mg13  1  0.65502444  0.65913270  0.65913170  1
  Mg  Mg14  1  0.27968966  0.66973048  0.66973048  1
  Mg  Mg15  1  0.68875355  0.29484252  0.68728458  1
  Mg  Mg16  1  0.39391303  0.39244406  0.70515848  1
  Al  Al17  1  0.81064289  0.63627589  0.00000000  1
  Al  Al18  1  0.62832852  0.81882791  0.00000000  1
  Al  Al19  1  0.36472563  0.36198622  0.17892696  1
  Al  Al20  1  0.80949861  0.18117109  0.18117209  1
  Al  Al21  1  0.18579767  0.82107204  0.18305826  1
  Al  Al22  1  0.36472663  0.17892696  0.36198622  1
  Al  Al23  1  0.17436600  0.36372511  0.36372511  1
  Al  Al24  1  0.81064289  0.00000000  0.63627589  1
  Al  Al25  1  0.00273941  0.81694174  0.63801378  1
  Al  Al26  1  0.00273941  0.63801378  0.81694174  1
  Al  Al27  1  0.62832752  0.00000000  0.81882791  1
  Al  Al28  1  0.18579767  0.18305826  0.82107104  1
