# generated using pymatgen
data_EuAu3
_symmetry_space_group_name_H-M   'P 1'
_cell_length_a   6.53691511
_cell_length_b   6.53691646
_cell_length_c   4.91039535
_cell_angle_alpha   90.00000000
_cell_angle_beta   90.00000000
_cell_angle_gamma   120.00000438
_symmetry_Int_Tables_number   1
_chemical_formula_structural   EuAu3
_chemical_formula_sum   'Eu2 Au6'
_cell_volume   181.71586785
_cell_formula_units_Z   2
loop_
 _symmetry_equiv_pos_site_id
 _symmetry_equiv_pos_as_xyz
  1  'x, y, z'
loop_
 _atom_site_type_symbol
 _atom_site_label
 _atom_site_symmetry_multiplicity
 _atom_site_fract_x
 _atom_site_fract_y
 _atom_site_fract_z
 _atom_site_occupancy
  Eu  Eu0  1  0.33333300  0.66666700  0.74999900  1
  Eu  Eu1  1  0.66666700  0.33333300  0.25000000  1
  Au  Au2  1  0.15210288  0.30420676  0.25000000  1
  Au  Au3  1  0.69579424  0.84789712  0.25000000  1
  Au  Au4  1  0.15210288  0.84789712  0.25000000  1
  Au  Au5  1  0.84789712  0.69579124  0.74999900  1
  Au  Au6  1  0.30420776  0.15210488  0.74999900  1
  Au  Au7  1  0.84789712  0.15210488  0.74999900  1
