# generated using pymatgen
data_Y(BO2)6
_symmetry_space_group_name_H-M   'P 1'
_cell_length_a   8.54454697
_cell_length_b   8.54454214
_cell_length_c   8.51762428
_cell_angle_alpha   59.89540231
_cell_angle_beta   59.89662732
_cell_angle_gamma   60.00001237
_symmetry_Int_Tables_number   1
_chemical_formula_structural   Y(BO2)6
_chemical_formula_sum   'Y2 B12 O24'
_cell_volume   439.03280443
_cell_formula_units_Z   2
loop_
 _symmetry_equiv_pos_site_id
 _symmetry_equiv_pos_as_xyz
  1  'x, y, z'
loop_
 _atom_site_type_symbol
 _atom_site_label
 _atom_site_symmetry_multiplicity
 _atom_site_fract_x
 _atom_site_fract_y
 _atom_site_fract_z
 _atom_site_occupancy
  Y  Y0  1  0.17999290  0.17999822  0.46000371  1
  Y  Y1  1  0.67999290  0.68000516  0.96000371  1
  B  B2  1  0.57363131  0.79627101  0.56656734  1
  B  B3  1  0.79624839  0.06350934  0.56659634  1
  B  B4  1  0.06353592  0.57366789  0.56659292  1
  B  B5  1  0.07363131  0.56353034  0.06656734  1
  B  B6  1  0.56353592  0.29620327  0.06659292  1
  B  B7  1  0.29624839  0.07364592  0.06659634  1
  B  B8  1  0.76861909  0.46711879  0.71284553  1
  B  B9  1  0.46711846  0.05141668  0.71284230  1
  B  B10  1  0.05140879  0.76862477  0.71284095  1
  B  B11  1  0.26861909  0.55141660  0.21284553  1
  B  B12  1  0.55140879  0.96712549  0.21284095  1
  B  B13  1  0.96711846  0.26862257  0.21284230  1
  O  O14  1  0.50840668  0.93985746  0.41597090  1
  O  O15  1  0.93987640  0.13577931  0.41593710  1
  O  O16  1  0.13577664  0.50840277  0.41593213  1
  O  O17  1  0.00840668  0.63576496  0.91597090  1
  O  O18  1  0.63577664  0.43988846  0.91593213  1
  O  O19  1  0.43987640  0.00840719  0.91593710  1
  O  O20  1  0.86764046  0.29067973  0.66882095  1
  O  O21  1  0.29067220  0.17286316  0.66881973  1
  O  O22  1  0.17285977  0.86765169  0.66881637  1
  O  O23  1  0.36764046  0.67285886  0.16882095  1
  O  O24  1  0.67285977  0.79067217  0.16881637  1
  O  O25  1  0.79067220  0.36764491  0.16881973  1
  O  O26  1  0.39874919  0.34995221  0.21397964  1
  O  O27  1  0.34993025  0.03733243  0.21395548  1
  O  O28  1  0.03732106  0.39876395  0.21397003  1
  O  O29  1  0.89874919  0.53731896  0.71397964  1
  O  O30  1  0.53732106  0.84994496  0.71397003  1
  O  O31  1  0.84993025  0.89878184  0.71395548  1
  O  O32  1  0.67136116  0.61016234  0.57440512  1
  O  O33  1  0.61015964  0.14407489  0.57439984  1
  O  O34  1  0.14406169  0.67133838  0.57439362  1
  O  O35  1  0.17136116  0.64407137  0.07440512  1
  O  O36  1  0.64406169  0.11020631  0.07439362  1
  O  O37  1  0.11015964  0.17136563  0.07439984  1
