# generated using pymatgen
data_K3Al3OF12
_symmetry_space_group_name_H-M   'P 1'
_cell_length_a   6.76015310
_cell_length_b   7.17330545
_cell_length_c   12.26738784
_cell_angle_alpha   90.00000000
_cell_angle_beta   90.00000000
_cell_angle_gamma   90.00000000
_symmetry_Int_Tables_number   1
_chemical_formula_structural   K3Al3OF12
_chemical_formula_sum   'K6 Al6 O2 F24'
_cell_volume   594.87805999
_cell_formula_units_Z   2
loop_
 _symmetry_equiv_pos_site_id
 _symmetry_equiv_pos_as_xyz
  1  'x, y, z'
loop_
 _atom_site_type_symbol
 _atom_site_label
 _atom_site_symmetry_multiplicity
 _atom_site_fract_x
 _atom_site_fract_y
 _atom_site_fract_z
 _atom_site_occupancy
  K  K0  1  0.47946335  0.25000000  0.57582807  1
  K  K1  1  0.47946335  0.25000000  0.92417193  1
  K  K2  1  0.52053665  0.75000000  0.42417193  1
  K  K3  1  0.52053665  0.75000000  0.07582807  1
  K  K4  1  0.82878951  0.25000000  0.25000000  1
  K  K5  1  0.17121049  0.75000000  0.75000000  1
  Al  Al6  1  0.00000000  -0.00000000  0.00000000  1
  Al  Al7  1  0.00000000  0.50000000  0.00000000  1
  Al  Al8  1  0.00000000  0.00000000  0.50000000  1
  Al  Al9  1  0.00000000  0.50000000  0.50000000  1
  Al  Al10  1  0.95337111  0.25000000  0.75000000  1
  Al  Al11  1  0.04662889  0.75000000  0.25000000  1
  O  O12  1  0.38903318  0.25000000  0.25000000  1
  O  O13  1  0.61096682  0.75000000  0.75000000  1
  F  F14  1  0.95024747  0.06252351  0.85575251  1
  F  F15  1  0.95024747  0.43747649  0.85575251  1
  F  F16  1  0.95024747  0.06252351  0.64424749  1
  F  F17  1  0.95024747  0.43747649  0.64424749  1
  F  F18  1  0.04975253  0.93747649  0.14424749  1
  F  F19  1  0.04975253  0.56252351  0.14424749  1
  F  F20  1  0.04975253  0.93747649  0.35575251  1
  F  F21  1  0.04975253  0.56252351  0.35575251  1
  F  F22  1  0.74695966  0.03879387  0.03460847  1
  F  F23  1  0.74695966  0.46120613  0.03460847  1
  F  F24  1  0.74695966  0.03879387  0.46539153  1
  F  F25  1  0.74695966  0.46120613  0.46539153  1
  F  F26  1  0.25304034  0.96120613  0.96539153  1
  F  F27  1  0.25304034  0.53879387  0.96539153  1
  F  F28  1  0.25304034  0.96120613  0.53460847  1
  F  F29  1  0.25304034  0.53879387  0.53460847  1
  F  F30  1  0.94233321  0.75000000  0.96525365  1
  F  F31  1  0.94233321  0.75000000  0.53474635  1
  F  F32  1  0.05766679  0.25000000  0.03474635  1
  F  F33  1  0.05766679  0.25000000  0.46525365  1
  F  F34  1  0.69156489  0.25000000  0.75000000  1
  F  F35  1  0.30843511  0.75000000  0.25000000  1
  F  F36  1  0.21646870  0.25000000  0.75000000  1
  F  F37  1  0.78353130  0.75000000  0.25000000  1
