# generated using pymatgen
data_Gd(Mg4Al3)4
_symmetry_space_group_name_H-M   'P 1'
_cell_length_a   8.80991102
_cell_length_b   9.24734787
_cell_length_c   9.24734847
_cell_angle_alpha   110.40954973
_cell_angle_beta   108.51575643
_cell_angle_gamma   108.51574531
_symmetry_Int_Tables_number   1
_chemical_formula_structural   Gd(Mg4Al3)4
_chemical_formula_sum   'Gd1 Mg16 Al12'
_cell_volume   586.63753445
_cell_formula_units_Z   1
loop_
 _symmetry_equiv_pos_site_id
 _symmetry_equiv_pos_as_xyz
  1  'x, y, z'
loop_
 _atom_site_type_symbol
 _atom_site_label
 _atom_site_symmetry_multiplicity
 _atom_site_fract_x
 _atom_site_fract_y
 _atom_site_fract_z
 _atom_site_occupancy
  Gd  Gd0  1  0.37524264  0.00000000  -0.00000000  1
  Mg  Mg1  1  0.99480636  0.33974980  0.99999900  1
  Mg  Mg2  1  0.99700554  0.00000000  1.00000000  1
  Mg  Mg3  1  0.31513251  0.59987716  -0.00000000  1
  Mg  Mg4  1  0.61135762  0.33050942  1.00000000  1
  Mg  Mg5  1  0.68884427  0.68720831  0.29486737  1
  Mg  Mg6  1  0.00163597  0.60765906  0.31279169  1
  Mg  Mg7  1  0.61135762  1.00000000  0.33050942  1
  Mg  Mg8  1  0.99480736  0.99999900  0.33974980  1
  Mg  Mg9  1  0.39397691  0.70513263  0.39234194  1
  Mg  Mg10  1  0.71525635  0.40012484  0.40012384  1
  Mg  Mg11  1  0.31513251  -0.00000000  0.59987716  1
  Mg  Mg12  1  0.00163597  0.31279169  0.60765906  1
  Mg  Mg13  1  0.65505656  0.66024820  0.66024820  1
  Mg  Mg14  1  0.28084820  0.66948958  0.66949058  1
  Mg  Mg15  1  0.68884427  0.29486737  0.68720831  1
  Mg  Mg16  1  0.39397691  0.39234094  0.70513263  1
  Al  Al17  1  0.62983772  0.81966976  0.00000000  1
  Al  Al18  1  0.81102626  0.63751059  1.00000000  1
  Al  Al19  1  0.36317625  0.36063350  0.17905982  1
  Al  Al20  1  0.81016695  0.18032924  0.18032924  1
  Al  Al21  1  0.18411543  0.82093818  0.18157268  1
  Al  Al22  1  0.17351567  0.36248941  0.36249041  1
  Al  Al23  1  0.36317725  0.17905982  0.36063350  1
  Al  Al24  1  0.00254275  0.81842732  0.63936750  1
  Al  Al25  1  0.81102726  1.00000000  0.63751059  1
  Al  Al26  1  0.00254275  0.63936650  0.81842732  1
  Al  Al27  1  0.62983872  -0.00000000  0.81966976  1
  Al  Al28  1  0.18411643  0.18157268  0.82093918  1
