# generated using pymatgen
data_Mg16PaAl12
_symmetry_space_group_name_H-M   'P 1'
_cell_length_a   9.12285684
_cell_length_b   9.12285662
_cell_length_c   9.12285684
_cell_angle_alpha   109.47122154
_cell_angle_beta   109.47121419
_cell_angle_gamma   109.47122154
_symmetry_Int_Tables_number   1
_chemical_formula_structural   Mg16PaAl12
_chemical_formula_sum   'Mg16 Pa1 Al12'
_cell_volume   584.48141018
_cell_formula_units_Z   1
loop_
 _symmetry_equiv_pos_site_id
 _symmetry_equiv_pos_as_xyz
  1  'x, y, z'
loop_
 _atom_site_type_symbol
 _atom_site_label
 _atom_site_symmetry_multiplicity
 _atom_site_fract_x
 _atom_site_fract_y
 _atom_site_fract_z
 _atom_site_occupancy
  Mg  Mg0  1  0.32087825  0.60444967  0.99999900  1
  Mg  Mg1  1  0.36206314  0.00000000  0.00000000  1
  Mg  Mg2  1  1.00000000  0.36206314  1.00000000  1
  Mg  Mg3  1  0.60444867  0.32087825  0.00000000  1
  Mg  Mg4  1  0.67912175  0.67912175  0.28357142  1
  Mg  Mg5  1  0.60444967  1.00000000  0.32087825  1
  Mg  Mg6  1  0.99999900  0.60444967  0.32087825  1
  Mg  Mg7  1  0.00000000  0.00000000  0.36206314  1
  Mg  Mg8  1  0.71642958  0.39555133  0.39555033  1
  Mg  Mg9  1  0.39555133  0.71642958  0.39555133  1
  Mg  Mg10  1  0.00000000  0.32087825  0.60444867  1
  Mg  Mg11  1  0.32087825  1.00000000  0.60444967  1
  Mg  Mg12  1  0.63793586  0.63793586  0.63793586  1
  Mg  Mg13  1  0.67912175  0.28357142  0.67912175  1
  Mg  Mg14  1  0.28357142  0.67912175  0.67912175  1
  Mg  Mg15  1  0.39555033  0.39555133  0.71642958  1
  Pa  Pa16  1  -0.00000000  -0.00000000  -0.00000000  1
  Al  Al17  1  0.81451516  0.63338827  0.00000000  1
  Al  Al18  1  0.63338827  0.81451416  1.00000000  1
  Al  Al19  1  0.36661273  0.36661273  0.18112689  1
  Al  Al20  1  0.81887211  0.18548484  0.18548484  1
  Al  Al21  1  0.18548484  0.81887211  0.18548484  1
  Al  Al22  1  0.36661273  0.18112689  0.36661273  1
  Al  Al23  1  0.18112689  0.36661273  0.36661273  1
  Al  Al24  1  0.81451516  0.00000000  0.63338827  1
  Al  Al25  1  1.00000000  0.81451416  0.63338827  1
  Al  Al26  1  0.00000000  0.63338827  0.81451516  1
  Al  Al27  1  0.63338827  0.00000000  0.81451516  1
  Al  Al28  1  0.18548484  0.18548484  0.81887211  1
