# generated using pymatgen
data_Mg5In
_symmetry_space_group_name_H-M   'P 1'
_cell_length_a   5.45410379
_cell_length_b   5.45261033
_cell_length_c   6.26793908
_cell_angle_alpha   116.74903768
_cell_angle_beta   63.24223862
_cell_angle_gamma   120.00868659
_symmetry_Int_Tables_number   1
_chemical_formula_structural   Mg5In
_chemical_formula_sum   'Mg5 In1'
_cell_volume   137.89852809
_cell_formula_units_Z   1
loop_
 _symmetry_equiv_pos_site_id
 _symmetry_equiv_pos_as_xyz
  1  'x, y, z'
loop_
 _atom_site_type_symbol
 _atom_site_label
 _atom_site_symmetry_multiplicity
 _atom_site_fract_x
 _atom_site_fract_y
 _atom_site_fract_z
 _atom_site_occupancy
  Mg  Mg0  1  0.66670233  0.33335005  0.00000708  1
  Mg  Mg1  1  0.00039729  0.99951362  0.99996551  1
  Mg  Mg2  1  0.33278600  0.66714545  0.00004850  1
  Mg  Mg3  1  0.50052571  0.83284199  0.49870807  1
  Mg  Mg4  1  0.16618266  0.16726352  0.50132536  1
  In  In5  1  0.83340600  0.49988537  0.49994647  1
