# generated using pymatgen
data_LiMg17Al11
_symmetry_space_group_name_H-M   'P 1'
_cell_length_a   9.12873978
_cell_length_b   9.25223151
_cell_length_c   9.05717128
_cell_angle_alpha   109.79880930
_cell_angle_beta   109.24289050
_cell_angle_gamma   109.96231813
_symmetry_Int_Tables_number   1
_chemical_formula_structural   LiMg17Al11
_chemical_formula_sum   'Li1 Mg17 Al11'
_cell_volume   584.53288997
_cell_formula_units_Z   1
loop_
 _symmetry_equiv_pos_site_id
 _symmetry_equiv_pos_as_xyz
  1  'x, y, z'
loop_
 _atom_site_type_symbol
 _atom_site_label
 _atom_site_symmetry_multiplicity
 _atom_site_fract_x
 _atom_site_fract_y
 _atom_site_fract_z
 _atom_site_occupancy
  Li  Li0  1  0.81596914  0.63412569  0.00000000  1
  Mg  Mg1  1  0.34693677  0.00208878  0.99999900  1
  Mg  Mg2  1  0.60219960  0.31555213  1.00000000  1
  Mg  Mg3  1  0.99955255  0.99869126  0.99999900  1
  Mg  Mg4  1  0.99929632  0.34442420  0.00000000  1
  Mg  Mg5  1  0.31710824  0.60299204  1.00000000  1
  Mg  Mg6  1  0.68430990  0.68435591  0.28598953  1
  Mg  Mg7  1  0.99999065  0.60288620  0.31520734  1
  Mg  Mg8  1  0.59856223  0.99857046  0.31573334  1
  Mg  Mg9  1  0.99981289  0.99943351  0.34369850  1
  Mg  Mg10  1  0.39787031  0.71333538  0.39804806  1
  Mg  Mg11  1  0.71496693  0.39897715  0.39917181  1
  Mg  Mg12  1  0.31579512  -0.00019467  0.60082819  1
  Mg  Mg13  1  -0.00017775  0.31528631  0.60195194  1
  Mg  Mg14  1  0.65611239  0.65573301  0.65630150  1
  Mg  Mg15  1  0.28282889  0.68283612  0.68426566  1
  Mg  Mg16  1  0.68478231  0.28767986  0.68479266  1
  Mg  Mg17  1  0.39832137  0.39836739  0.71401147  1
  Al  Al18  1  0.63647256  0.81519212  0.99999900  1
  Al  Al19  1  0.36462675  0.36706512  0.18198541  1
  Al  Al20  1  0.18798420  0.81909911  0.18538470  1
  Al  Al21  1  0.81689846  0.18368108  0.18556410  1
  Al  Al22  1  0.36505284  0.18042485  0.36292417  1
  Al  Al23  1  0.18054795  0.36503084  0.36507646  1
  Al  Al24  1  0.81547248  0.99995437  0.63492354  1
  Al  Al25  1  0.00212868  0.81750068  0.63707683  1
  Al  Al26  1  0.63133536  0.99811699  0.81443490  1
  Al  Al27  1  0.00260050  0.63371541  0.81461630  1
  Al  Al28  1  0.18264034  0.18507871  0.81801359  1
