# generated using pymatgen
data_P4N7
_symmetry_space_group_name_H-M   'P 1'
_cell_length_a   4.94341906
_cell_length_b   7.22410680
_cell_length_c   15.24184258
_cell_angle_alpha   91.85679791
_cell_angle_beta   90.00000000
_cell_angle_gamma   90.00000000
_symmetry_Int_Tables_number   1
_chemical_formula_structural   P4N7
_chemical_formula_sum   'P16 N28'
_cell_volume   544.02763748
_cell_formula_units_Z   4
loop_
 _symmetry_equiv_pos_site_id
 _symmetry_equiv_pos_as_xyz
  1  'x, y, z'
loop_
 _atom_site_type_symbol
 _atom_site_label
 _atom_site_symmetry_multiplicity
 _atom_site_fract_x
 _atom_site_fract_y
 _atom_site_fract_z
 _atom_site_occupancy
  P  P0  1  0.29861496  0.76623601  0.95211233  1
  P  P1  1  0.79861496  0.23376399  0.54788767  1
  P  P2  1  0.70138504  0.23376399  0.04788767  1
  P  P3  1  0.20138504  0.76623601  0.45211233  1
  P  P4  1  0.62974271  0.95209777  0.20121590  1
  P  P5  1  0.12974271  0.04790223  0.29878410  1
  P  P6  1  0.37025729  0.04790223  0.79878410  1
  P  P7  1  0.87025729  0.95209777  0.70121590  1
  P  P8  1  0.31007882  0.48189296  0.80477257  1
  P  P9  1  0.81007882  0.51810704  0.69522743  1
  P  P10  1  0.68992118  0.51810704  0.19522743  1
  P  P11  1  0.18992118  0.48189296  0.30477257  1
  P  P12  1  0.79961606  0.81232969  0.05532482  1
  P  P13  1  0.29961606  0.18767031  0.44467518  1
  P  P14  1  0.20038394  0.18767031  0.94467518  1
  P  P15  1  0.70038394  0.81232969  0.55532482  1
  N  N16  1  0.70814448  0.73752288  0.15662884  1
  N  N17  1  0.20814448  0.26247712  0.34337116  1
  N  N18  1  0.29185552  0.26247712  0.84337116  1
  N  N19  1  0.79185552  0.73752288  0.65662884  1
  N  N20  1  0.11140024  0.79671023  0.03688189  1
  N  N21  1  0.61140024  0.20328977  0.46311811  1
  N  N22  1  0.88859976  0.20328977  0.96311811  1
  N  N23  1  0.38859976  0.79671023  0.53688189  1
  N  N24  1  0.61060713  0.74344767  0.97753968  1
  N  N25  1  0.11060713  0.25655233  0.52246032  1
  N  N26  1  0.38939287  0.25655233  0.02246032  1
  N  N27  1  0.88939287  0.74344767  0.47753968  1
  N  N28  1  0.20383738  0.60803105  0.88517206  1
  N  N29  1  0.70383738  0.39196895  0.61482794  1
  N  N30  1  0.79616262  0.39196895  0.11482794  1
  N  N31  1  0.29616262  0.60803105  0.38517206  1
  N  N32  1  0.62000550  0.51643084  0.78013624  1
  N  N33  1  0.12000550  0.48356916  0.71986376  1
  N  N34  1  0.37999450  0.48356916  0.21986376  1
  N  N35  1  0.87999450  0.51643084  0.28013624  1
  N  N36  1  0.81862982  0.02721967  0.27768531  1
  N  N37  1  0.31862982  0.97278033  0.22231469  1
  N  N38  1  0.18137018  0.97278033  0.72231469  1
  N  N39  1  0.68137018  0.02721967  0.77768531  1
  N  N40  1  0.28431192  0.97353492  0.90040406  1
  N  N41  1  0.78431192  0.02646508  0.59959594  1
  N  N42  1  0.71568808  0.02646508  0.09959594  1
  N  N43  1  0.21568808  0.97353492  0.40040406  1
