# generated using pymatgen
data_MgPt2
_symmetry_space_group_name_H-M   'P 1'
_cell_length_a   4.53728090
_cell_length_b   4.91892408
_cell_length_c   4.91892499
_cell_angle_alpha   60.00000001
_cell_angle_beta   90.00000000
_cell_angle_gamma   90.00000000
_symmetry_Int_Tables_number   1
_chemical_formula_structural   MgPt2
_chemical_formula_sum   'Mg2 Pt4'
_cell_volume   95.07506214
_cell_formula_units_Z   2
loop_
 _symmetry_equiv_pos_site_id
 _symmetry_equiv_pos_as_xyz
  1  'x, y, z'
loop_
 _atom_site_type_symbol
 _atom_site_label
 _atom_site_symmetry_multiplicity
 _atom_site_fract_x
 _atom_site_fract_y
 _atom_site_fract_z
 _atom_site_occupancy
  Mg  Mg0  1  0.50000000  0.66666500  0.33333500  1
  Mg  Mg1  1  0.50000000  -0.00000000  0.66666700  1
  Pt  Pt2  1  0.50000000  0.33333300  0.00000000  1
  Pt  Pt3  1  0.00000000  0.33333300  0.33339850  1
  Pt  Pt4  1  -0.00000000  0.66672950  0.66660250  1
  Pt  Pt5  1  -0.00000000  -0.00006350  0.99999800  1
