# generated using pymatgen
data_PmNd
_symmetry_space_group_name_H-M   'P 1'
_cell_length_a   3.67281827
_cell_length_b   3.67278925
_cell_length_c   6.02925612
_cell_angle_alpha   90.00735579
_cell_angle_beta   89.99264618
_cell_angle_gamma   119.99654311
_symmetry_Int_Tables_number   1
_chemical_formula_structural   PmNd
_chemical_formula_sum   'Pm1 Nd1'
_cell_volume   70.43766256
_cell_formula_units_Z   1
loop_
 _symmetry_equiv_pos_site_id
 _symmetry_equiv_pos_as_xyz
  1  'x, y, z'
loop_
 _atom_site_type_symbol
 _atom_site_label
 _atom_site_symmetry_multiplicity
 _atom_site_fract_x
 _atom_site_fract_y
 _atom_site_fract_z
 _atom_site_occupancy
  Pm  Pm0  1  0.33331034  0.66668809  0.24998600  1
  Nd  Nd1  1  0.66669166  0.33331291  0.75001300  1
