# generated using pymatgen
data_Pm(Mg4Al3)4
_symmetry_space_group_name_H-M   'P 1'
_cell_length_a   8.90537319
_cell_length_b   9.28833854
_cell_length_c   9.28833968
_cell_angle_alpha   110.29131976
_cell_angle_beta   108.63811679
_cell_angle_gamma   108.63811158
_symmetry_Int_Tables_number   1
_chemical_formula_structural   Pm(Mg4Al3)4
_chemical_formula_sum   'Pm1 Mg16 Al12'
_cell_volume   597.40478262
_cell_formula_units_Z   1
loop_
 _symmetry_equiv_pos_site_id
 _symmetry_equiv_pos_as_xyz
  1  'x, y, z'
loop_
 _atom_site_type_symbol
 _atom_site_label
 _atom_site_symmetry_multiplicity
 _atom_site_fract_x
 _atom_site_fract_y
 _atom_site_fract_z
 _atom_site_occupancy
  Pm  Pm0  1  0.37465928  0.99999900  0.99999900  1
  Mg  Mg1  1  0.61276933  0.33158470  1.00000000  1
  Mg  Mg2  1  0.99596773  1.00000000  0.00000000  1
  Mg  Mg3  1  0.99551123  0.34074716  1.00000000  1
  Mg  Mg4  1  0.31520668  0.59914542  0.00000000  1
  Mg  Mg5  1  0.68850924  0.68707224  0.29445803  1
  Mg  Mg6  1  0.00143800  0.60738579  0.31292776  1
  Mg  Mg7  1  0.61276933  0.00000000  0.33158570  1
  Mg  Mg8  1  0.99551023  1.00000000  0.34074716  1
  Mg  Mg9  1  0.39405322  0.70554397  0.39261521  1
  Mg  Mg10  1  0.71606226  0.40085458  0.40085558  1
  Mg  Mg11  1  0.31520668  0.00000000  0.59914542  1
  Mg  Mg12  1  0.00143800  0.31292776  0.60738579  1
  Mg  Mg13  1  0.65476308  0.65925184  0.65925184  1
  Mg  Mg14  1  0.28118462  0.66841430  0.66841430  1
  Mg  Mg15  1  0.68850924  0.29445803  0.68707224  1
  Mg  Mg16  1  0.39405322  0.39261521  0.70554297  1
  Al  Al17  1  0.63002890  0.81794788  0.99999900  1
  Al  Al18  1  0.81089377  0.63724898  0.00000000  1
  Al  Al19  1  0.36334646  0.36332745  0.17930120  1
  Al  Al20  1  0.81208002  0.18205112  0.18205212  1
  Al  Al21  1  0.18404427  0.82069780  0.18402526  1
  Al  Al22  1  0.17364480  0.36275202  0.36275202  1
  Al  Al23  1  0.36334746  0.17930120  0.36332745  1
  Al  Al24  1  0.00001901  0.81597474  0.63667255  1
  Al  Al25  1  0.81089277  0.00000000  0.63724998  1
  Al  Al26  1  0.00001901  0.63667255  0.81597474  1
  Al  Al27  1  0.63002790  0.00000000  0.81794788  1
  Al  Al28  1  0.18404427  0.18402526  0.82069680  1
