# generated using pymatgen
data_Pr(Mg4Al3)4
_symmetry_space_group_name_H-M   'P 1'
_cell_length_a   8.90440658
_cell_length_b   9.30492949
_cell_length_c   9.30492975
_cell_angle_alpha   110.32670010
_cell_angle_beta   108.60156661
_cell_angle_gamma   108.60156548
_symmetry_Int_Tables_number   1
_chemical_formula_structural   Pr(Mg4Al3)4
_chemical_formula_sum   'Pr1 Mg16 Al12'
_cell_volume   599.73343244
_cell_formula_units_Z   1
loop_
 _symmetry_equiv_pos_site_id
 _symmetry_equiv_pos_as_xyz
  1  'x, y, z'
loop_
 _atom_site_type_symbol
 _atom_site_label
 _atom_site_symmetry_multiplicity
 _atom_site_fract_x
 _atom_site_fract_y
 _atom_site_fract_z
 _atom_site_occupancy
  Pr  Pr0  1  0.37663194  1.00000000  0.99999900  1
  Mg  Mg1  1  0.99425043  0.00000000  0.00000000  1
  Mg  Mg2  1  0.99464042  0.34048953  1.00000000  1
  Mg  Mg3  1  0.31521574  0.59961362  0.00000000  1
  Mg  Mg4  1  0.61429919  0.33209109  0.00000100  1
  Mg  Mg5  1  0.68839061  0.68691365  0.29399974  1
  Mg  Mg6  1  0.00147797  0.60708710  0.31308735  1
  Mg  Mg7  1  0.61429919  1.00000000  0.33209109  1
  Mg  Mg8  1  0.99464042  0.99999900  0.34049053  1
  Mg  Mg9  1  0.39439087  0.70600126  0.39291390  1
  Mg  Mg10  1  0.71560313  0.40038838  0.40038738  1
  Mg  Mg11  1  0.31521574  0.00000000  0.59961362  1
  Mg  Mg12  1  0.00147797  0.31308735  0.60708810  1
  Mg  Mg13  1  0.65414989  0.65950947  0.65950847  1
  Mg  Mg14  1  0.28220810  0.66790991  0.66790891  1
  Mg  Mg15  1  0.68839061  0.29399974  0.68691265  1
  Mg  Mg16  1  0.39439087  0.39291290  0.70600126  1
  Al  Al17  1  0.81057674  0.63729470  0.00000000  1
  Al  Al18  1  0.63159068  0.81861272  0.00000000  1
  Al  Al19  1  0.36244628  0.36300784  0.17946245  1
  Al  Al20  1  0.81297696  0.18138728  0.18138728  1
  Al  Al21  1  0.18298182  0.82053655  0.18354539  1
  Al  Al22  1  0.17328204  0.36270630  0.36270630  1
  Al  Al23  1  0.36244628  0.17946345  0.36300884  1
  Al  Al24  1  0.99943844  0.81645561  0.63699316  1
  Al  Al25  1  0.81057674  0.00000100  0.63729370  1
  Al  Al26  1  0.99943744  0.63699316  0.81645561  1
  Al  Al27  1  0.63159168  1.00000000  0.81861172  1
  Al  Al28  1  0.18298182  0.18354539  0.82053655  1
