# generated using pymatgen
data_Tb(Mg4Al3)4
_symmetry_space_group_name_H-M   'P 1'
_cell_length_a   8.83833763
_cell_length_b   9.25489002
_cell_length_c   9.25488933
_cell_angle_alpha   110.36495390
_cell_angle_beta   108.56198290
_cell_angle_gamma   108.56198474
_symmetry_Int_Tables_number   1
_chemical_formula_structural   Tb(Mg4Al3)4
_chemical_formula_sum   'Tb1 Mg16 Al12'
_cell_volume   589.17172872
_cell_formula_units_Z   1
loop_
 _symmetry_equiv_pos_site_id
 _symmetry_equiv_pos_as_xyz
  1  'x, y, z'
loop_
 _atom_site_type_symbol
 _atom_site_label
 _atom_site_symmetry_multiplicity
 _atom_site_fract_x
 _atom_site_fract_y
 _atom_site_fract_z
 _atom_site_occupancy
  Tb  Tb0  1  0.37229576  0.00000000  -0.00000000  1
  Mg  Mg1  1  0.31474951  0.59805954  0.00000000  1
  Mg  Mg2  1  0.99715426  0.00000000  0.00000000  1
  Mg  Mg3  1  0.99553552  0.34100898  0.00000100  1
  Mg  Mg4  1  0.61107738  0.33091132  0.00000100  1
  Mg  Mg5  1  0.68890448  0.68714148  0.29477605  1
  Mg  Mg6  1  0.00176199  0.60763456  0.31285752  1
  Mg  Mg7  1  0.61107738  0.00000100  0.33091132  1
  Mg  Mg8  1  0.99553552  0.00000000  0.34100998  1
  Mg  Mg9  1  0.39412843  0.70522395  0.39236644  1
  Mg  Mg10  1  0.71669096  0.40194046  0.40194046  1
  Mg  Mg11  1  0.31474951  0.99999900  0.59806054  1
  Mg  Mg12  1  0.00176199  0.31285752  0.60763356  1
  Mg  Mg13  1  0.65452554  0.65899002  0.65899002  1
  Mg  Mg14  1  0.28016605  0.66908768  0.66908768  1
  Mg  Mg15  1  0.68890448  0.29477605  0.68714148  1
  Mg  Mg16  1  0.39412843  0.39236644  0.70522395  1
  Al  Al17  1  0.81051376  0.63573973  0.99999900  1
  Al  Al18  1  0.62966996  0.81924524  0.99999900  1
  Al  Al19  1  0.36405921  0.36234189  0.17919395  1
  Al  Al20  1  0.81042272  0.18075476  0.18075476  1
  Al  Al21  1  0.18486526  0.82080505  0.18314794  1
  Al  Al22  1  0.17477403  0.36426027  0.36426127  1
  Al  Al23  1  0.36406021  0.17919395  0.36234189  1
  Al  Al24  1  0.00171833  0.81685306  0.63765911  1
  Al  Al25  1  0.81051276  0.00000000  0.63573973  1
  Al  Al26  1  0.00171833  0.63765911  0.81685306  1
  Al  Al27  1  0.62966896  1.00000000  0.81924524  1
  Al  Al28  1  0.18486526  0.18314794  0.82080505  1
