# generated using pymatgen
data_Pr3Lu
_symmetry_space_group_name_H-M   'P 1'
_cell_length_a   7.34396321
_cell_length_b   7.34396309
_cell_length_c   5.98163465
_cell_angle_alpha   90.00000000
_cell_angle_beta   90.00000000
_cell_angle_gamma   120.00000576
_symmetry_Int_Tables_number   1
_chemical_formula_structural   Pr3Lu
_chemical_formula_sum   'Pr6 Lu2'
_cell_volume   279.39039276
_cell_formula_units_Z   2
loop_
 _symmetry_equiv_pos_site_id
 _symmetry_equiv_pos_as_xyz
  1  'x, y, z'
loop_
 _atom_site_type_symbol
 _atom_site_label
 _atom_site_symmetry_multiplicity
 _atom_site_fract_x
 _atom_site_fract_y
 _atom_site_fract_z
 _atom_site_occupancy
  Pr  Pr0  1  0.16867046  0.33734093  0.24999900  1
  Pr  Pr1  1  0.66265807  0.83133054  0.24999900  1
  Pr  Pr2  1  0.16867146  0.83133054  0.24999900  1
  Pr  Pr3  1  0.83132754  0.66265607  0.74999900  1
  Pr  Pr4  1  0.33734393  0.16867246  0.74999900  1
  Pr  Pr5  1  0.83132954  0.16867246  0.74999900  1
  Lu  Lu6  1  0.33333300  0.66666600  0.74999900  1
  Lu  Lu7  1  0.66666700  0.33333200  0.24999900  1
