# generated using pymatgen
data_SnH6C2S
_symmetry_space_group_name_H-M   'P 1'
_cell_length_a   10.21087877
_cell_length_b   10.21087877
_cell_length_c   18.07521699
_cell_angle_alpha   90.00000000
_cell_angle_beta   90.00000000
_cell_angle_gamma   90.00000000
_symmetry_Int_Tables_number   1
_chemical_formula_structural   SnH6C2S
_chemical_formula_sum   'Sn12 H72 C24 S12'
_cell_volume   1884.55909182
_cell_formula_units_Z   12
loop_
 _symmetry_equiv_pos_site_id
 _symmetry_equiv_pos_as_xyz
  1  'x, y, z'
loop_
 _atom_site_type_symbol
 _atom_site_label
 _atom_site_symmetry_multiplicity
 _atom_site_fract_x
 _atom_site_fract_y
 _atom_site_fract_z
 _atom_site_occupancy
  Sn  Sn0  1  0.42678010  0.57321990  0.25000000  1
  Sn  Sn1  1  0.57321990  0.42678010  0.75000000  1
  Sn  Sn2  1  0.07321990  0.07321990  0.50000000  1
  Sn  Sn3  1  0.92678010  0.92678010  0.00000000  1
  Sn  Sn4  1  0.58970879  0.26698791  0.15772674  1
  Sn  Sn5  1  0.41029121  0.73301209  0.65772674  1
  Sn  Sn6  1  0.76698791  0.91029121  0.40772674  1
  Sn  Sn7  1  0.23301209  0.08970879  0.90772674  1
  Sn  Sn8  1  0.73301209  0.41029121  0.34227326  1
  Sn  Sn9  1  0.26698791  0.58970879  0.84227326  1
  Sn  Sn10  1  0.91029121  0.76698791  0.59227326  1
  Sn  Sn11  1  0.08970879  0.23301209  0.09227326  1
  H  H12  1  0.72304834  0.38965809  0.04716573  1
  H  H13  1  0.27695166  0.61034191  0.54716573  1
  H  H14  1  0.88965809  0.77695166  0.29716573  1
  H  H15  1  0.11034191  0.22304834  0.79716573  1
  H  H16  1  0.61034191  0.27695166  0.45283427  1
  H  H17  1  0.38965809  0.72304834  0.95283427  1
  H  H18  1  0.77695166  0.88965809  0.70283427  1
  H  H19  1  0.22304834  0.11034191  0.20283427  1
  H  H20  1  0.65553467  0.50785522  0.11115129  1
  H  H21  1  0.34446533  0.49214478  0.61115129  1
  H  H22  1  0.00785522  0.84446533  0.36115129  1
  H  H23  1  0.99214478  0.15553467  0.86115129  1
  H  H24  1  0.49214478  0.34446533  0.38884871  1
  H  H25  1  0.50785522  0.65553467  0.88884871  1
  H  H26  1  0.84446533  0.00785522  0.63884871  1
  H  H27  1  0.15553467  0.99214478  0.13884871  1
  H  H28  1  0.55115088  0.43034883  0.04311263  1
  H  H29  1  0.44884912  0.56965117  0.54311263  1
  H  H30  1  0.93034883  0.94884912  0.29311263  1
  H  H31  1  0.06965117  0.05115088  0.79311263  1
  H  H32  1  0.56965117  0.44884912  0.45688737  1
  H  H33  1  0.43034883  0.55115088  0.95688737  1
  H  H34  1  0.94884912  0.93034883  0.70688737  1
  H  H35  1  0.05115088  0.06965117  0.20688737  1
  H  H36  1  0.39255218  0.79415093  0.16636775  1
  H  H37  1  0.60744782  0.20584907  0.66636775  1
  H  H38  1  0.29415093  0.10744782  0.41636775  1
  H  H39  1  0.70584907  0.89255218  0.91636775  1
  H  H40  1  0.20584907  0.60744782  0.33363225  1
  H  H41  1  0.79415093  0.39255218  0.83363225  1
  H  H42  1  0.10744782  0.29415093  0.58363225  1
  H  H43  1  0.89255218  0.70584907  0.08363225  1
  H  H44  1  0.27155300  0.67460574  0.14241202  1
  H  H45  1  0.72844700  0.32539426  0.64241202  1
  H  H46  1  0.17460574  0.22844700  0.39241202  1
  H  H47  1  0.82539426  0.77155300  0.89241202  1
  H  H48  1  0.32539426  0.72844700  0.35758798  1
  H  H49  1  0.67460574  0.27155300  0.85758798  1
  H  H50  1  0.22844700  0.17460574  0.60758798  1
  H  H51  1  0.77155300  0.82539426  0.10758798  1
  H  H52  1  0.43521595  0.65864154  0.10762641  1
  H  H53  1  0.56478405  0.34135846  0.60762641  1
  H  H54  1  0.15864154  0.06478405  0.35762641  1
  H  H55  1  0.84135846  0.93521595  0.85762641  1
  H  H56  1  0.34135846  0.56478405  0.39237359  1
  H  H57  1  0.65864154  0.43521595  0.89237359  1
  H  H58  1  0.06478405  0.15864154  0.64237359  1
  H  H59  1  0.93521595  0.84135846  0.14237359  1
  H  H60  1  0.62443524  0.00559504  0.13284117  1
  H  H61  1  0.37556476  0.99440496  0.63284117  1
  H  H62  1  0.50559504  0.87556476  0.38284117  1
  H  H63  1  0.49440496  0.12443524  0.88284117  1
  H  H64  1  0.99440496  0.37556476  0.36715883  1
  H  H65  1  0.00559504  0.62443524  0.86715883  1
  H  H66  1  0.87556476  0.50559504  0.61715883  1
  H  H67  1  0.12443524  0.49440496  0.11715883  1
  H  H68  1  0.54033950  0.07713928  0.05556106  1
  H  H69  1  0.45966050  0.92286072  0.55556106  1
  H  H70  1  0.57713928  0.95966050  0.30556106  1
  H  H71  1  0.42286072  0.04033950  0.80556106  1
  H  H72  1  0.92286072  0.45966050  0.44443894  1
  H  H73  1  0.07713928  0.54033950  0.94443894  1
  H  H74  1  0.95966050  0.57713928  0.69443894  1
  H  H75  1  0.04033950  0.42286072  0.19443894  1
  H  H76  1  0.45204278  0.03990681  0.13820911  1
  H  H77  1  0.54795722  0.96009319  0.63820911  1
  H  H78  1  0.53990681  0.04795722  0.38820911  1
  H  H79  1  0.46009319  0.95204278  0.88820911  1
  H  H80  1  0.96009319  0.54795722  0.36179089  1
  H  H81  1  0.03990681  0.45204278  0.86179089  1
  H  H82  1  0.04795722  0.53990681  0.61179089  1
  H  H83  1  0.95204278  0.46009319  0.11179089  1
  C  C84  1  0.63695902  0.41864268  0.07930614  1
  C  C85  1  0.36304098  0.58135732  0.57930614  1
  C  C86  1  0.91864268  0.86304098  0.32930614  1
  C  C87  1  0.08135732  0.13695902  0.82930614  1
  C  C88  1  0.58135732  0.36304098  0.42069386  1
  C  C89  1  0.41864268  0.63695902  0.92069386  1
  C  C90  1  0.86304098  0.91864268  0.67069386  1
  C  C91  1  0.13695902  0.08135732  0.17069386  1
  C  C92  1  0.37551890  0.69016667  0.15478373  1
  C  C93  1  0.62448110  0.30983333  0.65478373  1
  C  C94  1  0.19016667  0.12448110  0.40478373  1
  C  C95  1  0.80983333  0.87551890  0.90478373  1
  C  C96  1  0.30983333  0.62448110  0.34521627  1
  C  C97  1  0.69016667  0.37551890  0.84521627  1
  C  C98  1  0.12448110  0.19016667  0.59521627  1
  C  C99  1  0.87551890  0.80983333  0.09521627  1
  C  C100  1  0.54664735  0.07289693  0.11592438  1
  C  C101  1  0.45335265  0.92710307  0.61592438  1
  C  C102  1  0.57289693  0.95335265  0.36592438  1
  C  C103  1  0.42710307  0.04664735  0.86592438  1
  C  C104  1  0.92710307  0.45335265  0.38407562  1
  C  C105  1  0.07289693  0.54664735  0.88407562  1
  C  C106  1  0.95335265  0.57289693  0.63407562  1
  C  C107  1  0.04664735  0.42710307  0.13407562  1
  S  S108  1  0.76280997  0.23719003  0.25000000  1
  S  S109  1  0.23719003  0.76280997  0.75000000  1
  S  S110  1  0.73719003  0.73719003  0.50000000  1
  S  S111  1  0.26280997  0.26280997  0.00000000  1
  S  S112  1  0.39352581  0.34042287  0.22566907  1
  S  S113  1  0.60647419  0.65957713  0.72566907  1
  S  S114  1  0.84042287  0.10647419  0.47566907  1
  S  S115  1  0.15957713  0.89352581  0.97566907  1
  S  S116  1  0.65957713  0.60647419  0.27433093  1
  S  S117  1  0.34042287  0.39352581  0.77433093  1
  S  S118  1  0.10647419  0.84042287  0.52433093  1
  S  S119  1  0.89352581  0.15957713  0.02433093  1
