# generated using pymatgen
data_Pr3Ho
_symmetry_space_group_name_H-M   'P 1'
_cell_length_a   7.36582244
_cell_length_b   7.36582249
_cell_length_c   6.02527061
_cell_angle_alpha   90.00000000
_cell_angle_beta   90.00000000
_cell_angle_gamma   120.00000496
_symmetry_Int_Tables_number   1
_chemical_formula_structural   Pr3Ho
_chemical_formula_sum   'Pr6 Ho2'
_cell_volume   283.10638278
_cell_formula_units_Z   2
loop_
 _symmetry_equiv_pos_site_id
 _symmetry_equiv_pos_as_xyz
  1  'x, y, z'
loop_
 _atom_site_type_symbol
 _atom_site_label
 _atom_site_symmetry_multiplicity
 _atom_site_fract_x
 _atom_site_fract_y
 _atom_site_fract_z
 _atom_site_occupancy
  Pr  Pr0  1  0.16805291  0.33610482  0.25000000  1
  Pr  Pr1  1  0.66389718  0.83194809  0.25000000  1
  Pr  Pr2  1  0.16805291  0.83194809  0.25000000  1
  Pr  Pr3  1  0.83194709  0.66389418  0.75000000  1
  Pr  Pr4  1  0.33610382  0.16805191  0.75000000  1
  Pr  Pr5  1  0.83194709  0.16805191  0.75000000  1
  Ho  Ho6  1  0.33333400  0.66666800  0.75000000  1
  Ho  Ho7  1  0.66666700  0.33333400  0.25000000  1
