# generated using pymatgen
data_Yb(Mg4Al3)4
_symmetry_space_group_name_H-M   'P 1'
_cell_length_a   8.88325180
_cell_length_b   9.28563620
_cell_length_c   9.28563598
_cell_angle_alpha   110.33233703
_cell_angle_beta   108.59573141
_cell_angle_gamma   108.59573180
_symmetry_Int_Tables_number   1
_chemical_formula_structural   Yb(Mg4Al3)4
_chemical_formula_sum   'Yb1 Mg16 Al12'
_cell_volume   595.87089840
_cell_formula_units_Z   1
loop_
 _symmetry_equiv_pos_site_id
 _symmetry_equiv_pos_as_xyz
  1  'x, y, z'
loop_
 _atom_site_type_symbol
 _atom_site_label
 _atom_site_symmetry_multiplicity
 _atom_site_fract_x
 _atom_site_fract_y
 _atom_site_fract_z
 _atom_site_occupancy
  Yb  Yb0  1  0.37401704  0.00000000  0.00000000  1
  Mg  Mg1  1  0.61091382  0.32971938  1.00000000  1
  Mg  Mg2  1  0.31465531  0.60085323  0.00000000  1
  Mg  Mg3  1  0.99617775  0.34031221  1.00000000  1
  Mg  Mg4  1  0.99666126  -0.00000000  -0.00000000  1
  Mg  Mg5  1  0.68765178  0.68644863  0.29311482  1
  Mg  Mg6  1  0.00120215  0.60666619  0.31355037  1
  Mg  Mg7  1  0.61091282  1.00000000  0.32972038  1
  Mg  Mg8  1  0.99617775  1.00000000  0.34031221  1
  Mg  Mg9  1  0.39453796  0.70688518  0.39333481  1
  Mg  Mg10  1  0.71380108  0.39914677  0.39914677  1
  Mg  Mg11  1  0.31465531  0.00000000  0.60085323  1
  Mg  Mg12  1  0.00120315  0.31355037  0.60666619  1
  Mg  Mg13  1  0.65586454  0.65968679  0.65968679  1
  Mg  Mg14  1  0.28119344  0.67028062  0.67028062  1
  Mg  Mg15  1  0.68765178  0.29311482  0.68644863  1
  Mg  Mg16  1  0.39453796  0.39333481  0.70688518  1
  Al  Al17  1  0.63185677  0.81934233  1.00000000  1
  Al  Al18  1  0.81136286  0.63778132  0.00000000  1
  Al  Al19  1  0.36342111  0.36291962  0.17951177  1
  Al  Al20  1  0.81251244  0.18065767  0.18065767  1
  Al  Al21  1  0.18390834  0.82048823  0.18340685  1
  Al  Al22  1  0.17358054  0.36221868  0.36221868  1
  Al  Al23  1  0.36342011  0.17951177  0.36291962  1
  Al  Al24  1  0.00049949  0.81659215  0.63708038  1
  Al  Al25  1  0.81136286  0.00000000  0.63778132  1
  Al  Al26  1  0.00049949  0.63708138  0.81659215  1
  Al  Al27  1  0.63185577  1.00000000  0.81934233  1
  Al  Al28  1  0.18390834  0.18340685  0.82048723  1
