# generated using pymatgen
data_Tm(Mg4Al3)4
_symmetry_space_group_name_H-M   'P 1'
_cell_length_a   8.80974421
_cell_length_b   9.27276473
_cell_length_c   9.27276614
_cell_angle_alpha   110.46054061
_cell_angle_beta   108.46280608
_cell_angle_gamma   108.46279624
_symmetry_Int_Tables_number   1
_chemical_formula_structural   Tm(Mg4Al3)4
_chemical_formula_sum   'Tm1 Mg16 Al12'
_cell_volume   590.22028104
_cell_formula_units_Z   1
loop_
 _symmetry_equiv_pos_site_id
 _symmetry_equiv_pos_as_xyz
  1  'x, y, z'
loop_
 _atom_site_type_symbol
 _atom_site_label
 _atom_site_symmetry_multiplicity
 _atom_site_fract_x
 _atom_site_fract_y
 _atom_site_fract_z
 _atom_site_occupancy
  Tm  Tm0  1  0.37226784  0.99999900  0.99999900  1
  Mg  Mg1  1  0.99736407  0.99999900  1.00000000  1
  Mg  Mg2  1  0.31462435  0.59758310  1.00000000  1
  Mg  Mg3  1  0.99529377  0.34023892  1.00000000  1
  Mg  Mg4  1  0.60971462  0.33000422  0.00000000  1
  Mg  Mg5  1  0.68920557  0.68749606  0.29520547  1
  Mg  Mg6  1  0.00170851  0.60770841  0.31250294  1
  Mg  Mg7  1  0.60971462  1.00000000  0.33000422  1
  Mg  Mg8  1  0.99529377  0.00000100  0.34023792  1
  Mg  Mg9  1  0.39400110  0.70479553  0.39229159  1
  Mg  Mg10  1  0.71704225  0.40241890  0.40241790  1
  Mg  Mg11  1  0.31462435  1.00000000  0.59758310  1
  Mg  Mg12  1  0.00170851  0.31250294  0.60770841  1
  Mg  Mg13  1  0.65505484  0.65976108  0.65976108  1
  Mg  Mg14  1  0.27971140  0.66999578  0.66999578  1
  Mg  Mg15  1  0.68920557  0.29520547  0.68749606  1
  Mg  Mg16  1  0.39400110  0.39229259  0.70479553  1
  Al  Al17  1  0.62959281  0.82078755  0.00000000  1
  Al  Al18  1  0.81014579  0.63538197  0.00000000  1
  Al  Al19  1  0.36404129  0.36032401  0.17858714  1
  Al  Al20  1  0.80880427  0.17921245  0.17921245  1
  Al  Al21  1  0.18545216  0.82141086  0.18173387  1
  Al  Al22  1  0.36404129  0.17858814  0.36032301  1
  Al  Al23  1  0.17476382  0.36461903  0.36461803  1
  Al  Al24  1  0.81014579  0.00000000  0.63538197  1
  Al  Al25  1  0.00371828  0.81826613  0.63967699  1
  Al  Al26  1  0.00371828  0.63967799  0.81826513  1
  Al  Al27  1  0.62959281  1.00000000  0.82078755  1
  Al  Al28  1  0.18545216  0.18173487  0.82140986  1
