# generated using pymatgen
data_Ba(SbO2)3
_symmetry_space_group_name_H-M   'P 1'
_cell_length_a   5.50942340
_cell_length_b   9.55735839
_cell_length_c   14.43386878
_cell_angle_alpha   97.02268648
_cell_angle_beta   90.00000000
_cell_angle_gamma   90.00000000
_symmetry_Int_Tables_number   1
_chemical_formula_structural   Ba(SbO2)3
_chemical_formula_sum   'Ba4 Sb12 O24'
_cell_volume   754.32123729
_cell_formula_units_Z   4
loop_
 _symmetry_equiv_pos_site_id
 _symmetry_equiv_pos_as_xyz
  1  'x, y, z'
loop_
 _atom_site_type_symbol
 _atom_site_label
 _atom_site_symmetry_multiplicity
 _atom_site_fract_x
 _atom_site_fract_y
 _atom_site_fract_z
 _atom_site_occupancy
  Ba  Ba0  1  0.22026999  0.94902061  0.10985223  1
  Ba  Ba1  1  0.72026999  0.05097939  0.39014777  1
  Ba  Ba2  1  0.77973001  0.05097939  0.89014777  1
  Ba  Ba3  1  0.27973001  0.94902061  0.60985223  1
  Sb  Sb4  1  0.69002912  0.67328813  0.20648828  1
  Sb  Sb5  1  0.19002912  0.32671187  0.29351172  1
  Sb  Sb6  1  0.30997088  0.32671187  0.79351172  1
  Sb  Sb7  1  0.80997088  0.67328813  0.70648828  1
  Sb  Sb8  1  0.72074090  0.60515884  0.47676445  1
  Sb  Sb9  1  0.22074090  0.39484116  0.02323555  1
  Sb  Sb10  1  0.27925910  0.39484116  0.52323555  1
  Sb  Sb11  1  0.77925910  0.60515884  0.97676445  1
  Sb  Sb12  1  0.20456716  0.76746526  0.35197616  1
  Sb  Sb13  1  0.70456716  0.23253474  0.14802384  1
  Sb  Sb14  1  0.79543284  0.23253474  0.64802384  1
  Sb  Sb15  1  0.29543284  0.76746526  0.85197616  1
  O  O16  1  0.97437901  0.55333715  0.08625423  1
  O  O17  1  0.47437901  0.44666285  0.41374577  1
  O  O18  1  0.02562099  0.44666285  0.91374577  1
  O  O19  1  0.52562099  0.55333715  0.58625423  1
  O  O20  1  0.16757495  0.94889759  0.42085448  1
  O  O21  1  0.66757495  0.05110241  0.07914552  1
  O  O22  1  0.83242505  0.05110241  0.57914552  1
  O  O23  1  0.33242505  0.94889759  0.92085448  1
  O  O24  1  0.60533360  0.73278084  0.08263717  1
  O  O25  1  0.10533360  0.26721916  0.41736283  1
  O  O26  1  0.39466640  0.26721916  0.91736283  1
  O  O27  1  0.89466640  0.73278084  0.58263717  1
  O  O28  1  0.52861279  0.76139062  0.44068207  1
  O  O29  1  0.02861279  0.23860938  0.05931793  1
  O  O30  1  0.47138721  0.23860938  0.55931793  1
  O  O31  1  0.97138721  0.76139062  0.94068207  1
  O  O32  1  0.94182570  0.81419859  0.25016352  1
  O  O33  1  0.44182570  0.18580141  0.24983648  1
  O  O34  1  0.05817430  0.18580141  0.74983648  1
  O  O35  1  0.55817430  0.81419859  0.75016352  1
  O  O36  1  0.43738419  0.82037016  0.25610428  1
  O  O37  1  0.93738419  0.17962984  0.24389572  1
  O  O38  1  0.56261581  0.17962984  0.74389572  1
  O  O39  1  0.06261581  0.82037016  0.75610428  1
