# generated using pymatgen
data_Yb3Mg
_symmetry_space_group_name_H-M   'P 1'
_cell_length_a   7.34831505
_cell_length_b   7.34831470
_cell_length_c   6.00606689
_cell_angle_alpha   90.00000000
_cell_angle_beta   90.00000000
_cell_angle_gamma   120.00000152
_symmetry_Int_Tables_number   1
_chemical_formula_structural   Yb3Mg
_chemical_formula_sum   'Yb6 Mg2'
_cell_volume   280.86414761
_cell_formula_units_Z   2
loop_
 _symmetry_equiv_pos_site_id
 _symmetry_equiv_pos_as_xyz
  1  'x, y, z'
loop_
 _atom_site_type_symbol
 _atom_site_label
 _atom_site_symmetry_multiplicity
 _atom_site_fract_x
 _atom_site_fract_y
 _atom_site_fract_z
 _atom_site_occupancy
  Yb  Yb0  1  0.16995727  0.33991353  0.24999900  1
  Yb  Yb1  1  0.16995627  0.83004373  0.24999900  1
  Yb  Yb2  1  0.66008847  0.83004373  0.24999900  1
  Yb  Yb3  1  0.33991353  0.16995727  0.74999900  1
  Yb  Yb4  1  0.83004373  0.16995727  0.74999900  1
  Yb  Yb5  1  0.83004373  0.66008747  0.74999900  1
  Mg  Mg6  1  0.66666800  0.33333400  0.24999900  1
  Mg  Mg7  1  0.33333400  0.66666700  0.74999900  1
