# generated using pymatgen
data_Yb2Mg
_symmetry_space_group_name_H-M   'P 1'
_cell_length_a   3.71812182
_cell_length_b   9.51177037
_cell_length_c   5.91586253
_cell_angle_alpha   90.00000000
_cell_angle_beta   90.00000000
_cell_angle_gamma   78.72908107
_symmetry_Int_Tables_number   1
_chemical_formula_structural   Yb2Mg
_chemical_formula_sum   'Yb4 Mg2'
_cell_volume   205.18490835
_cell_formula_units_Z   2
loop_
 _symmetry_equiv_pos_site_id
 _symmetry_equiv_pos_as_xyz
  1  'x, y, z'
loop_
 _atom_site_type_symbol
 _atom_site_label
 _atom_site_symmetry_multiplicity
 _atom_site_fract_x
 _atom_site_fract_y
 _atom_site_fract_z
 _atom_site_occupancy
  Yb  Yb0  1  0.98161205  0.03677790  -0.00000000  1
  Yb  Yb1  1  0.67005855  0.65988490  0.00000000  1
  Yb  Yb2  1  0.79616695  0.40766710  0.50000000  1
  Yb  Yb3  1  0.10771845  0.78456110  0.50000000  1
  Mg  Mg4  1  0.32736551  0.34526798  0.00000000  1
  Mg  Mg5  1  0.45041049  0.09917702  0.50000000  1
