# generated using pymatgen
data_KRbMg30O31
_symmetry_space_group_name_H-M   'P 1'
_cell_length_a   8.59346647
_cell_length_b   8.74022467
_cell_length_c   8.74022467
_cell_angle_alpha   90.00000000
_cell_angle_beta   90.00000000
_cell_angle_gamma   90.00000000
_symmetry_Int_Tables_number   1
_chemical_formula_structural   KRbMg30O31
_chemical_formula_sum   'K1 Rb1 Mg30 O31'
_cell_volume   656.46802829
_cell_formula_units_Z   1
loop_
 _symmetry_equiv_pos_site_id
 _symmetry_equiv_pos_as_xyz
  1  'x, y, z'
loop_
 _atom_site_type_symbol
 _atom_site_label
 _atom_site_symmetry_multiplicity
 _atom_site_fract_x
 _atom_site_fract_y
 _atom_site_fract_z
 _atom_site_occupancy
  K  K0  1  0.06011059  0.00000000  -0.00000000  1
  Rb  Rb1  1  0.99463595  0.50000000  0.50000000  1
  Mg  Mg2  1  0.98979604  0.00000000  0.50000000  1
  Mg  Mg3  1  0.98979604  0.50000000  -0.00000000  1
  Mg  Mg4  1  0.52089129  0.00000000  -0.00000000  1
  Mg  Mg5  1  0.50351994  0.00000000  0.50000000  1
  Mg  Mg6  1  0.50351994  0.50000000  -0.00000000  1
  Mg  Mg7  1  0.49786110  0.50000000  0.50000000  1
  Mg  Mg8  1  0.99807168  0.24867267  0.24867267  1
  Mg  Mg9  1  0.99807168  0.24867267  0.75132733  1
  Mg  Mg10  1  0.99807168  0.75132733  0.24867267  1
  Mg  Mg11  1  0.99807168  0.75132733  0.75132733  1
  Mg  Mg12  1  0.49893285  0.24785412  0.24785412  1
  Mg  Mg13  1  0.49893285  0.24785412  0.75214588  1
  Mg  Mg14  1  0.49893285  0.75214588  0.24785412  1
  Mg  Mg15  1  0.49893285  0.75214588  0.75214588  1
  Mg  Mg16  1  0.24743302  0.00000000  0.27941538  1
  Mg  Mg17  1  0.24743302  0.00000000  0.72058462  1
  Mg  Mg18  1  0.25009680  0.50000000  0.25033185  1
  Mg  Mg19  1  0.25009680  0.50000000  0.74966815  1
  Mg  Mg20  1  0.75760570  0.00000000  0.24748411  1
  Mg  Mg21  1  0.75760570  0.00000000  0.75251589  1
  Mg  Mg22  1  0.74515666  0.50000000  0.24761809  1
  Mg  Mg23  1  0.74515666  0.50000000  0.75238191  1
  Mg  Mg24  1  0.24743302  0.27941538  -0.00000000  1
  Mg  Mg25  1  0.25009680  0.25033185  0.50000000  1
  Mg  Mg26  1  0.24743302  0.72058462  -0.00000000  1
  Mg  Mg27  1  0.25009680  0.74966815  0.50000000  1
  Mg  Mg28  1  0.75760570  0.24748411  -0.00000000  1
  Mg  Mg29  1  0.74515666  0.24761809  0.50000000  1
  Mg  Mg30  1  0.75760570  0.75251589  -0.00000000  1
  Mg  Mg31  1  0.74515666  0.75238191  0.50000000  1
  O  O32  1  0.26222185  0.00000000  0.50000000  1
  O  O33  1  0.26222185  0.50000000  -0.00000000  1
  O  O34  1  0.27609597  0.50000000  0.50000000  1
  O  O35  1  0.74883380  0.00000000  -0.00000000  1
  O  O36  1  0.73997630  0.00000000  0.50000000  1
  O  O37  1  0.73997630  0.50000000  -0.00000000  1
  O  O38  1  0.71718416  0.50000000  0.50000000  1
  O  O39  1  0.24843569  0.24247229  0.24247229  1
  O  O40  1  0.24843569  0.24247229  0.75752771  1
  O  O41  1  0.24843569  0.75752771  0.24247229  1
  O  O42  1  0.24843569  0.75752771  0.75752771  1
  O  O43  1  0.74813473  0.24900853  0.24900853  1
  O  O44  1  0.74813473  0.24900853  0.75099147  1
  O  O45  1  0.74813473  0.75099147  0.24900853  1
  O  O46  1  0.74813473  0.75099147  0.75099147  1
  O  O47  1  0.00190313  0.00000000  0.26661423  1
  O  O48  1  0.00190313  0.00000000  0.73338577  1
  O  O49  1  0.00275319  0.50000000  0.22284499  1
  O  O50  1  0.00275319  0.50000000  0.77715501  1
  O  O51  1  0.49120972  0.00000000  0.24100008  1
  O  O52  1  0.49120972  0.00000000  0.75899992  1
  O  O53  1  0.49610655  0.50000000  0.24299890  1
  O  O54  1  0.49610655  0.50000000  0.75700110  1
  O  O55  1  0.00190313  0.26661423  -0.00000000  1
  O  O56  1  0.00275319  0.22284499  0.50000000  1
  O  O57  1  0.00190313  0.73338577  -0.00000000  1
  O  O58  1  0.00275319  0.77715501  0.50000000  1
  O  O59  1  0.49120972  0.24100008  -0.00000000  1
  O  O60  1  0.49610655  0.24299890  0.50000000  1
  O  O61  1  0.49120972  0.75899992  -0.00000000  1
  O  O62  1  0.49610655  0.75700110  0.50000000  1
