# generated using pymatgen
data_Mn7BiO12
_symmetry_space_group_name_H-M   'P 1'
_cell_length_a   6.55756989
_cell_length_b   6.55756989
_cell_length_c   6.60126023
_cell_angle_alpha   109.17336048
_cell_angle_beta   108.97630653
_cell_angle_gamma   110.00125053
_symmetry_Int_Tables_number   1
_chemical_formula_structural   Mn7BiO12
_chemical_formula_sum   'Mn7 Bi1 O12'
_cell_volume   219.21066238
_cell_formula_units_Z   1
loop_
 _symmetry_equiv_pos_site_id
 _symmetry_equiv_pos_as_xyz
  1  'x, y, z'
loop_
 _atom_site_type_symbol
 _atom_site_label
 _atom_site_symmetry_multiplicity
 _atom_site_fract_x
 _atom_site_fract_y
 _atom_site_fract_z
 _atom_site_occupancy
  Mn  Mn0  1  0.00553133  0.50474303  0.51027436  1
  Mn  Mn1  1  0.50034004  0.49709509  0.99743513  1
  Mn  Mn2  1  0.49664521  0.00133079  0.49797599  1
  Mn  Mn3  1  0.99814320  0.48666659  0.00087879  1
  Mn  Mn4  1  0.51421219  0.00273559  0.00087879  1
  Mn  Mn5  1  0.99782347  0.00281224  0.50294158  1
  Mn  Mn6  1  0.50012934  0.50511811  0.50294158  1
  Bi  Bi7  1  0.03263756  0.97966444  0.01230201  1
  O  O8  1  0.83495426  0.31474315  0.14969741  1
  O  O9  1  0.18942715  0.32294655  0.51237369  1
  O  O10  1  0.17424114  0.70356680  0.87780793  1
  O  O11  1  0.82630471  0.69272948  0.51903418  1
  O  O12  1  0.30019965  0.48034221  0.16294270  1
  O  O13  1  0.68260049  0.86274305  0.16294270  1
  O  O14  1  0.13002029  0.83692252  0.31260759  1
  O  O15  1  0.47568507  0.18258730  0.31260759  1
  O  O16  1  0.70666617  0.51494708  0.83798827  1
  O  O17  1  0.32304119  0.13132210  0.83798827  1
  O  O18  1  0.86010415  0.17199731  0.67169071  1
  O  O19  1  0.49969340  0.81158657  0.67169071  1
