# generated using pymatgen
data_Cs2H2C2O5
_symmetry_space_group_name_H-M   'P 1'
_cell_length_a   6.08833416
_cell_length_b   6.08833416
_cell_length_c   11.50748731
_cell_angle_alpha   77.03998647
_cell_angle_beta   77.03998647
_cell_angle_gamma   67.78520468
_symmetry_Int_Tables_number   1
_chemical_formula_structural   Cs2H2C2O5
_chemical_formula_sum   'Cs4 H4 C4 O10'
_cell_volume   380.20923862
_cell_formula_units_Z   2
loop_
 _symmetry_equiv_pos_site_id
 _symmetry_equiv_pos_as_xyz
  1  'x, y, z'
loop_
 _atom_site_type_symbol
 _atom_site_label
 _atom_site_symmetry_multiplicity
 _atom_site_fract_x
 _atom_site_fract_y
 _atom_site_fract_z
 _atom_site_occupancy
  Cs  Cs0  1  0.56487809  0.18807804  0.12479464  1
  Cs  Cs1  1  0.81192196  0.43512191  0.37520536  1
  Cs  Cs2  1  0.43512191  0.81192196  0.87520536  1
  Cs  Cs3  1  0.18807804  0.56487809  0.62479464  1
  H  H4  1  0.08945223  0.82518780  0.20018006  1
  H  H5  1  0.17481220  0.91054777  0.29981994  1
  H  H6  1  0.91054777  0.17481220  0.79981994  1
  H  H7  1  0.82518780  0.08945223  0.70018006  1
  C  C8  1  0.42372977  0.05306322  0.44583426  1
  C  C9  1  0.94693678  0.57627023  0.05416574  1
  C  C10  1  0.57627023  0.94693678  0.55416574  1
  C  C11  1  0.05306322  0.42372977  0.94583426  1
  O  O12  1  0.36977550  0.90428245  0.40552289  1
  O  O13  1  0.09571755  0.63022450  0.09447711  1
  O  O14  1  0.63022450  0.09571755  0.59447711  1
  O  O15  1  0.90428245  0.36977550  0.90552289  1
  O  O16  1  0.36809026  0.27588477  0.40724399  1
  O  O17  1  0.72411523  0.63190974  0.09275601  1
  O  O18  1  0.63190974  0.72411523  0.59275601  1
  O  O19  1  0.27588477  0.36809026  0.90724399  1
  O  O20  1  0.04766030  0.95233970  0.25000000  1
  O  O21  1  0.95233970  0.04766030  0.75000000  1
