# generated using pymatgen
data_Cu3(MoO5)2
_symmetry_space_group_name_H-M   'P 1'
_cell_length_a   5.57114965
_cell_length_b   5.53976936
_cell_length_c   13.92899164
_cell_angle_alpha   90.00000000
_cell_angle_beta   90.00000000
_cell_angle_gamma   94.81603119
_symmetry_Int_Tables_number   1
_chemical_formula_structural   Cu3(MoO5)2
_chemical_formula_sum   'Cu6 Mo4 O20'
_cell_volume   428.37109289
_cell_formula_units_Z   2
loop_
 _symmetry_equiv_pos_site_id
 _symmetry_equiv_pos_as_xyz
  1  'x, y, z'
loop_
 _atom_site_type_symbol
 _atom_site_label
 _atom_site_symmetry_multiplicity
 _atom_site_fract_x
 _atom_site_fract_y
 _atom_site_fract_z
 _atom_site_occupancy
  Cu  Cu0  1  0.50000000  0.50000000  0.50000000  1
  Cu  Cu1  1  0.00000000  -0.00000000  0.00000000  1
  Cu  Cu2  1  0.63237325  0.01325186  0.58966278  1
  Cu  Cu3  1  0.13237325  0.51325186  0.91033722  1
  Cu  Cu4  1  0.36762675  0.98674814  0.41033722  1
  Cu  Cu5  1  0.86762675  0.48674814  0.08966278  1
  Mo  Mo6  1  0.04365586  0.61611108  0.65402622  1
  Mo  Mo7  1  0.54365586  0.11611108  0.84597378  1
  Mo  Mo8  1  0.95634414  0.38388892  0.34597378  1
  Mo  Mo9  1  0.45634414  0.88388892  0.15402622  1
  O  O10  1  0.52681862  0.06907161  0.71895252  1
  O  O11  1  0.02681862  0.56907161  0.78104748  1
  O  O12  1  0.47318138  0.93092839  0.28104748  1
  O  O13  1  0.97318138  0.43092839  0.21895252  1
  O  O14  1  0.85040181  0.39727934  0.59374839  1
  O  O15  1  0.35040181  0.89727934  0.90625161  1
  O  O16  1  0.14959819  0.60272066  0.40625161  1
  O  O17  1  0.64959819  0.10272066  0.09374839  1
  O  O18  1  0.92616783  0.90410441  0.62887937  1
  O  O19  1  0.42616783  0.40410441  0.87112063  1
  O  O20  1  0.07383217  0.09589559  0.37112063  1
  O  O21  1  0.57383217  0.59589559  0.12887937  1
  O  O22  1  0.35564073  0.61094713  0.61225376  1
  O  O23  1  0.85564073  0.11094713  0.88774624  1
  O  O24  1  0.64435927  0.38905287  0.38774624  1
  O  O25  1  0.14435927  0.88905287  0.11225376  1
  O  O26  1  0.38945860  0.16893887  0.52622830  1
  O  O27  1  0.88945860  0.66893887  0.97377170  1
  O  O28  1  0.61054140  0.83106113  0.47377170  1
  O  O29  1  0.11054140  0.33106113  0.02622830  1
