# generated using pymatgen
data_Nd3BeCrS7
_symmetry_space_group_name_H-M   'P 1'
_cell_length_a   5.99038424
_cell_length_b   9.98205983
_cell_length_c   9.98198185
_cell_angle_alpha   120.00114272
_cell_angle_beta   90.00000000
_cell_angle_gamma   90.00000000
_symmetry_Int_Tables_number   1
_chemical_formula_structural   Nd3BeCrS7
_chemical_formula_sum   'Nd6 Be2 Cr2 S14'
_cell_volume   516.91276313
_cell_formula_units_Z   2
loop_
 _symmetry_equiv_pos_site_id
 _symmetry_equiv_pos_as_xyz
  1  'x, y, z'
loop_
 _atom_site_type_symbol
 _atom_site_label
 _atom_site_symmetry_multiplicity
 _atom_site_fract_x
 _atom_site_fract_y
 _atom_site_fract_z
 _atom_site_occupancy
  Nd  Nd0  1  0.25410973  0.25029003  0.38971419  1
  Nd  Nd1  1  0.25412191  0.61028969  0.86057174  1
  Nd  Nd2  1  0.25414018  0.13943124  0.74971691  1
  Nd  Nd3  1  0.75410973  0.74970997  0.61028581  1
  Nd  Nd4  1  0.75412191  0.38971031  0.13942826  1
  Nd  Nd5  1  0.75414018  0.86056876  0.25028309  1
  Be  Be6  1  0.83797527  0.33334378  0.66668390  1
  Be  Be7  1  0.33797527  0.66665622  0.33331610  1
  Cr  Cr8  1  0.48461600  0.99992994  0.99996050  1
  Cr  Cr9  1  0.98461600  0.00007006  0.00003950  1
  S  S10  1  0.72803031  0.14243120  0.22000786  1
  S  S11  1  0.72804050  0.77999493  0.92242340  1
  S  S12  1  0.72802137  0.07757080  0.85757228  1
  S  S13  1  0.22803031  0.85756880  0.77999214  1
  S  S14  1  0.22804050  0.22000507  0.07757660  1
  S  S15  1  0.22802137  0.92242920  0.14242772  1
  S  S16  1  0.97027967  0.10957935  0.51912883  1
  S  S17  1  0.97025890  0.48088761  0.59046258  1
  S  S18  1  0.97027369  0.40956290  0.89044200  1
  S  S19  1  0.47027967  0.89042065  0.48087117  1
  S  S20  1  0.47025890  0.51911239  0.40953742  1
  S  S21  1  0.47027369  0.59043710  0.10955800  1
  S  S22  1  0.48813248  0.33332855  0.66666264  1
  S  S23  1  0.98813248  0.66667145  0.33333736  1
