# generated using pymatgen
data_CsLiI2
_symmetry_space_group_name_H-M   'P 1'
_cell_length_a   4.88609004
_cell_length_b   10.55066005
_cell_length_c   13.57360114
_cell_angle_alpha   90.00000000
_cell_angle_beta   90.00000000
_cell_angle_gamma   103.38856545
_symmetry_Int_Tables_number   1
_chemical_formula_structural   CsLiI2
_chemical_formula_sum   'Cs4 Li4 I8'
_cell_volume   680.72172495
_cell_formula_units_Z   4
loop_
 _symmetry_equiv_pos_site_id
 _symmetry_equiv_pos_as_xyz
  1  'x, y, z'
loop_
 _atom_site_type_symbol
 _atom_site_label
 _atom_site_symmetry_multiplicity
 _atom_site_fract_x
 _atom_site_fract_y
 _atom_site_fract_z
 _atom_site_occupancy
  Cs  Cs0  1  0.65709561  0.31419121  0.98415772  1
  Cs  Cs1  1  0.34290439  0.68580879  0.48415772  1
  Cs  Cs2  1  0.48947105  0.97894211  0.76302873  1
  Cs  Cs3  1  0.51052895  0.02105789  0.26302873  1
  Li  Li4  1  0.13199017  0.26398033  0.54732409  1
  Li  Li5  1  0.86800983  0.73601967  0.04732409  1
  Li  Li6  1  0.71906822  0.43813645  0.28428863  1
  Li  Li7  1  0.28093178  0.56186355  0.78428863  1
  I  I8  1  0.68878000  0.37756001  0.48286094  1
  I  I9  1  0.31122000  0.62243999  0.98286094  1
  I  I10  1  0.85343977  0.70687955  0.25502298  1
  I  I11  1  0.14656023  0.29312045  0.75502298  1
  I  I12  1  0.00011452  0.00022904  0.50513140  1
  I  I13  1  0.99988548  0.99977096  0.00513140  1
  I  I14  1  0.16258886  0.32517773  0.21987551  1
  I  I15  1  0.83741114  0.67482227  0.71987551  1
