# generated using pymatgen
data_Nd3GaNiSe7
_symmetry_space_group_name_H-M   'P 1'
_cell_length_a   6.51422275
_cell_length_b   10.27866017
_cell_length_c   10.27860411
_cell_angle_alpha   119.99898744
_cell_angle_beta   90.00000000
_cell_angle_gamma   90.00000000
_symmetry_Int_Tables_number   1
_chemical_formula_structural   Nd3GaNiSe7
_chemical_formula_sum   'Nd6 Ga2 Ni2 Se14'
_cell_volume   596.03026735
_cell_formula_units_Z   2
loop_
 _symmetry_equiv_pos_site_id
 _symmetry_equiv_pos_as_xyz
  1  'x, y, z'
loop_
 _atom_site_type_symbol
 _atom_site_label
 _atom_site_symmetry_multiplicity
 _atom_site_fract_x
 _atom_site_fract_y
 _atom_site_fract_z
 _atom_site_occupancy
  Nd  Nd0  1  0.27884505  0.84344864  0.21639909  1
  Nd  Nd1  1  0.27884387  0.78360038  0.62705034  1
  Nd  Nd2  1  0.27886879  0.37292039  0.15653208  1
  Nd  Nd3  1  0.77884505  0.15655136  0.78360091  1
  Nd  Nd4  1  0.77884387  0.21639962  0.37294966  1
  Nd  Nd5  1  0.77886879  0.62707961  0.84346792  1
  Ga  Ga6  1  0.70035147  0.66666120  0.33332937  1
  Ga  Ga7  1  0.20035147  0.33333880  0.66667063  1
  Ni  Ni8  1  0.58673020  0.99999945  0.00000131  1
  Ni  Ni9  1  0.08673020  0.00000055  0.99999869  1
  Se  Se10  1  0.55153424  0.56441842  0.08447030  1
  Se  Se11  1  0.55155444  0.91550970  0.47993685  1
  Se  Se12  1  0.55153273  0.52004745  0.43557962  1
  Se  Se13  1  0.05153424  0.43558158  0.91552970  1
  Se  Se14  1  0.05155444  0.08449030  0.52006315  1
  Se  Se15  1  0.05153273  0.47995255  0.56442038  1
  Se  Se16  1  0.06879809  0.66667217  0.33333604  1
  Se  Se17  1  0.56879809  0.33332783  0.66666396  1
  Se  Se18  1  0.35410409  0.76987911  0.90182553  1
  Se  Se19  1  0.35410997  0.09816760  0.86804086  1
  Se  Se20  1  0.35410706  0.13194244  0.23012535  1
  Se  Se21  1  0.85410409  0.23012089  0.09817447  1
  Se  Se22  1  0.85410997  0.90183240  0.13195914  1
  Se  Se23  1  0.85410706  0.86805756  0.76987465  1
