# generated using pymatgen
data_Pr2AlCo2
_symmetry_space_group_name_H-M   'P 1'
_cell_length_a   5.59069687
_cell_length_b   5.59069687
_cell_length_c   7.65230245
_cell_angle_alpha   78.33470766
_cell_angle_beta   78.33470763
_cell_angle_gamma   60.96559280
_symmetry_Int_Tables_number   1
_chemical_formula_structural   Pr2AlCo2
_chemical_formula_sum   'Pr4 Al2 Co4'
_cell_volume   203.28411982
_cell_formula_units_Z   2
loop_
 _symmetry_equiv_pos_site_id
 _symmetry_equiv_pos_as_xyz
  1  'x, y, z'
loop_
 _atom_site_type_symbol
 _atom_site_label
 _atom_site_symmetry_multiplicity
 _atom_site_fract_x
 _atom_site_fract_y
 _atom_site_fract_z
 _atom_site_occupancy
  Al  Al0  1  0.88280160  0.11719840  0.25000000  1
  Al  Al1  1  0.11719840  0.88280160  0.75000000  1
  Co  Co2  1  0.00133823  0.28454706  0.49500160  1
  Co  Co3  1  0.71545294  0.99866177  0.00499840  1
  Co  Co4  1  0.28454706  0.00133823  0.99500160  1
  Co  Co5  1  0.99866177  0.71545294  0.50499840  1
  Pr  Pr6  1  0.21009049  0.49806658  0.14658740  1
  Pr  Pr7  1  0.50193342  0.78990951  0.35341260  1
  Pr  Pr8  1  0.78990951  0.50193342  0.85341260  1
  Pr  Pr9  1  0.49806658  0.21009049  0.64658740  1
