# generated using pymatgen
data_SrIn2(PO4)4
_symmetry_space_group_name_H-M   'P 1'
_cell_length_a   6.83975983
_cell_length_b   6.83975983
_cell_length_c   14.10349392
_cell_angle_alpha   90.00000000
_cell_angle_beta   90.00000000
_cell_angle_gamma   91.44821420
_symmetry_Int_Tables_number   1
_chemical_formula_structural   SrIn2(PO4)4
_chemical_formula_sum   'Sr2 In4 P8 O32'
_cell_volume   659.58333505
_cell_formula_units_Z   2
loop_
 _symmetry_equiv_pos_site_id
 _symmetry_equiv_pos_as_xyz
  1  'x, y, z'
loop_
 _atom_site_type_symbol
 _atom_site_label
 _atom_site_symmetry_multiplicity
 _atom_site_fract_x
 _atom_site_fract_y
 _atom_site_fract_z
 _atom_site_occupancy
  Sr  Sr0  1  0.77439551  0.77439551  0.50000000  1
  Sr  Sr1  1  0.22560449  0.22560449  -0.00000000  1
  In  In2  1  0.85025913  0.14974087  0.75000000  1
  In  In3  1  0.14974087  0.85025913  0.25000000  1
  In  In4  1  0.35796707  0.35796707  0.50000000  1
  In  In5  1  0.64203293  0.64203293  -0.00000000  1
  P  P6  1  0.85030861  0.25520976  0.50794468  1
  P  P7  1  0.25520976  0.85030861  0.49205532  1
  P  P8  1  0.14969139  0.74479024  0.00794468  1
  P  P9  1  0.74479024  0.14969139  0.99205532  1
  P  P10  1  0.75292857  0.64749822  0.76180913  1
  P  P11  1  0.64749822  0.75292857  0.23819087  1
  P  P12  1  0.24707143  0.35250178  0.26180913  1
  P  P13  1  0.35250178  0.24707143  0.73819087  1
  O  O14  1  0.11804062  0.82915562  0.57834384  1
  O  O15  1  0.82915562  0.11804062  0.42165616  1
  O  O16  1  0.88195938  0.17084438  0.07834384  1
  O  O17  1  0.17084438  0.88195938  0.92165616  1
  O  O18  1  0.87943921  0.16923293  0.90311722  1
  O  O19  1  0.16923293  0.87943921  0.09688278  1
  O  O20  1  0.12056079  0.83076707  0.40311722  1
  O  O21  1  0.83076707  0.12056079  0.59688278  1
  O  O22  1  0.04176010  0.37960607  0.50579717  1
  O  O23  1  0.37960607  0.04176010  0.49420283  1
  O  O24  1  0.95823990  0.62039393  0.00579717  1
  O  O25  1  0.62039393  0.95823990  0.99420283  1
  O  O26  1  0.67961765  0.40074084  0.50720178  1
  O  O27  1  0.40074084  0.67961765  0.49279822  1
  O  O28  1  0.32038235  0.59925916  0.00720178  1
  O  O29  1  0.59925916  0.32038235  0.99279822  1
  O  O30  1  0.87342199  0.46468260  0.74511405  1
  O  O31  1  0.46468260  0.87342199  0.25488595  1
  O  O32  1  0.12657801  0.53531740  0.24511405  1
  O  O33  1  0.53531740  0.12657801  0.75488595  1
  O  O34  1  0.29830128  0.35896592  0.83014708  1
  O  O35  1  0.35896592  0.29830128  0.16985292  1
  O  O36  1  0.70169872  0.64103408  0.33014708  1
  O  O37  1  0.64103408  0.70169872  0.66985292  1
  O  O38  1  0.37667913  0.38140812  0.65168486  1
  O  O39  1  0.38140812  0.37667913  0.34831514  1
  O  O40  1  0.62332087  0.61859188  0.15168486  1
  O  O41  1  0.61859188  0.62332087  0.84831514  1
  O  O42  1  0.88313354  0.83504210  0.76943197  1
  O  O43  1  0.83504210  0.88313354  0.23056803  1
  O  O44  1  0.11686646  0.16495790  0.26943197  1
  O  O45  1  0.16495790  0.11686646  0.73056803  1
