# generated using pymatgen
data_Tb3AlNi8
_symmetry_space_group_name_H-M   'P 1'
_cell_length_a   5.07701747
_cell_length_b   5.07701747
_cell_length_c   16.03532386
_cell_angle_alpha   90.00000000
_cell_angle_beta   90.00000000
_cell_angle_gamma   119.99872067
_symmetry_Int_Tables_number   1
_chemical_formula_structural   Tb3AlNi8
_chemical_formula_sum   'Tb6 Al2 Ni16'
_cell_volume   357.95734709
_cell_formula_units_Z   2
loop_
 _symmetry_equiv_pos_site_id
 _symmetry_equiv_pos_as_xyz
  1  'x, y, z'
loop_
 _atom_site_type_symbol
 _atom_site_label
 _atom_site_symmetry_multiplicity
 _atom_site_fract_x
 _atom_site_fract_y
 _atom_site_fract_z
 _atom_site_occupancy
  Tb  Tb0  1  0.66666082  0.33333918  0.04481989  1
  Tb  Tb1  1  0.33333918  0.66666082  0.95518011  1
  Tb  Tb2  1  0.33333918  0.66666082  0.54481989  1
  Tb  Tb3  1  0.66666082  0.33333918  0.45518011  1
  Tb  Tb4  1  0.66667791  0.33332209  0.25000000  1
  Tb  Tb5  1  0.33332209  0.66667791  0.75000000  1
  Al  Al6  1  -0.00000000  0.00000000  0.50000000  1
  Al  Al7  1  -0.00000000  0.00000000  0.00000000  1
  Ni  Ni8  1  0.83112460  0.66225929  0.62589931  1
  Ni  Ni9  1  0.83113375  0.16886625  0.62589817  1
  Ni  Ni10  1  0.33774071  0.16887540  0.62589931  1
  Ni  Ni11  1  0.16887540  0.33774071  0.37410069  1
  Ni  Ni12  1  0.16886625  0.83113375  0.37410183  1
  Ni  Ni13  1  0.66225929  0.83112460  0.37410069  1
  Ni  Ni14  1  0.16887540  0.33774071  0.12589931  1
  Ni  Ni15  1  0.16886625  0.83113375  0.12589817  1
  Ni  Ni16  1  0.66225929  0.83112460  0.12589931  1
  Ni  Ni17  1  0.83112460  0.66225929  0.87410069  1
  Ni  Ni18  1  0.83113375  0.16886625  0.87410183  1
  Ni  Ni19  1  0.33774071  0.16887540  0.87410069  1
  Ni  Ni20  1  0.66667360  0.33332640  0.75000000  1
  Ni  Ni21  1  0.33332640  0.66667360  0.25000000  1
  Ni  Ni22  1  -0.00001695  0.00001695  0.75000000  1
  Ni  Ni23  1  0.00001695  -0.00001695  0.25000000  1
