# generated using pymatgen
data_Tl2Cu2S3
_symmetry_space_group_name_H-M   'P 1'
_cell_length_a   4.01373552
_cell_length_b   12.54071152
_cell_length_c   12.71546922
_cell_angle_alpha   90.00000000
_cell_angle_beta   90.00000000
_cell_angle_gamma   90.00000000
_symmetry_Int_Tables_number   1
_chemical_formula_structural   Tl2Cu2S3
_chemical_formula_sum   'Tl8 Cu8 S12'
_cell_volume   640.03440550
_cell_formula_units_Z   4
loop_
 _symmetry_equiv_pos_site_id
 _symmetry_equiv_pos_as_xyz
  1  'x, y, z'
loop_
 _atom_site_type_symbol
 _atom_site_label
 _atom_site_symmetry_multiplicity
 _atom_site_fract_x
 _atom_site_fract_y
 _atom_site_fract_z
 _atom_site_occupancy
  Tl  Tl0  1  0.25000000  0.92530144  0.82994981  1
  Tl  Tl1  1  0.25000000  0.57469856  0.32994981  1
  Tl  Tl2  1  0.75000000  0.07469856  0.17005019  1
  Tl  Tl3  1  0.75000000  0.42530144  0.67005019  1
  Tl  Tl4  1  0.25000000  0.25108112  0.93638376  1
  Tl  Tl5  1  0.25000000  0.24891888  0.43638376  1
  Tl  Tl6  1  0.75000000  0.74891888  0.06361624  1
  Tl  Tl7  1  0.75000000  0.75108112  0.56361624  1
  Cu  Cu8  1  0.25000000  0.65744236  0.79365503  1
  Cu  Cu9  1  0.25000000  0.84255764  0.29365503  1
  Cu  Cu10  1  0.75000000  0.34255764  0.20634497  1
  Cu  Cu11  1  0.75000000  0.15744236  0.70634497  1
  Cu  Cu12  1  0.25000000  0.02562511  0.57980701  1
  Cu  Cu13  1  0.25000000  0.47437489  0.07980701  1
  Cu  Cu14  1  0.75000000  0.97437489  0.42019299  1
  Cu  Cu15  1  0.75000000  0.52562511  0.92019299  1
  S  S16  1  0.25000000  0.44794226  0.87228725  1
  S  S17  1  0.25000000  0.05205774  0.37228725  1
  S  S18  1  0.75000000  0.55205774  0.12771275  1
  S  S19  1  0.75000000  0.94794226  0.62771275  1
  S  S20  1  0.25000000  0.62716889  0.61734255  1
  S  S21  1  0.25000000  0.87283111  0.11734255  1
  S  S22  1  0.75000000  0.37283111  0.38265745  1
  S  S23  1  0.75000000  0.12716889  0.88265745  1
  S  S24  1  0.25000000  0.20588426  0.63923388  1
  S  S25  1  0.25000000  0.29411574  0.13923388  1
  S  S26  1  0.75000000  0.79411574  0.36076612  1
  S  S27  1  0.75000000  0.70588426  0.86076612  1
