# generated using pymatgen
data_CsK7Rb5
_symmetry_space_group_name_H-M   'P 1'
_cell_length_a   8.78885118
_cell_length_b   8.78943916
_cell_length_c   33.03393003
_cell_angle_alpha   90.00000000
_cell_angle_beta   90.00000000
_cell_angle_gamma   120.00761211
_symmetry_Int_Tables_number   1
_chemical_formula_structural   CsK7Rb5
_chemical_formula_sum   'Cs2 K14 Rb10'
_cell_volume   2209.78913597
_cell_formula_units_Z   2
loop_
 _symmetry_equiv_pos_site_id
 _symmetry_equiv_pos_as_xyz
  1  'x, y, z'
loop_
 _atom_site_type_symbol
 _atom_site_label
 _atom_site_symmetry_multiplicity
 _atom_site_fract_x
 _atom_site_fract_y
 _atom_site_fract_z
 _atom_site_occupancy
  Cs  Cs0  1  0.66671632  0.33333926  0.75000000  1
  Cs  Cs1  1  0.33328368  0.66666074  0.25000000  1
  K  K2  1  0.00000000  0.00000000  0.50000000  1
  K  K3  1  0.00000000  0.00000000  0.00000000  1
  K  K4  1  0.83282653  0.66564757  0.61495919  1
  K  K5  1  0.83282672  0.16717318  0.61495933  1
  K  K6  1  0.33434997  0.16718422  0.61496042  1
  K  K7  1  0.16717347  0.33435243  0.38504081  1
  K  K8  1  0.16717328  0.83282682  0.38504067  1
  K  K9  1  0.66565003  0.83281578  0.38503958  1
  K  K10  1  0.16717347  0.33435243  0.11495919  1
  K  K11  1  0.16717328  0.83282682  0.11495933  1
  K  K12  1  0.66565003  0.83281578  0.11496042  1
  K  K13  1  0.83282653  0.66564757  0.88504081  1
  K  K14  1  0.83282672  0.16717318  0.88504067  1
  K  K15  1  0.33434997  0.16718422  0.88503958  1
  Rb  Rb16  1  0.99999016  0.99998454  0.75000000  1
  Rb  Rb17  1  0.00000984  0.00001546  0.25000000  1
  Rb  Rb18  1  0.66669920  0.33333673  0.47348828  1
  Rb  Rb19  1  0.33330080  0.66666327  0.52651172  1
  Rb  Rb20  1  0.33330080  0.66666327  0.97348828  1
  Rb  Rb21  1  0.66669920  0.33333673  0.02651172  1
  Rb  Rb22  1  0.66669433  0.33332783  0.32118015  1
  Rb  Rb23  1  0.33330567  0.66667217  0.67881985  1
  Rb  Rb24  1  0.33330567  0.66667217  0.82118015  1
  Rb  Rb25  1  0.66669433  0.33332783  0.17881985  1
