# generated using pymatgen
data_BiW2(Cl4O)2
_symmetry_space_group_name_H-M   'P 1'
_cell_length_a   7.75882039
_cell_length_b   8.70506474
_cell_length_c   10.89178209
_cell_angle_alpha   92.19838385
_cell_angle_beta   100.39717342
_cell_angle_gamma   92.09300534
_symmetry_Int_Tables_number   1
_chemical_formula_structural   BiW2(Cl4O)2
_chemical_formula_sum   'Bi2 W4 Cl16 O4'
_cell_volume   722.32402043
_cell_formula_units_Z   2
loop_
 _symmetry_equiv_pos_site_id
 _symmetry_equiv_pos_as_xyz
  1  'x, y, z'
loop_
 _atom_site_type_symbol
 _atom_site_label
 _atom_site_symmetry_multiplicity
 _atom_site_fract_x
 _atom_site_fract_y
 _atom_site_fract_z
 _atom_site_occupancy
  Bi  Bi0  1  0.63173786  0.67677921  0.42711472  1
  Bi  Bi1  1  0.36826214  0.32322079  0.57288528  1
  W  W2  1  0.71798577  0.10755682  0.85094529  1
  W  W3  1  0.28201423  0.89244318  0.14905471  1
  W  W4  1  0.78283767  0.90038375  0.15062006  1
  W  W5  1  0.21716233  0.09961625  0.84937994  1
  Cl  Cl6  1  0.70670784  0.37164889  0.80386348  1
  Cl  Cl7  1  0.29329216  0.62835111  0.19613652  1
  Cl  Cl8  1  0.65034285  0.02490726  0.63630966  1
  Cl  Cl9  1  0.34965715  0.97509274  0.36369034  1
  Cl  Cl10  1  0.78344122  0.17382514  0.08256441  1
  Cl  Cl11  1  0.21655878  0.82617486  0.91743559  1
  Cl  Cl12  1  0.72977003  0.82841546  0.92212431  1
  Cl  Cl13  1  0.27022997  0.17158454  0.07787569  1
  Cl  Cl14  1  0.82128941  0.97681084  0.36603000  1
  Cl  Cl15  1  0.17871059  0.02318916  0.63397000  1
  Cl  Cl16  1  0.77566174  0.62906525  0.21274998  1
  Cl  Cl17  1  0.22433826  0.37093475  0.78725002  1
  Cl  Cl18  1  0.58473756  0.37726688  0.39509866  1
  Cl  Cl19  1  0.41526244  0.62273312  0.60490134  1
  Cl  Cl20  1  0.89611930  0.65115301  0.58629486  1
  Cl  Cl21  1  0.10388070  0.34884699  0.41370514  1
  O  O22  1  0.47844919  0.09730452  0.86227259  1
  O  O23  1  0.52155081  0.90269548  0.13772741  1
  O  O24  1  0.03980672  0.89599220  0.14728494  1
  O  O25  1  0.96019328  0.10400780  0.85271506  1
