# generated using pymatgen
data_Lu(FeO2)2
_symmetry_space_group_name_H-M   'P 1'
_cell_length_a   6.02878673
_cell_length_b   6.02878673
_cell_length_c   16.98519019
_cell_angle_alpha   93.53232224
_cell_angle_beta   93.53232224
_cell_angle_gamma   120.13929496
_symmetry_Int_Tables_number   1
_chemical_formula_structural   Lu(FeO2)2
_chemical_formula_sum   'Lu6 Fe12 O24'
_cell_volume   529.80126940
_cell_formula_units_Z   6
loop_
 _symmetry_equiv_pos_site_id
 _symmetry_equiv_pos_as_xyz
  1  'x, y, z'
loop_
 _atom_site_type_symbol
 _atom_site_label
 _atom_site_symmetry_multiplicity
 _atom_site_fract_x
 _atom_site_fract_y
 _atom_site_fract_z
 _atom_site_occupancy
  Lu  Lu0  1  0.74200007  0.74200007  0.24513336  1
  Lu  Lu1  1  0.25799993  0.25799993  0.75486664  1
  Lu  Lu2  1  0.92252834  0.58698019  0.74785818  1
  Lu  Lu3  1  0.58698019  0.92252834  0.74785818  1
  Lu  Lu4  1  0.07747166  0.41301981  0.25214182  1
  Lu  Lu5  1  0.41301981  0.07747166  0.25214182  1
  Fe  Fe6  1  0.64609061  0.64609061  0.92900219  1
  Fe  Fe7  1  0.35390939  0.35390939  0.07099781  1
  Fe  Fe8  1  0.80589929  0.47262480  0.42845414  1
  Fe  Fe9  1  0.47262480  0.80589929  0.42845414  1
  Fe  Fe10  1  0.19410071  0.52737520  0.57154586  1
  Fe  Fe11  1  0.52737520  0.19410071  0.57154586  1
  Fe  Fe12  1  0.02344105  0.68857356  0.07182733  1
  Fe  Fe13  1  0.68857356  0.02344105  0.07182733  1
  Fe  Fe14  1  0.97655895  0.31142644  0.92817267  1
  Fe  Fe15  1  0.31142644  0.97655895  0.92817267  1
  Fe  Fe16  1  0.86559049  0.86559049  0.57168665  1
  Fe  Fe17  1  0.13440951  0.13440951  0.42831335  1
  O  O18  1  0.81979065  0.81979065  0.44318347  1
  O  O19  1  0.18020935  0.18020935  0.55681653  1
  O  O20  1  0.67782252  0.67782252  0.06196561  1
  O  O21  1  0.32217748  0.32217748  0.93803439  1
  O  O22  1  0.96661552  0.64492437  0.94463220  1
  O  O23  1  0.64492437  0.96661552  0.94463220  1
  O  O24  1  0.03338448  0.35507563  0.05536780  1
  O  O25  1  0.35507563  0.03338448  0.05536780  1
  O  O26  1  0.85578165  0.53518707  0.55815699  1
  O  O27  1  0.53518707  0.85578165  0.55815699  1
  O  O28  1  0.14421835  0.46481293  0.44184301  1
  O  O29  1  0.46481293  0.14421835  0.44184301  1
  O  O30  1  0.90557993  0.90557993  0.68917125  1
  O  O31  1  0.09442007  0.09442007  0.31082875  1
  O  O32  1  0.61699120  0.61699120  0.81120880  1
  O  O33  1  0.38300880  0.38300880  0.18879120  1
  O  O34  1  0.06199031  0.72414328  0.19016883  1
  O  O35  1  0.72414328  0.06199031  0.19016883  1
  O  O36  1  0.93800969  0.27585672  0.80983117  1
  O  O37  1  0.27585672  0.93800969  0.80983117  1
  O  O38  1  0.76627691  0.43734074  0.30912207  1
  O  O39  1  0.43734074  0.76627691  0.30912207  1
  O  O40  1  0.23372309  0.56265926  0.69087793  1
  O  O41  1  0.56265926  0.23372309  0.69087793  1
