# generated using pymatgen
data_Yb(BiS2)2
_symmetry_space_group_name_H-M   'P 1'
_cell_length_a   4.01266118
_cell_length_b   11.68494184
_cell_length_c   14.55575720
_cell_angle_alpha   90.00000000
_cell_angle_beta   90.00000000
_cell_angle_gamma   90.00000000
_symmetry_Int_Tables_number   1
_chemical_formula_structural   Yb(BiS2)2
_chemical_formula_sum   'Yb4 Bi8 S16'
_cell_volume   682.48615899
_cell_formula_units_Z   4
loop_
 _symmetry_equiv_pos_site_id
 _symmetry_equiv_pos_as_xyz
  1  'x, y, z'
loop_
 _atom_site_type_symbol
 _atom_site_label
 _atom_site_symmetry_multiplicity
 _atom_site_fract_x
 _atom_site_fract_y
 _atom_site_fract_z
 _atom_site_occupancy
  Yb  Yb0  1  0.75000000  0.24345233  0.15095185  1
  Yb  Yb1  1  0.75000000  0.74345233  0.34904815  1
  Yb  Yb2  1  0.25000000  0.75654767  0.84904815  1
  Yb  Yb3  1  0.25000000  0.25654767  0.65095185  1
  Bi  Bi4  1  0.75000000  0.43292726  0.89295546  1
  Bi  Bi5  1  0.75000000  0.93292726  0.60704454  1
  Bi  Bi6  1  0.25000000  0.56707274  0.10704454  1
  Bi  Bi7  1  0.25000000  0.06707274  0.39295546  1
  Bi  Bi8  1  0.75000000  0.39562727  0.39796688  1
  Bi  Bi9  1  0.75000000  0.89562727  0.10203312  1
  Bi  Bi10  1  0.25000000  0.60437273  0.60203312  1
  Bi  Bi11  1  0.25000000  0.10437273  0.89796688  1
  S  S12  1  0.75000000  0.17201913  0.51762463  1
  S  S13  1  0.75000000  0.67201913  0.98237537  1
  S  S14  1  0.25000000  0.82798087  0.48237537  1
  S  S15  1  0.25000000  0.32798087  0.01762463  1
  S  S16  1  0.75000000  0.23846278  0.79577196  1
  S  S17  1  0.75000000  0.73846278  0.70422804  1
  S  S18  1  0.25000000  0.76153722  0.20422804  1
  S  S19  1  0.25000000  0.26153722  0.29577196  1
  S  S20  1  0.75000000  0.43619647  0.59119467  1
  S  S21  1  0.75000000  0.93619647  0.90880533  1
  S  S22  1  0.25000000  0.56380353  0.40880533  1
  S  S23  1  0.25000000  0.06380353  0.09119467  1
  S  S24  1  0.75000000  0.48034327  0.21121938  1
  S  S25  1  0.75000000  0.98034327  0.28878062  1
  S  S26  1  0.25000000  0.51965673  0.78878062  1
  S  S27  1  0.25000000  0.01965673  0.71121938  1
