# generated using pymatgen
data_BaUTe6
_symmetry_space_group_name_H-M   'P 1'
_cell_length_a   8.16330134
_cell_length_b   9.01940264
_cell_length_c   15.28142683
_cell_angle_alpha   90.00000000
_cell_angle_beta   90.00000000
_cell_angle_gamma   91.52429893
_symmetry_Int_Tables_number   1
_chemical_formula_structural   BaUTe6
_chemical_formula_sum   'Ba4 U4 Te24'
_cell_volume   1124.74429773
_cell_formula_units_Z   4
loop_
 _symmetry_equiv_pos_site_id
 _symmetry_equiv_pos_as_xyz
  1  'x, y, z'
loop_
 _atom_site_type_symbol
 _atom_site_label
 _atom_site_symmetry_multiplicity
 _atom_site_fract_x
 _atom_site_fract_y
 _atom_site_fract_z
 _atom_site_occupancy
  Ba  Ba0  1  0.76983660  0.23646560  0.90950236  1
  Ba  Ba1  1  0.73016340  0.76353440  0.40950236  1
  Ba  Ba2  1  0.23016340  0.76353440  0.09049764  1
  Ba  Ba3  1  0.26983660  0.23646560  0.59049764  1
  U  U4  1  0.60817661  0.27389931  0.24940141  1
  U  U5  1  0.89182339  0.72610069  0.74940141  1
  U  U6  1  0.39182339  0.72610069  0.75059859  1
  U  U7  1  0.10817661  0.27389931  0.25059859  1
  Te  Te8  1  0.85186944  0.00553777  0.23609445  1
  Te  Te9  1  0.64813056  0.99446223  0.73609445  1
  Te  Te10  1  0.14813056  0.99446223  0.76390555  1
  Te  Te11  1  0.35186944  0.00553777  0.26390555  1
  Te  Te12  1  0.60867956  0.02990056  0.10113676  1
  Te  Te13  1  0.89132044  0.97009944  0.60113676  1
  Te  Te14  1  0.39132044  0.97009944  0.89886324  1
  Te  Te15  1  0.10867956  0.02990056  0.39886324  1
  Te  Te16  1  0.61221112  0.17338509  0.44690847  1
  Te  Te17  1  0.88778888  0.82661491  0.94690847  1
  Te  Te18  1  0.38778888  0.82661491  0.55309153  1
  Te  Te19  1  0.11221112  0.17338509  0.05309153  1
  Te  Te20  1  0.86319777  0.38936424  0.39360449  1
  Te  Te21  1  0.63680223  0.61063576  0.89360449  1
  Te  Te22  1  0.13680223  0.61063576  0.60639551  1
  Te  Te23  1  0.36319777  0.38936424  0.10639551  1
  Te  Te24  1  0.86785356  0.42104298  0.11663239  1
  Te  Te25  1  0.63214644  0.57895702  0.61663239  1
  Te  Te26  1  0.13214644  0.57895702  0.88336761  1
  Te  Te27  1  0.36785356  0.42104298  0.38336761  1
  Te  Te28  1  0.62132376  0.60952304  0.19448433  1
  Te  Te29  1  0.87867624  0.39047696  0.69448433  1
  Te  Te30  1  0.37867624  0.39047696  0.80551567  1
  Te  Te31  1  0.12132376  0.60952304  0.30551567  1
