# generated using pymatgen
data_AlZnB5H20C5(NO2)5
_symmetry_space_group_name_H-M   'P 1'
_cell_length_a   7.55432219
_cell_length_b   9.30669995
_cell_length_c   13.97318294
_cell_angle_alpha   77.59534218
_cell_angle_beta   76.60262637
_cell_angle_gamma   68.03949680
_symmetry_Int_Tables_number   1
_chemical_formula_structural   AlZnB5H20C5(NO2)5
_chemical_formula_sum   'Al2 Zn2 B10 H40 C10 N10 O20'
_cell_volume   877.33171829
_cell_formula_units_Z   2
loop_
 _symmetry_equiv_pos_site_id
 _symmetry_equiv_pos_as_xyz
  1  'x, y, z'
loop_
 _atom_site_type_symbol
 _atom_site_label
 _atom_site_symmetry_multiplicity
 _atom_site_fract_x
 _atom_site_fract_y
 _atom_site_fract_z
 _atom_site_occupancy
  Al  Al0  1  0.23643651  0.55454682  0.95102390  1
  Al  Al1  1  0.33219732  0.11169627  0.44869568  1
  Zn  Zn2  1  0.64937129  0.51384335  0.56505076  1
  Zn  Zn3  1  0.62501520  0.94749989  0.08870031  1
  B  B4  1  0.00478346  0.37345772  0.90866715  1
  B  B5  1  0.67853859  0.39586833  0.89437359  1
  B  B6  1  0.96333470  0.17484731  0.82509201  1
  B  B7  1  0.11613928  0.88046510  0.82567265  1
  B  B8  1  0.15915532  0.05789410  0.67023868  1
  B  B9  1  0.16751806  0.58251515  0.17364013  1
  B  B10  1  0.21533757  0.44496659  0.34176086  1
  B  B11  1  0.06142515  0.74058852  0.31697927  1
  B  B12  1  0.10627994  0.96436499  0.37236520  1
  B  B13  1  0.77827418  0.95557459  0.39716031  1
  H  H14  1  0.70026426  0.65118277  0.74522506  1
  H  H15  1  0.74793415  0.82326310  0.68340190  1
  H  H16  1  0.99268551  0.68768901  0.55688349  1
  H  H17  1  0.03717513  0.57546618  0.67464059  1
  H  H18  1  0.32766468  0.34939576  0.61521518  1
  H  H19  1  0.34480226  0.26587101  0.74078615  1
  H  H20  1  0.70287302  0.15556402  0.69638080  1
  H  H21  1  0.59086732  0.09451562  0.62031725  1
  H  H22  1  0.67738527  0.41846463  0.34723919  1
  H  H23  1  0.82985446  0.52497998  0.34501910  1
  H  H24  1  0.75229568  0.57415961  0.18321736  1
  H  H25  1  0.50097156  0.61171543  0.22648923  1
  H  H26  1  0.95294548  0.18126044  0.08524894  1
  H  H27  1  0.92607812  0.05758012  0.19856894  1
  H  H28  1  0.64269295  0.27646496  0.21912836  1
  H  H29  1  0.62216187  0.31825606  0.09211952  1
  H  H30  1  0.56861782  0.73652044  0.88538665  1
  H  H31  1  0.40185709  0.81756453  0.98794501  1
  H  H32  1  0.40267856  0.02705833  0.84013099  1
  H  H33  1  0.65491294  0.98227257  0.83658307  1
  H  H34  1  0.59264384  0.82620053  0.55346076  1
  H  H35  1  0.45211962  0.78274882  0.65494394  1
  H  H36  1  0.97280888  0.37737491  0.63173003  1
  H  H37  1  0.02171939  0.46589662  0.51690096  1
  H  H38  1  0.50823758  0.43258432  0.75123777  1
  H  H39  1  0.32466436  0.54734773  0.69768404  1
  H  H40  1  0.68790417  0.25003688  0.48604166  1
  H  H41  1  0.86595189  0.20722913  0.54417260  1
  H  H42  1  0.41461223  0.61129704  0.43019081  1
  H  H43  1  0.54278656  0.72400119  0.41843058  1
  H  H44  1  0.68383462  0.81511521  0.26625414  1
  H  H45  1  0.45242886  0.84628091  0.26538930  1
  H  H46  1  0.97789210  0.87965826  0.10932613  1
  H  H47  1  0.93657679  0.99950469  0.00221683  1
  H  H48  1  0.38274862  0.22917832  0.15513810  1
  H  H49  1  0.47766677  0.10642626  0.24515476  1
  H  H50  1  0.82008567  0.76990631  0.95114843  1
  H  H51  1  0.71817658  0.65623847  0.03002531  1
  H  H52  1  0.33259486  0.14112996  0.97726147  1
  H  H53  1  0.53515941  0.17391208  0.92978394  1
  C  C54  1  0.73851650  0.71310580  0.67149125  1
  C  C55  1  0.93711434  0.61512250  0.62067560  1
  C  C56  1  0.42011881  0.31550221  0.67226467  1
  C  C57  1  0.61472958  0.19539379  0.63716941  1
  C  C58  1  0.68148455  0.53695393  0.34107815  1
  C  C59  1  0.62989890  0.62730942  0.23979154  1
  C  C60  1  0.86582179  0.11044848  0.12980409  1
  C  C61  1  0.65585527  0.22258456  0.15380239  1
  C  C62  1  0.53769907  0.81851105  0.93793067  1
  C  C63  1  0.51777200  0.98305941  0.88566041  1
  N  N64  1  0.58733568  0.74038541  0.61295667  1
  N  N65  1  0.92908111  0.48079624  0.58351737  1
  N  N66  1  0.45225591  0.45641795  0.68686023  1
  N  N67  1  0.72054190  0.26705378  0.54890175  1
  N  N68  1  0.55245946  0.60892461  0.42849730  1
  N  N69  1  0.59153127  0.79727136  0.22926901  1
  N  N70  1  0.88427014  0.98214613  0.07755609  1
  N  N71  1  0.50975816  0.14490310  0.17107149  1
  N  N72  1  0.69311670  0.76996820  0.99792509  1
  N  N73  1  0.47912035  0.08611370  0.96102437  1
  O  O74  1  0.12108261  0.43212145  0.93549468  1
  O  O75  1  0.80240691  0.45225505  0.92424759  1
  O  O76  1  0.48546954  0.46968373  0.91200065  1
  O  O77  1  0.07713049  0.23562743  0.86870653  1
  O  O78  1  0.75423648  0.26669146  0.84483032  1
  O  O79  1  0.03063258  0.18360401  0.71576879  1
  O  O80  1  0.99289130  0.00931818  0.86961032  1
  O  O81  1  0.15168513  0.73371279  0.87450237  1
  O  O82  1  0.20268437  0.90541679  0.72502125  1
  O  O83  1  0.24389217  0.07609172  0.57488444  1
  O  O84  1  0.18913513  0.57732659  0.07611316  1
  O  O85  1  0.23197147  0.44297649  0.23966886  1
  O  O86  1  0.27682412  0.31146704  0.40484296  1
  O  O87  1  0.08138113  0.72217753  0.21211396  1
  O  O88  1  0.13509325  0.58626996  0.37855508  1
  O  O89  1  0.17508891  0.83594728  0.32327685  1
  O  O90  1  0.85140428  0.81865837  0.35566526  1
  O  O91  1  0.23113521  0.02860705  0.38437624  1
  O  O92  1  0.90566479  0.02741462  0.40757387  1
  O  O93  1  0.58605116  0.02030990  0.43017043  1
