# generated using pymatgen
data_YB3H27N5
_symmetry_space_group_name_H-M   'P 1'
_cell_length_a   8.74316703
_cell_length_b   8.74318060
_cell_length_c   10.14186483
_cell_angle_alpha   90.00000000
_cell_angle_beta   90.00000000
_cell_angle_gamma   119.99996622
_symmetry_Int_Tables_number   1
_chemical_formula_structural   YB3H27N5
_chemical_formula_sum   'Y2 B6 H54 N10'
_cell_volume   671.40847999
_cell_formula_units_Z   2
loop_
 _symmetry_equiv_pos_site_id
 _symmetry_equiv_pos_as_xyz
  1  'x, y, z'
loop_
 _atom_site_type_symbol
 _atom_site_label
 _atom_site_symmetry_multiplicity
 _atom_site_fract_x
 _atom_site_fract_y
 _atom_site_fract_z
 _atom_site_occupancy
  Y  Y0  1  0.33333708  0.66667247  0.27544745  1
  Y  Y1  1  0.66666292  0.33332753  0.77544745  1
  B  B2  1  0.96945648  0.31090120  0.31959523  1
  B  B3  1  0.68909869  0.65855522  0.31959504  1
  B  B4  1  0.34144477  0.03054397  0.31959491  1
  B  B5  1  0.03054352  0.68909880  0.81959523  1
  B  B6  1  0.31090131  0.34144478  0.81959504  1
  B  B7  1  0.65855523  0.96945603  0.81959491  1
  H  H8  1  0.05698504  0.71609256  0.11390688  1
  H  H9  1  0.28390753  0.34089313  0.11390823  1
  H  H10  1  0.65910771  0.94301503  0.11390791  1
  H  H11  1  0.94301496  0.28390744  0.61390688  1
  H  H12  1  0.71609247  0.65910687  0.61390823  1
  H  H13  1  0.34089229  0.05698497  0.61390791  1
  H  H14  1  0.94489743  0.55732326  0.22136510  1
  H  H15  1  0.44267706  0.38757279  0.22136484  1
  H  H16  1  0.61242648  0.05510355  0.22136523  1
  H  H17  1  0.05510257  0.44267674  0.72136510  1
  H  H18  1  0.55732294  0.61242721  0.72136484  1
  H  H19  1  0.38757352  0.94489645  0.72136523  1
  H  H20  1  0.03729860  0.76406800  0.26499246  1
  H  H21  1  0.23593215  0.27322990  0.26499261  1
  H  H22  1  0.72677095  0.96270285  0.26499242  1
  H  H23  1  0.96270140  0.23593200  0.76499246  1
  H  H24  1  0.76406785  0.72677010  0.76499261  1
  H  H25  1  0.27322905  0.03729715  0.76499242  1
  H  H26  1  0.22594258  0.56155974  0.99612778  1
  H  H27  1  0.43844068  0.66438281  0.99612656  1
  H  H28  1  0.33561994  0.77405966  0.99612710  1
  H  H29  1  0.77405742  0.43844026  0.49612778  1
  H  H30  1  0.56155932  0.33561719  0.49612656  1
  H  H31  1  0.66438006  0.22594034  0.49612710  1
  H  H32  1  0.44912553  0.76324600  0.57491566  1
  H  H33  1  0.23675512  0.68587961  0.57491440  1
  H  H34  1  0.31412320  0.55087532  0.57491530  1
  H  H35  1  0.55087447  0.23675400  0.07491566  1
  H  H36  1  0.76324488  0.31412039  0.07491440  1
  H  H37  1  0.68587680  0.44912468  0.07491530  1
  H  H38  1  0.96465988  0.17962819  0.36672012  1
  H  H39  1  0.82037151  0.78503161  0.36671982  1
  H  H40  1  0.21496829  0.03534020  0.36672008  1
  H  H41  1  0.03534012  0.82037181  0.86672012  1
  H  H42  1  0.17962849  0.21496839  0.86671982  1
  H  H43  1  0.78503171  0.96465980  0.86672008  1
  H  H44  1  0.08081824  0.44226032  0.38276620  1
  H  H45  1  0.55774023  0.63855791  0.38276630  1
  H  H46  1  0.36144248  0.91918233  0.38276617  1
  H  H47  1  0.91918176  0.55773968  0.88276620  1
  H  H48  1  0.44225977  0.36144209  0.88276630  1
  H  H49  1  0.63855752  0.08081767  0.88276617  1
  H  H50  1  0.01002017  0.32669591  0.20229137  1
  H  H51  1  0.67330323  0.68332409  0.20229127  1
  H  H52  1  0.31667594  0.98997952  0.20229132  1
  H  H53  1  0.98997983  0.67330409  0.70229137  1
  H  H54  1  0.32669677  0.31667591  0.70229127  1
  H  H55  1  0.68332406  0.01002048  0.70229132  1
  H  H56  1  0.82792507  0.30593059  0.32945988  1
  H  H57  1  0.69406937  0.52199454  0.32945979  1
  H  H58  1  0.47800573  0.17207505  0.32945957  1
  H  H59  1  0.17207493  0.69406941  0.82945988  1
  H  H60  1  0.30593063  0.47800546  0.82945979  1
  H  H61  1  0.52199427  0.82792495  0.82945957  1
  N  N62  1  0.05697763  0.67703807  0.20949927  1
  N  N63  1  0.32296167  0.37993865  0.20949928  1
  N  N64  1  0.62006223  0.94302282  0.20949936  1
  N  N65  1  0.94302237  0.32296193  0.70949927  1
  N  N66  1  0.67703833  0.62006135  0.70949928  1
  N  N67  1  0.37993777  0.05697718  0.70949936  1
  N  N68  1  0.33333920  0.66666830  0.03872698  1
  N  N69  1  0.66666080  0.33333170  0.53872698  1
  N  N70  1  0.33333758  0.66666973  0.53400813  1
  N  N71  1  0.66666242  0.33333027  0.03400813  1
