# generated using pymatgen
data_Sr9Mn5Co2O21
_symmetry_space_group_name_H-M   'P 1'
_cell_length_a   9.70608338
_cell_length_b   9.70608338
_cell_length_c   13.40520948
_cell_angle_alpha   68.77529538
_cell_angle_beta   68.77529538
_cell_angle_gamma   59.99999989
_symmetry_Int_Tables_number   1
_chemical_formula_structural   Sr9Mn5Co2O21
_chemical_formula_sum   'Sr18 Mn10 Co4 O42'
_cell_volume   993.53870093
_cell_formula_units_Z   2
loop_
 _symmetry_equiv_pos_site_id
 _symmetry_equiv_pos_as_xyz
  1  'x, y, z'
loop_
 _atom_site_type_symbol
 _atom_site_label
 _atom_site_symmetry_multiplicity
 _atom_site_fract_x
 _atom_site_fract_y
 _atom_site_fract_z
 _atom_site_occupancy
  Sr  Sr0  1  0.91972016  0.58027984  0.25000000  1
  Sr  Sr1  1  0.58027984  0.25000000  0.25000000  1
  Sr  Sr2  1  0.25000000  0.91972016  0.25000000  1
  Sr  Sr3  1  0.41972016  0.75000000  0.75000000  1
  Sr  Sr4  1  0.75000000  0.08027984  0.75000000  1
  Sr  Sr5  1  0.08027984  0.41972016  0.75000000  1
  Sr  Sr6  1  0.99429363  0.28527881  0.08399456  1
  Sr  Sr7  1  0.28527881  0.63643300  0.08399456  1
  Sr  Sr8  1  0.63643300  0.99429363  0.08399456  1
  Sr  Sr9  1  0.49429363  0.13643300  0.58399456  1
  Sr  Sr10  1  0.13643300  0.78527881  0.58399456  1
  Sr  Sr11  1  0.78527881  0.49429363  0.58399456  1
  Sr  Sr12  1  0.00570637  0.71472119  0.91600544  1
  Sr  Sr13  1  0.71472119  0.36356700  0.91600544  1
  Sr  Sr14  1  0.36356700  0.00570637  0.91600544  1
  Sr  Sr15  1  0.50570637  0.86356700  0.41600544  1
  Sr  Sr16  1  0.86356700  0.21472119  0.41600544  1
  Sr  Sr17  1  0.21472119  0.50570637  0.41600544  1
  Mn  Mn18  1  0.71436724  0.71436724  0.85689827  1
  Mn  Mn19  1  0.21436724  0.21436724  0.35689827  1
  Mn  Mn20  1  0.28563276  0.28563276  0.14310173  1
  Mn  Mn21  1  0.78563276  0.78563276  0.64310173  1
  Mn  Mn22  1  0.57066221  0.57066221  0.28801338  1
  Mn  Mn23  1  0.07066221  0.07066221  0.78801338  1
  Mn  Mn24  1  0.42933779  0.42933779  0.71198662  1
  Mn  Mn25  1  0.92933779  0.92933779  0.21198662  1
  Mn  Mn26  1  0.50000000  0.50000000  0.50000000  1
  Mn  Mn27  1  0.00000000  -0.00000000  -0.00000000  1
  Co  Co28  1  0.85794006  0.85794006  0.42617982  1
  Co  Co29  1  0.35794006  0.35794006  0.92617982  1
  Co  Co30  1  0.14205994  0.14205994  0.57382018  1
  Co  Co31  1  0.64205994  0.64205994  0.07382018  1
  O  O32  1  0.74872777  0.43665808  0.20052218  1
  O  O33  1  0.43665808  0.61409197  0.20052218  1
  O  O34  1  0.61409197  0.74872777  0.20052218  1
  O  O35  1  0.24872777  0.11409197  0.70052218  1
  O  O36  1  0.11409197  0.93665808  0.70052218  1
  O  O37  1  0.93665808  0.24872777  0.70052218  1
  O  O38  1  0.25127223  0.56334192  0.79947782  1
  O  O39  1  0.56334192  0.38590803  0.79947782  1
  O  O40  1  0.38590803  0.25127223  0.79947782  1
  O  O41  1  0.75127223  0.88590803  0.29947782  1
  O  O42  1  0.88590803  0.06334192  0.29947782  1
  O  O43  1  0.06334192  0.75127223  0.29947782  1
  O  O44  1  0.40352984  0.09647016  0.25000000  1
  O  O45  1  0.09647016  0.25000000  0.25000000  1
  O  O46  1  0.25000000  0.40352984  0.25000000  1
  O  O47  1  0.90352984  0.75000000  0.75000000  1
  O  O48  1  0.75000000  0.59647016  0.75000000  1
  O  O49  1  0.59647016  0.90352984  0.75000000  1
  O  O50  1  0.97119696  0.64937206  0.55308781  1
  O  O51  1  0.64937206  0.82634317  0.55308781  1
  O  O52  1  0.82634317  0.97119696  0.55308781  1
  O  O53  1  0.47119696  0.32634317  0.05308781  1
  O  O54  1  0.32634317  0.14937206  0.05308781  1
  O  O55  1  0.14937206  0.47119696  0.05308781  1
  O  O56  1  0.02880304  0.35062794  0.44691219  1
  O  O57  1  0.35062794  0.17365683  0.44691219  1
  O  O58  1  0.17365683  0.02880304  0.44691219  1
  O  O59  1  0.52880304  0.67365683  0.94691219  1
  O  O60  1  0.67365683  0.85062794  0.94691219  1
  O  O61  1  0.85062794  0.52880304  0.94691219  1
  O  O62  1  0.53518062  0.37677735  0.40105466  1
  O  O63  1  0.37677735  0.68698737  0.40105466  1
  O  O64  1  0.68698737  0.53518062  0.40105466  1
  O  O65  1  0.03518062  0.18698737  0.90105466  1
  O  O66  1  0.18698737  0.87677735  0.90105466  1
  O  O67  1  0.87677735  0.03518062  0.90105466  1
  O  O68  1  0.46481938  0.62322265  0.59894534  1
  O  O69  1  0.62322265  0.31301263  0.59894534  1
  O  O70  1  0.31301263  0.46481938  0.59894534  1
  O  O71  1  0.96481938  0.81301263  0.09894534  1
  O  O72  1  0.81301263  0.12322265  0.09894534  1
  O  O73  1  0.12322265  0.96481938  0.09894534  1
