# generated using pymatgen
data_U2PCl11O
_symmetry_space_group_name_H-M   'P 1'
_cell_length_a   8.51719177
_cell_length_b   8.61596731
_cell_length_c   23.59655015
_cell_angle_alpha   90.00000000
_cell_angle_beta   90.00000000
_cell_angle_gamma   90.00000000
_symmetry_Int_Tables_number   1
_chemical_formula_structural   U2PCl11O
_chemical_formula_sum   'U8 P4 Cl44 O4'
_cell_volume   1731.60559911
_cell_formula_units_Z   4
loop_
 _symmetry_equiv_pos_site_id
 _symmetry_equiv_pos_as_xyz
  1  'x, y, z'
loop_
 _atom_site_type_symbol
 _atom_site_label
 _atom_site_symmetry_multiplicity
 _atom_site_fract_x
 _atom_site_fract_y
 _atom_site_fract_z
 _atom_site_occupancy
  U  U0  1  0.75000000  0.27953808  0.35271464  1
  U  U1  1  0.75000000  0.77953808  0.14728536  1
  U  U2  1  0.25000000  0.72046192  0.64728536  1
  U  U3  1  0.25000000  0.22046192  0.85271464  1
  U  U4  1  0.75000000  0.22192279  0.78678504  1
  U  U5  1  0.75000000  0.72192279  0.71321496  1
  U  U6  1  0.25000000  0.77807721  0.21321496  1
  U  U7  1  0.25000000  0.27807721  0.28678504  1
  P  P8  1  0.75000000  0.21741086  0.51424325  1
  P  P9  1  0.75000000  0.71741086  0.98575675  1
  P  P10  1  0.25000000  0.78258914  0.48575675  1
  P  P11  1  0.25000000  0.28258914  0.01424325  1
  Cl  Cl12  1  0.93633464  0.28833610  0.55725506  1
  Cl  Cl13  1  0.56366536  0.78833610  0.94274494  1
  Cl  Cl14  1  0.43633464  0.71166390  0.44274494  1
  Cl  Cl15  1  0.06366536  0.21166390  0.05725506  1
  Cl  Cl16  1  0.06366536  0.71166390  0.44274494  1
  Cl  Cl17  1  0.43633464  0.21166390  0.05725506  1
  Cl  Cl18  1  0.56366536  0.28833610  0.55725506  1
  Cl  Cl19  1  0.93633464  0.78833610  0.94274494  1
  Cl  Cl20  1  0.44283356  0.22020047  0.75663929  1
  Cl  Cl21  1  0.05716644  0.72020047  0.74336071  1
  Cl  Cl22  1  0.94283356  0.77979953  0.24336071  1
  Cl  Cl23  1  0.55716644  0.27979953  0.25663929  1
  Cl  Cl24  1  0.55716644  0.77979953  0.24336071  1
  Cl  Cl25  1  0.94283356  0.27979953  0.25663929  1
  Cl  Cl26  1  0.05716644  0.22020047  0.75663929  1
  Cl  Cl27  1  0.44283356  0.72020047  0.74336071  1
  Cl  Cl28  1  0.94048038  0.21571285  0.88582599  1
  Cl  Cl29  1  0.55951962  0.71571285  0.61417401  1
  Cl  Cl30  1  0.44048038  0.78428715  0.11417401  1
  Cl  Cl31  1  0.05951962  0.28428715  0.38582599  1
  Cl  Cl32  1  0.05951962  0.78428715  0.11417401  1
  Cl  Cl33  1  0.44048038  0.28428715  0.38582599  1
  Cl  Cl34  1  0.55951962  0.21571285  0.88582599  1
  Cl  Cl35  1  0.94048038  0.71571285  0.61417401  1
  Cl  Cl36  1  0.75000000  0.48727972  0.98062864  1
  Cl  Cl37  1  0.75000000  0.98727972  0.51937136  1
  Cl  Cl38  1  0.25000000  0.51272028  0.01937136  1
  Cl  Cl39  1  0.25000000  0.01272028  0.48062864  1
  Cl  Cl40  1  0.75000000  0.48911626  0.14019350  1
  Cl  Cl41  1  0.75000000  0.98911626  0.35980650  1
  Cl  Cl42  1  0.25000000  0.51088374  0.85980650  1
  Cl  Cl43  1  0.25000000  0.01088374  0.64019350  1
  Cl  Cl44  1  0.75000000  0.41461956  0.68786171  1
  Cl  Cl45  1  0.75000000  0.91461956  0.81213829  1
  Cl  Cl46  1  0.25000000  0.58538044  0.31213829  1
  Cl  Cl47  1  0.25000000  0.08538044  0.18786171  1
  Cl  Cl48  1  0.75000000  0.07190525  0.13846671  1
  Cl  Cl49  1  0.75000000  0.57190525  0.36153329  1
  Cl  Cl50  1  0.25000000  0.92809475  0.86153329  1
  Cl  Cl51  1  0.25000000  0.42809475  0.63846671  1
  Cl  Cl52  1  0.75000000  0.02830320  0.68474950  1
  Cl  Cl53  1  0.75000000  0.52830320  0.81525050  1
  Cl  Cl54  1  0.25000000  0.97169680  0.31525050  1
  Cl  Cl55  1  0.25000000  0.47169680  0.18474950  1
  O  O56  1  0.75000000  0.77489461  0.04546556  1
  O  O57  1  0.75000000  0.27489461  0.45453444  1
  O  O58  1  0.25000000  0.22510539  0.95453444  1
  O  O59  1  0.25000000  0.72510539  0.54546556  1
