# generated using pymatgen
data_Se3(NO6)2
_symmetry_space_group_name_H-M   'P 1'
_cell_length_a   6.56962067
_cell_length_b   8.06362866
_cell_length_c   11.80207163
_cell_angle_alpha   72.94826594
_cell_angle_beta   73.83974730
_cell_angle_gamma   65.96081879
_symmetry_Int_Tables_number   1
_chemical_formula_structural   Se3(NO6)2
_chemical_formula_sum   'Se6 N4 O24'
_cell_volume   536.77444567
_cell_formula_units_Z   2
loop_
 _symmetry_equiv_pos_site_id
 _symmetry_equiv_pos_as_xyz
  1  'x, y, z'
loop_
 _atom_site_type_symbol
 _atom_site_label
 _atom_site_symmetry_multiplicity
 _atom_site_fract_x
 _atom_site_fract_y
 _atom_site_fract_z
 _atom_site_occupancy
  Se  Se0  1  0.81229207  0.25000000  0.75000000  1
  Se  Se1  1  0.18770793  0.75000000  0.25000000  1
  Se  Se2  1  0.24615639  0.20574727  0.53475327  1
  Se  Se3  1  0.98665693  0.29425273  0.96524673  1
  Se  Se4  1  0.75384361  0.79425273  0.46524673  1
  Se  Se5  1  0.01334307  0.70574727  0.03475327  1
  N  N6  1  0.55841229  0.74193059  0.90202841  1
  N  N7  1  0.20237129  0.75806941  0.59797159  1
  N  N8  1  0.44158771  0.25806941  0.09797159  1
  N  N9  1  0.79762871  0.24193059  0.40202841  1
  O  O10  1  0.58823001  0.42210820  0.78867504  1
  O  O11  1  0.79901325  0.07789180  0.71132496  1
  O  O12  1  0.41176999  0.57789180  0.21132496  1
  O  O13  1  0.20098675  0.92210820  0.28867504  1
  O  O14  1  0.99249197  0.35107684  0.63209379  1
  O  O15  1  0.97566260  0.14892316  0.86790621  1
  O  O16  1  0.00750803  0.64892316  0.36790621  1
  O  O17  1  0.02433740  0.85107684  0.13209379  1
  O  O18  1  0.41019393  0.32466681  0.51467247  1
  O  O19  1  0.24953322  0.17533319  0.98532753  1
  O  O20  1  0.58980607  0.67533319  0.48532753  1
  O  O21  1  0.75046678  0.82466681  0.01467247  1
  O  O22  1  0.31932247  0.99509119  0.62051118  1
  O  O23  1  0.93492485  0.50490881  0.87948882  1
  O  O24  1  0.68067753  0.00490881  0.37948882  1
  O  O25  1  0.06507515  0.49509119  0.12051118  1
  O  O26  1  0.14803121  0.22575154  0.41516532  1
  O  O27  1  0.78894806  0.27424846  0.08483468  1
  O  O28  1  0.85196879  0.77424846  0.58483468  1
  O  O29  1  0.21105194  0.72575154  0.91516532  1
  O  O30  1  0.55502240  0.85075653  0.81820860  1
  O  O31  1  0.22398753  0.64924347  0.68179140  1
  O  O32  1  0.44497760  0.14924347  0.18179140  1
  O  O33  1  0.77601247  0.35075653  0.31820860  1
