# generated using pymatgen
data_Fe4Bi2O9
_symmetry_space_group_name_H-M   'P 1'
_cell_length_a   8.05363188
_cell_length_b   8.62457690
_cell_length_c   12.26096777
_cell_angle_alpha   90.00000000
_cell_angle_beta   90.00000000
_cell_angle_gamma   90.00000000
_symmetry_Int_Tables_number   1
_chemical_formula_structural   Fe4Bi2O9
_chemical_formula_sum   'Fe16 Bi8 O36'
_cell_volume   851.63661372
_cell_formula_units_Z   4
loop_
 _symmetry_equiv_pos_site_id
 _symmetry_equiv_pos_as_xyz
  1  'x, y, z'
loop_
 _atom_site_type_symbol
 _atom_site_label
 _atom_site_symmetry_multiplicity
 _atom_site_fract_x
 _atom_site_fract_y
 _atom_site_fract_z
 _atom_site_occupancy
  Fe  Fe0  1  0.50629929  0.50160359  0.12827971  1
  Fe  Fe1  1  0.99370071  0.00160359  0.37172029  1
  Fe  Fe2  1  0.49370071  0.49839641  0.62827971  1
  Fe  Fe3  1  0.00629929  0.99839641  0.87172029  1
  Fe  Fe4  1  0.49370071  0.49839641  0.87172029  1
  Fe  Fe5  1  0.00629929  0.99839641  0.62827971  1
  Fe  Fe6  1  0.50629929  0.50160359  0.37172029  1
  Fe  Fe7  1  0.99370071  0.00160359  0.12827971  1
  Fe  Fe8  1  0.35150414  0.83917316  0.25000000  1
  Fe  Fe9  1  0.14849586  0.33917316  0.25000000  1
  Fe  Fe10  1  0.64849586  0.16082684  0.75000000  1
  Fe  Fe11  1  0.85150414  0.66082684  0.75000000  1
  Fe  Fe12  1  0.85824649  0.67393913  0.25000000  1
  Fe  Fe13  1  0.64175351  0.17393913  0.25000000  1
  Fe  Fe14  1  0.14175351  0.32606087  0.75000000  1
  Fe  Fe15  1  0.35824649  0.82606087  0.75000000  1
  Bi  Bi16  1  0.17823020  0.67692634  0.00709649  1
  Bi  Bi17  1  0.32176980  0.17692634  0.49290351  1
  Bi  Bi18  1  0.82176980  0.32307366  0.50709649  1
  Bi  Bi19  1  0.67823020  0.82307366  0.99290351  1
  Bi  Bi20  1  0.82176980  0.32307366  0.99290351  1
  Bi  Bi21  1  0.67823020  0.82307366  0.50709649  1
  Bi  Bi22  1  0.17823020  0.67692634  0.49290351  1
  Bi  Bi23  1  0.32176980  0.17692634  0.00709649  1
  O  O24  1  0.15195479  0.93356736  0.00362317  1
  O  O25  1  0.34804521  0.43356736  0.49637683  1
  O  O26  1  0.84804521  0.06643264  0.50362317  1
  O  O27  1  0.65195479  0.56643264  0.99637683  1
  O  O28  1  0.84804521  0.06643264  0.99637683  1
  O  O29  1  0.65195479  0.56643264  0.50362317  1
  O  O30  1  0.15195479  0.93356736  0.49637683  1
  O  O31  1  0.34804521  0.43356736  0.00362317  1
  O  O32  1  0.12373226  0.90008843  0.25000000  1
  O  O33  1  0.37626774  0.40008843  0.25000000  1
  O  O34  1  0.87626774  0.09991157  0.75000000  1
  O  O35  1  0.62373226  0.59991157  0.75000000  1
  O  O36  1  0.63998008  0.59207722  0.25000000  1
  O  O37  1  0.86001992  0.09207722  0.25000000  1
  O  O38  1  0.36001992  0.40792278  0.75000000  1
  O  O39  1  0.13998008  0.90792278  0.75000000  1
  O  O40  1  0.37772340  0.70958742  0.12223369  1
  O  O41  1  0.12227660  0.20958742  0.37776631  1
  O  O42  1  0.62227660  0.29041258  0.62223369  1
  O  O43  1  0.87772340  0.79041258  0.87776631  1
  O  O44  1  0.62227660  0.29041258  0.87776631  1
  O  O45  1  0.87772340  0.79041258  0.62223369  1
  O  O46  1  0.37772340  0.70958742  0.37776631  1
  O  O47  1  0.12227660  0.20958742  0.12223369  1
  O  O48  1  0.86247819  0.79798711  0.11873371  1
  O  O49  1  0.63752181  0.29798711  0.38126629  1
  O  O50  1  0.13752181  0.20201289  0.61873371  1
  O  O51  1  0.36247819  0.70201289  0.88126629  1
  O  O52  1  0.13752181  0.20201289  0.88126629  1
  O  O53  1  0.36247819  0.70201289  0.61873371  1
  O  O54  1  0.86247819  0.79798711  0.38126629  1
  O  O55  1  0.63752181  0.29798711  0.11873371  1
  O  O56  1  0.48252890  0.01661984  0.25000000  1
  O  O57  1  0.01747110  0.51661984  0.25000000  1
  O  O58  1  0.51747110  0.98338016  0.75000000  1
  O  O59  1  0.98252890  0.48338016  0.75000000  1
