# generated using pymatgen
data_Ce2Fe17
_symmetry_space_group_name_H-M   'P 1'
_cell_length_a   8.39579838
_cell_length_b   8.39637402
_cell_length_c   8.39637402
_cell_angle_alpha   120.00409765
_cell_angle_beta   90.00000000
_cell_angle_gamma   90.00000000
_symmetry_Int_Tables_number   1
_chemical_formula_structural   Ce2Fe17
_chemical_formula_sum   'Ce4 Fe34'
_cell_volume   512.57598062
_cell_formula_units_Z   2
loop_
 _symmetry_equiv_pos_site_id
 _symmetry_equiv_pos_as_xyz
  1  'x, y, z'
loop_
 _atom_site_type_symbol
 _atom_site_label
 _atom_site_symmetry_multiplicity
 _atom_site_fract_x
 _atom_site_fract_y
 _atom_site_fract_z
 _atom_site_occupancy
  Ce  Ce0  1  0.75000000  0.99997618  0.00002382  1
  Ce  Ce1  1  0.25000000  0.00002382  0.99997618  1
  Ce  Ce2  1  0.25000000  0.66657169  0.33342831  1
  Ce  Ce3  1  0.75000000  0.33342831  0.66657169  1
  Fe  Fe4  1  0.60967022  0.66665298  0.33334702  1
  Fe  Fe5  1  0.39032978  0.33334702  0.66665298  1
  Fe  Fe6  1  0.10967022  0.33334702  0.66665298  1
  Fe  Fe7  1  0.89032978  0.66665298  0.33334702  1
  Fe  Fe8  1  0.50000000  0.50000000  -0.00000000  1
  Fe  Fe9  1  0.50000000  0.50000000  0.50000000  1
  Fe  Fe10  1  0.50000000  0.00000000  0.50000000  1
  Fe  Fe11  1  0.00000000  0.50000000  -0.00000000  1
  Fe  Fe12  1  0.00000000  0.50000000  0.50000000  1
  Fe  Fe13  1  0.00000000  0.00000000  0.50000000  1
  Fe  Fe14  1  0.75000000  0.67051644  0.03509323  1
  Fe  Fe15  1  0.75000000  0.36446714  0.32933724  1
  Fe  Fe16  1  0.75000000  0.96504881  0.63554314  1
  Fe  Fe17  1  0.75000000  0.36445686  0.03495119  1
  Fe  Fe18  1  0.75000000  0.96490677  0.32948356  1
  Fe  Fe19  1  0.75000000  0.67066276  0.63553286  1
  Fe  Fe20  1  0.25000000  0.32948356  0.96490677  1
  Fe  Fe21  1  0.25000000  0.63553286  0.67066276  1
  Fe  Fe22  1  0.25000000  0.03495119  0.36445686  1
  Fe  Fe23  1  0.25000000  0.63554314  0.96504881  1
  Fe  Fe24  1  0.25000000  0.03509323  0.67051644  1
  Fe  Fe25  1  0.25000000  0.32933724  0.36446714  1
  Fe  Fe26  1  0.48827569  0.83338125  0.66666924  1
  Fe  Fe27  1  0.48820069  0.83334529  0.16665471  1
  Fe  Fe28  1  0.48827569  0.33333076  0.16661875  1
  Fe  Fe29  1  0.51172431  0.16661875  0.33333076  1
  Fe  Fe30  1  0.51179931  0.16665471  0.83334529  1
  Fe  Fe31  1  0.51172431  0.66666924  0.83338125  1
  Fe  Fe32  1  0.98827569  0.16661875  0.33333076  1
  Fe  Fe33  1  0.98820069  0.16665471  0.83334529  1
  Fe  Fe34  1  0.98827569  0.66666924  0.83338125  1
  Fe  Fe35  1  0.01172431  0.83338125  0.66666924  1
  Fe  Fe36  1  0.01179931  0.83334529  0.16665471  1
  Fe  Fe37  1  0.01172431  0.33333076  0.16661875  1
