# generated using pymatgen
data_KPH3O4
_symmetry_space_group_name_H-M   'P 1'
_cell_length_a   6.81473719
_cell_length_b   9.03976484
_cell_length_c   14.47789180
_cell_angle_alpha   90.00000000
_cell_angle_beta   99.53296276
_cell_angle_gamma   90.00000000
_symmetry_Int_Tables_number   1
_chemical_formula_structural   KPH3O4
_chemical_formula_sum   'K8 P8 H24 O32'
_cell_volume   879.57399197
_cell_formula_units_Z   8
loop_
 _symmetry_equiv_pos_site_id
 _symmetry_equiv_pos_as_xyz
  1  'x, y, z'
loop_
 _atom_site_type_symbol
 _atom_site_label
 _atom_site_symmetry_multiplicity
 _atom_site_fract_x
 _atom_site_fract_y
 _atom_site_fract_z
 _atom_site_occupancy
  K  K0  1  0.08681860  0.11980197  0.67813191  1
  K  K1  1  0.41318140  0.61980197  0.32186809  1
  K  K2  1  0.91318140  0.88019803  0.32186809  1
  K  K3  1  0.58681860  0.38019803  0.67813191  1
  K  K4  1  0.38274398  0.83776131  0.87254902  1
  K  K5  1  0.11725602  0.33776131  0.12745098  1
  K  K6  1  0.61725602  0.16223869  0.12745098  1
  K  K7  1  0.88274398  0.66223869  0.87254902  1
  P  P8  1  0.35150061  0.05251295  0.48709120  1
  P  P9  1  0.14849939  0.55251295  0.51290880  1
  P  P10  1  0.64849939  0.94748705  0.51290880  1
  P  P11  1  0.85150061  0.44748705  0.48709120  1
  P  P12  1  0.93093524  0.06665690  0.93922917  1
  P  P13  1  0.56906476  0.56665690  0.06077083  1
  P  P14  1  0.06906476  0.93334310  0.06077083  1
  P  P15  1  0.43093524  0.43334310  0.93922917  1
  H  H16  1  0.19162619  0.84068482  0.51001908  1
  H  H17  1  0.30837381  0.34068482  0.48998092  1
  H  H18  1  0.80837381  0.15931518  0.48998092  1
  H  H19  1  0.69162619  0.65931518  0.51001908  1
  H  H20  1  0.21199957  0.17683644  0.91907516  1
  H  H21  1  0.28800043  0.67683644  0.08092484  1
  H  H22  1  0.78800043  0.82316356  0.08092484  1
  H  H23  1  0.71199957  0.32316356  0.91907516  1
  H  H24  1  0.60319187  0.06576113  0.79847034  1
  H  H25  1  0.89680813  0.56576113  0.20152966  1
  H  H26  1  0.39680813  0.93423887  0.20152966  1
  H  H27  1  0.10319187  0.43423887  0.79847034  1
  H  H28  1  0.54734964  0.04716745  0.69180160  1
  H  H29  1  0.95265036  0.54716745  0.30819840  1
  H  H30  1  0.45265036  0.95283255  0.30819840  1
  H  H31  1  0.04734964  0.45283255  0.69180160  1
  H  H32  1  0.93396291  0.83239367  0.68474179  1
  H  H33  1  0.56603709  0.33239367  0.31525821  1
  H  H34  1  0.06603709  0.16760633  0.31525821  1
  H  H35  1  0.43396291  0.66760633  0.68474179  1
  H  H36  1  0.10422523  0.71632090  0.68534542  1
  H  H37  1  0.39577477  0.21632090  0.31465458  1
  H  H38  1  0.89577477  0.28367910  0.31465458  1
  H  H39  1  0.60422523  0.78367910  0.68534542  1
  O  O40  1  0.36186824  0.20010487  0.53922617  1
  O  O41  1  0.13813176  0.70010487  0.46077383  1
  O  O42  1  0.63813176  0.79989513  0.46077383  1
  O  O43  1  0.86186824  0.29989513  0.53922617  1
  O  O44  1  0.27891704  0.05908138  0.38113171  1
  O  O45  1  0.22108296  0.55908138  0.61886829  1
  O  O46  1  0.72108296  0.94091862  0.61886829  1
  O  O47  1  0.77891704  0.44091862  0.38113171  1
  O  O48  1  0.22129133  0.94561465  0.53963251  1
  O  O49  1  0.27870867  0.44561465  0.46036749  1
  O  O50  1  0.77870867  0.05438535  0.46036749  1
  O  O51  1  0.72129133  0.55438535  0.53963251  1
  O  O52  1  0.77840396  0.97302396  0.87704334  1
  O  O53  1  0.72159604  0.47302396  0.12295666  1
  O  O54  1  0.22159604  0.02697604  0.12295666  1
  O  O55  1  0.27840396  0.52697604  0.87704334  1
  O  O56  1  0.85682695  0.21107313  0.97685306  1
  O  O57  1  0.64317305  0.71107313  0.02314694  1
  O  O58  1  0.14317305  0.78892687  0.02314694  1
  O  O59  1  0.35682695  0.28892687  0.97685306  1
  O  O60  1  0.11605945  0.09825173  0.88508278  1
  O  O61  1  0.38394055  0.59825173  0.11491722  1
  O  O62  1  0.88394055  0.90174827  0.11491722  1
  O  O63  1  0.61605945  0.40174827  0.88508278  1
  O  O64  1  0.50077149  0.09763917  0.74458951  1
  O  O65  1  0.99922851  0.59763917  0.25541049  1
  O  O66  1  0.49922851  0.90236083  0.25541049  1
  O  O67  1  0.00077149  0.40236083  0.74458951  1
  O  O68  1  0.05199362  0.79051168  0.72502758  1
  O  O69  1  0.44800638  0.29051168  0.27497242  1
  O  O70  1  0.94800638  0.20948832  0.27497242  1
  O  O71  1  0.55199362  0.70948832  0.72502758  1
