# generated using pymatgen
data_YbH12(ClO2)3
_symmetry_space_group_name_H-M   'P 1'
_cell_length_a   7.07747541
_cell_length_b   7.97676125
_cell_length_c   9.59096016
_cell_angle_alpha   91.13707236
_cell_angle_beta   90.00000000
_cell_angle_gamma   90.00000000
_symmetry_Int_Tables_number   1
_chemical_formula_structural   YbH12(ClO2)3
_chemical_formula_sum   'Yb2 H24 Cl6 O12'
_cell_volume   541.35421273
_cell_formula_units_Z   2
loop_
 _symmetry_equiv_pos_site_id
 _symmetry_equiv_pos_as_xyz
  1  'x, y, z'
loop_
 _atom_site_type_symbol
 _atom_site_label
 _atom_site_symmetry_multiplicity
 _atom_site_fract_x
 _atom_site_fract_y
 _atom_site_fract_z
 _atom_site_occupancy
  Yb  Yb0  1  0.69266613  0.75000000  0.75000000  1
  Yb  Yb1  1  0.30733387  0.25000000  0.25000000  1
  H  H2  1  0.43483322  0.07679792  0.75957440  1
  H  H3  1  0.43483322  0.42320208  0.74042560  1
  H  H4  1  0.56516678  0.92320208  0.24042560  1
  H  H5  1  0.56516678  0.57679792  0.25957440  1
  H  H6  1  0.60487710  0.10579362  0.85915833  1
  H  H7  1  0.60487710  0.39420638  0.64084167  1
  H  H8  1  0.39512290  0.89420638  0.14084167  1
  H  H9  1  0.39512290  0.60579362  0.35915833  1
  H  H10  1  0.03443870  0.63406891  0.60472028  1
  H  H11  1  0.03443870  0.86593109  0.89527972  1
  H  H12  1  0.96556130  0.36593109  0.39527972  1
  H  H13  1  0.96556130  0.13406891  0.10472028  1
  H  H14  1  0.97894186  0.47561712  0.68407801  1
  H  H15  1  0.97894186  0.02438288  0.81592199  1
  H  H16  1  0.02105814  0.52438288  0.31592199  1
  H  H17  1  0.02105814  0.97561712  0.18407801  1
  H  H18  1  0.82786017  0.84272677  0.45590219  1
  H  H19  1  0.82786017  0.65727323  0.04409781  1
  H  H20  1  0.17213983  0.15727323  0.54409781  1
  H  H21  1  0.17213983  0.34272677  0.95590219  1
  H  H22  1  0.76344216  0.00468483  0.53463411  1
  H  H23  1  0.76344216  0.49531517  0.96536589  1
  H  H24  1  0.23655784  0.99531517  0.46536589  1
  H  H25  1  0.23655784  0.50468483  0.03463411  1
  Cl  Cl26  1  0.32434855  0.73664368  0.88902367  1
  Cl  Cl27  1  0.32434855  0.76335632  0.61097633  1
  Cl  Cl28  1  0.67565145  0.26335632  0.11097633  1
  Cl  Cl29  1  0.67565145  0.23664368  0.38902367  1
  Cl  Cl30  1  0.85931738  0.75000000  0.25000000  1
  Cl  Cl31  1  0.14068262  0.25000000  0.75000000  1
  O  O32  1  0.56657395  0.04317986  0.77529539  1
  O  O33  1  0.56657395  0.45682014  0.72470461  1
  O  O34  1  0.43342605  0.95682014  0.22470461  1
  O  O35  1  0.43342605  0.54317986  0.27529539  1
  O  O36  1  0.92357358  0.57715313  0.64318598  1
  O  O37  1  0.92357358  0.92284687  0.85681402  1
  O  O38  1  0.07642642  0.42284687  0.35681402  1
  O  O39  1  0.07642642  0.07715313  0.14318598  1
  O  O40  1  0.79737018  0.88779248  0.55044455  1
  O  O41  1  0.79737018  0.61220752  0.94955545  1
  O  O42  1  0.20262982  0.11220752  0.44955545  1
  O  O43  1  0.20262982  0.38779248  0.05044455  1
