# generated using pymatgen
data_KP2(HO2)3
_symmetry_space_group_name_H-M   'P 1'
_cell_length_a   7.27359724
_cell_length_b   7.88911246
_cell_length_c   11.15386159
_cell_angle_alpha   90.00000000
_cell_angle_beta   90.00000000
_cell_angle_gamma   92.41047785
_symmetry_Int_Tables_number   1
_chemical_formula_structural   KP2(HO2)3
_chemical_formula_sum   'K4 P8 H12 O24'
_cell_volume   639.46708281
_cell_formula_units_Z   4
loop_
 _symmetry_equiv_pos_site_id
 _symmetry_equiv_pos_as_xyz
  1  'x, y, z'
loop_
 _atom_site_type_symbol
 _atom_site_label
 _atom_site_symmetry_multiplicity
 _atom_site_fract_x
 _atom_site_fract_y
 _atom_site_fract_z
 _atom_site_occupancy
  K  K0  1  0.57013420  0.00382855  0.74851749  1
  K  K1  1  0.07013420  0.50382855  0.75148251  1
  K  K2  1  0.42986580  0.99617145  0.25148251  1
  K  K3  1  0.92986580  0.49617145  0.24851749  1
  P  P4  1  0.06730221  0.04369363  0.58344487  1
  P  P5  1  0.56730221  0.54369363  0.91655513  1
  P  P6  1  0.93269779  0.95630637  0.41655513  1
  P  P7  1  0.43269779  0.45630637  0.08344487  1
  P  P8  1  0.12384722  0.93635015  0.96866839  1
  P  P9  1  0.62384722  0.43635015  0.53133161  1
  P  P10  1  0.87615278  0.06364985  0.03133161  1
  P  P11  1  0.37615278  0.56364985  0.46866839  1
  H  H12  1  0.00888365  0.90064204  0.76653605  1
  H  H13  1  0.50888365  0.40064204  0.73346395  1
  H  H14  1  0.99111635  0.09935796  0.23346395  1
  H  H15  1  0.49111635  0.59935796  0.26653605  1
  H  H16  1  0.27270104  0.83637328  0.57578586  1
  H  H17  1  0.77270104  0.33637328  0.92421414  1
  H  H18  1  0.72729896  0.16362672  0.42421414  1
  H  H19  1  0.22729896  0.66362672  0.07578586  1
  H  H20  1  0.32065727  0.15956262  0.98902877  1
  H  H21  1  0.82065727  0.65956262  0.51097123  1
  H  H22  1  0.67934273  0.84043738  0.01097123  1
  H  H23  1  0.17934273  0.34043738  0.48902877  1
  O  O24  1  0.08190368  0.23508062  0.58924779  1
  O  O25  1  0.58190368  0.73508062  0.91075221  1
  O  O26  1  0.91809632  0.76491938  0.41075221  1
  O  O27  1  0.41809632  0.26491938  0.08924779  1
  O  O28  1  0.94453440  0.95607443  0.68150072  1
  O  O29  1  0.44453440  0.45607443  0.81849928  1
  O  O30  1  0.05546560  0.04392557  0.31849928  1
  O  O31  1  0.55546560  0.54392557  0.18150072  1
  O  O32  1  0.26585378  0.97028995  0.58259076  1
  O  O33  1  0.76585378  0.47028995  0.91740924  1
  O  O34  1  0.73414622  0.02971005  0.41740924  1
  O  O35  1  0.23414622  0.52971005  0.08259076  1
  O  O36  1  0.20020946  0.84108635  0.07467648  1
  O  O37  1  0.70020946  0.34108635  0.42532352  1
  O  O38  1  0.79979054  0.15891365  0.92532352  1
  O  O39  1  0.29979054  0.65891365  0.57467648  1
  O  O40  1  0.07208107  0.82720563  0.85856758  1
  O  O41  1  0.57208107  0.32720563  0.64143242  1
  O  O42  1  0.92791893  0.17279437  0.14143242  1
  O  O43  1  0.42791893  0.67279437  0.35856758  1
  O  O44  1  0.26105040  0.08427727  0.92258034  1
  O  O45  1  0.76105040  0.58427727  0.57741966  1
  O  O46  1  0.73894960  0.91572273  0.07741966  1
  O  O47  1  0.23894960  0.41572273  0.42258034  1
