# generated using pymatgen
data_LiMn4O8
_symmetry_space_group_name_H-M   'P 1'
_cell_length_a   8.34668352
_cell_length_b   8.34668352
_cell_length_c   8.34668352
_cell_angle_alpha   90.00000000
_cell_angle_beta   90.00000000
_cell_angle_gamma   90.00000000
_symmetry_Int_Tables_number   1
_chemical_formula_structural   LiMn4O8
_chemical_formula_sum   'Li4 Mn16 O32'
_cell_volume   581.48945066
_cell_formula_units_Z   4
loop_
 _symmetry_equiv_pos_site_id
 _symmetry_equiv_pos_as_xyz
  1  'x, y, z'
loop_
 _atom_site_type_symbol
 _atom_site_label
 _atom_site_symmetry_multiplicity
 _atom_site_fract_x
 _atom_site_fract_y
 _atom_site_fract_z
 _atom_site_occupancy
  Li  Li0  1  0.49514940  0.99514940  0.50485060  1
  Li  Li1  1  0.99514940  0.50485060  0.49514940  1
  Li  Li2  1  0.50485060  0.49514940  0.99514940  1
  Li  Li3  1  0.00485060  0.00485060  0.00485060  1
  Mn  Mn4  1  0.87666661  0.37666661  0.12333339  1
  Mn  Mn5  1  0.37666661  0.12333339  0.87666661  1
  Mn  Mn6  1  0.12333339  0.87666661  0.37666661  1
  Mn  Mn7  1  0.62333339  0.62333339  0.62333339  1
  Mn  Mn8  1  0.62825367  0.87365777  0.88109182  1
  Mn  Mn9  1  0.11890818  0.12825367  0.62634223  1
  Mn  Mn10  1  0.37365777  0.61890818  0.37174633  1
  Mn  Mn11  1  0.12825367  0.62634223  0.11890818  1
  Mn  Mn12  1  0.61890818  0.37174633  0.37365777  1
  Mn  Mn13  1  0.87365777  0.88109182  0.62825367  1
  Mn  Mn14  1  0.37174633  0.37365777  0.61890818  1
  Mn  Mn15  1  0.88109182  0.62825367  0.87365777  1
  Mn  Mn16  1  0.62634223  0.11890818  0.12825367  1
  Mn  Mn17  1  0.87174633  0.12634223  0.38109182  1
  Mn  Mn18  1  0.38109182  0.87174633  0.12634223  1
  Mn  Mn19  1  0.12634223  0.38109182  0.87174633  1
  O  O20  1  0.11421191  0.61421191  0.88578809  1
  O  O21  1  0.61421191  0.88578809  0.11421191  1
  O  O22  1  0.88578809  0.11421191  0.61421191  1
  O  O23  1  0.38578809  0.38578809  0.38578809  1
  O  O24  1  0.36667736  0.85389845  0.36035925  1
  O  O25  1  0.63964075  0.86667736  0.64610155  1
  O  O26  1  0.35389845  0.13964075  0.63332264  1
  O  O27  1  0.86667736  0.64610155  0.63964075  1
  O  O28  1  0.13964075  0.63332264  0.35389845  1
  O  O29  1  0.85389845  0.36035925  0.36667736  1
  O  O30  1  0.63332264  0.35389845  0.13964075  1
  O  O31  1  0.36035925  0.36667736  0.85389845  1
  O  O32  1  0.64610155  0.63964075  0.86667736  1
  O  O33  1  0.13332264  0.14610155  0.86035925  1
  O  O34  1  0.86035925  0.13332264  0.14610155  1
  O  O35  1  0.14610155  0.86035925  0.13332264  1
  O  O36  1  0.63605665  0.13605665  0.36394335  1
  O  O37  1  0.13605665  0.36394335  0.63605665  1
  O  O38  1  0.36394335  0.63605665  0.13605665  1
  O  O39  1  0.86394335  0.86394335  0.86394335  1
  O  O40  1  0.10373960  0.89757887  0.61801200  1
  O  O41  1  0.38198800  0.60373960  0.60242113  1
  O  O42  1  0.39757887  0.88198800  0.89626040  1
  O  O43  1  0.60373960  0.60242113  0.38198800  1
  O  O44  1  0.88198800  0.89626040  0.39757887  1
  O  O45  1  0.89757887  0.61801200  0.10373960  1
  O  O46  1  0.89626040  0.39757887  0.88198800  1
  O  O47  1  0.61801200  0.10373960  0.89757887  1
  O  O48  1  0.60242113  0.38198800  0.60373960  1
  O  O49  1  0.39626040  0.10242113  0.11801200  1
  O  O50  1  0.11801200  0.39626040  0.10242113  1
  O  O51  1  0.10242113  0.11801200  0.39626040  1
