# generated using pymatgen
data_HgH8C2S2(NCl)4
_symmetry_space_group_name_H-M   'P 1'
_cell_length_a   8.78188106
_cell_length_b   10.63158100
_cell_length_c   15.11668372
_cell_angle_alpha   90.00000000
_cell_angle_beta   90.00000000
_cell_angle_gamma   104.58091256
_symmetry_Int_Tables_number   1
_chemical_formula_structural   HgH8C2S2(NCl)4
_chemical_formula_sum   'Hg4 H32 C8 S8 N16 Cl16'
_cell_volume   1365.91743043
_cell_formula_units_Z   4
loop_
 _symmetry_equiv_pos_site_id
 _symmetry_equiv_pos_as_xyz
  1  'x, y, z'
loop_
 _atom_site_type_symbol
 _atom_site_label
 _atom_site_symmetry_multiplicity
 _atom_site_fract_x
 _atom_site_fract_y
 _atom_site_fract_z
 _atom_site_occupancy
  Hg  Hg0  1  0.89215072  0.17718559  0.02002990  1
  Hg  Hg1  1  0.39215072  0.67718559  0.47997010  1
  Hg  Hg2  1  0.10784928  0.82281441  0.97997010  1
  Hg  Hg3  1  0.60784928  0.32281441  0.52002990  1
  H  H4  1  0.34423004  0.09742638  0.09895209  1
  H  H5  1  0.84423004  0.59742638  0.40104791  1
  H  H6  1  0.65576996  0.90257362  0.90104791  1
  H  H7  1  0.15576996  0.40257362  0.59895209  1
  H  H8  1  0.17466370  0.07429407  0.16495243  1
  H  H9  1  0.67466370  0.57429407  0.33504757  1
  H  H10  1  0.82533630  0.92570593  0.83504757  1
  H  H11  1  0.32533630  0.42570593  0.66495243  1
  H  H12  1  0.54651911  0.99513379  0.13753869  1
  H  H13  1  0.04651911  0.49513379  0.36246131  1
  H  H14  1  0.45348089  0.00486621  0.86246131  1
  H  H15  1  0.95348089  0.50486621  0.63753869  1
  H  H16  1  0.51955915  0.89628511  0.23325934  1
  H  H17  1  0.01955915  0.39628511  0.26674066  1
  H  H18  1  0.48044085  0.10371489  0.76674066  1
  H  H19  1  0.98044085  0.60371489  0.73325934  1
  H  H20  1  0.84529466  0.12063625  0.41782130  1
  H  H21  1  0.34529466  0.62063625  0.08217870  1
  H  H22  1  0.15470534  0.87936375  0.58217870  1
  H  H23  1  0.65470534  0.37936375  0.91782130  1
  H  H24  1  0.76892850  0.97606080  0.35702421  1
  H  H25  1  0.26892850  0.47606080  0.14297579  1
  H  H26  1  0.23107150  0.02393920  0.64297579  1
  H  H27  1  0.73107150  0.52393920  0.85702421  1
  H  H28  1  0.11538889  0.19227716  0.43757560  1
  H  H29  1  0.61538889  0.69227716  0.06242440  1
  H  H30  1  0.88461111  0.80772284  0.56242440  1
  H  H31  1  0.38461111  0.30772284  0.93757560  1
  H  H32  1  0.24674855  0.11781843  0.38312345  1
  H  H33  1  0.74674855  0.61781843  0.11687655  1
  H  H34  1  0.75325145  0.88218157  0.61687655  1
  H  H35  1  0.25325145  0.38218157  0.88312345  1
  C  C36  1  0.33992067  0.97901203  0.20461632  1
  C  C37  1  0.83992067  0.47901203  0.29538368  1
  C  C38  1  0.66007933  0.02098797  0.79538368  1
  C  C39  1  0.16007933  0.52098797  0.70461632  1
  C  C40  1  0.00874237  0.04218827  0.35909326  1
  C  C41  1  0.50874237  0.54218827  0.14090674  1
  C  C42  1  0.99125763  0.95781173  0.64090674  1
  C  C43  1  0.49125763  0.45781173  0.85909326  1
  S  S44  1  0.24200351  0.89799878  0.30009838  1
  S  S45  1  0.74200351  0.39799878  0.19990162  1
  S  S46  1  0.75799649  0.10200122  0.69990162  1
  S  S47  1  0.25799649  0.60200122  0.80009838  1
  S  S48  1  0.02010788  0.91809798  0.28273851  1
  S  S49  1  0.52010788  0.41809798  0.21726149  1
  S  S50  1  0.97989212  0.08190202  0.71726149  1
  S  S51  1  0.47989212  0.58190202  0.78273851  1
  N  N52  1  0.27900371  0.05220431  0.15167211  1
  N  N53  1  0.77900371  0.55220431  0.34832789  1
  N  N54  1  0.72099629  0.94779569  0.84832789  1
  N  N55  1  0.22099629  0.44779569  0.65167211  1
  N  N56  1  0.47903942  0.95691364  0.19089055  1
  N  N57  1  0.97903942  0.45691364  0.30910945  1
  N  N58  1  0.52096058  0.04308636  0.80910945  1
  N  N59  1  0.02096058  0.54308636  0.69089055  1
  N  N60  1  0.86386293  0.04998128  0.37544470  1
  N  N61  1  0.36386293  0.54998128  0.12455530  1
  N  N62  1  0.13613707  0.95001872  0.62455530  1
  N  N63  1  0.63613707  0.45001872  0.87544470  1
  N  N64  1  0.13322109  0.12228865  0.39512306  1
  N  N65  1  0.63322109  0.62228865  0.10487694  1
  N  N66  1  0.86677891  0.87771135  0.60487694  1
  N  N67  1  0.36677891  0.37771135  0.89512306  1
  Cl  Cl68  1  0.07721550  0.28588447  0.15893176  1
  Cl  Cl69  1  0.57721550  0.78588447  0.34106824  1
  Cl  Cl70  1  0.92278450  0.71411553  0.84106824  1
  Cl  Cl71  1  0.42278450  0.21411553  0.65893176  1
  Cl  Cl72  1  0.81795249  0.95583506  0.07746497  1
  Cl  Cl73  1  0.31795249  0.45583506  0.42253503  1
  Cl  Cl74  1  0.18204751  0.04416494  0.92253503  1
  Cl  Cl75  1  0.68204751  0.54416494  0.57746497  1
  Cl  Cl76  1  0.97698460  0.32540057  0.89666738  1
  Cl  Cl77  1  0.47698460  0.82540057  0.60333262  1
  Cl  Cl78  1  0.02301540  0.67459943  0.10333262  1
  Cl  Cl79  1  0.52301540  0.17459943  0.39666738  1
  Cl  Cl80  1  0.58650730  0.21731978  0.02507361  1
  Cl  Cl81  1  0.08650730  0.71731978  0.47492639  1
  Cl  Cl82  1  0.41349270  0.78268022  0.97492639  1
  Cl  Cl83  1  0.91349270  0.28268022  0.52507361  1
