# generated using pymatgen
data_KH3CO6
_symmetry_space_group_name_H-M   'P 1'
_cell_length_a   8.94509543
_cell_length_b   9.18481276
_cell_length_c   13.08966132
_cell_angle_alpha   90.00000000
_cell_angle_beta   90.00000000
_cell_angle_gamma   90.00000000
_symmetry_Int_Tables_number   1
_chemical_formula_structural   KH3CO6
_chemical_formula_sum   'K8 H24 C8 O48'
_cell_volume   1075.43383316
_cell_formula_units_Z   8
loop_
 _symmetry_equiv_pos_site_id
 _symmetry_equiv_pos_as_xyz
  1  'x, y, z'
loop_
 _atom_site_type_symbol
 _atom_site_label
 _atom_site_symmetry_multiplicity
 _atom_site_fract_x
 _atom_site_fract_y
 _atom_site_fract_z
 _atom_site_occupancy
  K  K0  1  0.91063701  0.26905511  0.31535999  1
  K  K1  1  0.58936299  0.76905511  0.68464001  1
  K  K2  1  0.41063701  0.73094489  0.18464001  1
  K  K3  1  0.08936299  0.23094489  0.81535999  1
  K  K4  1  0.08936299  0.73094489  0.68464001  1
  K  K5  1  0.41063701  0.23094489  0.31535999  1
  K  K6  1  0.58936299  0.26905511  0.81535999  1
  K  K7  1  0.91063701  0.76905511  0.18464001  1
  H  H8  1  0.86083672  0.39008131  0.00378507  1
  H  H9  1  0.63916328  0.89008131  0.99621493  1
  H  H10  1  0.36083672  0.60991869  0.49621493  1
  H  H11  1  0.13916328  0.10991869  0.50378507  1
  H  H12  1  0.13916328  0.60991869  0.99621493  1
  H  H13  1  0.36083672  0.10991869  0.00378507  1
  H  H14  1  0.63916328  0.39008131  0.50378507  1
  H  H15  1  0.86083672  0.89008131  0.49621493  1
  H  H16  1  0.66154296  0.96902245  0.33632556  1
  H  H17  1  0.83845704  0.46902245  0.66367444  1
  H  H18  1  0.16154296  0.03097755  0.16367444  1
  H  H19  1  0.33845704  0.53097755  0.83632556  1
  H  H20  1  0.33845704  0.03097755  0.66367444  1
  H  H21  1  0.16154296  0.53097755  0.33632556  1
  H  H22  1  0.83845704  0.96902245  0.83632556  1
  H  H23  1  0.66154296  0.46902245  0.16367444  1
  H  H24  1  0.63445915  0.01799100  0.15402062  1
  H  H25  1  0.86554085  0.51799100  0.84597938  1
  H  H26  1  0.13445915  0.98200900  0.34597938  1
  H  H27  1  0.36554085  0.48200900  0.65402062  1
  H  H28  1  0.36554085  0.98200900  0.84597938  1
  H  H29  1  0.13445915  0.48200900  0.15402062  1
  H  H30  1  0.86554085  0.01799100  0.65402062  1
  H  H31  1  0.63445915  0.51799100  0.34597938  1
  C  C32  1  0.82294878  0.10079251  0.01052552  1
  C  C33  1  0.67705122  0.60079251  0.98947448  1
  C  C34  1  0.32294878  0.89920749  0.48947448  1
  C  C35  1  0.17705122  0.39920749  0.51052552  1
  C  C36  1  0.17705122  0.89920749  0.98947448  1
  C  C37  1  0.32294878  0.39920749  0.01052552  1
  C  C38  1  0.67705122  0.10079251  0.51052552  1
  C  C39  1  0.82294878  0.60079251  0.48947448  1
  O  O40  1  0.86891506  0.20816163  0.07925274  1
  O  O41  1  0.63108494  0.70816163  0.92074726  1
  O  O42  1  0.36891506  0.79183837  0.42074726  1
  O  O43  1  0.13108494  0.29183837  0.57925274  1
  O  O44  1  0.13108494  0.79183837  0.92074726  1
  O  O45  1  0.36891506  0.29183837  0.07925274  1
  O  O46  1  0.63108494  0.20816163  0.57925274  1
  O  O47  1  0.86891506  0.70816163  0.42074726  1
  O  O48  1  0.94696475  0.32985068  0.03021577  1
  O  O49  1  0.55303525  0.82985068  0.96978423  1
  O  O50  1  0.44696475  0.67014932  0.46978423  1
  O  O51  1  0.05303525  0.17014932  0.53021577  1
  O  O52  1  0.05303525  0.67014932  0.96978423  1
  O  O53  1  0.44696475  0.17014932  0.03021577  1
  O  O54  1  0.55303525  0.32985068  0.53021577  1
  O  O55  1  0.94696475  0.82985068  0.46978423  1
  O  O56  1  0.64776258  0.90241405  0.27627604  1
  O  O57  1  0.85223742  0.40241405  0.72372396  1
  O  O58  1  0.14776258  0.09758595  0.22372396  1
  O  O59  1  0.35223742  0.59758595  0.77627604  1
  O  O60  1  0.35223742  0.09758595  0.72372396  1
  O  O61  1  0.14776258  0.59758595  0.27627604  1
  O  O62  1  0.85223742  0.90241405  0.77627604  1
  O  O63  1  0.64776258  0.40241405  0.22372396  1
  O  O64  1  0.55971807  0.99879966  0.20930741  1
  O  O65  1  0.94028193  0.49879966  0.79069259  1
  O  O66  1  0.05971807  0.00120034  0.29069259  1
  O  O67  1  0.44028193  0.50120034  0.70930741  1
  O  O68  1  0.44028193  0.00120034  0.79069259  1
  O  O69  1  0.05971807  0.50120034  0.20930741  1
  O  O70  1  0.94028193  0.99879966  0.70930741  1
  O  O71  1  0.55971807  0.49879966  0.29069259  1
  O  O72  1  0.83835771  0.11765598  0.91630655  1
  O  O73  1  0.66164229  0.61765598  0.08369345  1
  O  O74  1  0.33835771  0.88234402  0.58369345  1
  O  O75  1  0.16164229  0.38234402  0.41630655  1
  O  O76  1  0.16164229  0.88234402  0.08369345  1
  O  O77  1  0.33835771  0.38234402  0.91630655  1
  O  O78  1  0.66164229  0.11765598  0.41630655  1
  O  O79  1  0.83835771  0.61765598  0.58369345  1
  O  O80  1  0.76663203  0.99424484  0.05919855  1
  O  O81  1  0.73336797  0.49424484  0.94080145  1
  O  O82  1  0.26663203  0.00575516  0.44080145  1
  O  O83  1  0.23336797  0.50575516  0.55919855  1
  O  O84  1  0.23336797  0.00575516  0.94080145  1
  O  O85  1  0.26663203  0.50575516  0.05919855  1
  O  O86  1  0.73336797  0.99424484  0.55919855  1
  O  O87  1  0.76663203  0.49424484  0.44080145  1
