# generated using pymatgen
data_ScFeSi2
_symmetry_space_group_name_H-M   'P 1'
_cell_length_a   7.76931875
_cell_length_b   8.94566613
_cell_length_c   9.74775169
_cell_angle_alpha   90.00000000
_cell_angle_beta   90.00000000
_cell_angle_gamma   90.00000000
_symmetry_Int_Tables_number   1
_chemical_formula_structural   ScFeSi2
_chemical_formula_sum   'Sc12 Fe12 Si24'
_cell_volume   677.48562161
_cell_formula_units_Z   12
loop_
 _symmetry_equiv_pos_site_id
 _symmetry_equiv_pos_as_xyz
  1  'x, y, z'
loop_
 _atom_site_type_symbol
 _atom_site_label
 _atom_site_symmetry_multiplicity
 _atom_site_fract_x
 _atom_site_fract_y
 _atom_site_fract_z
 _atom_site_occupancy
  Sc  Sc0  1  0.74708420  0.82485402  0.04886680  1
  Sc  Sc1  1  0.74708420  0.17514598  0.95113320  1
  Sc  Sc2  1  0.25291580  0.67514598  0.54886680  1
  Sc  Sc3  1  0.25291580  0.32485402  0.45113320  1
  Sc  Sc4  1  0.25291580  0.17514598  0.95113320  1
  Sc  Sc5  1  0.25291580  0.82485402  0.04886680  1
  Sc  Sc6  1  0.74708420  0.32485402  0.45113320  1
  Sc  Sc7  1  0.74708420  0.67514598  0.54886680  1
  Sc  Sc8  1  0.50000000  0.83019747  0.32210209  1
  Sc  Sc9  1  0.50000000  0.16980253  0.67789791  1
  Sc  Sc10  1  0.50000000  0.66980253  0.82210209  1
  Sc  Sc11  1  0.50000000  0.33019747  0.17789791  1
  Fe  Fe12  1  0.74847025  0.58527315  0.25900257  1
  Fe  Fe13  1  0.74847025  0.41472685  0.74099743  1
  Fe  Fe14  1  0.25152975  0.91472685  0.75900257  1
  Fe  Fe15  1  0.25152975  0.08527315  0.24099743  1
  Fe  Fe16  1  0.25152975  0.41472685  0.74099743  1
  Fe  Fe17  1  0.25152975  0.58527315  0.25900257  1
  Fe  Fe18  1  0.74847025  0.08527315  0.24099743  1
  Fe  Fe19  1  0.74847025  0.91472685  0.75900257  1
  Fe  Fe20  1  0.74707788  0.00000000  0.50000000  1
  Fe  Fe21  1  0.25292212  0.50000000  0.00000000  1
  Fe  Fe22  1  0.25292212  0.00000000  0.50000000  1
  Fe  Fe23  1  0.74707788  0.50000000  0.00000000  1
  Si  Si24  1  0.84657485  0.83943397  0.32154888  1
  Si  Si25  1  0.84657485  0.16056603  0.67845112  1
  Si  Si26  1  0.15342515  0.66056603  0.82154888  1
  Si  Si27  1  0.15342515  0.33943397  0.17845112  1
  Si  Si28  1  0.15342515  0.16056603  0.67845112  1
  Si  Si29  1  0.15342515  0.83943397  0.32154888  1
  Si  Si30  1  0.84657485  0.33943397  0.17845112  1
  Si  Si31  1  0.84657485  0.66056603  0.82154888  1
  Si  Si32  1  0.50000000  0.53626441  0.37908640  1
  Si  Si33  1  0.50000000  0.46373559  0.62091360  1
  Si  Si34  1  0.50000000  0.96373559  0.87908640  1
  Si  Si35  1  0.50000000  0.03626441  0.12091360  1
  Si  Si36  1  -0.00000000  0.54008078  0.37283173  1
  Si  Si37  1  -0.00000000  0.45991922  0.62716827  1
  Si  Si38  1  -0.00000000  0.95991922  0.87283173  1
  Si  Si39  1  -0.00000000  0.04008078  0.12716827  1
  Si  Si40  1  0.50000000  0.62085025  0.10581011  1
  Si  Si41  1  0.50000000  0.37914975  0.89418989  1
  Si  Si42  1  0.50000000  0.87914975  0.60581011  1
  Si  Si43  1  0.50000000  0.12085025  0.39418989  1
  Si  Si44  1  -0.00000000  0.60619241  0.10216464  1
  Si  Si45  1  -0.00000000  0.39380759  0.89783536  1
  Si  Si46  1  -0.00000000  0.89380759  0.60216464  1
  Si  Si47  1  -0.00000000  0.10619241  0.39783536  1
