# generated using pymatgen
data_TbCu(WO4)2
_symmetry_space_group_name_H-M   'P 1'
_cell_length_a   6.83729399
_cell_length_b   10.04530017
_cell_length_c   15.40400408
_cell_angle_alpha   72.86328245
_cell_angle_beta   89.05421065
_cell_angle_gamma   71.89685414
_symmetry_Int_Tables_number   1
_chemical_formula_structural   TbCu(WO4)2
_chemical_formula_sum   'Tb6 Cu6 W12 O48'
_cell_volume   957.68531927
_cell_formula_units_Z   6
loop_
 _symmetry_equiv_pos_site_id
 _symmetry_equiv_pos_as_xyz
  1  'x, y, z'
loop_
 _atom_site_type_symbol
 _atom_site_label
 _atom_site_symmetry_multiplicity
 _atom_site_fract_x
 _atom_site_fract_y
 _atom_site_fract_z
 _atom_site_occupancy
  Tb  Tb0  1  0.80514902  0.22427739  0.98517819  1
  Tb  Tb1  1  0.19485098  0.77572261  0.01482181  1
  Tb  Tb2  1  0.96499045  0.39706173  0.32405249  1
  Tb  Tb3  1  0.03500955  0.60293827  0.67594751  1
  Tb  Tb4  1  0.64040314  0.05112073  0.65615164  1
  Tb  Tb5  1  0.35959686  0.94887927  0.34384836  1
  Cu  Cu6  1  0.50000000  0.50000000  0.50000000  1
  Cu  Cu7  1  -0.00000000  0.00000000  0.50000000  1
  Cu  Cu8  1  0.83036538  0.83420460  0.16511951  1
  Cu  Cu9  1  0.16963462  0.16579540  0.83488049  1
  Cu  Cu10  1  0.67936417  0.66255163  0.83150008  1
  Cu  Cu11  1  0.32063583  0.33744837  0.16849992  1
  W  W12  1  0.65056946  0.40764013  0.71570726  1
  W  W13  1  0.34943054  0.59235987  0.28429274  1
  W  W14  1  0.80951108  0.58028055  0.05385324  1
  W  W15  1  0.19048892  0.41971945  0.94614676  1
  W  W16  1  0.83709007  0.10556475  0.25743370  1
  W  W17  1  0.16290993  0.89443525  0.74256630  1
  W  W18  1  0.49535731  0.23286030  0.39081417  1
  W  W19  1  0.50464269  0.76713970  0.60918583  1
  W  W20  1  0.66804375  0.93792738  0.93109978  1
  W  W21  1  0.33195625  0.06207262  0.06890022  1
  W  W22  1  0.97621180  0.75067622  0.39591942  1
  W  W23  1  0.02378820  0.24932378  0.60408058  1
  O  O24  1  0.40679455  0.91917668  0.99503756  1
  O  O25  1  0.59320545  0.08082332  0.00496244  1
  O  O26  1  0.04658345  0.59925503  0.33462252  1
  O  O27  1  0.95341655  0.40074497  0.66537748  1
  O  O28  1  0.87943318  0.43155336  0.99156703  1
  O  O29  1  0.12056682  0.56844664  0.00843297  1
  O  O30  1  0.28498765  0.73709154  0.34935164  1
  O  O31  1  0.71501235  0.26290846  0.65064836  1
  O  O32  1  0.56830086  0.09322438  0.31586756  1
  O  O33  1  0.43169914  0.90677562  0.68413244  1
  O  O34  1  0.27646953  0.25530042  0.08016167  1
  O  O35  1  0.72353047  0.74469958  0.91983833  1
  O  O36  1  0.62627165  0.11473237  0.50034460  1
  O  O37  1  0.37372835  0.88526763  0.49965540  1
  O  O38  1  0.24276502  0.70602785  0.17038178  1
  O  O39  1  0.75723498  0.29397215  0.82961822  1
  O  O40  1  0.07957244  0.03008994  0.07350086  1
  O  O41  1  0.92042756  0.96991006  0.92649914  1
  O  O42  1  0.07091008  0.64536974  0.51329213  1
  O  O43  1  0.92908992  0.35463026  0.48670787  1
  O  O44  1  0.91794232  0.46966764  0.16881979  1
  O  O45  1  0.08205768  0.53033236  0.83118021  1
  O  O46  1  0.83428015  0.76752531  0.06395127  1
  O  O47  1  0.16571985  0.23247469  0.93604873  1
  O  O48  1  0.44133971  0.41694471  0.41567727  1
  O  O49  1  0.55866029  0.58305529  0.58432273  1
  O  O50  1  0.10758141  0.09039054  0.74637761  1
  O  O51  1  0.89241859  0.90960946  0.25362239  1
  O  O52  1  0.46225894  0.39389837  0.94052141  1
  O  O53  1  0.53774106  0.60610163  0.05947859  1
  O  O54  1  0.44548793  0.95494974  0.18312037  1
  O  O55  1  0.55451207  0.04505026  0.81687963  1
  O  O56  1  0.75782671  0.25302455  0.32921502  1
  O  O57  1  0.24217329  0.74697545  0.67078498  1
  O  O58  1  0.24716166  0.19308594  0.39914351  1
  O  O59  1  0.75283834  0.80691406  0.60085649  1
  O  O60  1  0.99623383  0.94277835  0.39527367  1
  O  O61  1  0.00376617  0.05722165  0.60472633  1
  O  O62  1  0.72664738  0.20916943  0.14254593  1
  O  O63  1  0.27335262  0.79083057  0.85745407  1
  O  O64  1  0.32383169  0.40770315  0.26814980  1
  O  O65  1  0.67616831  0.59229685  0.73185020  1
  O  O66  1  0.09156860  0.13298433  0.25232139  1
  O  O67  1  0.90843140  0.86701567  0.74767861  1
  O  O68  1  0.62199213  0.56666441  0.28036200  1
  O  O69  1  0.37800787  0.43333559  0.71963800  1
  O  O70  1  0.70206696  0.78206707  0.39651731  1
  O  O71  1  0.29793304  0.21793293  0.60348269  1
