# generated using pymatgen
data_Yb3Sb4S9
_symmetry_space_group_name_H-M   'P 1'
_cell_length_a   3.90253562
_cell_length_b   16.26667837
_cell_length_c   23.64929812
_cell_angle_alpha   90.00000000
_cell_angle_beta   90.00000000
_cell_angle_gamma   90.00000000
_symmetry_Int_Tables_number   1
_chemical_formula_structural   Yb3Sb4S9
_chemical_formula_sum   'Yb12 Sb16 S36'
_cell_volume   1501.28799383
_cell_formula_units_Z   4
loop_
 _symmetry_equiv_pos_site_id
 _symmetry_equiv_pos_as_xyz
  1  'x, y, z'
loop_
 _atom_site_type_symbol
 _atom_site_label
 _atom_site_symmetry_multiplicity
 _atom_site_fract_x
 _atom_site_fract_y
 _atom_site_fract_z
 _atom_site_occupancy
  Yb  Yb0  1  0.75000000  0.37578047  0.05771119  1
  Yb  Yb1  1  0.75000000  0.87578047  0.44228881  1
  Yb  Yb2  1  0.25000000  0.62421953  0.94228881  1
  Yb  Yb3  1  0.25000000  0.12421953  0.55771119  1
  Yb  Yb4  1  0.75000000  0.17398520  0.17371390  1
  Yb  Yb5  1  0.75000000  0.67398520  0.32628610  1
  Yb  Yb6  1  0.25000000  0.82601480  0.82628610  1
  Yb  Yb7  1  0.25000000  0.32601480  0.67371390  1
  Yb  Yb8  1  0.75000000  0.44195532  0.23621536  1
  Yb  Yb9  1  0.75000000  0.94195532  0.26378464  1
  Yb  Yb10  1  0.25000000  0.55804468  0.76378464  1
  Yb  Yb11  1  0.25000000  0.05804468  0.73621536  1
  Sb  Sb12  1  0.75000000  0.33188316  0.50583919  1
  Sb  Sb13  1  0.75000000  0.83188316  0.99416081  1
  Sb  Sb14  1  0.25000000  0.66811684  0.49416081  1
  Sb  Sb15  1  0.25000000  0.16811684  0.00583919  1
  Sb  Sb16  1  0.75000000  0.03005498  0.89299806  1
  Sb  Sb17  1  0.75000000  0.53005498  0.60700194  1
  Sb  Sb18  1  0.25000000  0.96994502  0.10700194  1
  Sb  Sb19  1  0.25000000  0.46994502  0.39299806  1
  Sb  Sb20  1  0.75000000  0.41301951  0.89467643  1
  Sb  Sb21  1  0.75000000  0.91301951  0.60532357  1
  Sb  Sb22  1  0.25000000  0.58698049  0.10532357  1
  Sb  Sb23  1  0.25000000  0.08698049  0.39467643  1
  Sb  Sb24  1  0.75000000  0.24933460  0.82041431  1
  Sb  Sb25  1  0.75000000  0.74933460  0.67958569  1
  Sb  Sb26  1  0.25000000  0.75066540  0.17958569  1
  Sb  Sb27  1  0.25000000  0.25066540  0.32041431  1
  S  S28  1  0.75000000  0.24867316  0.59255261  1
  S  S29  1  0.75000000  0.74867316  0.90744739  1
  S  S30  1  0.25000000  0.75132684  0.40744739  1
  S  S31  1  0.25000000  0.25132684  0.09255261  1
  S  S32  1  0.75000000  0.05497018  0.63960395  1
  S  S33  1  0.75000000  0.55497018  0.86039605  1
  S  S34  1  0.25000000  0.94502982  0.36039605  1
  S  S35  1  0.25000000  0.44502982  0.13960395  1
  S  S36  1  0.75000000  0.45841482  0.69873053  1
  S  S37  1  0.75000000  0.95841482  0.80126947  1
  S  S38  1  0.25000000  0.54158518  0.30126947  1
  S  S39  1  0.25000000  0.04158518  0.19873053  1
  S  S40  1  0.75000000  0.20336201  0.72237505  1
  S  S41  1  0.75000000  0.70336201  0.77762495  1
  S  S42  1  0.25000000  0.79663799  0.27762495  1
  S  S43  1  0.25000000  0.29663799  0.22237505  1
  S  S44  1  0.75000000  0.06704509  0.07069944  1
  S  S45  1  0.75000000  0.56704509  0.42930056  1
  S  S46  1  0.25000000  0.93295491  0.92930056  1
  S  S47  1  0.25000000  0.43295491  0.57069944  1
  S  S48  1  0.75000000  0.05592794  0.46571298  1
  S  S49  1  0.75000000  0.55592794  0.03428702  1
  S  S50  1  0.25000000  0.94407206  0.53428702  1
  S  S51  1  0.25000000  0.44407206  0.96571298  1
  S  S52  1  0.75000000  0.25335856  0.96624290  1
  S  S53  1  0.75000000  0.75335856  0.53375710  1
  S  S54  1  0.25000000  0.74664144  0.03375710  1
  S  S55  1  0.25000000  0.24664144  0.46624290  1
  S  S56  1  0.75000000  0.13487703  0.29951666  1
  S  S57  1  0.75000000  0.63487703  0.20048334  1
  S  S58  1  0.25000000  0.86512297  0.70048334  1
  S  S59  1  0.25000000  0.36512297  0.79951666  1
  S  S60  1  0.75000000  0.36525030  0.34580974  1
  S  S61  1  0.75000000  0.86525030  0.15419026  1
  S  S62  1  0.25000000  0.63474970  0.65419026  1
  S  S63  1  0.25000000  0.13474970  0.84580974  1
