# generated using pymatgen
data_KSi2H14C4N
_symmetry_space_group_name_H-M   'P 1'
_cell_length_a   6.14025990
_cell_length_b   11.76366834
_cell_length_c   15.65598451
_cell_angle_alpha   90.00000000
_cell_angle_beta   90.00000000
_cell_angle_gamma   90.00000000
_symmetry_Int_Tables_number   1
_chemical_formula_structural   KSi2H14C4N
_chemical_formula_sum   'K4 Si8 H56 C16 N4'
_cell_volume   1130.86277543
_cell_formula_units_Z   4
loop_
 _symmetry_equiv_pos_site_id
 _symmetry_equiv_pos_as_xyz
  1  'x, y, z'
loop_
 _atom_site_type_symbol
 _atom_site_label
 _atom_site_symmetry_multiplicity
 _atom_site_fract_x
 _atom_site_fract_y
 _atom_site_fract_z
 _atom_site_occupancy
  K  K0  1  0.65703282  0.34852150  0.75000000  1
  K  K1  1  0.15703282  0.15147850  0.75000000  1
  K  K2  1  0.34296718  0.65147850  0.25000000  1
  K  K3  1  0.84296718  0.84852150  0.25000000  1
  Si  Si4  1  0.14258625  0.45406797  0.65140050  1
  Si  Si5  1  0.64258625  0.04593203  0.84859950  1
  Si  Si6  1  0.85741375  0.54593203  0.15140050  1
  Si  Si7  1  0.35741375  0.95406797  0.34859950  1
  Si  Si8  1  0.85741375  0.54593203  0.34859950  1
  Si  Si9  1  0.35741375  0.95406797  0.15140050  1
  Si  Si10  1  0.14258625  0.45406797  0.84859950  1
  Si  Si11  1  0.64258625  0.04593203  0.65140050  1
  H  H12  1  0.29300502  0.28233675  0.57423723  1
  H  H13  1  0.79300502  0.21766325  0.92576277  1
  H  H14  1  0.70699498  0.71766325  0.07423723  1
  H  H15  1  0.20699498  0.78233675  0.42576277  1
  H  H16  1  0.70699498  0.71766325  0.42576277  1
  H  H17  1  0.20699498  0.78233675  0.07423723  1
  H  H18  1  0.29300502  0.28233675  0.92576277  1
  H  H19  1  0.79300502  0.21766325  0.57423723  1
  H  H20  1  0.25005394  0.39773039  0.50334417  1
  H  H21  1  0.75005394  0.10226961  0.99665583  1
  H  H22  1  0.74994606  0.60226961  0.00334417  1
  H  H23  1  0.24994606  0.89773039  0.49665583  1
  H  H24  1  0.74994606  0.60226961  0.49665583  1
  H  H25  1  0.24994606  0.89773039  0.00334417  1
  H  H26  1  0.25005394  0.39773039  0.99665583  1
  H  H27  1  0.75005394  0.10226961  0.50334417  1
  H  H28  1  0.47919500  0.39874027  0.57145764  1
  H  H29  1  0.97919500  0.10125973  0.92854236  1
  H  H30  1  0.52080500  0.60125973  0.07145764  1
  H  H31  1  0.02080500  0.89874027  0.42854236  1
  H  H32  1  0.52080500  0.60125973  0.42854236  1
  H  H33  1  0.02080500  0.89874027  0.07145764  1
  H  H34  1  0.47919500  0.39874027  0.92854236  1
  H  H35  1  0.97919500  0.10125973  0.57145764  1
  H  H36  1  0.37113096  0.63032218  0.65161155  1
  H  H37  1  0.87113096  0.86967782  0.84838845  1
  H  H38  1  0.62886904  0.36967782  0.15161155  1
  H  H39  1  0.12886904  0.13032218  0.34838845  1
  H  H40  1  0.62886904  0.36967782  0.34838845  1
  H  H41  1  0.12886904  0.13032218  0.15161155  1
  H  H42  1  0.37113096  0.63032218  0.84838845  1
  H  H43  1  0.87113096  0.86967782  0.65161155  1
  H  H44  1  0.17952708  0.63131705  0.56679549  1
  H  H45  1  0.67952708  0.86868295  0.93320451  1
  H  H46  1  0.82047292  0.36868295  0.06679549  1
  H  H47  1  0.32047292  0.13131705  0.43320451  1
  H  H48  1  0.82047292  0.36868295  0.43320451  1
  H  H49  1  0.32047292  0.13131705  0.06679549  1
  H  H50  1  0.17952708  0.63131705  0.93320451  1
  H  H51  1  0.67952708  0.86868295  0.56679549  1
  H  H52  1  0.09437667  0.66564812  0.67215266  1
  H  H53  1  0.59437667  0.83435188  0.82784734  1
  H  H54  1  0.90562333  0.33435188  0.17215266  1
  H  H55  1  0.40562333  0.16564812  0.32784734  1
  H  H56  1  0.90562333  0.33435188  0.32784734  1
  H  H57  1  0.40562333  0.16564812  0.17215266  1
  H  H58  1  0.09437667  0.66564812  0.82784734  1
  H  H59  1  0.59437667  0.83435188  0.67215266  1
  H  H60  1  0.90608251  0.44027086  0.62223244  1
  H  H61  1  0.40608251  0.05972914  0.87776756  1
  H  H62  1  0.09391749  0.55972914  0.12223244  1
  H  H63  1  0.59391749  0.94027086  0.37776756  1
  H  H64  1  0.09391749  0.55972914  0.37776756  1
  H  H65  1  0.59391749  0.94027086  0.12223244  1
  H  H66  1  0.90608251  0.44027086  0.87776756  1
  H  H67  1  0.40608251  0.05972914  0.62223244  1
  C  C68  1  0.30604597  0.37533506  0.56806998  1
  C  C69  1  0.80604597  0.12466494  0.93193002  1
  C  C70  1  0.69395403  0.62466494  0.06806998  1
  C  C71  1  0.19395403  0.87533506  0.43193002  1
  C  C72  1  0.69395403  0.62466494  0.43193002  1
  C  C73  1  0.19395403  0.87533506  0.06806998  1
  C  C74  1  0.30604597  0.37533506  0.93193002  1
  C  C75  1  0.80604597  0.12466494  0.56806998  1
  C  C76  1  0.20184362  0.61011942  0.63470362  1
  C  C77  1  0.70184362  0.88988058  0.86529638  1
  C  C78  1  0.79815638  0.38988058  0.13470362  1
  C  C79  1  0.29815638  0.11011942  0.36529638  1
  C  C80  1  0.79815638  0.38988058  0.36529638  1
  C  C81  1  0.29815638  0.11011942  0.13470362  1
  C  C82  1  0.20184362  0.61011942  0.86529638  1
  C  C83  1  0.70184362  0.88988058  0.63470362  1
  N  N84  1  0.18226733  0.39766879  0.75000000  1
  N  N85  1  0.68226733  0.10233121  0.75000000  1
  N  N86  1  0.81773267  0.60233121  0.25000000  1
  N  N87  1  0.31773267  0.89766879  0.25000000  1
