# generated using pymatgen
data_Rb4HfS4O17
_symmetry_space_group_name_H-M   'P 1'
_cell_length_a   9.82579023
_cell_length_b   12.72574469
_cell_length_c   15.25439083
_cell_angle_alpha   90.00000000
_cell_angle_beta   90.00000000
_cell_angle_gamma   90.00000000
_symmetry_Int_Tables_number   1
_chemical_formula_structural   Rb4HfS4O17
_chemical_formula_sum   'Rb16 Hf4 S16 O68'
_cell_volume   1907.41662370
_cell_formula_units_Z   4
loop_
 _symmetry_equiv_pos_site_id
 _symmetry_equiv_pos_as_xyz
  1  'x, y, z'
loop_
 _atom_site_type_symbol
 _atom_site_label
 _atom_site_symmetry_multiplicity
 _atom_site_fract_x
 _atom_site_fract_y
 _atom_site_fract_z
 _atom_site_occupancy
  Rb  Rb0  1  0.89945642  0.23867132  0.29306768  1
  Rb  Rb1  1  0.60054358  0.76132868  0.79306768  1
  Rb  Rb2  1  0.39945642  0.26132868  0.70693232  1
  Rb  Rb3  1  0.10054358  0.73867132  0.20693232  1
  Rb  Rb4  1  0.49707135  0.97008437  0.23534406  1
  Rb  Rb5  1  0.00292865  0.02991563  0.73534406  1
  Rb  Rb6  1  0.99707135  0.52991563  0.76465594  1
  Rb  Rb7  1  0.50292865  0.47008437  0.26465594  1
  Rb  Rb8  1  0.81113537  0.48364236  0.07432601  1
  Rb  Rb9  1  0.68886463  0.51635764  0.57432601  1
  Rb  Rb10  1  0.31113537  0.01635764  0.92567399  1
  Rb  Rb11  1  0.18886463  0.98364236  0.42567399  1
  Rb  Rb12  1  0.80839035  0.95213146  0.04356934  1
  Rb  Rb13  1  0.69160965  0.04786854  0.54356934  1
  Rb  Rb14  1  0.30839035  0.54786854  0.95643066  1
  Rb  Rb15  1  0.19160965  0.45213146  0.45643066  1
  Hf  Hf16  1  0.74902674  0.74315114  0.37633343  1
  Hf  Hf17  1  0.75097326  0.25684886  0.87633343  1
  Hf  Hf18  1  0.24902674  0.75684886  0.62366657  1
  Hf  Hf19  1  0.25097326  0.24315114  0.12366657  1
  S  S20  1  0.40181048  0.72781089  0.41276541  1
  S  S21  1  0.09818952  0.27218911  0.91276541  1
  S  S22  1  0.90181048  0.77218911  0.58723459  1
  S  S23  1  0.59818952  0.22781089  0.08723459  1
  S  S24  1  0.83627441  0.95218978  0.33537581  1
  S  S25  1  0.66372559  0.04781022  0.83537581  1
  S  S26  1  0.33627441  0.54781022  0.66462419  1
  S  S27  1  0.16372559  0.45218978  0.16462419  1
  S  S28  1  0.84103510  0.53208925  0.35057745  1
  S  S29  1  0.65896490  0.46791075  0.85057745  1
  S  S30  1  0.34103510  0.96791075  0.64942255  1
  S  S31  1  0.15896490  0.03208925  0.14942255  1
  S  S32  1  0.66616330  0.72117926  0.15137588  1
  S  S33  1  0.83383670  0.27882074  0.65137588  1
  S  S34  1  0.16616330  0.77882074  0.84862412  1
  S  S35  1  0.33383670  0.22117926  0.34862412  1
  O  O36  1  0.55152514  0.74700435  0.43194213  1
  O  O37  1  0.94847486  0.25299565  0.93194213  1
  O  O38  1  0.05152514  0.75299565  0.56805787  1
  O  O39  1  0.44847486  0.24700435  0.06805787  1
  O  O40  1  0.32934250  0.75644086  0.49831615  1
  O  O41  1  0.17065750  0.24355914  0.99831615  1
  O  O42  1  0.82934250  0.74355914  0.50168385  1
  O  O43  1  0.67065750  0.25644086  0.00168385  1
  O  O44  1  0.37801508  0.61743930  0.39364121  1
  O  O45  1  0.12198492  0.38256070  0.89364121  1
  O  O46  1  0.87801508  0.88256070  0.60635879  1
  O  O47  1  0.62198492  0.11743930  0.10635879  1
  O  O48  1  0.35376107  0.80045082  0.34506554  1
  O  O49  1  0.14623893  0.19954918  0.84506554  1
  O  O50  1  0.85376107  0.69954918  0.65493446  1
  O  O51  1  0.64623893  0.30045082  0.15493446  1
  O  O52  1  0.91393908  0.84740540  0.33144291  1
  O  O53  1  0.58606092  0.15259460  0.83144291  1
  O  O54  1  0.41393908  0.65259460  0.66855709  1
  O  O55  1  0.08606092  0.34740540  0.16855709  1
  O  O56  1  0.70371305  0.91241136  0.37823572  1
  O  O57  1  0.79628695  0.08758864  0.87823572  1
  O  O58  1  0.20371305  0.58758864  0.62176428  1
  O  O59  1  0.29628695  0.41241136  0.12176428  1
  O  O60  1  0.80933867  0.99444840  0.24813547  1
  O  O61  1  0.69066133  0.00555160  0.74813547  1
  O  O62  1  0.30933867  0.50555160  0.75186453  1
  O  O63  1  0.19066133  0.49444840  0.25186453  1
  O  O64  1  0.90450841  0.02723287  0.39297392  1
  O  O65  1  0.59549159  0.97276713  0.89297392  1
  O  O66  1  0.40450841  0.47276713  0.60702608  1
  O  O67  1  0.09549159  0.52723287  0.10702608  1
  O  O68  1  0.91284956  0.63774674  0.33499643  1
  O  O69  1  0.58715044  0.36225326  0.83499643  1
  O  O70  1  0.41284956  0.86225326  0.66500357  1
  O  O71  1  0.08715044  0.13774674  0.16500357  1
  O  O72  1  0.70605697  0.57466754  0.38869854  1
  O  O73  1  0.79394303  0.42533246  0.88869854  1
  O  O74  1  0.20605697  0.92533246  0.61130146  1
  O  O75  1  0.29394303  0.07466754  0.11130146  1
  O  O76  1  0.81544601  0.47671991  0.26842243  1
  O  O77  1  0.68455399  0.52328009  0.76842243  1
  O  O78  1  0.31544601  0.02328009  0.73157757  1
  O  O79  1  0.18455399  0.97671991  0.23157757  1
  O  O80  1  0.91186860  0.46816194  0.41510941  1
  O  O81  1  0.58813140  0.53183806  0.91510941  1
  O  O82  1  0.41186860  0.03183806  0.58489059  1
  O  O83  1  0.08813140  0.96816194  0.08489059  1
  O  O84  1  0.67319029  0.73931515  0.25240448  1
  O  O85  1  0.82680971  0.26068485  0.75240448  1
  O  O86  1  0.17319029  0.76068485  0.74759552  1
  O  O87  1  0.32680971  0.23931515  0.24759552  1
  O  O88  1  0.59409641  0.62218137  0.13745125  1
  O  O89  1  0.90590359  0.37781863  0.63745125  1
  O  O90  1  0.09409641  0.87781863  0.86254875  1
  O  O91  1  0.40590359  0.12218137  0.36254875  1
  O  O92  1  0.59421185  0.81249909  0.11451153  1
  O  O93  1  0.90578815  0.18750091  0.61451153  1
  O  O94  1  0.09421185  0.68750091  0.88548847  1
  O  O95  1  0.40578815  0.31249909  0.38548847  1
  O  O96  1  0.81035308  0.71690969  0.12076054  1
  O  O97  1  0.68964692  0.28309031  0.62076054  1
  O  O98  1  0.31035308  0.78309031  0.87923946  1
  O  O99  1  0.18964692  0.21690969  0.37923946  1
  O  O100  1  0.68475573  0.26678904  0.44382538  1
  O  O101  1  0.81524427  0.73321096  0.94382538  1
  O  O102  1  0.18475573  0.23321096  0.55617462  1
  O  O103  1  0.31524427  0.76678904  0.05617462  1
