# generated using pymatgen
data_KYb(BH4)4
_symmetry_space_group_name_H-M   'P 1'
_cell_length_a   8.17285163
_cell_length_b   8.17285163
_cell_length_c   9.75785730
_cell_angle_alpha   90.00000000
_cell_angle_beta   90.00000000
_cell_angle_gamma   113.06809196
_symmetry_Int_Tables_number   1
_chemical_formula_structural   KYb(BH4)4
_chemical_formula_sum   'K2 Yb2 B8 H32'
_cell_volume   599.66448659
_cell_formula_units_Z   2
loop_
 _symmetry_equiv_pos_site_id
 _symmetry_equiv_pos_as_xyz
  1  'x, y, z'
loop_
 _atom_site_type_symbol
 _atom_site_label
 _atom_site_symmetry_multiplicity
 _atom_site_fract_x
 _atom_site_fract_y
 _atom_site_fract_z
 _atom_site_occupancy
  K  K0  1  -0.00000000  -0.00000000  0.00000000  1
  K  K1  1  -0.00000000  -0.00000000  0.50000000  1
  Yb  Yb2  1  0.38137907  0.61862093  0.25000000  1
  Yb  Yb3  1  0.61862093  0.38137907  0.75000000  1
  B  B4  1  0.25260521  0.74739479  0.44596916  1
  B  B5  1  0.74739479  0.25260521  0.55403084  1
  B  B6  1  0.25260521  0.74739479  0.05403084  1
  B  B7  1  0.74739479  0.25260521  0.94596916  1
  B  B8  1  0.71198304  0.75333016  0.25000000  1
  B  B9  1  0.75333016  0.71198304  0.75000000  1
  B  B10  1  0.28801696  0.24666984  0.75000000  1
  B  B11  1  0.24666984  0.28801696  0.25000000  1
  H  H12  1  0.19236785  0.80763215  0.53706064  1
  H  H13  1  0.80763215  0.19236785  0.46293936  1
  H  H14  1  0.19236785  0.80763215  0.96293936  1
  H  H15  1  0.80763215  0.19236785  0.03706064  1
  H  H16  1  0.34213373  0.65786627  0.47569267  1
  H  H17  1  0.65786627  0.34213373  0.52430733  1
  H  H18  1  0.34213373  0.65786627  0.02430733  1
  H  H19  1  0.65786627  0.34213373  0.97569267  1
  H  H20  1  0.36585512  0.87379130  0.38466968  1
  H  H21  1  0.87379130  0.36585512  0.61533032  1
  H  H22  1  0.36585512  0.87379130  0.11533032  1
  H  H23  1  0.87379130  0.36585512  0.88466968  1
  H  H24  1  0.63414488  0.12620870  0.61533032  1
  H  H25  1  0.12620870  0.63414488  0.38466968  1
  H  H26  1  0.63414488  0.12620870  0.88466968  1
  H  H27  1  0.12620870  0.63414488  0.11533032  1
  H  H28  1  0.87415748  0.81330324  0.25000000  1
  H  H29  1  0.81330324  0.87415748  0.75000000  1
  H  H30  1  0.12584252  0.18669676  0.75000000  1
  H  H31  1  0.18669676  0.12584252  0.25000000  1
  H  H32  1  0.65201819  0.87072911  0.25000000  1
  H  H33  1  0.87072911  0.65201819  0.75000000  1
  H  H34  1  0.34798181  0.12927089  0.75000000  1
  H  H35  1  0.12927089  0.34798181  0.25000000  1
  H  H36  1  0.65208721  0.65772238  0.35142610  1
  H  H37  1  0.65772238  0.65208721  0.64857390  1
  H  H38  1  0.65208721  0.65772238  0.14857390  1
  H  H39  1  0.65772238  0.65208721  0.85142610  1
  H  H40  1  0.34791279  0.34227762  0.64857390  1
  H  H41  1  0.34227762  0.34791279  0.35142610  1
  H  H42  1  0.34791279  0.34227762  0.85142610  1
  H  H43  1  0.34227762  0.34791279  0.14857390  1
