# generated using pymatgen
data_KLuH8(CO3)4
_symmetry_space_group_name_H-M   'P 1'
_cell_length_a   9.08681596
_cell_length_b   9.24179175
_cell_length_c   9.24179175
_cell_angle_alpha   76.01393937
_cell_angle_beta   60.55317905
_cell_angle_gamma   60.55317905
_symmetry_Int_Tables_number   1
_chemical_formula_structural   KLuH8(CO3)4
_chemical_formula_sum   'K2 Lu2 H16 C8 O24'
_cell_volume   588.53630924
_cell_formula_units_Z   2
loop_
 _symmetry_equiv_pos_site_id
 _symmetry_equiv_pos_as_xyz
  1  'x, y, z'
loop_
 _atom_site_type_symbol
 _atom_site_label
 _atom_site_symmetry_multiplicity
 _atom_site_fract_x
 _atom_site_fract_y
 _atom_site_fract_z
 _atom_site_occupancy
  K  K0  1  0.37500000  0.75000000  0.75000000  1
  K  K1  1  0.62500000  0.25000000  0.25000000  1
  Lu  Lu2  1  0.87500000  0.75000000  0.75000000  1
  Lu  Lu3  1  0.12500000  0.25000000  0.25000000  1
  H  H4  1  0.45555634  0.39657363  0.91284672  1
  H  H5  1  0.26497670  0.10342637  0.58715328  1
  H  H6  1  0.86840307  0.08715328  0.89657363  1
  H  H7  1  0.35212997  0.41284672  0.60342637  1
  H  H8  1  0.54444366  0.60342637  0.08715328  1
  H  H9  1  0.73502330  0.89657363  0.41284672  1
  H  H10  1  0.13159693  0.91284672  0.10342637  1
  H  H11  1  0.64787003  0.58715328  0.39657363  1
  H  H12  1  0.67383772  0.34043119  0.82573924  1
  H  H13  1  0.34000815  0.15956881  0.67426076  1
  H  H14  1  0.99957696  0.17426076  0.84043119  1
  H  H15  1  0.51426891  0.32573924  0.65956881  1
  H  H16  1  0.32616228  0.65956881  0.17426076  1
  H  H17  1  0.65999185  0.84043119  0.32573924  1
  H  H18  1  0.00042304  0.82573924  0.15956881  1
  H  H19  1  0.48573109  0.67426076  0.34043119  1
  C  C20  1  0.07432757  0.98034615  0.52829591  1
  C  C21  1  0.08296964  0.51965385  0.97170409  1
  C  C22  1  0.10262348  0.47170409  0.48034615  1
  C  C23  1  0.55467373  0.02829591  0.01965385  1
  C  C24  1  0.92567243  0.01965385  0.47170409  1
  C  C25  1  0.91703036  0.48034615  0.02829591  1
  C  C26  1  0.89737652  0.52829591  0.51965385  1
  C  C27  1  0.44532627  0.97170409  0.98034615  1
  O  O28  1  0.56035809  0.39877743  0.80614319  1
  O  O29  1  0.26527871  0.10122257  0.69385681  1
  O  O30  1  0.86650127  0.19385681  0.89877743  1
  O  O31  1  0.45913552  0.30614319  0.60122257  1
  O  O32  1  0.43964191  0.60122257  0.19385681  1
  O  O33  1  0.73472129  0.89877743  0.30614319  1
  O  O34  1  0.13349873  0.80614319  0.10122257  1
  O  O35  1  0.54086448  0.69385681  0.39877743  1
  O  O36  1  0.08397903  0.87408736  0.64254037  1
  O  O37  1  0.10060676  0.62591264  0.85745963  1
  O  O38  1  0.22651940  0.35745963  0.37408736  1
  O  O39  1  0.45806639  0.14254037  0.12591264  1
  O  O40  1  0.91602097  0.12591264  0.35745963  1
  O  O41  1  0.89939324  0.37408736  0.14254037  1
  O  O42  1  0.77348060  0.64254037  0.62591264  1
  O  O43  1  0.54193361  0.85745963  0.87408736  1
  O  O44  1  0.17409579  0.05972516  0.45464767  1
  O  O45  1  0.18846861  0.44027484  0.04535233  1
  O  O46  1  0.12874346  0.54535233  0.55972516  1
  O  O47  1  0.73382095  0.95464767  0.94027484  1
  O  O48  1  0.82590421  0.94027484  0.54535233  1
  O  O49  1  0.81153139  0.55972516  0.95464767  1
  O  O50  1  0.87125654  0.45464767  0.44027484  1
  O  O51  1  0.26617905  0.04535233  0.05972516  1
