# generated using pymatgen
data_SiH12C2(NF3)2
_symmetry_space_group_name_H-M   'P 1'
_cell_length_a   6.88814628
_cell_length_b   6.88814628
_cell_length_c   10.01351583
_cell_angle_alpha   98.10930382
_cell_angle_beta   98.10930382
_cell_angle_gamma   90.12998497
_symmetry_Int_Tables_number   1
_chemical_formula_structural   SiH12C2(NF3)2
_chemical_formula_sum   'Si2 H24 C4 N4 F12'
_cell_volume   465.53384888
_cell_formula_units_Z   2
loop_
 _symmetry_equiv_pos_site_id
 _symmetry_equiv_pos_as_xyz
  1  'x, y, z'
loop_
 _atom_site_type_symbol
 _atom_site_label
 _atom_site_symmetry_multiplicity
 _atom_site_fract_x
 _atom_site_fract_y
 _atom_site_fract_z
 _atom_site_occupancy
  Si  Si0  1  0.20196895  0.79803105  0.25000000  1
  Si  Si1  1  0.79803105  0.20196895  0.75000000  1
  H  H2  1  0.82325471  0.60479500  0.85580409  1
  H  H3  1  0.39520500  0.17674529  0.64419591  1
  H  H4  1  0.17674529  0.39520500  0.14419591  1
  H  H5  1  0.60479500  0.82325471  0.35580409  1
  H  H6  1  0.81914407  0.84696345  0.85619220  1
  H  H7  1  0.15303655  0.18085593  0.64380780  1
  H  H8  1  0.18085593  0.15303655  0.14380780  1
  H  H9  1  0.84696345  0.81914407  0.35619220  1
  H  H10  1  0.95908163  0.75407738  0.98215248  1
  H  H11  1  0.24592262  0.04091837  0.51784752  1
  H  H12  1  0.04091837  0.24592262  0.01784752  1
  H  H13  1  0.75407738  0.95908163  0.48215248  1
  H  H14  1  0.66516453  0.63532655  0.06007841  1
  H  H15  1  0.36467345  0.33483547  0.43992159  1
  H  H16  1  0.33483547  0.36467345  0.93992159  1
  H  H17  1  0.63532655  0.66516453  0.56007841  1
  H  H18  1  0.66998070  0.89558440  0.06301107  1
  H  H19  1  0.10441560  0.33001930  0.43698893  1
  H  H20  1  0.33001930  0.10441560  0.93698893  1
  H  H21  1  0.89558440  0.66998070  0.56301107  1
  H  H22  1  0.51917490  0.74287144  0.92825091  1
  H  H23  1  0.25712856  0.48082510  0.57174909  1
  H  H24  1  0.48082510  0.25712856  0.07174909  1
  H  H25  1  0.74287144  0.51917490  0.42825091  1
  C  C26  1  0.65751327  0.75398363  0.99767395  1
  C  C27  1  0.24601637  0.34248673  0.50232605  1
  C  C28  1  0.34248673  0.24601637  0.00232605  1
  C  C29  1  0.75398363  0.65751327  0.49767395  1
  N  N30  1  0.82456952  0.73849112  0.91783147  1
  N  N31  1  0.26150888  0.17543048  0.58216853  1
  N  N32  1  0.17543048  0.26150888  0.08216853  1
  N  N33  1  0.73849112  0.82456952  0.41783147  1
  F  F34  1  0.02522147  0.97477853  0.25000000  1
  F  F35  1  0.97477853  0.02522147  0.75000000  1
  F  F36  1  0.37709333  0.62290667  0.25000000  1
  F  F37  1  0.62290667  0.37709333  0.75000000  1
  F  F38  1  0.17983195  0.78224913  0.07414238  1
  F  F39  1  0.21775087  0.82016805  0.42585762  1
  F  F40  1  0.82016805  0.21775087  0.92585762  1
  F  F41  1  0.78224913  0.17983195  0.57414238  1
  F  F42  1  0.02339960  0.61812811  0.23362104  1
  F  F43  1  0.38187189  0.97660040  0.26637896  1
  F  F44  1  0.97660040  0.38187189  0.76637896  1
  F  F45  1  0.61812811  0.02339960  0.73362104  1
