# generated using pymatgen
data_CeAgS2O9
_symmetry_space_group_name_H-M   'P 1'
_cell_length_a   6.98186753
_cell_length_b   6.98341185
_cell_length_c   13.41097209
_cell_angle_alpha   89.99152241
_cell_angle_beta   90.00779206
_cell_angle_gamma   120.01657110
_symmetry_Int_Tables_number   1
_chemical_formula_structural   CeAgS2O9
_chemical_formula_sum   'Ce3 Ag3 S6 O27'
_cell_volume   566.18401111
_cell_formula_units_Z   3
loop_
 _symmetry_equiv_pos_site_id
 _symmetry_equiv_pos_as_xyz
  1  'x, y, z'
loop_
 _atom_site_type_symbol
 _atom_site_label
 _atom_site_symmetry_multiplicity
 _atom_site_fract_x
 _atom_site_fract_y
 _atom_site_fract_z
 _atom_site_occupancy
  Ce  Ce0  1  0.39969690  -0.00004553  0.49999552  1
  Ce  Ce1  1  -0.00005441  0.40055897  0.83337129  1
  Ce  Ce2  1  0.60037686  0.60039082  0.16661600  1
  Ag  Ag3  1  0.53294913  0.53297160  0.66673131  1
  Ag  Ag4  1  0.46724335  0.00000810  0.00000291  1
  Ag  Ag5  1  -0.00003877  0.46695186  0.33324490  1
  S  S6  1  0.97630565  0.43148009  0.59248648  1
  S  S7  1  0.56847077  0.54480627  0.92581766  1
  S  S8  1  0.45517669  0.02371997  0.25908958  1
  S  S9  1  0.02372689  0.45515795  0.07423168  1
  S  S10  1  0.54482264  0.56851287  0.40757310  1
  S  S11  1  0.43155379  0.97634903  0.74080848  1
  O  O12  1  0.81254397  0.23576826  0.53665391  1
  O  O13  1  0.76406427  0.57677368  0.87008953  1
  O  O14  1  0.42322819  0.18720498  0.20341158  1
  O  O15  1  0.18714894  0.42318377  0.12987673  1
  O  O16  1  0.57670139  0.76409639  0.46326270  1
  O  O17  1  0.23577827  0.81259706  0.79673943  1
  O  O18  1  0.11494350  0.60567532  0.51898159  1
  O  O19  1  0.39444033  0.50927643  0.85240776  1
  O  O20  1  0.49065779  0.88509960  0.18579540  1
  O  O21  1  0.88526031  0.49069281  0.14751762  1
  O  O22  1  0.50929835  0.39440126  0.48094354  1
  O  O23  1  0.60577624  0.11500090  0.81435233  1
  O  O24  1  0.86496299  0.50789986  0.66655481  1
  O  O25  1  0.49227456  0.35744277  -0.00019969  1
  O  O26  1  0.64265714  0.13479914  0.33312524  1
  O  O27  1  0.13475126  0.64260374  0.00021639  1
  O  O28  1  0.35739205  0.49227918  0.33349685  1
  O  O29  1  0.50785512  0.86494345  0.66681787  1
  O  O30  1  0.12205626  0.38150385  0.65692004  1
  O  O31  1  0.61833816  0.74016781  0.99021572  1
  O  O32  1  0.25973758  0.87812025  0.32355120  1
  O  O33  1  0.87815132  0.25976615  0.00977106  1
  O  O34  1  0.74023534  0.61833021  0.34312573  1
  O  O35  1  0.38150824  0.12203788  0.67644892  1
  O  O36  1  0.13603324  -0.00001557  0.50000372  1
  O  O37  1  -0.00000978  0.13546492  0.83331424  1
  O  O38  1  0.86398548  0.86402391  0.16673688  1
