# generated using pymatgen
data_CuH20N6OF2
_symmetry_space_group_name_H-M   'P 1'
_cell_length_a   6.72926735
_cell_length_b   6.72926735
_cell_length_c   18.62116523
_cell_angle_alpha   90.00000000
_cell_angle_beta   90.00000000
_cell_angle_gamma   119.99999623
_symmetry_Int_Tables_number   1
_chemical_formula_structural   CuH20N6OF2
_chemical_formula_sum   'Cu3 H60 N18 O3 F6'
_cell_volume   730.25252496
_cell_formula_units_Z   3
loop_
 _symmetry_equiv_pos_site_id
 _symmetry_equiv_pos_as_xyz
  1  'x, y, z'
loop_
 _atom_site_type_symbol
 _atom_site_label
 _atom_site_symmetry_multiplicity
 _atom_site_fract_x
 _atom_site_fract_y
 _atom_site_fract_z
 _atom_site_occupancy
  Cu  Cu0  1  0.53449711  0.53455793  0.33332021  1
  Cu  Cu1  1  0.00006082  0.46550289  0.66665421  1
  Cu  Cu2  1  0.46544207  0.99993918  0.99998721  1
  H  H3  1  0.55932927  0.20212309  0.39728629  1
  H  H4  1  0.64279381  0.44067073  0.73062029  1
  H  H5  1  0.79787691  0.35720619  0.06395329  1
  H  H6  1  0.35727852  0.79796591  0.60269760  1
  H  H7  1  0.20203409  0.55931261  0.26936360  1
  H  H8  1  0.44068739  0.64272148  0.93603060  1
  H  H9  1  0.35059394  0.08520998  0.33576842  1
  H  H10  1  0.73461604  0.64940606  0.66910242  1
  H  H11  1  0.91479002  0.26538396  0.00243542  1
  H  H12  1  0.26542030  0.91484431  0.66422864  1
  H  H13  1  0.08515569  0.35057599  0.33089464  1
  H  H14  1  0.64942401  0.73457970  0.99756164  1
  H  H15  1  0.30135560  0.16757906  0.41531624  1
  H  H16  1  0.86622347  0.69864440  0.74865024  1
  H  H17  1  0.83242093  0.13377653  0.08198324  1
  H  H18  1  0.13382239  0.83249042  0.58467480  1
  H  H19  1  0.16750958  0.30133197  0.25134080  1
  H  H20  1  0.69866803  0.86617761  0.91800780  1
  H  H21  1  0.98069994  0.72619141  0.33249148  1
  H  H22  1  0.74549147  0.01930006  0.66582548  1
  H  H23  1  0.27380859  0.25450853  0.99915848  1
  H  H24  1  0.25448044  0.27382408  0.66752385  1
  H  H25  1  0.72617592  0.98065636  0.33418985  1
  H  H26  1  0.01934364  0.74551956  0.00085685  1
  H  H27  1  0.87685992  0.51249326  0.39160575  1
  H  H28  1  0.63563334  0.12314008  0.72493975  1
  H  H29  1  0.48750674  0.36436666  0.05827275  1
  H  H30  1  0.36440830  0.48753560  0.60840286  1
  H  H31  1  0.51246440  0.87687270  0.27506886  1
  H  H32  1  0.12312730  0.63559170  0.94173586  1
  H  H33  1  0.89953532  0.76422692  0.41380529  1
  H  H34  1  0.86469160  0.10046468  0.74713929  1
  H  H35  1  0.23577308  0.13530840  0.08047229  1
  H  H36  1  0.13528883  0.23580056  0.58619903  1
  H  H37  1  0.76419944  0.89948827  0.25286503  1
  H  H38  1  0.10051173  0.86471117  0.91953203  1
  H  H39  1  0.47920761  0.65431119  0.48999098  1
  H  H40  1  0.17510358  0.52079239  0.82332498  1
  H  H41  1  0.34568881  0.82489642  0.15665798  1
  H  H42  1  0.82488826  0.34567784  0.51001361  1
  H  H43  1  0.65432216  0.47921042  0.17667961  1
  H  H44  1  0.52078958  0.17511174  0.84334661  1
  H  H45  1  0.22876630  0.51042753  0.44714042  1
  H  H46  1  0.28166124  0.77123370  0.78047442  1
  H  H47  1  0.48957247  0.71833876  0.11380742  1
  H  H48  1  0.71834097  0.48956847  0.55286361  1
  H  H49  1  0.51043153  0.22877250  0.21952961  1
  H  H50  1  0.77122750  0.28165903  0.88619661  1
  H  H51  1  0.40102320  0.78540514  0.43184946  1
  H  H52  1  0.38438194  0.59897680  0.76518346  1
  H  H53  1  0.21459486  0.61561806  0.09851646  1
  H  H54  1  0.61562705  0.21459763  0.56815984  1
  H  H55  1  0.78540237  0.40102941  0.23482584  1
  H  H56  1  0.59897059  0.38437295  0.90149284  1
  H  H57  1  0.93054107  0.09019573  0.46753251  1
  H  H58  1  0.15965467  0.06945893  0.80086651  1
  H  H59  1  0.90980427  0.84034533  0.13419951  1
  H  H60  1  0.84035007  0.90981512  0.53248872  1
  H  H61  1  0.09018488  0.93053495  0.19915472  1
  H  H62  1  0.06946505  0.15964993  0.86582172  1
  N  N63  1  0.42112781  0.20793856  0.37590911  1
  N  N64  1  0.78681075  0.57887219  0.70924311  1
  N  N65  1  0.79206144  0.21318925  0.04257611  1
  N  N66  1  0.21324749  0.79214325  0.62406712  1
  N  N67  1  0.20785675  0.42110424  0.29073312  1
  N  N68  1  0.57889576  0.78675251  0.95740012  1
  N  N69  1  0.86086990  0.64831400  0.37262760  1
  N  N70  1  0.78744410  0.13913010  0.70596160  1
  N  N71  1  0.35168600  0.21255590  0.03929460  1
  N  N72  1  0.21259809  0.35172616  0.62737440  1
  N  N73  1  0.64827384  0.86087193  0.29404040  1
  N  N74  1  0.13912807  0.78740191  0.96070740  1
  N  N75  1  0.39763319  0.63457156  0.44173633  1
  N  N76  1  0.23693837  0.60236681  0.77507033  1
  N  N77  1  0.36542844  0.76306163  0.10840333  1
  N  N78  1  0.76307265  0.36542781  0.55826911  1
  N  N79  1  0.63457219  0.39764484  0.22493511  1
  N  N80  1  0.60235516  0.23692735  0.89160211  1
  O  O81  1  0.97523398  0.00003383  0.50001864  1
  O  O82  1  0.02479985  0.02476602  0.83335264  1
  O  O83  1  0.99996617  0.97520015  0.16668564  1
  F  F84  1  0.87899636  0.24429657  0.41019802  1
  F  F85  1  0.36530021  0.12100364  0.74353202  1
  F  F86  1  0.75570343  0.63469979  0.07686502  1
  F  F87  1  0.63470100  0.75568613  0.58980606  1
  F  F88  1  0.24431387  0.87901487  0.25647206  1
  F  F89  1  0.12098513  0.36529900  0.92313906  1
