# generated using pymatgen
data_MnH6C2O7
_symmetry_space_group_name_H-M   'P 1'
_cell_length_a   6.63933598
_cell_length_b   9.96653143
_cell_length_c   10.81556524
_cell_angle_alpha   90.00000000
_cell_angle_beta   90.00000000
_cell_angle_gamma   90.00000000
_symmetry_Int_Tables_number   1
_chemical_formula_structural   MnH6C2O7
_chemical_formula_sum   'Mn4 H24 C8 O28'
_cell_volume   715.67839761
_cell_formula_units_Z   4
loop_
 _symmetry_equiv_pos_site_id
 _symmetry_equiv_pos_as_xyz
  1  'x, y, z'
loop_
 _atom_site_type_symbol
 _atom_site_label
 _atom_site_symmetry_multiplicity
 _atom_site_fract_x
 _atom_site_fract_y
 _atom_site_fract_z
 _atom_site_occupancy
  Mn  Mn0  1  0.50000000  0.75000000  0.36541137  1
  Mn  Mn1  1  0.50000000  0.25000000  0.13458863  1
  Mn  Mn2  1  0.50000000  0.25000000  0.63458863  1
  Mn  Mn3  1  0.50000000  0.75000000  0.86541137  1
  H  H4  1  0.29046156  0.74891605  0.14412447  1
  H  H5  1  0.70953844  0.75108395  0.14412447  1
  H  H6  1  0.70953844  0.24891605  0.35587553  1
  H  H7  1  0.29046156  0.25108395  0.35587553  1
  H  H8  1  0.70953844  0.25108395  0.85587553  1
  H  H9  1  0.29046156  0.24891605  0.85587553  1
  H  H10  1  0.29046156  0.75108395  0.64412447  1
  H  H11  1  0.70953844  0.74891605  0.64412447  1
  H  H12  1  0.19050425  0.87154932  0.22285379  1
  H  H13  1  0.80949575  0.62845068  0.22285379  1
  H  H14  1  0.80949575  0.37154932  0.27714621  1
  H  H15  1  0.19050425  0.12845068  0.27714621  1
  H  H16  1  0.80949575  0.12845068  0.77714621  1
  H  H17  1  0.19050425  0.37154932  0.77714621  1
  H  H18  1  0.19050425  0.62845068  0.72285379  1
  H  H19  1  0.80949575  0.87154932  0.72285379  1
  H  H20  1  0.92338952  0.97566204  0.31749125  1
  H  H21  1  0.07661048  0.52433796  0.31749125  1
  H  H22  1  0.07661048  0.47566204  0.18250875  1
  H  H23  1  0.92338952  0.02433796  0.18250875  1
  H  H24  1  0.07661048  0.02433796  0.68250875  1
  H  H25  1  0.92338952  0.47566204  0.68250875  1
  H  H26  1  0.92338952  0.52433796  0.81749125  1
  H  H27  1  0.07661048  0.97566204  0.81749125  1
  C  C28  1  0.60090816  0.02107443  0.46817538  1
  C  C29  1  0.39909184  0.47892557  0.46817538  1
  C  C30  1  0.39909184  0.52107443  0.03182462  1
  C  C31  1  0.60090816  0.97892557  0.03182462  1
  C  C32  1  0.39909184  0.97892557  0.53182462  1
  C  C33  1  0.60090816  0.52107443  0.53182462  1
  C  C34  1  0.60090816  0.47892557  0.96817538  1
  C  C35  1  0.39909184  0.02107443  0.96817538  1
  O  O36  1  0.68245174  0.93583057  0.39696038  1
  O  O37  1  0.31754826  0.56416943  0.39696038  1
  O  O38  1  0.31754826  0.43583057  0.10303962  1
  O  O39  1  0.68245174  0.06416943  0.10303962  1
  O  O40  1  0.31754826  0.06416943  0.60303962  1
  O  O41  1  0.68245174  0.43583057  0.60303962  1
  O  O42  1  0.68245174  0.56416943  0.89696038  1
  O  O43  1  0.31754826  0.93583057  0.89696038  1
  O  O44  1  0.30931690  0.81154667  0.21403170  1
  O  O45  1  0.69068310  0.68845333  0.21403170  1
  O  O46  1  0.69068310  0.31154667  0.28596830  1
  O  O47  1  0.30931690  0.18845333  0.28596830  1
  O  O48  1  0.69068310  0.18845333  0.78596830  1
  O  O49  1  0.30931690  0.31154667  0.78596830  1
  O  O50  1  0.30931690  0.68845333  0.71403170  1
  O  O51  1  0.69068310  0.81154667  0.71403170  1
  O  O52  1  0.33095148  0.86292176  0.50776743  1
  O  O53  1  0.66904852  0.63707824  0.50776743  1
  O  O54  1  0.66904852  0.36292176  0.99223257  1
  O  O55  1  0.33095148  0.13707824  0.99223257  1
  O  O56  1  0.66904852  0.13707824  0.49223257  1
  O  O57  1  0.33095148  0.36292176  0.49223257  1
  O  O58  1  0.33095148  0.63707824  0.00776743  1
  O  O59  1  0.66904852  0.86292176  0.00776743  1
  O  O60  1  0.01803632  -0.00000000  0.25000000  1
  O  O61  1  0.98196368  0.50000000  0.25000000  1
  O  O62  1  0.98196368  0.00000000  0.75000000  1
  O  O63  1  0.01803632  0.50000000  0.75000000  1
