# generated using pymatgen
data_La2RuO5
_symmetry_space_group_name_H-M   'P 1'
_cell_length_a   5.87526062
_cell_length_b   8.00818011
_cell_length_c   9.25258980
_cell_angle_alpha   78.86131371
_cell_angle_beta   88.19643101
_cell_angle_gamma   89.78857830
_symmetry_Int_Tables_number   1
_chemical_formula_structural   La2RuO5
_chemical_formula_sum   'La8 Ru4 O20'
_cell_volume   426.92216554
_cell_formula_units_Z   4
loop_
 _symmetry_equiv_pos_site_id
 _symmetry_equiv_pos_as_xyz
  1  'x, y, z'
loop_
 _atom_site_type_symbol
 _atom_site_label
 _atom_site_symmetry_multiplicity
 _atom_site_fract_x
 _atom_site_fract_y
 _atom_site_fract_z
 _atom_site_occupancy
  La  La0  1  0.24958530  0.03852923  0.82529582  1
  La  La1  1  0.75041470  0.96147077  0.17470418  1
  La  La2  1  0.23973025  0.53729998  0.82966115  1
  La  La3  1  0.76026975  0.46270002  0.17033885  1
  La  La4  1  0.73096480  0.62032562  0.55311633  1
  La  La5  1  0.26903520  0.37967438  0.44688367  1
  La  La6  1  0.24191268  0.88142523  0.44698502  1
  La  La7  1  0.75808732  0.11857477  0.55301498  1
  Ru  Ru8  1  0.74407821  0.78938927  0.85246658  1
  Ru  Ru9  1  0.25592179  0.21061073  0.14753342  1
  Ru  Ru10  1  0.74808618  0.28635026  0.85262380  1
  Ru  Ru11  1  0.25191382  0.71364974  0.14737620  1
  O  O12  1  0.99785866  0.77689145  0.71900203  1
  O  O13  1  0.00214134  0.22310855  0.28099797  1
  O  O14  1  0.48151147  0.27333678  0.72065635  1
  O  O15  1  0.51848853  0.72666322  0.27934365  1
  O  O16  1  0.95664441  0.37009252  0.68902150  1
  O  O17  1  0.04335559  0.62990748  0.31097850  1
  O  O18  1  0.52496670  0.87701569  0.68582896  1
  O  O19  1  0.47503330  0.12298431  0.31417104  1
  O  O20  1  0.97346763  0.69061892  0.01552155  1
  O  O21  1  0.02653237  0.30938108  0.98447845  1
  O  O22  1  0.47298285  0.79042276  0.98389979  1
  O  O23  1  0.52701715  0.20957724  0.01610021  1
  O  O24  1  0.16318872  0.96490521  0.13590314  1
  O  O25  1  0.83681128  0.03509479  0.86409686  1
  O  O26  1  0.65143164  0.54066598  0.84033461  1
  O  O27  1  0.34856836  0.45933402  0.15966539  1
  O  O28  1  0.15763421  0.10356633  0.57668380  1
  O  O29  1  0.84236579  0.89643367  0.42331620  1
  O  O30  1  0.32707954  0.60275586  0.57405902  1
  O  O31  1  0.67292046  0.39724414  0.42594098  1
