# generated using pymatgen
data_Si2B2H37C12N5
_symmetry_space_group_name_H-M   'P 1'
_cell_length_a   12.96271936
_cell_length_b   12.46531455
_cell_length_c   16.76879250
_cell_angle_alpha   90.00000000
_cell_angle_beta   102.87702865
_cell_angle_gamma   90.00000000
_symmetry_Int_Tables_number   1
_chemical_formula_structural   Si2B2H37C12N5
_chemical_formula_sum   'Si8 B8 H148 C48 N20'
_cell_volume   2641.43072280
_cell_formula_units_Z   4
loop_
 _symmetry_equiv_pos_site_id
 _symmetry_equiv_pos_as_xyz
  1  'x, y, z'
loop_
 _atom_site_type_symbol
 _atom_site_label
 _atom_site_symmetry_multiplicity
 _atom_site_fract_x
 _atom_site_fract_y
 _atom_site_fract_z
 _atom_site_occupancy
  Si  Si0  1  0.28597447  0.52301453  0.62140613  1
  Si  Si1  1  0.21402553  0.02301453  0.37859387  1
  Si  Si2  1  0.71402553  0.47698547  0.37859387  1
  Si  Si3  1  0.78597447  0.97698547  0.62140613  1
  Si  Si4  1  0.33657744  0.78409359  0.81535750  1
  Si  Si5  1  0.16342256  0.28409359  0.18464250  1
  Si  Si6  1  0.66342256  0.21590641  0.18464250  1
  Si  Si7  1  0.83657744  0.71590641  0.81535750  1
  B  B8  1  0.29783564  0.55125108  0.79031148  1
  B  B9  1  0.20216436  0.05125108  0.20968852  1
  B  B10  1  0.70216436  0.44874892  0.20968852  1
  B  B11  1  0.79783564  0.94874892  0.79031148  1
  B  B12  1  0.27910458  0.35959571  0.73461955  1
  B  B13  1  0.22089542  0.85959571  0.26538045  1
  B  B14  1  0.72089542  0.64040429  0.26538045  1
  B  B15  1  0.77910458  0.14040429  0.73461955  1
  H  H16  1  0.40459841  0.64745784  0.74876436  1
  H  H17  1  0.09540159  0.14745784  0.25123564  1
  H  H18  1  0.59540159  0.35254216  0.25123564  1
  H  H19  1  0.90459841  0.85254216  0.74876436  1
  H  H20  1  0.47280473  0.39174172  0.88799537  1
  H  H21  1  0.02719527  0.89174172  0.11200463  1
  H  H22  1  0.52719527  0.60825828  0.11200463  1
  H  H23  1  0.97280473  0.10825828  0.88799537  1
  H  H24  1  0.52945781  0.30050226  0.82799348  1
  H  H25  1  0.97054219  0.80050226  0.17200652  1
  H  H26  1  0.47054219  0.69949774  0.17200652  1
  H  H27  1  0.02945781  0.19949774  0.82799348  1
  H  H28  1  0.47726098  0.42582806  0.78561816  1
  H  H29  1  0.02273902  0.92582806  0.21438184  1
  H  H30  1  0.52273902  0.57417194  0.21438184  1
  H  H31  1  0.97726098  0.07417194  0.78561816  1
  H  H32  1  0.40222309  0.14756534  0.83031086  1
  H  H33  1  0.09777691  0.64756534  0.16968914  1
  H  H34  1  0.59777691  0.85243466  0.16968914  1
  H  H35  1  0.90222309  0.35243466  0.83031086  1
  H  H36  1  0.36740511  0.22994622  0.90649131  1
  H  H37  1  0.13259489  0.72994622  0.09350869  1
  H  H38  1  0.63259489  0.77005378  0.09350869  1
  H  H39  1  0.86740511  0.27005378  0.90649131  1
  H  H40  1  0.26722579  0.18498926  0.82275864  1
  H  H41  1  0.23277421  0.68498926  0.17724136  1
  H  H42  1  0.73277421  0.81501074  0.17724136  1
  H  H43  1  0.76722579  0.31501074  0.82275864  1
  H  H44  1  0.20608976  0.37495499  0.89542364  1
  H  H45  1  0.29391024  0.87495499  0.10457636  1
  H  H46  1  0.79391024  0.62504501  0.10457636  1
  H  H47  1  0.70608976  0.12504501  0.89542364  1
  H  H48  1  0.11639302  0.48273324  0.89657584  1
  H  H49  1  0.38360698  0.98273324  0.10342416  1
  H  H50  1  0.88360698  0.51726676  0.10342416  1
  H  H51  1  0.61639302  0.01726676  0.89657584  1
  H  H52  1  0.13116998  0.42895434  0.80155532  1
  H  H53  1  0.36883002  0.92895434  0.19844468  1
  H  H54  1  0.86883002  0.57104566  0.19844468  1
  H  H55  1  0.63116998  0.07104566  0.80155532  1
  H  H56  1  0.37074821  0.95683762  0.75022746  1
  H  H57  1  0.12925179  0.45683762  0.24977254  1
  H  H58  1  0.62925179  0.04316238  0.24977254  1
  H  H59  1  0.87074821  0.54316238  0.75022746  1
  H  H60  1  0.45950090  0.85653290  0.73287222  1
  H  H61  1  0.04049910  0.35653290  0.26712778  1
  H  H62  1  0.54049910  0.14346710  0.26712778  1
  H  H63  1  0.95950090  0.64346710  0.73287222  1
  H  H64  1  0.32753398  0.85860443  0.67349920  1
  H  H65  1  0.17246602  0.35860443  0.32650080  1
  H  H66  1  0.67246602  0.14139557  0.32650080  1
  H  H67  1  0.82753398  0.64139557  0.67349920  1
  H  H68  1  0.15560592  0.12899862  0.69861586  1
  H  H69  1  0.34439408  0.62899862  0.30138414  1
  H  H70  1  0.84439408  0.87100138  0.30138414  1
  H  H71  1  0.65560592  0.37100138  0.69861586  1
  H  H72  1  0.17825371  0.16944214  0.60236850  1
  H  H73  1  0.32174629  0.66944214  0.39763150  1
  H  H74  1  0.82174629  0.83055786  0.39763150  1
  H  H75  1  0.67825371  0.33055786  0.60236850  1
  H  H76  1  0.28706303  0.15744863  0.68776025  1
  H  H77  1  0.21293697  0.65744863  0.31223975  1
  H  H78  1  0.71293697  0.84255137  0.31223975  1
  H  H79  1  0.78706303  0.34255137  0.68776025  1
  H  H80  1  0.41365976  0.91622900  0.92194310  1
  H  H81  1  0.08634024  0.41622900  0.07805690  1
  H  H82  1  0.58634024  0.08377100  0.07805690  1
  H  H83  1  0.91365976  0.58377100  0.92194310  1
  H  H84  1  0.40349361  0.79144174  0.97016537  1
  H  H85  1  0.09650639  0.29144174  0.02983463  1
  H  H86  1  0.59650639  0.20855826  0.02983463  1
  H  H87  1  0.90349361  0.70855826  0.97016537  1
  H  H88  1  0.50635762  0.81286234  0.91738375  1
  H  H89  1  0.99364238  0.31286234  0.08261625  1
  H  H90  1  0.49364238  0.18713766  0.08261625  1
  H  H91  1  0.00635762  0.68713766  0.91738375  1
  H  H92  1  0.42472506  0.58254839  0.55204619  1
  H  H93  1  0.07527494  0.08254839  0.44795381  1
  H  H94  1  0.57527494  0.41745161  0.44795381  1
  H  H95  1  0.92472506  0.91745161  0.55204619  1
  H  H96  1  0.42049858  0.67483201  0.63097508  1
  H  H97  1  0.07950142  0.17483201  0.36902492  1
  H  H98  1  0.57950142  0.32516799  0.36902492  1
  H  H99  1  0.92049858  0.82516799  0.63097508  1
  H  H100  1  0.48482197  0.54829187  0.65415010  1
  H  H101  1  0.01517803  0.04829187  0.34584990  1
  H  H102  1  0.51517803  0.45170813  0.34584990  1
  H  H103  1  0.98482197  0.95170813  0.65415010  1
  H  H104  1  0.24710326  0.62122909  0.96596012  1
  H  H105  1  0.25289674  0.12122909  0.03403988  1
  H  H106  1  0.75289674  0.37877091  0.03403988  1
  H  H107  1  0.74710326  0.87877091  0.96596012  1
  H  H108  1  0.32648911  0.50376395  0.98600600  1
  H  H109  1  0.17351089  0.00376395  0.01399400  1
  H  H110  1  0.67351089  0.49623605  0.01399400  1
  H  H111  1  0.82648911  0.99623605  0.98600600  1
  H  H112  1  0.37362817  0.61680518  0.93982515  1
  H  H113  1  0.12637183  0.11680518  0.06017485  1
  H  H114  1  0.62637183  0.38319482  0.06017485  1
  H  H115  1  0.87362817  0.88319482  0.93982515  1
  H  H116  1  0.19702038  0.36916401  0.53380098  1
  H  H117  1  0.30297962  0.86916401  0.46619902  1
  H  H118  1  0.80297962  0.63083599  0.46619902  1
  H  H119  1  0.69702038  0.13083599  0.53380098  1
  H  H120  1  0.28563144  0.44243368  0.48778106  1
  H  H121  1  0.21436856  0.94243368  0.51221894  1
  H  H122  1  0.71436856  0.55756632  0.51221894  1
  H  H123  1  0.78563144  0.05756632  0.48778106  1
  H  H124  1  0.33574164  0.34770113  0.56551461  1
  H  H125  1  0.16425836  0.84770113  0.43448539  1
  H  H126  1  0.66425836  0.65229887  0.43448539  1
  H  H127  1  0.83574164  0.15229887  0.56551461  1
  H  H128  1  0.18065558  0.65192114  0.52233532  1
  H  H129  1  0.31934442  0.15192114  0.47766468  1
  H  H130  1  0.81934442  0.34807886  0.47766468  1
  H  H131  1  0.68065558  0.84807886  0.52233532  1
  H  H132  1  0.09839830  0.58279783  0.57708005  1
  H  H133  1  0.40160170  0.08279783  0.42291995  1
  H  H134  1  0.90160170  0.41720217  0.42291995  1
  H  H135  1  0.59839830  0.91720217  0.57708005  1
  H  H136  1  0.17968796  0.69076080  0.62386188  1
  H  H137  1  0.32031204  0.19076080  0.37613812  1
  H  H138  1  0.82031204  0.30923920  0.37613812  1
  H  H139  1  0.67968796  0.80923920  0.62386188  1
  H  H140  1  0.06502865  0.32476763  0.58740981  1
  H  H141  1  0.43497135  0.82476763  0.41259019  1
  H  H142  1  0.93497135  0.67523237  0.41259019  1
  H  H143  1  0.56502865  0.17523237  0.58740981  1
  H  H144  1  0.02799197  0.29335977  0.68042003  1
  H  H145  1  0.47200803  0.79335977  0.31957997  1
  H  H146  1  0.97200803  0.70664023  0.31957997  1
  H  H147  1  0.52799197  0.20664023  0.68042003  1
  H  H148  1  0.08356299  0.42164347  0.66753960  1
  H  H149  1  0.41643701  0.92164347  0.33246040  1
  H  H150  1  0.91643701  0.57835653  0.33246040  1
  H  H151  1  0.58356299  0.07835653  0.66753960  1
  H  H152  1  0.16856158  0.76466291  0.86634800  1
  H  H153  1  0.33143842  0.26466291  0.13365200  1
  H  H154  1  0.83143842  0.23533709  0.13365200  1
  H  H155  1  0.66856158  0.73533709  0.86634800  1
  H  H156  1  0.18545734  0.89568794  0.83008591  1
  H  H157  1  0.31454266  0.39568794  0.16991409  1
  H  H158  1  0.81454266  0.10431206  0.16991409  1
  H  H159  1  0.68545734  0.60431206  0.83008591  1
  H  H160  1  0.14043115  0.79025090  0.75957284  1
  H  H161  1  0.35956885  0.29025090  0.24042716  1
  H  H162  1  0.85956885  0.20974910  0.24042716  1
  H  H163  1  0.64043115  0.70974910  0.75957284  1
  C  C164  1  0.46508020  0.35951694  0.82541629  1
  C  C165  1  0.03491980  0.85951694  0.17458371  1
  C  C166  1  0.53491980  0.64048306  0.17458371  1
  C  C167  1  0.96508020  0.14048306  0.82541629  1
  C  C168  1  0.34908517  0.21346278  0.84000315  1
  C  C169  1  0.15091483  0.71346278  0.15999685  1
  C  C170  1  0.65091483  0.78653722  0.15999685  1
  C  C171  1  0.84908517  0.28653722  0.84000315  1
  C  C172  1  0.17406242  0.44957516  0.86357318  1
  C  C173  1  0.32593758  0.94957516  0.13642682  1
  C  C174  1  0.82593758  0.55042484  0.13642682  1
  C  C175  1  0.67406242  0.05042484  0.86357318  1
  C  C176  1  0.37653238  0.87140268  0.73526946  1
  C  C177  1  0.12346762  0.37140268  0.26473054  1
  C  C178  1  0.62346762  0.12859732  0.26473054  1
  C  C179  1  0.87653238  0.62859732  0.73526946  1
  C  C180  1  0.20421261  0.18258291  0.66909834  1
  C  C181  1  0.29578739  0.68258291  0.33090166  1
  C  C182  1  0.79578739  0.81741709  0.33090166  1
  C  C183  1  0.70421261  0.31741709  0.66909834  1
  C  C184  1  0.42257987  0.82889398  0.91597378  1
  C  C185  1  0.07742013  0.32889398  0.08402622  1
  C  C186  1  0.57742013  0.17110602  0.08402622  1
  C  C187  1  0.92257987  0.67110602  0.91597378  1
  C  C188  1  0.41604808  0.58896818  0.61571672  1
  C  C189  1  0.08395192  0.08896818  0.38428328  1
  C  C190  1  0.58395192  0.41103182  0.38428328  1
  C  C191  1  0.91604808  0.91103182  0.61571672  1
  C  C192  1  0.30278626  0.56989057  0.94174571  1
  C  C193  1  0.19721374  0.06989057  0.05825429  1
  C  C194  1  0.69721374  0.43010943  0.05825429  1
  C  C195  1  0.80278626  0.93010943  0.94174571  1
  C  C196  1  0.27433424  0.40905765  0.54607037  1
  C  C197  1  0.22566576  0.90905765  0.45392963  1
  C  C198  1  0.72566576  0.59094235  0.45392963  1
  C  C199  1  0.77433424  0.09094235  0.54607037  1
  C  C200  1  0.17604677  0.62129633  0.58297710  1
  C  C201  1  0.32395323  0.12129633  0.41702290  1
  C  C202  1  0.82395323  0.37870367  0.41702290  1
  C  C203  1  0.67604677  0.87870367  0.58297710  1
  C  C204  1  0.08815871  0.33578591  0.65453667  1
  C  C205  1  0.41184129  0.83578591  0.34546333  1
  C  C206  1  0.91184129  0.66421409  0.34546333  1
  C  C207  1  0.58815871  0.16421409  0.65453667  1
  C  C208  1  0.19456021  0.80979719  0.81808731  1
  C  C209  1  0.30543979  0.30979719  0.18191269  1
  C  C210  1  0.80543979  0.19020281  0.18191269  1
  C  C211  1  0.69456021  0.69020281  0.81808731  1
  N  N212  1  0.28310931  0.47660353  0.72060335  1
  N  N213  1  0.21689069  0.97660353  0.27939665  1
  N  N214  1  0.71689069  0.52339647  0.27939665  1
  N  N215  1  0.78310931  0.02339647  0.72060335  1
  N  N216  1  0.36269737  0.30952597  0.79441611  1
  N  N217  1  0.13730263  0.80952597  0.20558389  1
  N  N218  1  0.63730263  0.69047403  0.20558389  1
  N  N219  1  0.86269737  0.19047403  0.79441611  1
  N  N220  1  0.25642980  0.52744880  0.86116645  1
  N  N221  1  0.24357020  0.02744880  0.13883355  1
  N  N222  1  0.74357020  0.47255120  0.13883355  1
  N  N223  1  0.75642980  0.97255120  0.86116645  1
  N  N224  1  0.35568616  0.65099679  0.78853905  1
  N  N225  1  0.14431384  0.15099679  0.21146095  1
  N  N226  1  0.64431384  0.34900321  0.21146095  1
  N  N227  1  0.85568616  0.84900321  0.78853905  1
  N  N228  1  0.19362678  0.29492339  0.68855352  1
  N  N229  1  0.30637322  0.79492339  0.31144648  1
  N  N230  1  0.80637322  0.70507661  0.31144648  1
  N  N231  1  0.69362678  0.20507661  0.68855352  1
