# generated using pymatgen
data_PrSiAs3
_symmetry_space_group_name_H-M   'P 1'
_cell_length_a   5.95277591
_cell_length_b   6.02315642
_cell_length_c   26.68343511
_cell_angle_alpha   90.00000000
_cell_angle_beta   90.00000000
_cell_angle_gamma   90.00000000
_symmetry_Int_Tables_number   1
_chemical_formula_structural   PrSiAs3
_chemical_formula_sum   'Pr8 Si8 As24'
_cell_volume   956.72123587
_cell_formula_units_Z   8
loop_
 _symmetry_equiv_pos_site_id
 _symmetry_equiv_pos_as_xyz
  1  'x, y, z'
loop_
 _atom_site_type_symbol
 _atom_site_label
 _atom_site_symmetry_multiplicity
 _atom_site_fract_x
 _atom_site_fract_y
 _atom_site_fract_z
 _atom_site_occupancy
  Pr  Pr0  1  0.75523576  0.52063456  0.40961814  1
  Pr  Pr1  1  0.25523576  0.47936544  0.59038186  1
  Pr  Pr2  1  0.25523576  0.97936544  0.90961814  1
  Pr  Pr3  1  0.75523576  0.02063456  0.09038186  1
  Pr  Pr4  1  0.25463739  0.02199813  0.40511838  1
  Pr  Pr5  1  0.75463739  0.97800187  0.59488162  1
  Pr  Pr6  1  0.75463739  0.47800187  0.90511838  1
  Pr  Pr7  1  0.25463739  0.52199813  0.09488162  1
  Si  Si8  1  0.33313523  0.44395060  0.29448920  1
  Si  Si9  1  0.83313523  0.55604940  0.70551080  1
  Si  Si10  1  0.83313523  0.05604940  0.79448920  1
  Si  Si11  1  0.33313523  0.94395060  0.20551080  1
  Si  Si12  1  0.83243616  0.11493282  0.29193580  1
  Si  Si13  1  0.33243616  0.88506718  0.70806420  1
  Si  Si14  1  0.33243616  0.38506718  0.79193580  1
  Si  Si15  1  0.83243616  0.61493282  0.20806420  1
  As  As16  1  0.75162958  0.01557923  0.37486893  1
  As  As17  1  0.25162958  0.98442077  0.62513107  1
  As  As18  1  0.25162958  0.48442077  0.87486893  1
  As  As19  1  0.75162958  0.51557923  0.12513107  1
  As  As20  1  0.25169429  0.52671406  0.37806862  1
  As  As21  1  0.75169429  0.47328594  0.62193138  1
  As  As22  1  0.75169429  0.97328594  0.87806862  1
  As  As23  1  0.25169429  0.02671406  0.12193138  1
  As  As24  1  0.47873608  0.79083232  0.49817342  1
  As  As25  1  0.97873608  0.20916768  0.50182658  1
  As  As26  1  0.97873608  0.70916768  0.99817342  1
  As  As27  1  0.47873608  0.29083232  0.00182658  1
  As  As28  1  0.54333880  0.21289304  0.50150206  1
  As  As29  1  0.04333880  0.78710696  0.49849794  1
  As  As30  1  0.04333880  0.28710696  0.00150206  1
  As  As31  1  0.54333880  0.71289304  0.99849794  1
  As  As32  1  0.22933675  0.06771128  0.28740574  1
  As  As33  1  0.72933675  0.93228872  0.71259426  1
  As  As34  1  0.72933675  0.43228872  0.78740574  1
  As  As35  1  0.22933675  0.56771128  0.21259426  1
  As  As36  1  0.72981995  0.49254741  0.29069319  1
  As  As37  1  0.22981995  0.50745259  0.70930681  1
  As  As38  1  0.22981995  0.00745259  0.79069319  1
  As  As39  1  0.72981995  0.99254741  0.20930681  1
