# generated using pymatgen
data_Nd(Ga4Fe)2
_symmetry_space_group_name_H-M   'P 1'
_cell_length_a   4.04326024
_cell_length_b   12.68929375
_cell_length_c   14.36417566
_cell_angle_alpha   90.00000000
_cell_angle_beta   90.00000000
_cell_angle_gamma   90.00000000
_symmetry_Int_Tables_number   1
_chemical_formula_structural   Nd(Ga4Fe)2
_chemical_formula_sum   'Nd4 Ga32 Fe8'
_cell_volume   736.97007548
_cell_formula_units_Z   4
loop_
 _symmetry_equiv_pos_site_id
 _symmetry_equiv_pos_as_xyz
  1  'x, y, z'
loop_
 _atom_site_type_symbol
 _atom_site_label
 _atom_site_symmetry_multiplicity
 _atom_site_fract_x
 _atom_site_fract_y
 _atom_site_fract_z
 _atom_site_occupancy
  Nd  Nd0  1  0.00000000  0.84268097  0.18128620  1
  Nd  Nd1  1  -0.00000000  0.15731903  0.81871380  1
  Nd  Nd2  1  -0.00000000  0.65731903  0.68128620  1
  Nd  Nd3  1  0.00000000  0.34268097  0.31871380  1
  Ga  Ga4  1  -0.00000000  0.50000000  0.50000000  1
  Ga  Ga5  1  -0.00000000  -0.00000000  0.00000000  1
  Ga  Ga6  1  0.50000000  -0.00000000  0.50000000  1
  Ga  Ga7  1  0.50000000  0.50000000  0.00000000  1
  Ga  Ga8  1  0.50000000  0.73873670  0.32708055  1
  Ga  Ga9  1  0.50000000  0.26126330  0.67291945  1
  Ga  Ga10  1  0.50000000  0.76126330  0.82708055  1
  Ga  Ga11  1  0.50000000  0.23873670  0.17291945  1
  Ga  Ga12  1  0.50000000  0.95070003  0.31936200  1
  Ga  Ga13  1  0.50000000  0.04929997  0.68063800  1
  Ga  Ga14  1  0.50000000  0.54929997  0.81936200  1
  Ga  Ga15  1  0.50000000  0.45070003  0.18063800  1
  Ga  Ga16  1  0.50000000  0.66310561  0.12100993  1
  Ga  Ga17  1  0.50000000  0.33689439  0.87899007  1
  Ga  Ga18  1  0.50000000  0.83689439  0.62100993  1
  Ga  Ga19  1  0.50000000  0.16310561  0.37899007  1
  Ga  Ga20  1  -0.00000000  0.83565445  0.45390239  1
  Ga  Ga21  1  0.00000000  0.16434555  0.54609761  1
  Ga  Ga22  1  -0.00000000  0.66434555  0.95390239  1
  Ga  Ga23  1  0.00000000  0.33565445  0.04609761  1
  Ga  Ga24  1  -0.00000000  0.59781856  0.24485823  1
  Ga  Ga25  1  0.00000000  0.40218144  0.75514177  1
  Ga  Ga26  1  0.00000000  0.90218144  0.74485823  1
  Ga  Ga27  1  -0.00000000  0.09781856  0.25514177  1
  Ga  Ga28  1  0.50000000  0.83142882  0.01060759  1
  Ga  Ga29  1  0.50000000  0.16857118  0.98939241  1
  Ga  Ga30  1  0.50000000  0.66857118  0.51060759  1
  Ga  Ga31  1  0.50000000  0.33142882  0.48939241  1
  Ga  Ga32  1  0.50000000  0.52537087  0.36627798  1
  Ga  Ga33  1  0.50000000  0.47462913  0.63372202  1
  Ga  Ga34  1  0.50000000  0.97462913  0.86627798  1
  Ga  Ga35  1  0.50000000  0.02537087  0.13372202  1
  Fe  Fe36  1  -0.00000000  0.65095175  0.40272974  1
  Fe  Fe37  1  -0.00000000  0.34904825  0.59727026  1
  Fe  Fe38  1  0.00000000  0.84904825  0.90272974  1
  Fe  Fe39  1  0.00000000  0.15095175  0.09727026  1
  Fe  Fe40  1  -0.00000000  0.53449704  0.09121469  1
  Fe  Fe41  1  0.00000000  0.46550296  0.90878531  1
  Fe  Fe42  1  0.00000000  0.96550296  0.59121469  1
  Fe  Fe43  1  -0.00000000  0.03449704  0.40878531  1
