# generated using pymatgen
data_Eu2Ni17
_symmetry_space_group_name_H-M   'P 1'
_cell_length_a   8.15378615
_cell_length_b   8.36285958
_cell_length_c   8.36285958
_cell_angle_alpha   120.20045741
_cell_angle_beta   90.00000000
_cell_angle_gamma   90.00000000
_symmetry_Int_Tables_number   1
_chemical_formula_structural   Eu2Ni17
_chemical_formula_sum   'Eu4 Ni34'
_cell_volume   492.85453760
_cell_formula_units_Z   2
loop_
 _symmetry_equiv_pos_site_id
 _symmetry_equiv_pos_as_xyz
  1  'x, y, z'
loop_
 _atom_site_type_symbol
 _atom_site_label
 _atom_site_symmetry_multiplicity
 _atom_site_fract_x
 _atom_site_fract_y
 _atom_site_fract_z
 _atom_site_occupancy
  Eu  Eu0  1  0.75000000  0.00056134  0.99943866  1
  Eu  Eu1  1  0.25000000  0.99943866  0.00056134  1
  Eu  Eu2  1  0.25000000  0.66687601  0.33312399  1
  Eu  Eu3  1  0.75000000  0.33312399  0.66687601  1
  Ni  Ni4  1  0.60568081  0.66629545  0.33370455  1
  Ni  Ni5  1  0.39431919  0.33370455  0.66629545  1
  Ni  Ni6  1  0.10568081  0.33370455  0.66629545  1
  Ni  Ni7  1  0.89431919  0.66629545  0.33370455  1
  Ni  Ni8  1  0.50000000  0.50000000  -0.00000000  1
  Ni  Ni9  1  0.50000000  0.50000000  0.50000000  1
  Ni  Ni10  1  0.50000000  -0.00000000  0.50000000  1
  Ni  Ni11  1  0.00000000  0.50000000  -0.00000000  1
  Ni  Ni12  1  0.00000000  0.50000000  0.50000000  1
  Ni  Ni13  1  0.00000000  -0.00000000  0.50000000  1
  Ni  Ni14  1  0.75000000  0.66934786  0.04266094  1
  Ni  Ni15  1  0.75000000  0.37354820  0.33090518  1
  Ni  Ni16  1  0.75000000  0.95813918  0.62703079  1
  Ni  Ni17  1  0.75000000  0.37296921  0.04186082  1
  Ni  Ni18  1  0.75000000  0.95733906  0.33065214  1
  Ni  Ni19  1  0.75000000  0.66909482  0.62645180  1
  Ni  Ni20  1  0.25000000  0.33065214  0.95733906  1
  Ni  Ni21  1  0.25000000  0.62645180  0.66909482  1
  Ni  Ni22  1  0.25000000  0.04186082  0.37296921  1
  Ni  Ni23  1  0.25000000  0.62703079  0.95813918  1
  Ni  Ni24  1  0.25000000  0.04266094  0.66934786  1
  Ni  Ni25  1  0.25000000  0.33090518  0.37354820  1
  Ni  Ni26  1  0.48717797  0.83233457  0.66483678  1
  Ni  Ni27  1  0.48771128  0.83252823  0.16747177  1
  Ni  Ni28  1  0.48717797  0.33516322  0.16766543  1
  Ni  Ni29  1  0.51282203  0.16766543  0.33516322  1
  Ni  Ni30  1  0.51228872  0.16747177  0.83252823  1
  Ni  Ni31  1  0.51282203  0.66483678  0.83233457  1
  Ni  Ni32  1  0.98717797  0.16766543  0.33516322  1
  Ni  Ni33  1  0.98771128  0.16747177  0.83252823  1
  Ni  Ni34  1  0.98717797  0.66483678  0.83233457  1
  Ni  Ni35  1  0.01282203  0.83233457  0.66483678  1
  Ni  Ni36  1  0.01228872  0.83252823  0.16747177  1
  Ni  Ni37  1  0.01282203  0.33516322  0.16766543  1
