# generated using pymatgen
data_ZnCu2PH7O9
_symmetry_space_group_name_H-M   'P 1'
_cell_length_a   7.52996921
_cell_length_b   9.89248772
_cell_length_c   10.34933072
_cell_angle_alpha   90.00000000
_cell_angle_beta   90.00000000
_cell_angle_gamma   101.90602223
_symmetry_Int_Tables_number   1
_chemical_formula_structural   ZnCu2PH7O9
_chemical_formula_sum   'Zn4 Cu8 P4 H28 O36'
_cell_volume   754.33833929
_cell_formula_units_Z   4
loop_
 _symmetry_equiv_pos_site_id
 _symmetry_equiv_pos_as_xyz
  1  'x, y, z'
loop_
 _atom_site_type_symbol
 _atom_site_label
 _atom_site_symmetry_multiplicity
 _atom_site_fract_x
 _atom_site_fract_y
 _atom_site_fract_z
 _atom_site_occupancy
  Zn  Zn0  1  0.93345193  0.29082763  0.57647610  1
  Zn  Zn1  1  0.06654807  0.20917237  0.07647610  1
  Zn  Zn2  1  0.06654807  0.70917237  0.42352390  1
  Zn  Zn3  1  0.93345193  0.79082763  0.92352390  1
  Cu  Cu4  1  0.50825527  0.36809511  0.57092041  1
  Cu  Cu5  1  0.49174473  0.13190489  0.07092041  1
  Cu  Cu6  1  0.49174473  0.63190489  0.42907959  1
  Cu  Cu7  1  0.50825527  0.86809511  0.92907959  1
  Cu  Cu8  1  0.54546786  0.14391468  0.75373696  1
  Cu  Cu9  1  0.45453214  0.35608532  0.25373696  1
  Cu  Cu10  1  0.45453214  0.85608532  0.24626304  1
  Cu  Cu11  1  0.54546786  0.64391468  0.74626304  1
  P  P12  1  0.93813492  0.08686109  0.79859250  1
  P  P13  1  0.06186508  0.41313891  0.29859250  1
  P  P14  1  0.06186508  0.91313891  0.20140750  1
  P  P15  1  0.93813492  0.58686109  0.70140750  1
  H  H16  1  0.63512152  0.15331309  0.51973219  1
  H  H17  1  0.36487848  0.34668691  0.01973219  1
  H  H18  1  0.36487848  0.84668691  0.48026781  1
  H  H19  1  0.63512152  0.65331309  0.98026781  1
  H  H20  1  0.25587390  0.21733869  0.69143046  1
  H  H21  1  0.74412610  0.28266131  0.19143046  1
  H  H22  1  0.74412610  0.78266131  0.30856954  1
  H  H23  1  0.25587390  0.71733869  0.80856954  1
  H  H24  1  0.26953579  0.01675961  0.88814892  1
  H  H25  1  0.73046421  0.48324039  0.38814892  1
  H  H26  1  0.73046421  0.98324039  0.11185108  1
  H  H27  1  0.26953579  0.51675961  0.61185108  1
  H  H28  1  0.23160272  0.48871106  0.87838727  1
  H  H29  1  0.76839728  0.01128894  0.37838727  1
  H  H30  1  0.76839728  0.51128894  0.12161273  1
  H  H31  1  0.23160272  0.98871106  0.62161273  1
  H  H32  1  0.34488710  0.38397311  0.82018759  1
  H  H33  1  0.65511290  0.11602689  0.32018759  1
  H  H34  1  0.65511290  0.61602689  0.17981241  1
  H  H35  1  0.34488710  0.88397311  0.67981241  1
  H  H36  1  0.68432194  0.39834681  0.86740953  1
  H  H37  1  0.31567806  0.10165319  0.36740953  1
  H  H38  1  0.31567806  0.60165319  0.13259047  1
  H  H39  1  0.68432194  0.89834681  0.63259047  1
  H  H40  1  0.80341143  0.28958574  0.90594103  1
  H  H41  1  0.19658857  0.21041426  0.40594103  1
  H  H42  1  0.19658857  0.71041426  0.09405897  1
  H  H43  1  0.80341143  0.78958574  0.59405897  1
  O  O44  1  0.03268714  0.46929653  0.65781817  1
  O  O45  1  0.96731286  0.03070347  0.15781817  1
  O  O46  1  0.96731286  0.53070347  0.34218183  1
  O  O47  1  0.03268714  0.96929653  0.84218183  1
  O  O48  1  0.02749827  0.14443426  0.66838290  1
  O  O49  1  0.97250173  0.35556574  0.16838290  1
  O  O50  1  0.97250173  0.85556574  0.33161710  1
  O  O51  1  0.02749827  0.64443426  0.83161710  1
  O  O52  1  0.73076314  0.03027192  0.77986962  1
  O  O53  1  0.26923686  0.46972808  0.27986962  1
  O  O54  1  0.26923686  0.96972808  0.22013038  1
  O  O55  1  0.73076314  0.53027192  0.72013038  1
  O  O56  1  0.97149156  0.20486712  0.90071596  1
  O  O57  1  0.02850844  0.29513288  0.40071596  1
  O  O58  1  0.02850844  0.79513288  0.09928404  1
  O  O59  1  0.97149156  0.70486712  0.59928404  1
  O  O60  1  0.66540242  0.22872472  0.58553123  1
  O  O61  1  0.33459758  0.27127528  0.08553123  1
  O  O62  1  0.33459758  0.77127528  0.41446877  1
  O  O63  1  0.66540242  0.72872472  0.91446877  1
  O  O64  1  0.37921975  0.26773158  0.71758912  1
  O  O65  1  0.62078025  0.23226842  0.21758912  1
  O  O66  1  0.62078025  0.73226842  0.28241088  1
  O  O67  1  0.37921975  0.76773158  0.78241088  1
  O  O68  1  0.40216696  0.03685990  0.90646397  1
  O  O69  1  0.59783304  0.46314010  0.40646397  1
  O  O70  1  0.59783304  0.96314010  0.09353603  1
  O  O71  1  0.40216696  0.53685990  0.59353603  1
  O  O72  1  0.34612008  0.45807010  0.88770089  1
  O  O73  1  0.65387992  0.04192990  0.38770089  1
  O  O74  1  0.65387992  0.54192990  0.11229911  1
  O  O75  1  0.34612008  0.95807010  0.61229911  1
  O  O76  1  0.67817139  0.30814873  0.90843938  1
  O  O77  1  0.32182861  0.19185127  0.40843938  1
  O  O78  1  0.32182861  0.69185127  0.09156062  1
  O  O79  1  0.67817139  0.80814873  0.59156062  1
