# generated using pymatgen
data_HoCO4
_symmetry_space_group_name_H-M   'P 1'
_cell_length_a   9.65404863
_cell_length_b   12.03817105
_cell_length_c   12.03765872
_cell_angle_alpha   120.00110907
_cell_angle_beta   90.00000000
_cell_angle_gamma   90.00000000
_symmetry_Int_Tables_number   1
_chemical_formula_structural   HoCO4
_chemical_formula_sum   'Ho18 C18 O72'
_cell_volume   1211.54010941
_cell_formula_units_Z   18
loop_
 _symmetry_equiv_pos_site_id
 _symmetry_equiv_pos_as_xyz
  1  'x, y, z'
loop_
 _atom_site_type_symbol
 _atom_site_label
 _atom_site_symmetry_multiplicity
 _atom_site_fract_x
 _atom_site_fract_y
 _atom_site_fract_z
 _atom_site_occupancy
  Ho  Ho0  1  0.23881243  0.88203072  0.76917900  1
  Ho  Ho1  1  0.23879055  0.23082868  0.11284511  1
  Ho  Ho2  1  0.23878609  0.88715447  0.11798645  1
  Ho  Ho3  1  0.76118757  0.88203072  0.76917900  1
  Ho  Ho4  1  0.76120945  0.23082868  0.11284511  1
  Ho  Ho5  1  0.76121391  0.88715447  0.11798645  1
  Ho  Ho6  1  0.25722825  0.21340714  0.43687073  1
  Ho  Ho7  1  0.25725663  0.56311769  0.77650623  1
  Ho  Ho8  1  0.25726270  0.22350087  0.78660245  1
  Ho  Ho9  1  0.74277175  0.21340714  0.43687073  1
  Ho  Ho10  1  0.74274337  0.56311769  0.77650623  1
  Ho  Ho11  1  0.74273730  0.22350087  0.78660245  1
  Ho  Ho12  1  0.25721667  0.89826553  0.45586045  1
  Ho  Ho13  1  0.25720028  0.54414699  0.44239999  1
  Ho  Ho14  1  0.25722014  0.55759932  0.10173835  1
  Ho  Ho15  1  0.74278333  0.89826553  0.45586045  1
  Ho  Ho16  1  0.74279972  0.54414699  0.44239999  1
  Ho  Ho17  1  0.74277986  0.55759932  0.10173835  1
  C  C18  1  -0.00000000  0.34932316  0.49111906  1
  C  C19  1  -0.00000000  0.50890946  0.85825599  1
  C  C20  1  -0.00000000  0.14176183  0.65065862  1
  C  C21  1  -0.00000000  0.79646683  0.88602401  1
  C  C22  1  -0.00000000  0.11397967  0.91040548  1
  C  C23  1  -0.00000000  0.08958798  0.20356468  1
  C  C24  1  -0.00000000  0.83992979  0.53193603  1
  C  C25  1  -0.00000000  0.46811989  0.30799252  1
  C  C26  1  -0.00000000  0.69204775  0.16014279  1
  C  C27  1  0.50000000  0.12846133  0.57822579  1
  C  C28  1  0.50000000  0.42182243  0.55022673  1
  C  C29  1  0.50000000  0.44974030  0.87152914  1
  C  C30  1  0.50000000  0.76247287  0.22466466  1
  C  C31  1  0.50000000  0.77535595  0.53786614  1
  C  C32  1  0.50000000  0.46208435  0.23746353  1
  C  C33  1  0.50000000  0.79922870  0.81743939  1
  C  C34  1  0.50000000  0.18252706  0.98176584  1
  C  C35  1  0.50000000  0.01817812  0.20076231  1
  O  O36  1  -0.00000000  0.23767645  0.48363471  1
  O  O37  1  -0.00000000  0.51635793  0.75408709  1
  O  O38  1  -0.00000000  0.24594042  0.76228224  1
  O  O39  1  0.11799598  0.40020542  0.49269004  1
  O  O40  1  0.11799977  0.50735155  0.90758390  1
  O  O41  1  0.11799709  0.09244178  0.59978800  1
  O  O42  1  0.88200402  0.40020542  0.49269004  1
  O  O43  1  0.88200023  0.50735155  0.90758390  1
  O  O44  1  0.88200291  0.09244178  0.59978800  1
  O  O45  1  -0.00000000  0.85875478  0.82391611  1
  O  O46  1  -0.00000000  0.17609840  0.03480314  1
  O  O47  1  -0.00000000  0.96518091  0.14133142  1
  O  O48  1  0.11718981  0.08402338  0.85059730  1
  O  O49  1  0.11718724  0.14939109  0.23338904  1
  O  O50  1  0.11718168  0.76661262  0.91598128  1
  O  O51  1  0.88281019  0.08402338  0.85059730  1
  O  O52  1  0.88281276  0.14939109  0.23338904  1
  O  O53  1  0.88281832  0.76661262  0.91598128  1
  O  O54  1  -0.00000000  0.84493871  0.42707707  1
  O  O55  1  -0.00000000  0.57292172  0.41784162  1
  O  O56  1  -0.00000000  0.58221882  0.15515485  1
  O  O57  1  0.11716966  0.84004559  0.58310325  1
  O  O58  1  0.11717701  0.41693939  0.25690530  1
  O  O59  1  0.11718473  0.74310716  0.16001941  1
  O  O60  1  0.88283034  0.84004559  0.58310325  1
  O  O61  1  0.88282299  0.41693939  0.25690530  1
  O  O62  1  0.88281527  0.74310716  0.16001941  1
  O  O63  1  0.50000000  0.29815393  0.49436570  1
  O  O64  1  0.50000000  0.50554086  0.80373766  1
  O  O65  1  0.50000000  0.19626438  0.70192232  1
  O  O66  1  0.38358861  0.09465299  0.51694171  1
  O  O67  1  0.38357763  0.48309451  0.57768974  1
  O  O68  1  0.38358518  0.42226184  0.90539428  1
  O  O69  1  0.61641139  0.09465299  0.51694171  1
  O  O70  1  0.61642237  0.48309451  0.57768974  1
  O  O71  1  0.61641482  0.42226184  0.90539428  1
  O  O72  1  0.50000000  0.84473581  0.48295379  1
  O  O73  1  0.50000000  0.51699896  0.36171190  1
  O  O74  1  0.50000000  0.63817368  0.15530844  1
  O  O75  1  0.38287270  0.82237784  0.25803272  1
  O  O76  1  0.38287032  0.74197053  0.56439153  1
  O  O77  1  0.38286183  0.43553795  0.17752208  1
  O  O78  1  0.61712730  0.82237784  0.25803272  1
  O  O79  1  0.61712968  0.74197053  0.56439153  1
  O  O80  1  0.61713817  0.43553795  0.17752208  1
  O  O81  1  0.50000000  0.90563145  0.81505496  1
  O  O82  1  0.50000000  0.18488239  0.09051591  1
  O  O83  1  0.50000000  0.90939115  0.09436610  1
  O  O84  1  0.38287533  0.74807602  0.81738565  1
  O  O85  1  0.38287005  0.18259082  0.93065385  1
  O  O86  1  0.38287428  0.06929460  0.25192764  1
  O  O87  1  0.61712467  0.74807602  0.81738565  1
  O  O88  1  0.61712995  0.18259082  0.93065385  1
  O  O89  1  0.61712572  0.06929460  0.25192764  1
  O  O90  1  0.25636062  0.00000622  0.99999704  1
  O  O91  1  0.74363938  0.00000622  0.99999704  1
  O  O92  1  0.25046776  0.33333512  0.66666926  1
  O  O93  1  0.74953224  0.33333512  0.66666926  1
  O  O94  1  0.24406037  0.66665650  0.33332187  1
  O  O95  1  0.75593963  0.66665650  0.33332187  1
  O  O96  1  0.30773717  0.32092471  0.32505481  1
  O  O97  1  0.30773551  0.67491162  0.99586310  1
  O  O98  1  0.30776606  0.00413417  0.67905476  1
  O  O99  1  0.69226283  0.32092471  0.32505481  1
  O  O100  1  0.69226449  0.67491162  0.99586310  1
  O  O101  1  0.69223394  0.00413417  0.67905476  1
  O  O102  1  0.19413824  0.99701217  0.34070803  1
  O  O103  1  0.19410246  0.65931905  0.65628421  1
  O  O104  1  0.19413771  0.34374483  0.00300756  1
  O  O105  1  0.80586176  0.99701217  0.34070803  1
  O  O106  1  0.80589754  0.65931905  0.65628421  1
  O  O107  1  0.80586229  0.34374483  0.00300756  1
