# generated using pymatgen
data_Yb2B6Ru
_symmetry_space_group_name_H-M   'P 1'
_cell_length_a   3.70001245
_cell_length_b   9.03967328
_cell_length_c   11.33362859
_cell_angle_alpha   90.00000000
_cell_angle_beta   90.00000000
_cell_angle_gamma   90.00000000
_symmetry_Int_Tables_number   1
_chemical_formula_structural   Yb2B6Ru
_chemical_formula_sum   'Yb8 B24 Ru4'
_cell_volume   379.07478379
_cell_formula_units_Z   4
loop_
 _symmetry_equiv_pos_site_id
 _symmetry_equiv_pos_as_xyz
  1  'x, y, z'
loop_
 _atom_site_type_symbol
 _atom_site_label
 _atom_site_symmetry_multiplicity
 _atom_site_fract_x
 _atom_site_fract_y
 _atom_site_fract_z
 _atom_site_occupancy
  Yb  Yb0  1  -0.00000000  0.32775895  0.41337118  1
  Yb  Yb1  1  -0.00000000  0.67224105  0.58662882  1
  Yb  Yb2  1  -0.00000000  0.82775895  0.08662882  1
  Yb  Yb3  1  0.00000000  0.17224105  0.91337118  1
  Yb  Yb4  1  -0.00000000  0.94458755  0.36785010  1
  Yb  Yb5  1  0.00000000  0.05541245  0.63214990  1
  Yb  Yb6  1  -0.00000000  0.44458755  0.13214990  1
  Yb  Yb7  1  0.00000000  0.55541245  0.86785010  1
  B  B8  1  0.50000000  0.55487589  0.43314184  1
  B  B9  1  0.50000000  0.44512411  0.56685816  1
  B  B10  1  0.50000000  0.05487589  0.06685816  1
  B  B11  1  0.50000000  0.94512411  0.93314184  1
  B  B12  1  0.50000000  0.75171164  0.41884985  1
  B  B13  1  0.50000000  0.24828836  0.58115015  1
  B  B14  1  0.50000000  0.25171164  0.08115015  1
  B  B15  1  0.50000000  0.74828836  0.91884985  1
  B  B16  1  0.50000000  0.79572480  0.26378814  1
  B  B17  1  0.50000000  0.20427520  0.73621186  1
  B  B18  1  0.50000000  0.29572480  0.23621186  1
  B  B19  1  0.50000000  0.70427520  0.76378814  1
  B  B20  1  0.50000000  0.63425982  0.18502939  1
  B  B21  1  0.50000000  0.36574018  0.81497061  1
  B  B22  1  0.50000000  0.13425982  0.31497061  1
  B  B23  1  0.50000000  0.86574018  0.68502939  1
  B  B24  1  0.50000000  0.98413815  0.21135531  1
  B  B25  1  0.50000000  0.01586185  0.78864469  1
  B  B26  1  0.50000000  0.48413815  0.28864469  1
  B  B27  1  0.50000000  0.51586185  0.71135531  1
  B  B28  1  0.50000000  0.59616829  0.02584755  1
  B  B29  1  0.50000000  0.40383171  0.97415245  1
  B  B30  1  0.50000000  0.09616829  0.47415245  1
  B  B31  1  0.50000000  0.90383171  0.52584755  1
  Ru  Ru32  1  -0.00000000  0.64295673  0.31988045  1
  Ru  Ru33  1  0.00000000  0.35704327  0.68011955  1
  Ru  Ru34  1  -0.00000000  0.14295673  0.18011955  1
  Ru  Ru35  1  0.00000000  0.85704327  0.81988045  1
