# generated using pymatgen
data_AgH12N4F
_symmetry_space_group_name_H-M   'P 1'
_cell_length_a   7.07687469
_cell_length_b   6.87540120
_cell_length_c   13.85067709
_cell_angle_alpha   90.00000000
_cell_angle_beta   90.00000000
_cell_angle_gamma   90.00000000
_symmetry_Int_Tables_number   1
_chemical_formula_structural   AgH12N4F
_chemical_formula_sum   'Ag4 H48 N16 F4'
_cell_volume   673.92343012
_cell_formula_units_Z   4
loop_
 _symmetry_equiv_pos_site_id
 _symmetry_equiv_pos_as_xyz
  1  'x, y, z'
loop_
 _atom_site_type_symbol
 _atom_site_label
 _atom_site_symmetry_multiplicity
 _atom_site_fract_x
 _atom_site_fract_y
 _atom_site_fract_z
 _atom_site_occupancy
  Ag  Ag0  1  0.50000000  0.50000000  0.50000000  1
  Ag  Ag1  1  -0.00000000  0.50000000  0.50000000  1
  Ag  Ag2  1  0.50000000  0.00000000  -0.00000000  1
  Ag  Ag3  1  -0.00000000  0.00000000  -0.00000000  1
  H  H4  1  0.38755618  0.53253575  0.68357257  1
  H  H5  1  0.11244382  0.53253575  0.31642743  1
  H  H6  1  0.38755618  0.96746425  0.81642743  1
  H  H7  1  0.11244382  0.96746425  0.18357257  1
  H  H8  1  0.61244382  0.46746425  0.31642743  1
  H  H9  1  0.88755618  0.46746425  0.68357257  1
  H  H10  1  0.61244382  0.03253575  0.18357257  1
  H  H11  1  0.88755618  0.03253575  0.81642743  1
  H  H12  1  0.34446253  0.30689442  0.64338608  1
  H  H13  1  0.15553747  0.30689442  0.35661392  1
  H  H14  1  0.34446253  0.19310558  0.85661392  1
  H  H15  1  0.15553747  0.19310558  0.14338608  1
  H  H16  1  0.65553747  0.69310558  0.35661392  1
  H  H17  1  0.84446253  0.69310558  0.64338608  1
  H  H18  1  0.65553747  0.80689442  0.14338608  1
  H  H19  1  0.84446253  0.80689442  0.85661392  1
  H  H20  1  0.56174609  0.36639459  0.68138368  1
  H  H21  1  0.93825391  0.36639459  0.31861632  1
  H  H22  1  0.56174609  0.13360541  0.81861632  1
  H  H23  1  0.93825391  0.13360541  0.18138368  1
  H  H24  1  0.43825391  0.63360541  0.31861632  1
  H  H25  1  0.06174609  0.63360541  0.68138368  1
  H  H26  1  0.43825391  0.86639459  0.18138368  1
  H  H27  1  0.06174609  0.86639459  0.81861632  1
  H  H28  1  0.02646878  0.14814210  0.65624088  1
  H  H29  1  0.47353122  0.14814210  0.34375912  1
  H  H30  1  0.02646878  0.35185790  0.84375912  1
  H  H31  1  0.47353122  0.35185790  0.15624088  1
  H  H32  1  0.97353122  0.85185790  0.34375912  1
  H  H33  1  0.52646878  0.85185790  0.65624088  1
  H  H34  1  0.97353122  0.64814210  0.15624088  1
  H  H35  1  0.52646878  0.64814210  0.84375912  1
  H  H36  1  0.18877948  0.97511093  0.66231067  1
  H  H37  1  0.31122052  0.97511093  0.33768933  1
  H  H38  1  0.18877948  0.52488907  0.83768933  1
  H  H39  1  0.31122052  0.52488907  0.16231067  1
  H  H40  1  0.81122052  0.02488907  0.33768933  1
  H  H41  1  0.68877948  0.02488907  0.66231067  1
  H  H42  1  0.81122052  0.47511093  0.16231067  1
  H  H43  1  0.68877948  0.47511093  0.83768933  1
  H  H44  1  0.12664457  0.06956120  0.55686236  1
  H  H45  1  0.37335543  0.06956120  0.44313764  1
  H  H46  1  0.12664457  0.43043880  0.94313764  1
  H  H47  1  0.37335543  0.43043880  0.05686236  1
  H  H48  1  0.87335543  0.93043880  0.44313764  1
  H  H49  1  0.62664457  0.93043880  0.55686236  1
  H  H50  1  0.87335543  0.56956120  0.05686236  1
  H  H51  1  0.62664457  0.56956120  0.94313764  1
  N  N52  1  0.44446558  0.41822398  0.64481373  1
  N  N53  1  0.05553442  0.41822398  0.35518627  1
  N  N54  1  0.44446558  0.08177602  0.85518627  1
  N  N55  1  0.05553442  0.08177602  0.14481373  1
  N  N56  1  0.55553442  0.58177602  0.35518627  1
  N  N57  1  0.94446558  0.58177602  0.64481373  1
  N  N58  1  0.55553442  0.91822398  0.14481373  1
  N  N59  1  0.94446558  0.91822398  0.85518627  1
  N  N60  1  0.15224447  0.10230623  0.62747191  1
  N  N61  1  0.34775553  0.10230623  0.37252809  1
  N  N62  1  0.15224447  0.39769377  0.87252809  1
  N  N63  1  0.34775553  0.39769377  0.12747191  1
  N  N64  1  0.84775553  0.89769377  0.37252809  1
  N  N65  1  0.65224447  0.89769377  0.62747191  1
  N  N66  1  0.84775553  0.60230623  0.12747191  1
  N  N67  1  0.65224447  0.60230623  0.87252809  1
  F  F68  1  0.75873942  0.25000000  0.75000000  1
  F  F69  1  0.74126058  0.25000000  0.25000000  1
  F  F70  1  0.24126058  0.75000000  0.25000000  1
  F  F71  1  0.25873942  0.75000000  0.75000000  1
