# generated using pymatgen
data_KBH5N
_symmetry_space_group_name_H-M   'P 1'
_cell_length_a   8.30594911
_cell_length_b   9.61208491
_cell_length_c   17.48138796
_cell_angle_alpha   90.00000000
_cell_angle_beta   90.00000000
_cell_angle_gamma   90.00000000
_symmetry_Int_Tables_number   1
_chemical_formula_structural   KBH5N
_chemical_formula_sum   'K16 B16 H80 N16'
_cell_volume   1395.67010329
_cell_formula_units_Z   16
loop_
 _symmetry_equiv_pos_site_id
 _symmetry_equiv_pos_as_xyz
  1  'x, y, z'
loop_
 _atom_site_type_symbol
 _atom_site_label
 _atom_site_symmetry_multiplicity
 _atom_site_fract_x
 _atom_site_fract_y
 _atom_site_fract_z
 _atom_site_occupancy
  K  K0  1  0.86518660  0.14582908  0.10908506  1
  K  K1  1  0.63481340  0.64582908  0.89091494  1
  K  K2  1  0.36518660  0.85417092  0.39091494  1
  K  K3  1  0.13481340  0.35417092  0.60908506  1
  K  K4  1  0.13481340  0.85417092  0.89091494  1
  K  K5  1  0.36518660  0.35417092  0.10908506  1
  K  K6  1  0.63481340  0.14582908  0.60908506  1
  K  K7  1  0.86518660  0.64582908  0.39091494  1
  K  K8  1  0.91884319  0.26781968  0.82532014  1
  K  K9  1  0.58115681  0.76781968  0.17467986  1
  K  K10  1  0.41884319  0.73218032  0.67467986  1
  K  K11  1  0.08115681  0.23218032  0.32532014  1
  K  K12  1  0.08115681  0.73218032  0.17467986  1
  K  K13  1  0.41884319  0.23218032  0.82532014  1
  K  K14  1  0.58115681  0.26781968  0.32532014  1
  K  K15  1  0.91884319  0.76781968  0.67467986  1
  B  B16  1  0.83675245  0.45999977  0.22493262  1
  B  B17  1  0.66324755  0.95999977  0.77506738  1
  B  B18  1  0.33675245  0.54000023  0.27506738  1
  B  B19  1  0.16324755  0.04000023  0.72493262  1
  B  B20  1  0.16324755  0.54000023  0.77506738  1
  B  B21  1  0.33675245  0.04000023  0.22493262  1
  B  B22  1  0.66324755  0.45999977  0.72493262  1
  B  B23  1  0.83675245  0.95999977  0.27506738  1
  B  B24  1  0.15615528  0.18738706  0.96911785  1
  B  B25  1  0.34384472  0.68738706  0.03088215  1
  B  B26  1  0.65615528  0.81261294  0.53088215  1
  B  B27  1  0.84384472  0.31261294  0.46911785  1
  B  B28  1  0.84384472  0.81261294  0.03088215  1
  B  B29  1  0.65615528  0.31261294  0.96911785  1
  B  B30  1  0.34384472  0.18738706  0.46911785  1
  B  B31  1  0.15615528  0.68738706  0.53088215  1
  H  H32  1  0.99178333  0.43640915  0.12659227  1
  H  H33  1  0.50821667  0.93640915  0.87340773  1
  H  H34  1  0.49178333  0.56359085  0.37340773  1
  H  H35  1  0.00821667  0.06359085  0.62659227  1
  H  H36  1  0.00821667  0.56359085  0.87340773  1
  H  H37  1  0.49178333  0.06359085  0.12659227  1
  H  H38  1  0.50821667  0.43640915  0.62659227  1
  H  H39  1  0.99178333  0.93640915  0.37340773  1
  H  H40  1  0.09005844  0.43875969  0.20692319  1
  H  H41  1  0.40994156  0.93875969  0.79307681  1
  H  H42  1  0.59005844  0.56124031  0.29307681  1
  H  H43  1  0.90994156  0.06124031  0.70692319  1
  H  H44  1  0.90994156  0.56124031  0.79307681  1
  H  H45  1  0.59005844  0.06124031  0.20692319  1
  H  H46  1  0.40994156  0.43875969  0.70692319  1
  H  H47  1  0.09005844  0.93875969  0.29307681  1
  H  H48  1  0.29049170  0.00866997  0.00621927  1
  H  H49  1  0.20950830  0.50866997  0.99378073  1
  H  H50  1  0.79049170  0.99133003  0.49378073  1
  H  H51  1  0.70950830  0.49133003  0.50621927  1
  H  H52  1  0.70950830  0.99133003  0.99378073  1
  H  H53  1  0.79049170  0.49133003  0.00621927  1
  H  H54  1  0.20950830  0.00866997  0.50621927  1
  H  H55  1  0.29049170  0.50866997  0.49378073  1
  H  H56  1  0.40815783  0.13219387  0.97790679  1
  H  H57  1  0.09184217  0.63219387  0.02209321  1
  H  H58  1  0.90815783  0.86780613  0.52209321  1
  H  H59  1  0.59184217  0.36780613  0.47790679  1
  H  H60  1  0.59184217  0.86780613  0.02209321  1
  H  H61  1  0.90815783  0.36780613  0.97790679  1
  H  H62  1  0.09184217  0.13219387  0.47790679  1
  H  H63  1  0.40815783  0.63219387  0.52209321  1
  H  H64  1  0.83940387  0.41931020  0.29226102  1
  H  H65  1  0.66059613  0.91931020  0.70773898  1
  H  H66  1  0.33940387  0.58068980  0.20773898  1
  H  H67  1  0.16059613  0.08068980  0.79226102  1
  H  H68  1  0.16059613  0.58068980  0.70773898  1
  H  H69  1  0.33940387  0.08068980  0.29226102  1
  H  H70  1  0.66059613  0.41931020  0.79226102  1
  H  H71  1  0.83940387  0.91931020  0.20773898  1
  H  H72  1  0.71091610  0.41738411  0.19499413  1
  H  H73  1  0.78908390  0.91738411  0.80500587  1
  H  H74  1  0.21091610  0.58261589  0.30500587  1
  H  H75  1  0.28908390  0.08261589  0.69499413  1
  H  H76  1  0.28908390  0.58261589  0.80500587  1
  H  H77  1  0.21091610  0.08261589  0.19499413  1
  H  H78  1  0.78908390  0.41738411  0.69499413  1
  H  H79  1  0.71091610  0.91738411  0.30500587  1
  H  H80  1  0.82725820  0.59050891  0.22815576  1
  H  H81  1  0.67274180  0.09050891  0.77184424  1
  H  H82  1  0.32725820  0.40949109  0.27184424  1
  H  H83  1  0.17274180  0.90949109  0.72815576  1
  H  H84  1  0.17274180  0.40949109  0.77184424  1
  H  H85  1  0.32725820  0.90949109  0.22815576  1
  H  H86  1  0.67274180  0.59050891  0.72815576  1
  H  H87  1  0.82725820  0.09050891  0.27184424  1
  H  H88  1  0.18132306  0.28841612  0.92663578  1
  H  H89  1  0.31867694  0.78841612  0.07336422  1
  H  H90  1  0.68132306  0.71158388  0.57336422  1
  H  H91  1  0.81867694  0.21158388  0.42663578  1
  H  H92  1  0.81867694  0.71158388  0.07336422  1
  H  H93  1  0.68132306  0.21158388  0.92663578  1
  H  H94  1  0.31867694  0.28841612  0.42663578  1
  H  H95  1  0.18132306  0.78841612  0.57336422  1
  H  H96  1  0.03013858  0.12930031  0.94728954  1
  H  H97  1  0.46986142  0.62930031  0.05271046  1
  H  H98  1  0.53013858  0.87069969  0.55271046  1
  H  H99  1  0.96986142  0.37069969  0.44728954  1
  H  H100  1  0.96986142  0.87069969  0.05271046  1
  H  H101  1  0.53013858  0.37069969  0.94728954  1
  H  H102  1  0.46986142  0.12930031  0.44728954  1
  H  H103  1  0.03013858  0.62930031  0.55271046  1
  H  H104  1  0.12756558  0.23634893  0.03390661  1
  H  H105  1  0.37243442  0.73634893  0.96609339  1
  H  H106  1  0.62756558  0.76365107  0.46609339  1
  H  H107  1  0.87243442  0.26365107  0.53390661  1
  H  H108  1  0.87243442  0.76365107  0.96609339  1
  H  H109  1  0.62756558  0.26365107  0.03390661  1
  H  H110  1  0.37243442  0.23634893  0.53390661  1
  H  H111  1  0.12756558  0.73634893  0.46609339  1
  N  N112  1  0.98617977  0.40309632  0.18241643  1
  N  N113  1  0.51382023  0.90309632  0.81758357  1
  N  N114  1  0.48617977  0.59690368  0.31758357  1
  N  N115  1  0.01382023  0.09690368  0.68241643  1
  N  N116  1  0.01382023  0.59690368  0.81758357  1
  N  N117  1  0.48617977  0.09690368  0.18241643  1
  N  N118  1  0.51382023  0.40309632  0.68241643  1
  N  N119  1  0.98617977  0.90309632  0.31758357  1
  N  N120  1  0.30045971  0.08523725  0.96581140  1
  N  N121  1  0.19954029  0.58523725  0.03418860  1
  N  N122  1  0.80045971  0.91476275  0.53418860  1
  N  N123  1  0.69954029  0.41476275  0.46581140  1
  N  N124  1  0.69954029  0.91476275  0.03418860  1
  N  N125  1  0.80045971  0.41476275  0.96581140  1
  N  N126  1  0.19954029  0.08523725  0.46581140  1
  N  N127  1  0.30045971  0.58523725  0.53418860  1
