# generated using pymatgen
data_Sr5Pb4
_symmetry_space_group_name_H-M   'P 1'
_cell_length_a   8.61590683
_cell_length_b   9.02642981
_cell_length_c   17.70751614
_cell_angle_alpha   90.00000000
_cell_angle_beta   90.00000000
_cell_angle_gamma   90.00000000
_symmetry_Int_Tables_number   1
_chemical_formula_structural   Sr5Pb4
_chemical_formula_sum   'Sr20 Pb16'
_cell_volume   1377.12908184
_cell_formula_units_Z   4
loop_
 _symmetry_equiv_pos_site_id
 _symmetry_equiv_pos_as_xyz
  1  'x, y, z'
loop_
 _atom_site_type_symbol
 _atom_site_label
 _atom_site_symmetry_multiplicity
 _atom_site_fract_x
 _atom_site_fract_y
 _atom_site_fract_z
 _atom_site_occupancy
  Sr  Sr0  1  0.34256188  0.82355989  0.87639453  1
  Sr  Sr1  1  0.84256188  0.67644011  0.62360547  1
  Sr  Sr2  1  0.65743812  0.17644011  0.37639453  1
  Sr  Sr3  1  0.15743812  0.32355989  0.12360547  1
  Sr  Sr4  1  0.65743812  0.17644011  0.12360547  1
  Sr  Sr5  1  0.15743812  0.32355989  0.37639453  1
  Sr  Sr6  1  0.34256188  0.82355989  0.62360547  1
  Sr  Sr7  1  0.84256188  0.67644011  0.87639453  1
  Sr  Sr8  1  0.50440434  0.32166838  0.90254453  1
  Sr  Sr9  1  0.00440434  0.17833162  0.59745547  1
  Sr  Sr10  1  0.49559566  0.67833162  0.40254453  1
  Sr  Sr11  1  0.99559566  0.82166838  0.09745547  1
  Sr  Sr12  1  0.49559566  0.67833162  0.09745547  1
  Sr  Sr13  1  0.99559566  0.82166838  0.40254453  1
  Sr  Sr14  1  0.50440434  0.32166838  0.59745547  1
  Sr  Sr15  1  0.00440434  0.17833162  0.90254453  1
  Sr  Sr16  1  0.17308893  0.49547486  0.75000000  1
  Sr  Sr17  1  0.67308893  0.00452514  0.75000000  1
  Sr  Sr18  1  0.82691107  0.50452514  0.25000000  1
  Sr  Sr19  1  0.32691107  0.99547486  0.25000000  1
  Pb  Pb20  1  0.32772168  0.02477702  0.03783271  1
  Pb  Pb21  1  0.82772168  0.47522298  0.46216729  1
  Pb  Pb22  1  0.67227832  0.97522298  0.53783271  1
  Pb  Pb23  1  0.17227832  0.52477702  0.96216729  1
  Pb  Pb24  1  0.67227832  0.97522298  0.96216729  1
  Pb  Pb25  1  0.17227832  0.52477702  0.53783271  1
  Pb  Pb26  1  0.32772168  0.02477702  0.46216729  1
  Pb  Pb27  1  0.82772168  0.47522298  0.03783271  1
  Pb  Pb28  1  0.54628067  0.60729693  0.75000000  1
  Pb  Pb29  1  0.04628067  0.89270307  0.75000000  1
  Pb  Pb30  1  0.45371933  0.39270307  0.25000000  1
  Pb  Pb31  1  0.95371933  0.10729693  0.25000000  1
  Pb  Pb32  1  0.29774592  0.13632843  0.75000000  1
  Pb  Pb33  1  0.79774592  0.36367157  0.75000000  1
  Pb  Pb34  1  0.70225408  0.86367157  0.25000000  1
  Pb  Pb35  1  0.20225408  0.63632843  0.25000000  1
