# generated using pymatgen
data_Ca2FeCoO5
_symmetry_space_group_name_H-M   'P 1'
_cell_length_a   5.32548932
_cell_length_b   11.21768247
_cell_length_c   15.19430625
_cell_angle_alpha   90.00000000
_cell_angle_beta   90.00000000
_cell_angle_gamma   90.00000000
_symmetry_Int_Tables_number   1
_chemical_formula_structural   Ca2FeCoO5
_chemical_formula_sum   'Ca16 Fe8 Co8 O40'
_cell_volume   907.70250985
_cell_formula_units_Z   8
loop_
 _symmetry_equiv_pos_site_id
 _symmetry_equiv_pos_as_xyz
  1  'x, y, z'
loop_
 _atom_site_type_symbol
 _atom_site_label
 _atom_site_symmetry_multiplicity
 _atom_site_fract_x
 _atom_site_fract_y
 _atom_site_fract_z
 _atom_site_occupancy
  Ca  Ca0  1  0.98020507  0.73705631  0.89260702  1
  Ca  Ca1  1  0.01979493  0.26294369  0.39260702  1
  Ca  Ca2  1  0.98020507  0.76294369  0.10739298  1
  Ca  Ca3  1  0.01979493  0.23705631  0.60739298  1
  Ca  Ca4  1  0.01979493  0.26294369  0.10739298  1
  Ca  Ca5  1  0.98020507  0.73705631  0.60739298  1
  Ca  Ca6  1  0.01979493  0.23705631  0.89260702  1
  Ca  Ca7  1  0.98020507  0.76294369  0.39260702  1
  Ca  Ca8  1  0.51285119  0.98572453  0.10732388  1
  Ca  Ca9  1  0.48714881  0.01427547  0.60732388  1
  Ca  Ca10  1  0.51285119  0.51427547  0.89267612  1
  Ca  Ca11  1  0.48714881  0.48572453  0.39267612  1
  Ca  Ca12  1  0.48714881  0.01427547  0.89267612  1
  Ca  Ca13  1  0.51285119  0.98572453  0.39267612  1
  Ca  Ca14  1  0.48714881  0.48572453  0.10732388  1
  Ca  Ca15  1  0.51285119  0.51427547  0.60732388  1
  Fe  Fe16  1  0.44681319  0.78376531  0.75000000  1
  Fe  Fe17  1  0.55318681  0.21623469  0.25000000  1
  Fe  Fe18  1  0.44681319  0.71623469  0.25000000  1
  Fe  Fe19  1  0.55318681  0.28376531  0.75000000  1
  Fe  Fe20  1  0.94941277  0.96692352  0.75000000  1
  Fe  Fe21  1  0.05058723  0.03307648  0.25000000  1
  Fe  Fe22  1  0.94941277  0.53307648  0.25000000  1
  Fe  Fe23  1  0.05058723  0.46692352  0.75000000  1
  Co  Co24  1  0.49384649  0.75000000  0.00000000  1
  Co  Co25  1  0.50615351  0.25000000  0.50000000  1
  Co  Co26  1  0.50615351  0.25000000  0.00000000  1
  Co  Co27  1  0.49384649  0.75000000  0.50000000  1
  Co  Co28  1  0.00000000  0.50000000  -0.00000000  1
  Co  Co29  1  0.00000000  0.50000000  0.50000000  1
  Co  Co30  1  0.00000000  -0.00000000  0.00000000  1
  Co  Co31  1  0.00000000  -0.00000000  0.50000000  1
  O  O32  1  0.08043626  0.80629101  0.75000000  1
  O  O33  1  0.91956374  0.19370899  0.25000000  1
  O  O34  1  0.08043626  0.69370899  0.25000000  1
  O  O35  1  0.91956374  0.30629101  0.75000000  1
  O  O36  1  0.58462328  0.94417643  0.75000000  1
  O  O37  1  0.41537672  0.05582357  0.25000000  1
  O  O38  1  0.58462328  0.55582357  0.25000000  1
  O  O39  1  0.41537672  0.44417643  0.75000000  1
  O  O40  1  0.73973587  0.87550855  0.98220851  1
  O  O41  1  0.26026413  0.12449145  0.48220851  1
  O  O42  1  0.73973587  0.62449145  0.01779149  1
  O  O43  1  0.26026413  0.37550855  0.51779149  1
  O  O44  1  0.26026413  0.12449145  0.01779149  1
  O  O45  1  0.73973587  0.87550855  0.51779149  1
  O  O46  1  0.26026413  0.37550855  0.98220851  1
  O  O47  1  0.73973587  0.62449145  0.48220851  1
  O  O48  1  0.23771644  0.87652550  0.98971932  1
  O  O49  1  0.76228356  0.12347450  0.48971932  1
  O  O50  1  0.23771644  0.62347450  0.01028068  1
  O  O51  1  0.76228356  0.37652550  0.51028068  1
  O  O52  1  0.76228356  0.12347450  0.01028068  1
  O  O53  1  0.23771644  0.87652550  0.51028068  1
  O  O54  1  0.76228356  0.37652550  0.98971932  1
  O  O55  1  0.23771644  0.62347450  0.48971932  1
  O  O56  1  0.02673140  0.03433752  0.85981919  1
  O  O57  1  0.97326860  0.96566248  0.35981919  1
  O  O58  1  0.02673140  0.46566248  0.14018081  1
  O  O59  1  0.97326860  0.53433752  0.64018081  1
  O  O60  1  0.97326860  0.96566248  0.14018081  1
  O  O61  1  0.02673140  0.03433752  0.64018081  1
  O  O62  1  0.97326860  0.53433752  0.85981919  1
  O  O63  1  0.02673140  0.46566248  0.35981919  1
  O  O64  1  0.51408619  0.71472082  0.85883038  1
  O  O65  1  0.48591381  0.28527918  0.35883038  1
  O  O66  1  0.51408619  0.78527918  0.14116962  1
  O  O67  1  0.48591381  0.21472082  0.64116962  1
  O  O68  1  0.48591381  0.28527918  0.14116962  1
  O  O69  1  0.51408619  0.71472082  0.64116962  1
  O  O70  1  0.48591381  0.21472082  0.85883038  1
  O  O71  1  0.51408619  0.78527918  0.35883038  1
