# generated using pymatgen
data_UH14Cl3O7
_symmetry_space_group_name_H-M   'P 1'
_cell_length_a   7.98071142
_cell_length_b   8.29616163
_cell_length_c   9.37056006
_cell_angle_alpha   69.94479215
_cell_angle_beta   73.30721649
_cell_angle_gamma   81.78033879
_symmetry_Int_Tables_number   1
_chemical_formula_structural   UH14Cl3O7
_chemical_formula_sum   'U2 H28 Cl6 O14'
_cell_volume   557.55547984
_cell_formula_units_Z   2
loop_
 _symmetry_equiv_pos_site_id
 _symmetry_equiv_pos_as_xyz
  1  'x, y, z'
loop_
 _atom_site_type_symbol
 _atom_site_label
 _atom_site_symmetry_multiplicity
 _atom_site_fract_x
 _atom_site_fract_y
 _atom_site_fract_z
 _atom_site_occupancy
  U  U0  1  0.78447228  0.82080946  0.17187115  1
  U  U1  1  0.21552772  0.17919054  0.82812885  1
  H  H2  1  0.99835210  0.85099483  0.41047708  1
  H  H3  1  0.00164790  0.14900517  0.58952292  1
  H  H4  1  0.86972502  0.01767627  0.37778216  1
  H  H5  1  0.13027498  0.98232373  0.62221784  1
  H  H6  1  0.08566071  0.54082754  0.26729315  1
  H  H7  1  0.91433929  0.45917246  0.73270685  1
  H  H8  1  0.91086636  0.47344456  0.39114424  1
  H  H9  1  0.08913364  0.52655544  0.60885576  1
  H  H10  1  0.73308121  0.82518628  0.84551852  1
  H  H11  1  0.26691879  0.17481372  0.15448148  1
  H  H12  1  0.87443573  0.96077436  0.80846447  1
  H  H13  1  0.12556427  0.03922564  0.19153553  1
  H  H14  1  0.39010950  0.86997460  0.15417829  1
  H  H15  1  0.60989050  0.13002540  0.84582171  1
  H  H16  1  0.43372079  0.67540675  0.15747034  1
  H  H17  1  0.56627921  0.32459325  0.84252966  1
  H  H18  1  0.52043958  0.13235314  0.25417532  1
  H  H19  1  0.47956042  0.86764686  0.74582468  1
  H  H20  1  0.44570137  0.95650436  0.37658434  1
  H  H21  1  0.55429863  0.04349564  0.62341566  1
  H  H22  1  0.64691942  0.64476571  0.54388668  1
  H  H23  1  0.35308058  0.35523429  0.45611332  1
  H  H24  1  0.48755365  0.66703024  0.47059679  1
  H  H25  1  0.51244635  0.33296976  0.52940321  1
  H  H26  1  0.80903221  0.43360643  0.17569212  1
  H  H27  1  0.19096779  0.56639357  0.82430788  1
  H  H28  1  0.73409994  0.53454203  0.02891849  1
  H  H29  1  0.26590006  0.46545797  0.97108151  1
  Cl  Cl30  1  0.85575823  0.17913945  0.01357179  1
  Cl  Cl31  1  0.14424177  0.82086055  0.98642821  1
  Cl  Cl32  1  0.21309953  0.78085744  0.53193102  1
  Cl  Cl33  1  0.78690047  0.21914256  0.46806898  1
  Cl  Cl34  1  0.66270073  0.61721831  0.78454656  1
  Cl  Cl35  1  0.33729927  0.38278169  0.21545344  1
  O  O36  1  0.93163319  0.92403702  0.33493676  1
  O  O37  1  0.06836681  0.07596298  0.66506324  1
  O  O38  1  0.96936970  0.57986073  0.32098849  1
  O  O39  1  0.03063030  0.42013927  0.67901151  1
  O  O40  1  0.76135297  0.91556386  0.88098871  1
  O  O41  1  0.23864703  0.08443614  0.11901129  1
  O  O42  1  0.48168405  0.77599371  0.16058385  1
  O  O43  1  0.51831595  0.22400629  0.83941615  1
  O  O44  1  0.55109148  0.00927294  0.29756778  1
  O  O45  1  0.44890852  0.99072706  0.70243222  1
  O  O46  1  0.61676214  0.65365309  0.44600382  1
  O  O47  1  0.38323786  0.34634691  0.55399618  1
  O  O48  1  0.78141731  0.54888654  0.10970292  1
  O  O49  1  0.21858269  0.45111346  0.89029708  1
