# generated using pymatgen
data_SmMoI4O15
_symmetry_space_group_name_H-M   'P 1'
_cell_length_a   7.04180847
_cell_length_b   7.16494336
_cell_length_c   14.17396041
_cell_angle_alpha   90.00000000
_cell_angle_beta   90.00000000
_cell_angle_gamma   114.06448130
_symmetry_Int_Tables_number   1
_chemical_formula_structural   SmMoI4O15
_chemical_formula_sum   'Sm2 Mo2 I8 O30'
_cell_volume   652.98079548
_cell_formula_units_Z   2
loop_
 _symmetry_equiv_pos_site_id
 _symmetry_equiv_pos_as_xyz
  1  'x, y, z'
loop_
 _atom_site_type_symbol
 _atom_site_label
 _atom_site_symmetry_multiplicity
 _atom_site_fract_x
 _atom_site_fract_y
 _atom_site_fract_z
 _atom_site_occupancy
  Sm  Sm0  1  0.07801164  0.42272164  0.44000135  1
  Sm  Sm1  1  0.92198836  0.57727836  0.94000135  1
  Mo  Mo2  1  0.58418135  0.78329928  0.27323462  1
  Mo  Mo3  1  0.41581865  0.21670072  0.77323462  1
  I  I4  1  0.52163222  0.76070288  0.03031070  1
  I  I5  1  0.47836778  0.23929712  0.53031070  1
  I  I6  1  0.76487110  0.30542682  0.18908196  1
  I  I7  1  0.23512890  0.69457318  0.68908196  1
  I  I8  1  0.14792363  0.95118916  0.31041360  1
  I  I9  1  0.85207637  0.04881084  0.81041360  1
  I  I10  1  0.76239701  0.85826979  0.53333608  1
  I  I11  1  0.23760299  0.14173021  0.03333608  1
  O  O12  1  0.40101419  0.70514545  0.14976707  1
  O  O13  1  0.59898581  0.29485455  0.64976707  1
  O  O14  1  0.28516749  0.64229326  0.96150424  1
  O  O15  1  0.71483251  0.35770674  0.46150424  1
  O  O16  1  0.60473776  0.54762449  0.02678056  1
  O  O17  1  0.39526224  0.45237551  0.52678056  1
  O  O18  1  0.76497224  0.04335990  0.18104958  1
  O  O19  1  0.23502776  0.95664010  0.68104958  1
  O  O20  1  0.93165610  0.41542602  0.08802579  1
  O  O21  1  0.06834390  0.58457398  0.58802579  1
  O  O22  1  0.95660491  0.39754200  0.28275328  1
  O  O23  1  0.04339509  0.60245800  0.78275328  1
  O  O24  1  0.42113880  0.99136975  0.28557174  1
  O  O25  1  0.57886120  0.00863025  0.78557174  1
  O  O26  1  0.22530541  0.18696989  0.37807879  1
  O  O27  1  0.77469459  0.81303011  0.87807879  1
  O  O28  1  0.09205799  0.77059902  0.40885704  1
  O  O29  1  0.90794201  0.22940098  0.90885704  1
  O  O30  1  0.52137810  0.89971624  0.53849652  1
  O  O31  1  0.47862190  0.10028376  0.03849652  1
  O  O32  1  0.75233370  0.78770020  0.65956030  1
  O  O33  1  0.24766630  0.21229980  0.15956030  1
  O  O34  1  0.96110533  0.11916053  0.54126312  1
  O  O35  1  0.03889467  0.88083947  0.04126312  1
  O  O36  1  0.76712383  0.93752395  0.36815831  1
  O  O37  1  0.23287617  0.06247605  0.86815831  1
  O  O38  1  0.38639934  0.60493307  0.34328742  1
  O  O39  1  0.61360066  0.39506693  0.84328742  1
  O  O40  1  0.73488085  0.65395601  0.23225394  1
  O  O41  1  0.26511915  0.34604399  0.73225394  1
