# generated using pymatgen
data_CdH20C2S2(NO2)6
_symmetry_space_group_name_H-M   'P 1'
_cell_length_a   6.47604355
_cell_length_b   6.46971499
_cell_length_c   10.18112185
_cell_angle_alpha   90.42536517
_cell_angle_beta   94.73014434
_cell_angle_gamma   108.45469307
_symmetry_Int_Tables_number   1
_chemical_formula_structural   CdH20C2S2(NO2)6
_chemical_formula_sum   'Cd1 H20 C2 S2 N6 O12'
_cell_volume   403.00172026
_cell_formula_units_Z   1
loop_
 _symmetry_equiv_pos_site_id
 _symmetry_equiv_pos_as_xyz
  1  'x, y, z'
loop_
 _atom_site_type_symbol
 _atom_site_label
 _atom_site_symmetry_multiplicity
 _atom_site_fract_x
 _atom_site_fract_y
 _atom_site_fract_z
 _atom_site_occupancy
  Cd  Cd0  1  0.50000000  0.50000000  0.50000000  1
  H  H1  1  0.68381930  0.94697570  0.61359320  1
  H  H2  1  0.31618070  0.05302430  0.38640680  1
  H  H3  1  0.42409366  0.89089500  0.62051706  1
  H  H4  1  0.57590634  0.10910500  0.37948294  1
  H  H5  1  0.89511223  0.41793228  0.63514530  1
  H  H6  1  0.10488777  0.58206772  0.36485470  1
  H  H7  1  0.95360637  0.67904039  0.62885614  1
  H  H8  1  0.04639363  0.32095961  0.37114386  1
  H  H9  1  0.81228526  0.18053279  0.83927196  1
  H  H10  1  0.18771474  0.81946721  0.16072804  1
  H  H11  1  0.75511758  0.03861661  0.98430971  1
  H  H12  1  0.24488242  0.96138339  0.01569029  1
  H  H13  1  0.67274502  0.44702968  0.17456459  1
  H  H14  1  0.32725498  0.55297032  0.82543541  1
  H  H15  1  0.71733567  0.19468460  0.17175619  1
  H  H16  1  0.28266433  0.80531540  0.82824381  1
  H  H17  1  0.74915805  0.53331467  0.83258811  1
  H  H18  1  0.25084195  0.46668533  0.16741189  1
  H  H19  1  0.75034395  0.65729050  0.98944021  1
  H  H20  1  0.24965605  0.34270950  0.01055979  1
  C  C21  1  0.73053481  0.33905193  0.99330190  1
  C  C22  1  0.26946519  0.66094807  0.00669810  1
  S  S23  1  0.83361253  0.85556489  0.27784816  1
  S  S24  1  0.16638747  0.14443511  0.72215184  1
  N  N25  1  0.74430440  0.16473248  0.92749644  1
  N  N26  1  0.25569560  0.83526752  0.07250356  1
  N  N27  1  0.70178060  0.32561308  0.12186608  1
  N  N28  1  0.29821940  0.67438692  0.87813392  1
  N  N29  1  0.73999618  0.52348543  0.93186241  1
  N  N30  1  0.26000382  0.47651457  0.06813759  1
  O  O31  1  0.54300247  0.82819776  0.60778812  1
  O  O32  1  0.45699753  0.17180224  0.39221188  1
  O  O33  1  0.83255916  0.53942398  0.62802450  1
  O  O34  1  0.16744084  0.46057602  0.37197550  1
  O  O35  1  0.80246491  0.86781920  0.13256362  1
  O  O36  1  0.19753509  0.13218080  0.86743638  1
  O  O37  1  0.81349593  0.05589217  0.34265829  1
  O  O38  1  0.18650407  0.94410783  0.65734171  1
  O  O39  1  0.66303780  0.65529537  0.31839012  1
  O  O40  1  0.33696220  0.34470463  0.68160988  1
  O  O41  1  0.05556559  0.83713267  0.31813116  1
  O  O42  1  0.94443441  0.16286733  0.68186884  1
