# generated using pymatgen
data_V2Cu3H6O11
_symmetry_space_group_name_H-M   'P 1'
_cell_length_a   5.95170773
_cell_length_b   8.97932847
_cell_length_c   10.03918060
_cell_angle_alpha   70.36462321
_cell_angle_beta   72.75705276
_cell_angle_gamma   70.64551974
_symmetry_Int_Tables_number   1
_chemical_formula_structural   V2Cu3H6O11
_chemical_formula_sum   'V4 Cu6 H12 O22'
_cell_volume   466.30838588
_cell_formula_units_Z   2
loop_
 _symmetry_equiv_pos_site_id
 _symmetry_equiv_pos_as_xyz
  1  'x, y, z'
loop_
 _atom_site_type_symbol
 _atom_site_label
 _atom_site_symmetry_multiplicity
 _atom_site_fract_x
 _atom_site_fract_y
 _atom_site_fract_z
 _atom_site_occupancy
  V  V0  1  0.40090711  0.37953647  0.36974766  1
  V  V1  1  0.84980876  0.87953647  0.86974766  1
  V  V2  1  0.64991525  0.12008037  0.13054234  1
  V  V3  1  0.09946204  0.62008037  0.63054234  1
  Cu  Cu4  1  0.75153321  0.49853812  0.50015127  1
  Cu  Cu5  1  0.24977739  0.99853812  0.00015127  1
  Cu  Cu6  1  0.49780390  0.25164073  0.74718290  1
  Cu  Cu7  1  0.50337247  0.75164073  0.24718290  1
  Cu  Cu8  1  0.99581342  0.24865359  0.75464562  1
  Cu  Cu9  1  0.00088737  0.74865359  0.25464562  1
  H  H10  1  0.88211932  0.51981466  0.22121660  1
  H  H11  1  0.37684942  0.01981466  0.72121660  1
  H  H12  1  0.12534035  0.97888816  0.28069057  1
  H  H13  1  0.61508092  0.47888816  0.78069057  1
  H  H14  1  0.57505165  0.64300756  0.92621135  1
  H  H15  1  0.85572944  0.14300756  0.42621135  1
  H  H16  1  0.11011042  0.10391406  0.45427602  1
  H  H17  1  0.33169950  0.60391406  0.95427602  1
  H  H18  1  0.93250265  0.34279594  0.08018185  1
  H  H19  1  0.64451956  0.84279594  0.58018185  1
  H  H20  1  0.38697761  0.87750575  0.55977283  1
  H  H21  1  0.17574381  0.37750575  0.05977283  1
  O  O22  1  0.92565286  0.15459736  0.02169382  1
  O  O23  1  0.89805596  0.65459736  0.52169382  1
  O  O24  1  0.60258168  0.34372803  0.47871369  1
  O  O25  1  0.57497660  0.84372803  0.97871369  1
  O  O26  1  0.17432211  0.41016086  0.73315616  1
  O  O27  1  0.68236087  0.91016086  0.23315616  1
  O  O28  1  0.81697050  0.08999185  0.76783858  1
  O  O29  1  0.32519907  0.58999185  0.26783858  1
  O  O30  1  0.80857423  0.59604475  0.28725571  1
  O  O31  1  0.30812530  0.09604475  0.78725571  1
  O  O32  1  0.19270400  0.90384826  0.21331219  1
  O  O33  1  0.69013555  0.40384826  0.71331219  1
  O  O34  1  0.35377735  0.67568041  0.52750633  1
  O  O35  1  0.44303591  0.17568041  0.02750633  1
  O  O36  1  0.05692771  0.82364172  0.97252297  1
  O  O37  1  0.14690761  0.32364172  0.47252297  1
  O  O38  1  0.55272618  0.25005199  0.24978801  1
  O  O39  1  0.94743383  0.75005199  0.74978801  1
  O  O40  1  0.50629152  0.55989443  0.92054760  1
  O  O41  1  0.01326645  0.05989443  0.42054760  1
  O  O42  1  0.48565269  0.92485492  0.58885593  1
  O  O43  1  0.00063646  0.42485492  0.08885593  1
