# generated using pymatgen
data_Co3(SO6)2
_symmetry_space_group_name_H-M   'P 1'
_cell_length_a   7.05159814
_cell_length_b   9.61325249
_cell_length_c   12.70405837
_cell_angle_alpha   90.00000000
_cell_angle_beta   90.00000000
_cell_angle_gamma   90.00000000
_symmetry_Int_Tables_number   1
_chemical_formula_structural   Co3(SO6)2
_chemical_formula_sum   'Co12 S8 O48'
_cell_volume   861.19278790
_cell_formula_units_Z   4
loop_
 _symmetry_equiv_pos_site_id
 _symmetry_equiv_pos_as_xyz
  1  'x, y, z'
loop_
 _atom_site_type_symbol
 _atom_site_label
 _atom_site_symmetry_multiplicity
 _atom_site_fract_x
 _atom_site_fract_y
 _atom_site_fract_z
 _atom_site_occupancy
  Co  Co0  1  0.05004155  0.02736939  0.63449494  1
  Co  Co1  1  0.94995845  0.97263061  0.13449494  1
  Co  Co2  1  0.05004155  0.47263061  0.36550506  1
  Co  Co3  1  0.94995845  0.52736939  0.86550506  1
  Co  Co4  1  0.94995845  0.97263061  0.36550506  1
  Co  Co5  1  0.05004155  0.02736939  0.86550506  1
  Co  Co6  1  0.94995845  0.52736939  0.63449494  1
  Co  Co7  1  0.05004155  0.47263061  0.13449494  1
  Co  Co8  1  0.72231793  0.24884607  0.75000000  1
  Co  Co9  1  0.27768207  0.75115393  0.25000000  1
  Co  Co10  1  0.72231793  0.25115393  0.25000000  1
  Co  Co11  1  0.27768207  0.74884607  0.75000000  1
  S  S12  1  0.79854006  0.25000000  0.50000000  1
  S  S13  1  0.20145994  0.75000000  -0.00000000  1
  S  S14  1  0.20145994  0.75000000  0.50000000  1
  S  S15  1  0.79854006  0.25000000  -0.00000000  1
  S  S16  1  0.30413880  0.42798330  0.75000000  1
  S  S17  1  0.69586120  0.57201670  0.25000000  1
  S  S18  1  0.30413880  0.07201670  0.25000000  1
  S  S19  1  0.69586120  0.92798330  0.75000000  1
  O  O20  1  0.92032003  0.37942003  0.49919769  1
  O  O21  1  0.07967997  0.62057997  0.99919769  1
  O  O22  1  0.92032003  0.12057997  0.50080231  1
  O  O23  1  0.07967997  0.87942003  0.00080231  1
  O  O24  1  0.07967997  0.62057997  0.50080231  1
  O  O25  1  0.92032003  0.37942003  0.00080231  1
  O  O26  1  0.07967997  0.87942003  0.49919769  1
  O  O27  1  0.92032003  0.12057997  0.99919769  1
  O  O28  1  0.67796114  0.25437391  0.59404122  1
  O  O29  1  0.32203886  0.74562609  0.09404122  1
  O  O30  1  0.67796114  0.24562609  0.40595878  1
  O  O31  1  0.32203886  0.75437391  0.90595878  1
  O  O32  1  0.32203886  0.74562609  0.40595878  1
  O  O33  1  0.67796114  0.25437391  0.90595878  1
  O  O34  1  0.32203886  0.75437391  0.59404122  1
  O  O35  1  0.67796114  0.24562609  0.09404122  1
  O  O36  1  0.18208926  0.41879354  0.65279612  1
  O  O37  1  0.81791074  0.58120646  0.15279612  1
  O  O38  1  0.18208926  0.08120646  0.34720388  1
  O  O39  1  0.81791074  0.91879354  0.84720388  1
  O  O40  1  0.81791074  0.58120646  0.34720388  1
  O  O41  1  0.18208926  0.41879354  0.84720388  1
  O  O42  1  0.81791074  0.91879354  0.65279612  1
  O  O43  1  0.18208926  0.08120646  0.15279612  1
  O  O44  1  0.43612936  0.31238955  0.75000000  1
  O  O45  1  0.56387064  0.68761045  0.25000000  1
  O  O46  1  0.43612936  0.18761045  0.25000000  1
  O  O47  1  0.56387064  0.81238955  0.75000000  1
  O  O48  1  0.59164730  0.06372960  0.75000000  1
  O  O49  1  0.40835270  0.93627040  0.25000000  1
  O  O50  1  0.59164730  0.43627040  0.25000000  1
  O  O51  1  0.40835270  0.56372960  0.75000000  1
  O  O52  1  0.24750289  0.10472660  0.60599285  1
  O  O53  1  0.75249711  0.89527340  0.10599285  1
  O  O54  1  0.24750289  0.39527340  0.39400715  1
  O  O55  1  0.75249711  0.60472660  0.89400715  1
  O  O56  1  0.75249711  0.89527340  0.39400715  1
  O  O57  1  0.24750289  0.10472660  0.89400715  1
  O  O58  1  0.75249711  0.60472660  0.60599285  1
  O  O59  1  0.24750289  0.39527340  0.10599285  1
  O  O60  1  0.83903528  0.42045876  0.75000000  1
  O  O61  1  0.16096472  0.57954124  0.25000000  1
  O  O62  1  0.83903528  0.07954124  0.25000000  1
  O  O63  1  0.16096472  0.92045876  0.75000000  1
  O  O64  1  0.96434914  0.14469232  0.75000000  1
  O  O65  1  0.03565086  0.85530768  0.25000000  1
  O  O66  1  0.96434914  0.35530768  0.25000000  1
  O  O67  1  0.03565086  0.64469232  0.75000000  1
