# generated using pymatgen
data_CeAl2Ni
_symmetry_space_group_name_H-M   'P 1'
_cell_length_a   4.14861452
_cell_length_b   5.51597021
_cell_length_c   6.86975593
_cell_angle_alpha   90.00000000
_cell_angle_beta   90.00000000
_cell_angle_gamma   112.08952299
_symmetry_Int_Tables_number   1
_chemical_formula_structural   CeAl2Ni
_chemical_formula_sum   'Ce2 Al4 Ni2'
_cell_volume   145.66572860
_cell_formula_units_Z   2
loop_
 _symmetry_equiv_pos_site_id
 _symmetry_equiv_pos_as_xyz
  1  'x, y, z'
loop_
 _atom_site_type_symbol
 _atom_site_label
 _atom_site_symmetry_multiplicity
 _atom_site_fract_x
 _atom_site_fract_y
 _atom_site_fract_z
 _atom_site_occupancy
  Ce  Ce0  1  0.43792830  0.87585759  0.25000000  1
  Ce  Ce1  1  0.56207170  0.12414241  0.75000000  1
  Al  Al2  1  0.15564497  0.31128994  0.05415383  1
  Al  Al3  1  0.84435503  0.68871006  0.94584617  1
  Al  Al4  1  0.84435503  0.68871006  0.55415383  1
  Al  Al5  1  0.15564497  0.31128994  0.44584617  1
  Ni  Ni6  1  0.71444934  0.42889868  0.25000000  1
  Ni  Ni7  1  0.28555066  0.57110132  0.75000000  1
