# generated using pymatgen
data_SiAg5O4
_symmetry_space_group_name_H-M   'P 1'
_cell_length_a   6.39625584
_cell_length_b   9.23085161
_cell_length_c   10.04700489
_cell_angle_alpha   90.00000000
_cell_angle_beta   90.00000000
_cell_angle_gamma   90.00000000
_symmetry_Int_Tables_number   1
_chemical_formula_structural   SiAg5O4
_chemical_formula_sum   'Si4 Ag20 O16'
_cell_volume   593.20418967
_cell_formula_units_Z   4
loop_
 _symmetry_equiv_pos_site_id
 _symmetry_equiv_pos_as_xyz
  1  'x, y, z'
loop_
 _atom_site_type_symbol
 _atom_site_label
 _atom_site_symmetry_multiplicity
 _atom_site_fract_x
 _atom_site_fract_y
 _atom_site_fract_z
 _atom_site_occupancy
  Si  Si0  1  0.50000000  0.23906487  0.11658929  1
  Si  Si1  1  0.50000000  0.76093513  0.88341071  1
  Si  Si2  1  -0.00000000  0.26093513  0.61658929  1
  Si  Si3  1  -0.00000000  0.73906487  0.38341071  1
  Ag  Ag4  1  0.25514342  0.39220929  0.37667618  1
  Ag  Ag5  1  0.25514342  0.60779071  0.62332382  1
  Ag  Ag6  1  0.24485658  0.10779071  0.87667618  1
  Ag  Ag7  1  0.24485658  0.89220929  0.12332382  1
  Ag  Ag8  1  0.74485658  0.60779071  0.62332382  1
  Ag  Ag9  1  0.74485658  0.39220929  0.37667618  1
  Ag  Ag10  1  0.75514342  0.89220929  0.12332382  1
  Ag  Ag11  1  0.75514342  0.10779071  0.87667618  1
  Ag  Ag12  1  0.27882372  0.06644933  0.37718372  1
  Ag  Ag13  1  0.27882372  0.93355067  0.62281628  1
  Ag  Ag14  1  0.22117628  0.43355067  0.87718372  1
  Ag  Ag15  1  0.22117628  0.56644933  0.12281628  1
  Ag  Ag16  1  0.72117628  0.93355067  0.62281628  1
  Ag  Ag17  1  0.72117628  0.06644933  0.37718372  1
  Ag  Ag18  1  0.77882372  0.56644933  0.12281628  1
  Ag  Ag19  1  0.77882372  0.43355067  0.87718372  1
  Ag  Ag20  1  0.50000000  0.79823854  0.40387541  1
  Ag  Ag21  1  0.50000000  0.20176146  0.59612459  1
  Ag  Ag22  1  -0.00000000  0.70176146  0.90387541  1
  Ag  Ag23  1  -0.00000000  0.29823854  0.09612459  1
  O  O24  1  -0.00000000  0.22859648  0.45263547  1
  O  O25  1  -0.00000000  0.77140352  0.54736453  1
  O  O26  1  0.50000000  0.27140352  0.95263547  1
  O  O27  1  0.50000000  0.72859648  0.04736453  1
  O  O28  1  -0.00000000  0.89368246  0.29808619  1
  O  O29  1  -0.00000000  0.10631754  0.70191381  1
  O  O30  1  0.50000000  0.60631754  0.79808619  1
  O  O31  1  0.50000000  0.39368246  0.20191381  1
  O  O32  1  0.28320568  0.14661143  0.15122326  1
  O  O33  1  0.28320568  0.85338857  0.84877674  1
  O  O34  1  0.21679432  0.35338857  0.65122326  1
  O  O35  1  0.21679432  0.64661143  0.34877674  1
  O  O36  1  0.71679432  0.85338857  0.84877674  1
  O  O37  1  0.71679432  0.14661143  0.15122326  1
  O  O38  1  0.78320568  0.64661143  0.34877674  1
  O  O39  1  0.78320568  0.35338857  0.65122326  1
