# generated using pymatgen
data_Rb3RuF6
_symmetry_space_group_name_H-M   'P 1'
_cell_length_a   8.24850640
_cell_length_b   6.93192689
_cell_length_c   7.24826117
_cell_angle_alpha   79.80156242
_cell_angle_beta   102.85469785
_cell_angle_gamma   124.62377775
_symmetry_Int_Tables_number   1
_chemical_formula_structural   Rb3RuF6
_chemical_formula_sum   'Rb3 Ru1 F6'
_cell_volume   331.83339294
_cell_formula_units_Z   1
loop_
 _symmetry_equiv_pos_site_id
 _symmetry_equiv_pos_as_xyz
  1  'x, y, z'
loop_
 _atom_site_type_symbol
 _atom_site_label
 _atom_site_symmetry_multiplicity
 _atom_site_fract_x
 _atom_site_fract_y
 _atom_site_fract_z
 _atom_site_occupancy
  Rb  Rb0  1  0.00000000  -0.00000000  0.50000000  1
  Rb  Rb1  1  0.50000000  0.50000000  0.00000000  1
  Rb  Rb2  1  0.00000000  0.50000000  0.00000000  1
  Ru  Ru3  1  0.00000000  -0.00000000  0.00000000  1
  F  F4  1  0.08031938  0.26619059  0.79279895  1
  F  F5  1  0.91968062  0.73380941  0.20720105  1
  F  F6  1  0.81267449  0.74765500  0.80678679  1
  F  F7  1  0.18732551  0.25234500  0.19321321  1
  F  F8  1  0.77105771  0.01046594  0.04410592  1
  F  F9  1  0.22894229  0.98953406  0.95589408  1
