# generated using pymatgen
data_ZnH9C4NO6
_symmetry_space_group_name_H-M   'P 1'
_cell_length_a   8.26925917
_cell_length_b   8.61490649
_cell_length_c   11.94190809
_cell_angle_alpha   90.00000000
_cell_angle_beta   90.00000000
_cell_angle_gamma   90.00000000
_symmetry_Int_Tables_number   1
_chemical_formula_structural   ZnH9C4NO6
_chemical_formula_sum   'Zn4 H36 C16 N4 O24'
_cell_volume   850.72833045
_cell_formula_units_Z   4
loop_
 _symmetry_equiv_pos_site_id
 _symmetry_equiv_pos_as_xyz
  1  'x, y, z'
loop_
 _atom_site_type_symbol
 _atom_site_label
 _atom_site_symmetry_multiplicity
 _atom_site_fract_x
 _atom_site_fract_y
 _atom_site_fract_z
 _atom_site_occupancy
  Zn  Zn0  1  0.50000000  0.50000000  0.50000000  1
  Zn  Zn1  1  0.00000000  -0.00000000  0.00000000  1
  Zn  Zn2  1  0.50000000  0.50000000  0.00000000  1
  Zn  Zn3  1  -0.00000000  -0.00000000  0.50000000  1
  H  H4  1  0.57657707  0.51676983  0.75000000  1
  H  H5  1  0.92342293  0.01676983  0.75000000  1
  H  H6  1  0.42342293  0.48323017  0.25000000  1
  H  H7  1  0.07657707  0.98323017  0.25000000  1
  H  H8  1  0.28530608  0.78789101  0.53643882  1
  H  H9  1  0.21469392  0.28789101  0.96356118  1
  H  H10  1  0.71469392  0.21210899  0.03643882  1
  H  H11  1  0.78530608  0.71210899  0.46356118  1
  H  H12  1  0.71469392  0.21210899  0.46356118  1
  H  H13  1  0.78530608  0.71210899  0.03643882  1
  H  H14  1  0.28530608  0.78789101  0.96356118  1
  H  H15  1  0.21469392  0.28789101  0.53643882  1
  H  H16  1  0.48865960  0.14551951  0.17915433  1
  H  H17  1  0.01134040  0.64551951  0.32084567  1
  H  H18  1  0.51134040  0.85448049  0.67915433  1
  H  H19  1  0.98865960  0.35448049  0.82084567  1
  H  H20  1  0.51134040  0.85448049  0.82084567  1
  H  H21  1  0.98865960  0.35448049  0.67915433  1
  H  H22  1  0.48865960  0.14551951  0.32084567  1
  H  H23  1  0.01134040  0.64551951  0.17915433  1
  H  H24  1  0.65680732  0.09062356  0.25000000  1
  H  H25  1  0.84319268  0.59062356  0.25000000  1
  H  H26  1  0.34319268  0.90937644  0.75000000  1
  H  H27  1  0.15680732  0.40937644  0.75000000  1
  H  H28  1  0.52819601  0.86432228  0.17538934  1
  H  H29  1  0.97180399  0.36432228  0.32461066  1
  H  H30  1  0.47180399  0.13567772  0.67538934  1
  H  H31  1  0.02819601  0.63567772  0.82461066  1
  H  H32  1  0.47180399  0.13567772  0.82461066  1
  H  H33  1  0.02819601  0.63567772  0.67538934  1
  H  H34  1  0.52819601  0.86432228  0.32461066  1
  H  H35  1  0.97180399  0.36432228  0.17538934  1
  H  H36  1  0.34820798  0.91684502  0.25000000  1
  H  H37  1  0.15179202  0.41684502  0.25000000  1
  H  H38  1  0.65179202  0.08315498  0.75000000  1
  H  H39  1  0.84820798  0.58315498  0.75000000  1
  C  C40  1  0.44659509  0.48741192  0.75000000  1
  C  C41  1  0.05340491  0.98741192  0.75000000  1
  C  C42  1  0.55340491  0.51258808  0.25000000  1
  C  C43  1  0.94659509  0.01258808  0.25000000  1
  C  C44  1  0.22151511  0.72079916  0.47132888  1
  C  C45  1  0.27848489  0.22079916  0.02867112  1
  C  C46  1  0.77848489  0.27920084  0.97132888  1
  C  C47  1  0.72151511  0.77920084  0.52867112  1
  C  C48  1  0.77848489  0.27920084  0.52867112  1
  C  C49  1  0.72151511  0.77920084  0.97132888  1
  C  C50  1  0.22151511  0.72079916  0.02867112  1
  C  C51  1  0.27848489  0.22079916  0.47132888  1
  C  C52  1  0.48018995  0.92143668  0.25000000  1
  C  C53  1  0.01981005  0.42143668  0.25000000  1
  C  C54  1  0.51981005  0.07856332  0.75000000  1
  C  C55  1  0.98018995  0.57856332  0.75000000  1
  N  N56  1  0.53135825  0.08653318  0.25000000  1
  N  N57  1  0.96864175  0.58653318  0.25000000  1
  N  N58  1  0.46864175  0.91346682  0.75000000  1
  N  N59  1  0.03135825  0.41346682  0.75000000  1
  O  O60  1  0.28555090  0.59723745  0.43460889  1
  O  O61  1  0.21444910  0.09723745  0.06539111  1
  O  O62  1  0.71444910  0.40276255  0.93460889  1
  O  O63  1  0.78555090  0.90276255  0.56539111  1
  O  O64  1  0.71444910  0.40276255  0.56539111  1
  O  O65  1  0.78555090  0.90276255  0.93460889  1
  O  O66  1  0.28555090  0.59723745  0.06539111  1
  O  O67  1  0.21444910  0.09723745  0.43460889  1
  O  O68  1  0.37505915  0.47084078  0.65639201  1
  O  O69  1  0.12494085  0.97084078  0.84360799  1
  O  O70  1  0.62494085  0.52915922  0.15639201  1
  O  O71  1  0.87505915  0.02915922  0.34360799  1
  O  O72  1  0.62494085  0.52915922  0.34360799  1
  O  O73  1  0.87505915  0.02915922  0.15639201  1
  O  O74  1  0.37505915  0.47084078  0.84360799  1
  O  O75  1  0.12494085  0.97084078  0.65639201  1
  O  O76  1  0.08569418  0.77361616  0.43701143  1
  O  O77  1  0.41430582  0.27361616  0.06298857  1
  O  O78  1  0.91430582  0.22638384  0.93701143  1
  O  O79  1  0.58569418  0.72638384  0.56298857  1
  O  O80  1  0.91430582  0.22638384  0.56298857  1
  O  O81  1  0.58569418  0.72638384  0.93701143  1
  O  O82  1  0.08569418  0.77361616  0.06298857  1
  O  O83  1  0.41430582  0.27361616  0.43701143  1
