# generated using pymatgen
data_InH24C4N4Cl7
_symmetry_space_group_name_H-M   'P 1'
_cell_length_a   7.75374725
_cell_length_b   16.59585668
_cell_length_c   16.74963466
_cell_angle_alpha   105.67760611
_cell_angle_beta   90.00000000
_cell_angle_gamma   90.00000000
_symmetry_Int_Tables_number   1
_chemical_formula_structural   InH24C4N4Cl7
_chemical_formula_sum   'In4 H96 C16 N16 Cl28'
_cell_volume   2075.15996225
_cell_formula_units_Z   4
loop_
 _symmetry_equiv_pos_site_id
 _symmetry_equiv_pos_as_xyz
  1  'x, y, z'
loop_
 _atom_site_type_symbol
 _atom_site_label
 _atom_site_symmetry_multiplicity
 _atom_site_fract_x
 _atom_site_fract_y
 _atom_site_fract_z
 _atom_site_occupancy
  In  In0  1  0.00000000  0.50000000  0.00000000  1
  In  In1  1  -0.00000000  0.00000000  0.50000000  1
  In  In2  1  0.00000000  0.50000000  0.50000000  1
  In  In3  1  0.00000000  0.00000000  0.00000000  1
  H  H4  1  0.53628124  0.63159612  0.16529378  1
  H  H5  1  0.46371876  0.36840388  0.83470622  1
  H  H6  1  0.53628124  0.86840388  0.33470622  1
  H  H7  1  0.46371876  0.13159612  0.66529378  1
  H  H8  1  0.37756208  0.56829548  0.11296044  1
  H  H9  1  0.62243792  0.43170452  0.88703956  1
  H  H10  1  0.37756208  0.93170452  0.38703956  1
  H  H11  1  0.62243792  0.06829548  0.61296044  1
  H  H12  1  0.58538275  0.54382777  0.09240034  1
  H  H13  1  0.41461725  0.45617223  0.90759966  1
  H  H14  1  0.58538275  0.95617223  0.40759966  1
  H  H15  1  0.41461725  0.04382777  0.59240034  1
  H  H16  1  0.47626267  0.45743476  0.17467775  1
  H  H17  1  0.52373733  0.54256524  0.82532225  1
  H  H18  1  0.47626267  0.04256524  0.32532225  1
  H  H19  1  0.52373733  0.95743476  0.67467775  1
  H  H20  1  0.39809734  0.54893311  0.24952032  1
  H  H21  1  0.60190266  0.45106689  0.75047968  1
  H  H22  1  0.39809734  0.95106689  0.25047968  1
  H  H23  1  0.60190266  0.04893311  0.74952032  1
  H  H24  1  0.62539967  0.53261502  0.23515465  1
  H  H25  1  0.37460033  0.46738498  0.76484535  1
  H  H26  1  0.62539967  0.96738498  0.26484535  1
  H  H27  1  0.37460033  0.03261502  0.73515465  1
  H  H28  1  0.57765032  0.60013322  0.56998717  1
  H  H29  1  0.42234968  0.39986678  0.43001283  1
  H  H30  1  0.57765032  0.89986678  0.93001283  1
  H  H31  1  0.42234968  0.10013322  0.06998717  1
  H  H32  1  0.37884284  0.60051934  0.53330678  1
  H  H33  1  0.62115716  0.39948066  0.46669322  1
  H  H34  1  0.37884284  0.89948066  0.96669322  1
  H  H35  1  0.62115716  0.10051934  0.03330678  1
  H  H36  1  0.42868268  0.66594159  0.62683046  1
  H  H37  1  0.57131732  0.33405841  0.37316954  1
  H  H38  1  0.42868268  0.83405841  0.87316954  1
  H  H39  1  0.57131732  0.16594159  0.12683046  1
  H  H40  1  0.40783631  0.74685905  0.52938913  1
  H  H41  1  0.59216369  0.25314095  0.47061087  1
  H  H42  1  0.40783631  0.75314095  0.97061087  1
  H  H43  1  0.59216369  0.24685905  0.02938913  1
  H  H44  1  0.55352009  0.67563163  0.46159106  1
  H  H45  1  0.44647991  0.32436837  0.53840894  1
  H  H46  1  0.55352009  0.82436837  0.03840894  1
  H  H47  1  0.44647991  0.17563163  0.96159106  1
  H  H48  1  0.62889281  0.74148433  0.55827833  1
  H  H49  1  0.37110719  0.25851567  0.44172167  1
  H  H50  1  0.62889281  0.75851567  0.94172167  1
  H  H51  1  0.37110719  0.24148433  0.05827833  1
  H  H52  1  0.11050522  0.60394310  0.83648506  1
  H  H53  1  0.88949478  0.39605690  0.16351494  1
  H  H54  1  0.11050522  0.89605690  0.66351494  1
  H  H55  1  0.88949478  0.10394310  0.33648506  1
  H  H56  1  0.16268750  0.66376223  0.77304830  1
  H  H57  1  0.83731250  0.33623777  0.22695170  1
  H  H58  1  0.16268750  0.83623777  0.72695170  1
  H  H59  1  0.83731250  0.16376223  0.27304830  1
  H  H60  1  0.09987866  0.56467824  0.73258994  1
  H  H61  1  0.90012134  0.43532176  0.26741006  1
  H  H62  1  0.09987866  0.93532176  0.76741006  1
  H  H63  1  0.90012134  0.06467824  0.23258994  1
  H  H64  1  0.81282155  0.59504052  0.79334419  1
  H  H65  1  0.18717845  0.40495948  0.20665581  1
  H  H66  1  0.81282155  0.90495948  0.70665581  1
  H  H67  1  0.18717845  0.09504052  0.29334419  1
  H  H68  1  0.86481672  0.65559808  0.72241878  1
  H  H69  1  0.13518328  0.34440192  0.27758122  1
  H  H70  1  0.86481672  0.84440192  0.77758122  1
  H  H71  1  0.13518328  0.15559808  0.22241878  1
  H  H72  1  0.87874149  0.70227447  0.83286386  1
  H  H73  1  0.12125851  0.29772553  0.16713614  1
  H  H74  1  0.87874149  0.79772553  0.66713614  1
  H  H75  1  0.12125851  0.20227447  0.33286386  1
  H  H76  1  0.90196515  0.67479782  0.40591822  1
  H  H77  1  0.09803485  0.32520218  0.59408178  1
  H  H78  1  0.90196515  0.82520218  0.09408178  1
  H  H79  1  0.09803485  0.17479782  0.90591822  1
  H  H80  1  0.85208206  0.72774565  0.33603945  1
  H  H81  1  0.14791794  0.27225435  0.66396055  1
  H  H82  1  0.85208206  0.77225435  0.16396055  1
  H  H83  1  0.14791794  0.22774565  0.83603945  1
  H  H84  1  0.92152182  0.77943148  0.42995656  1
  H  H85  1  0.07847818  0.22056852  0.57004344  1
  H  H86  1  0.92152182  0.72056852  0.07004344  1
  H  H87  1  0.07847818  0.27943148  0.92995656  1
  H  H88  1  0.12835607  0.65501140  0.30373366  1
  H  H89  1  0.87164393  0.34498860  0.69626634  1
  H  H90  1  0.12835607  0.84498860  0.19626634  1
  H  H91  1  0.87164393  0.15501140  0.80373366  1
  H  H92  1  0.20216324  0.70941840  0.40560166  1
  H  H93  1  0.79783676  0.29058160  0.59439834  1
  H  H94  1  0.20216324  0.79058160  0.09439834  1
  H  H95  1  0.79783676  0.20941840  0.90560166  1
  H  H96  1  0.15684449  0.76674905  0.33141751  1
  H  H97  1  0.84315551  0.23325095  0.66858249  1
  H  H98  1  0.15684449  0.73325095  0.16858249  1
  H  H99  1  0.84315551  0.26674905  0.83141751  1
  C  C100  1  0.49953863  0.52367413  0.20435882  1
  C  C101  1  0.50046137  0.47632587  0.79564118  1
  C  C102  1  0.49953863  0.97632587  0.29564118  1
  C  C103  1  0.50046137  0.02367413  0.70435882  1
  C  C104  1  0.51924735  0.70559865  0.52617970  1
  C  C105  1  0.48075265  0.29440135  0.47382030  1
  C  C106  1  0.51924735  0.79440135  0.97382030  1
  C  C107  1  0.48075265  0.20559865  0.02617970  1
  C  C108  1  0.89442137  0.64477232  0.78259396  1
  C  C109  1  0.10557863  0.35522768  0.21740604  1
  C  C110  1  0.89442137  0.85522768  0.71740604  1
  C  C111  1  0.10557863  0.14477232  0.28259396  1
  C  C112  1  0.12027057  0.71314161  0.35362099  1
  C  C113  1  0.87972943  0.28685839  0.64637901  1
  C  C114  1  0.12027057  0.78685839  0.14637901  1
  C  C115  1  0.87972943  0.21314161  0.85362099  1
  N  N116  1  0.49900936  0.56957991  0.13942734  1
  N  N117  1  0.50099064  0.43042009  0.86057266  1
  N  N118  1  0.49900936  0.93042009  0.36057266  1
  N  N119  1  0.50099064  0.06957991  0.63942734  1
  N  N120  1  0.47387267  0.63916313  0.56694188  1
  N  N121  1  0.52612733  0.36083687  0.43305812  1
  N  N122  1  0.47387267  0.86083687  0.93305812  1
  N  N123  1  0.52612733  0.13916313  0.06694188  1
  N  N124  1  0.07766415  0.61752887  0.78152854  1
  N  N125  1  0.92233585  0.38247113  0.21847146  1
  N  N126  1  0.07766415  0.88247113  0.71847146  1
  N  N127  1  0.92233585  0.11752887  0.28152854  1
  N  N128  1  0.93779318  0.72428621  0.38323345  1
  N  N129  1  0.06220682  0.27571379  0.61676655  1
  N  N130  1  0.93779318  0.77571379  0.11676655  1
  N  N131  1  0.06220682  0.22428621  0.88323345  1
  Cl  Cl132  1  0.23746166  0.39488727  0.00767309  1
  Cl  Cl133  1  0.76253834  0.60511273  0.99232691  1
  Cl  Cl134  1  0.23746166  0.10511273  0.49232691  1
  Cl  Cl135  1  0.76253834  0.89488727  0.50767309  1
  Cl  Cl136  1  0.76680093  0.40264534  0.03202004  1
  Cl  Cl137  1  0.23319907  0.59735466  0.96797996  1
  Cl  Cl138  1  0.76680093  0.09735466  0.46797996  1
  Cl  Cl139  1  0.23319907  0.90264534  0.53202004  1
  Cl  Cl140  1  0.96494832  0.43443787  0.84542554  1
  Cl  Cl141  1  0.03505168  0.56556213  0.15457446  1
  Cl  Cl142  1  0.96494832  0.06556213  0.65457446  1
  Cl  Cl143  1  0.03505168  0.93443787  0.34542554  1
  Cl  Cl144  1  0.98723218  0.34342184  0.43973087  1
  Cl  Cl145  1  0.01276782  0.65657816  0.56026913  1
  Cl  Cl146  1  0.98723218  0.15657816  0.06026913  1
  Cl  Cl147  1  0.01276782  0.84342184  0.93973087  1
  Cl  Cl148  1  0.19632890  0.47453719  0.61584401  1
  Cl  Cl149  1  0.80367110  0.52546281  0.38415599  1
  Cl  Cl150  1  0.19632890  0.02546281  0.88415599  1
  Cl  Cl151  1  0.80367110  0.97453719  0.11584401  1
  Cl  Cl152  1  0.72752639  0.49085038  0.58489768  1
  Cl  Cl153  1  0.27247361  0.50914962  0.41510232  1
  Cl  Cl154  1  0.72752639  0.00914962  0.91510232  1
  Cl  Cl155  1  0.27247361  0.99085038  0.08489768  1
  Cl  Cl156  1  0.64733700  0.75000000  0.25000000  1
  Cl  Cl157  1  0.35266300  0.25000000  0.75000000  1
  Cl  Cl158  1  0.34505322  0.75000000  0.75000000  1
  Cl  Cl159  1  0.65494678  0.25000000  0.25000000  1
