# generated using pymatgen
data_Tm3Ni11Ge4
_symmetry_space_group_name_H-M   'P 1'
_cell_length_a   8.26663534
_cell_length_b   8.26663534
_cell_length_c   8.53748394
_cell_angle_alpha   90.00000000
_cell_angle_beta   90.00000000
_cell_angle_gamma   119.99999859
_symmetry_Int_Tables_number   1
_chemical_formula_structural   Tm3Ni11Ge4
_chemical_formula_sum   'Tm6 Ni22 Ge8'
_cell_volume   505.26370068
_cell_formula_units_Z   2
loop_
 _symmetry_equiv_pos_site_id
 _symmetry_equiv_pos_as_xyz
  1  'x, y, z'
loop_
 _atom_site_type_symbol
 _atom_site_label
 _atom_site_symmetry_multiplicity
 _atom_site_fract_x
 _atom_site_fract_y
 _atom_site_fract_z
 _atom_site_occupancy
  Tm  Tm0  1  0.80443152  0.19556848  0.75000000  1
  Tm  Tm1  1  0.19556848  0.80443152  0.25000000  1
  Tm  Tm2  1  0.39113695  0.19556848  0.75000000  1
  Tm  Tm3  1  0.60886305  0.80443152  0.25000000  1
  Tm  Tm4  1  0.80443152  0.60886305  0.75000000  1
  Tm  Tm5  1  0.19556848  0.39113695  0.25000000  1
  Ni  Ni6  1  0.84358787  0.15641213  0.40461584  1
  Ni  Ni7  1  0.15641213  0.84358787  0.59538416  1
  Ni  Ni8  1  0.31282427  0.15641213  0.40461584  1
  Ni  Ni9  1  0.15641213  0.84358787  0.90461584  1
  Ni  Ni10  1  0.68717573  0.84358787  0.59538416  1
  Ni  Ni11  1  0.84358787  0.15641213  0.09538416  1
  Ni  Ni12  1  0.84358787  0.68717573  0.40461584  1
  Ni  Ni13  1  0.68717573  0.84358787  0.90461584  1
  Ni  Ni14  1  0.15641213  0.31282427  0.59538416  1
  Ni  Ni15  1  0.31282427  0.15641213  0.09538416  1
  Ni  Ni16  1  0.15641213  0.31282427  0.90461584  1
  Ni  Ni17  1  0.84358787  0.68717573  0.09538416  1
  Ni  Ni18  1  0.43496316  0.56503684  0.75000000  1
  Ni  Ni19  1  0.56503684  0.43496316  0.25000000  1
  Ni  Ni20  1  0.13007368  0.56503684  0.75000000  1
  Ni  Ni21  1  0.86992632  0.43496316  0.25000000  1
  Ni  Ni22  1  0.43496316  0.86992632  0.75000000  1
  Ni  Ni23  1  0.56503684  0.13007368  0.25000000  1
  Ni  Ni24  1  0.66666700  0.33333300  0.00222197  1
  Ni  Ni25  1  0.33333300  0.66666700  0.99777803  1
  Ni  Ni26  1  0.33333300  0.66666700  0.50222197  1
  Ni  Ni27  1  0.66666700  0.33333300  0.49777803  1
  Ge  Ge28  1  0.50000000  0.50000000  -0.00000000  1
  Ge  Ge29  1  0.00000000  0.50000000  -0.00000000  1
  Ge  Ge30  1  0.50000000  0.50000000  0.50000000  1
  Ge  Ge31  1  0.50000000  0.00000000  -0.00000000  1
  Ge  Ge32  1  0.00000000  0.50000000  0.50000000  1
  Ge  Ge33  1  0.50000000  0.00000000  0.50000000  1
  Ge  Ge34  1  0.00000000  0.00000000  0.75000000  1
  Ge  Ge35  1  0.00000000  0.00000000  0.25000000  1
