# generated using pymatgen
data_SnH12C6(NO2)2
_symmetry_space_group_name_H-M   'P 1'
_cell_length_a   9.48048034
_cell_length_b   9.48048034
_cell_length_c   15.53813763
_cell_angle_alpha   105.01677206
_cell_angle_beta   105.01677206
_cell_angle_gamma   99.99932457
_symmetry_Int_Tables_number   1
_chemical_formula_structural   SnH12C6(NO2)2
_chemical_formula_sum   'Sn4 H48 C24 N8 O16'
_cell_volume   1258.66344918
_cell_formula_units_Z   4
loop_
 _symmetry_equiv_pos_site_id
 _symmetry_equiv_pos_as_xyz
  1  'x, y, z'
loop_
 _atom_site_type_symbol
 _atom_site_label
 _atom_site_symmetry_multiplicity
 _atom_site_fract_x
 _atom_site_fract_y
 _atom_site_fract_z
 _atom_site_occupancy
  Sn  Sn0  1  0.36529522  0.96765866  0.83768148  1
  Sn  Sn1  1  0.03234134  0.63470478  0.66231852  1
  Sn  Sn2  1  0.63470478  0.03234134  0.16231852  1
  Sn  Sn3  1  0.96765866  0.36529522  0.33768148  1
  H  H4  1  0.85128249  0.46089749  0.06830454  1
  H  H5  1  0.53910251  0.14871751  0.43169546  1
  H  H6  1  0.14871751  0.53910251  0.93169546  1
  H  H7  1  0.46089749  0.85128249  0.56830454  1
  H  H8  1  0.71869113  0.56570258  0.09030738  1
  H  H9  1  0.43429742  0.28130887  0.40969262  1
  H  H10  1  0.28130887  0.43429742  0.90969262  1
  H  H11  1  0.56570258  0.71869113  0.59030738  1
  H  H12  1  0.69374109  0.37759765  0.09829581  1
  H  H13  1  0.62240235  0.30625891  0.40170419  1
  H  H14  1  0.30625891  0.62240235  0.90170419  1
  H  H15  1  0.37759765  0.69374109  0.59829581  1
  H  H16  1  0.75546987  0.49652106  0.88707913  1
  H  H17  1  0.50347894  0.24453013  0.61292087  1
  H  H18  1  0.24453013  0.50347894  0.11292087  1
  H  H19  1  0.49652106  0.75546987  0.38707913  1
  H  H20  1  0.64911452  0.60309176  0.94427987  1
  H  H21  1  0.39690824  0.35088548  0.55572013  1
  H  H22  1  0.35088548  0.39690824  0.05572013  1
  H  H23  1  0.60309176  0.64911452  0.44427987  1
  H  H24  1  0.55338242  0.44327954  0.84013154  1
  H  H25  1  0.55672046  0.44661758  0.65986846  1
  H  H26  1  0.44661758  0.55672046  0.15986846  1
  H  H27  1  0.44327954  0.55338242  0.34013154  1
  H  H28  1  0.08507783  0.28320124  0.71344086  1
  H  H29  1  0.71679876  0.91492217  0.78655914  1
  H  H30  1  0.91492217  0.71679876  0.28655914  1
  H  H31  1  0.28320124  0.08507783  0.21344086  1
  H  H32  1  0.22745490  0.19373001  0.68841913  1
  H  H33  1  0.80626999  0.77254510  0.81158087  1
  H  H34  1  0.77254510  0.80626999  0.31158087  1
  H  H35  1  0.19373001  0.22745490  0.18841913  1
  H  H36  1  0.10397330  0.24501581  0.59904585  1
  H  H37  1  0.75498419  0.89602670  0.90095415  1
  H  H38  1  0.89602670  0.75498419  0.40095415  1
  H  H39  1  0.24501581  0.10397330  0.09904585  1
  H  H40  1  0.81493746  0.12495682  0.64840456  1
  H  H41  1  0.87504318  0.18506254  0.85159544  1
  H  H42  1  0.18506254  0.87504318  0.35159544  1
  H  H43  1  0.12495682  0.81493746  0.14840456  1
  H  H44  1  0.83063368  0.09697107  0.53321769  1
  H  H45  1  0.90302893  0.16936632  0.96678231  1
  H  H46  1  0.16936632  0.90302893  0.46678231  1
  H  H47  1  0.09697107  0.83063368  0.03321769  1
  H  H48  1  0.77826739  0.93724760  0.57053898  1
  H  H49  1  0.06275240  0.22173261  0.92946102  1
  H  H50  1  0.22173261  0.06275240  0.42946102  1
  H  H51  1  0.93724760  0.77826739  0.07053898  1
  C  C52  1  0.54520570  0.24803879  0.92528349  1
  C  C53  1  0.75196121  0.45479430  0.57471651  1
  C  C54  1  0.45479430  0.75196121  0.07471651  1
  C  C55  1  0.24803879  0.54520570  0.42528349  1
  C  C56  1  0.73057264  0.45145611  0.06032059  1
  C  C57  1  0.54854389  0.26942736  0.43967941  1
  C  C58  1  0.26942736  0.54854389  0.93967941  1
  C  C59  1  0.45145611  0.73057264  0.56032059  1
  C  C60  1  0.64976767  0.48859849  0.90492645  1
  C  C61  1  0.51140151  0.35023233  0.59507355  1
  C  C62  1  0.35023233  0.51140151  0.09507355  1
  C  C63  1  0.48859849  0.64976767  0.40492645  1
  C  C64  1  0.05068642  0.93095223  0.64283014  1
  C  C65  1  0.06904777  0.94931358  0.85716986  1
  C  C66  1  0.94931358  0.06904777  0.35716986  1
  C  C67  1  0.93095223  0.05068642  0.14283014  1
  C  C68  1  0.11252662  0.20209856  0.65920906  1
  C  C69  1  0.79790144  0.88747338  0.84079094  1
  C  C70  1  0.88747338  0.79790144  0.34079094  1
  C  C71  1  0.20209856  0.11252662  0.15920906  1
  C  C72  1  0.84818460  0.05272050  0.59307216  1
  C  C73  1  0.94727950  0.15181540  0.90692784  1
  C  C74  1  0.15181540  0.94727950  0.40692784  1
  C  C75  1  0.05272050  0.84818460  0.09307216  1
  N  N76  1  0.63742899  0.39070277  0.96218153  1
  N  N77  1  0.60929723  0.36257101  0.53781847  1
  N  N78  1  0.36257101  0.60929723  0.03781847  1
  N  N79  1  0.39070277  0.63742899  0.46218153  1
  N  N80  1  0.00626592  0.05513622  0.62963782  1
  N  N81  1  0.94486378  0.99373408  0.87036218  1
  N  N82  1  0.99373408  0.94486378  0.37036218  1
  N  N83  1  0.05513622  0.00626592  0.12963782  1
  O  O84  1  0.53651050  0.16041469  0.97556253  1
  O  O85  1  0.83958531  0.46348950  0.52443747  1
  O  O86  1  0.46348950  0.83958531  0.02443747  1
  O  O87  1  0.16041469  0.53651050  0.47556253  1
  O  O88  1  0.46301192  0.19942444  0.83631044  1
  O  O89  1  0.80057556  0.53698808  0.66368956  1
  O  O90  1  0.53698808  0.80057556  0.16368956  1
  O  O91  1  0.19942444  0.46301192  0.33631044  1
  O  O92  1  0.18909401  0.93732086  0.68119307  1
  O  O93  1  0.06267914  0.81090599  0.81880693  1
  O  O94  1  0.81090599  0.06267914  0.31880693  1
  O  O95  1  0.93732086  0.18909401  0.18119307  1
  O  O96  1  0.94391747  0.80438223  0.61252583  1
  O  O97  1  0.19561777  0.05608253  0.88747417  1
  O  O98  1  0.05608253  0.19561777  0.38747417  1
  O  O99  1  0.80438223  0.94391747  0.11252583  1
