# generated using pymatgen
data_Tm2Cu(GeO4)2
_symmetry_space_group_name_H-M   'P 1'
_cell_length_a   5.12247134
_cell_length_b   8.10939860
_cell_length_c   8.84956483
_cell_angle_alpha   116.95681841
_cell_angle_beta   106.36303869
_cell_angle_gamma   90.96253411
_symmetry_Int_Tables_number   1
_chemical_formula_structural   Tm2Cu(GeO4)2
_chemical_formula_sum   'Tm4 Cu2 Ge4 O16'
_cell_volume   309.87814277
_cell_formula_units_Z   2
loop_
 _symmetry_equiv_pos_site_id
 _symmetry_equiv_pos_as_xyz
  1  'x, y, z'
loop_
 _atom_site_type_symbol
 _atom_site_label
 _atom_site_symmetry_multiplicity
 _atom_site_fract_x
 _atom_site_fract_y
 _atom_site_fract_z
 _atom_site_occupancy
  Tm  Tm0  1  0.11389494  0.30083254  0.76009020  1
  Tm  Tm1  1  0.35380474  0.54074235  0.23990980  1
  Tm  Tm2  1  0.36594988  0.04468392  0.24111962  1
  Tm  Tm3  1  0.12483026  0.80356430  0.75888038  1
  Cu  Cu4  1  0.54693656  0.92593521  0.58521939  1
  Cu  Cu5  1  0.96171718  0.34071582  0.41478061  1
  Ge  Ge6  1  0.78937149  0.16246094  0.00000000  1
  Ge  Ge7  1  0.97121230  0.88836857  0.42111755  1
  Ge  Ge8  1  0.55009476  0.46725102  0.57888245  1
  Ge  Ge9  1  0.68518017  0.66661450  1.00000000  1
  O  O10  1  0.17376067  0.09731207  0.46881555  1
  O  O11  1  0.70494511  0.62849651  0.53118445  1
  O  O12  1  0.47791171  0.06296947  0.81246416  1
  O  O13  1  0.66544755  0.25050531  0.18753584  1
  O  O14  1  0.47576108  0.49011178  0.00000000  1
  O  O15  1  0.19495213  0.74250111  0.48256108  1
  O  O16  1  0.71239104  0.25994002  0.51743892  1
  O  O17  1  0.00487359  0.75675025  0.18380083  1
  O  O18  1  0.82107276  0.57294942  0.81619917  1
  O  O19  1  0.00394257  0.33861574  1.00000000  1
  O  O20  1  0.47616795  0.83800456  0.00000000  1
  O  O21  1  0.59366283  0.83811542  0.33706252  1
  O  O22  1  0.25660032  0.50105291  0.66293748  1
  O  O23  1  0.01259378  0.99513440  1.00000000  1
  O  O24  1  0.93624033  0.00556394  0.66035602  1
  O  O25  1  0.27588431  0.34520792  0.33964398  1
