# generated using pymatgen
data_Y(Fe2Ge)2
_symmetry_space_group_name_H-M   'P 1'
_cell_length_a   3.75465968
_cell_length_b   7.47748726
_cell_length_c   7.47748726
_cell_angle_alpha   90.00000000
_cell_angle_beta   90.00000000
_cell_angle_gamma   90.00000000
_symmetry_Int_Tables_number   1
_chemical_formula_structural   Y(Fe2Ge)2
_chemical_formula_sum   'Y2 Fe8 Ge4'
_cell_volume   209.93359479
_cell_formula_units_Z   2
loop_
 _symmetry_equiv_pos_site_id
 _symmetry_equiv_pos_as_xyz
  1  'x, y, z'
loop_
 _atom_site_type_symbol
 _atom_site_label
 _atom_site_symmetry_multiplicity
 _atom_site_fract_x
 _atom_site_fract_y
 _atom_site_fract_z
 _atom_site_occupancy
  Y  Y0  1  -0.00000000  0.00000000  0.00000000  1
  Y  Y1  1  0.50000000  0.50000000  0.50000000  1
  Fe  Fe2  1  -0.00000000  0.14433925  0.58708668  1
  Fe  Fe3  1  -0.00000000  0.85566075  0.41291332  1
  Fe  Fe4  1  0.50000000  0.91291332  0.64433925  1
  Fe  Fe5  1  0.50000000  0.35566075  0.08708668  1
  Fe  Fe6  1  0.50000000  0.08708668  0.35566075  1
  Fe  Fe7  1  0.50000000  0.64433925  0.91291332  1
  Fe  Fe8  1  -0.00000000  0.58708668  0.14433925  1
  Fe  Fe9  1  0.00000000  0.41291332  0.85566075  1
  Ge  Ge10  1  0.00000000  0.28475193  0.28475193  1
  Ge  Ge11  1  0.00000000  0.71524807  0.71524807  1
  Ge  Ge12  1  0.50000000  0.21524807  0.78475193  1
  Ge  Ge13  1  0.50000000  0.78475193  0.21524807  1
