# generated using pymatgen
data_Yb3(CuSn)4
_symmetry_space_group_name_H-M   'P 1'
_cell_length_a   4.53233458
_cell_length_b   7.07256820
_cell_length_c   8.43727798
_cell_angle_alpha   114.77943195
_cell_angle_beta   105.58036983
_cell_angle_gamma   90.00000000
_symmetry_Int_Tables_number   1
_chemical_formula_structural   Yb3(CuSn)4
_chemical_formula_sum   'Yb3 Cu4 Sn4'
_cell_volume   234.56652677
_cell_formula_units_Z   1
loop_
 _symmetry_equiv_pos_site_id
 _symmetry_equiv_pos_as_xyz
  1  'x, y, z'
loop_
 _atom_site_type_symbol
 _atom_site_label
 _atom_site_symmetry_multiplicity
 _atom_site_fract_x
 _atom_site_fract_y
 _atom_site_fract_z
 _atom_site_occupancy
  Yb  Yb0  1  0.86753614  0.36753614  0.73507229  1
  Yb  Yb1  1  0.13246386  0.63246386  0.26492771  1
  Yb  Yb2  1  -0.00000000  -0.00000000  -0.00000000  1
  Cu  Cu3  1  0.32961298  0.64240968  0.65922597  1
  Cu  Cu4  1  0.67038702  0.35759032  0.34077403  1
  Cu  Cu5  1  0.32961298  0.01681628  0.65922597  1
  Cu  Cu6  1  0.67038702  0.98318372  0.34077403  1
  Sn  Sn7  1  0.21770895  0.21770895  0.43541789  1
  Sn  Sn8  1  0.78229105  0.78229105  0.56458211  1
  Sn  Sn9  1  0.50000000  0.69898580  -0.00000000  1
  Sn  Sn10  1  0.50000000  0.30101420  -0.00000000  1
