# generated using pymatgen
data_Tm(Co2Ge)2
_symmetry_space_group_name_H-M   'P 1'
_cell_length_a   3.70580486
_cell_length_b   7.22464538
_cell_length_c   7.22464538
_cell_angle_alpha   90.00000000
_cell_angle_beta   90.00000000
_cell_angle_gamma   90.00000000
_symmetry_Int_Tables_number   1
_chemical_formula_structural   Tm(Co2Ge)2
_chemical_formula_sum   'Tm2 Co8 Ge4'
_cell_volume   193.42634078
_cell_formula_units_Z   2
loop_
 _symmetry_equiv_pos_site_id
 _symmetry_equiv_pos_as_xyz
  1  'x, y, z'
loop_
 _atom_site_type_symbol
 _atom_site_label
 _atom_site_symmetry_multiplicity
 _atom_site_fract_x
 _atom_site_fract_y
 _atom_site_fract_z
 _atom_site_occupancy
  Tm  Tm0  1  0.00000000  -0.00000000  -0.00000000  1
  Tm  Tm1  1  0.50000000  0.50000000  0.50000000  1
  Co  Co2  1  0.00000000  0.14633995  0.58212640  1
  Co  Co3  1  -0.00000000  0.85366005  0.41787360  1
  Co  Co4  1  0.50000000  0.91787360  0.64633995  1
  Co  Co5  1  0.50000000  0.35366005  0.08212640  1
  Co  Co6  1  0.50000000  0.08212640  0.35366005  1
  Co  Co7  1  0.50000000  0.64633995  0.91787360  1
  Co  Co8  1  -0.00000000  0.58212640  0.14633995  1
  Co  Co9  1  0.00000000  0.41787360  0.85366005  1
  Ge  Ge10  1  0.00000000  0.27824008  0.27824008  1
  Ge  Ge11  1  -0.00000000  0.72175992  0.72175992  1
  Ge  Ge12  1  0.50000000  0.22175992  0.77824008  1
  Ge  Ge13  1  0.50000000  0.77824008  0.22175992  1
