# generated using pymatgen
data_TlGa(SeO4)2
_symmetry_space_group_name_H-M   'P 1'
_cell_length_a   5.12810186
_cell_length_b   5.12810186
_cell_length_c   9.08883274
_cell_angle_alpha   90.00000000
_cell_angle_beta   90.00000000
_cell_angle_gamma   120.00000616
_symmetry_Int_Tables_number   1
_chemical_formula_structural   TlGa(SeO4)2
_chemical_formula_sum   'Tl1 Ga1 Se2 O8'
_cell_volume   206.99125689
_cell_formula_units_Z   1
loop_
 _symmetry_equiv_pos_site_id
 _symmetry_equiv_pos_as_xyz
  1  'x, y, z'
loop_
 _atom_site_type_symbol
 _atom_site_label
 _atom_site_symmetry_multiplicity
 _atom_site_fract_x
 _atom_site_fract_y
 _atom_site_fract_z
 _atom_site_occupancy
  Tl  Tl0  1  -0.00000000  -0.00000000  0.50000000  1
  Ga  Ga1  1  -0.00000000  -0.00000000  0.00000000  1
  Se  Se2  1  0.66666700  0.33333300  0.79879816  1
  Se  Se3  1  0.33333300  0.66666700  0.20120184  1
  O  O4  1  0.93402862  0.25884256  0.85645818  1
  O  O5  1  0.32481393  0.06597138  0.85645818  1
  O  O6  1  0.67518607  0.74115744  0.14354182  1
  O  O7  1  0.74115744  0.67518607  0.85645818  1
  O  O8  1  0.25884256  0.93402862  0.14354182  1
  O  O9  1  0.06597138  0.32481393  0.14354182  1
  O  O10  1  0.66666700  0.33333300  0.61702249  1
  O  O11  1  0.33333300  0.66666700  0.38297751  1
