# generated using pymatgen
data_SiH14C4S2(N4F3)2
_symmetry_space_group_name_H-M   'P 1'
_cell_length_a   7.27986238
_cell_length_b   8.20086156
_cell_length_c   8.04156584
_cell_angle_alpha   87.07939689
_cell_angle_beta   86.67535659
_cell_angle_gamma   59.26985090
_symmetry_Int_Tables_number   1
_chemical_formula_structural   SiH14C4S2(N4F3)2
_chemical_formula_sum   'Si1 H14 C4 S2 N8 F6'
_cell_volume   411.85633410
_cell_formula_units_Z   1
loop_
 _symmetry_equiv_pos_site_id
 _symmetry_equiv_pos_as_xyz
  1  'x, y, z'
loop_
 _atom_site_type_symbol
 _atom_site_label
 _atom_site_symmetry_multiplicity
 _atom_site_fract_x
 _atom_site_fract_y
 _atom_site_fract_z
 _atom_site_occupancy
  Si  Si0  1  0.50000000  0.50000000  0.00000000  1
  H  H1  1  0.87448986  0.36099167  0.22732799  1
  H  H2  1  0.12551014  0.63900833  0.77267201  1
  H  H3  1  0.22441480  0.57390344  0.35899902  1
  H  H4  1  0.77558520  0.42609656  0.64100098  1
  H  H5  1  0.65940316  0.03811907  0.62518921  1
  H  H6  1  0.34059684  0.96188093  0.37481079  1
  H  H7  1  0.21987840  0.02782989  0.94835100  1
  H  H8  1  0.78012160  0.97217011  0.05164900  1
  H  H9  1  0.30777924  0.50374703  0.56531385  1
  H  H10  1  0.69222076  0.49625297  0.43468615  1
  H  H11  1  0.41985671  0.85214626  0.17467137  1
  H  H12  1  0.58014329  0.14785374  0.82532863  1
  H  H13  1  0.98489141  0.24762449  0.97449913  1
  H  H14  1  0.01510859  0.75237551  0.02550087  1
  C  C15  1  0.15808047  0.11746304  0.18511213  1
  C  C16  1  0.84191953  0.88253696  0.81488787  1
  C  C17  1  0.00580434  0.73553817  0.54064577  1
  C  C18  1  0.99419566  0.26446183  0.45935423  1
  S  S19  1  0.18291369  0.11268945  0.58927849  1
  S  S20  1  0.81708631  0.88731055  0.41072151  1
  N  N21  1  0.67085101  0.03270346  0.75324889  1
  N  N22  1  0.32914899  0.96729654  0.24675111  1
  N  N23  1  0.19283092  0.59022564  0.48439576  1
  N  N24  1  0.80716908  0.40977436  0.51560424  1
  N  N25  1  0.01034626  0.25909709  0.28634130  1
  N  N26  1  0.98965374  0.74090291  0.71365870  1
  N  N27  1  0.12358665  0.13910177  0.02278869  1
  N  N28  1  0.87641335  0.86089823  0.97721131  1
  F  F29  1  0.26522660  0.56266637  0.11264036  1
  F  F30  1  0.73477340  0.43733363  0.88735964  1
  F  F31  1  0.59369562  0.26676675  0.05029527  1
  F  F32  1  0.40630438  0.73323325  0.94970473  1
  F  F33  1  0.61048903  0.52385669  0.17725377  1
  F  F34  1  0.38951097  0.47614331  0.82274623  1
