# generated using pymatgen
data_Tl2S2O3
_symmetry_space_group_name_H-M   'P 1'
_cell_length_a   6.31686048
_cell_length_b   8.83506838
_cell_length_c   10.79850545
_cell_angle_alpha   90.00000000
_cell_angle_beta   90.00000000
_cell_angle_gamma   90.00000000
_symmetry_Int_Tables_number   1
_chemical_formula_structural   Tl2S2O3
_chemical_formula_sum   'Tl8 S8 O12'
_cell_volume   602.66344763
_cell_formula_units_Z   4
loop_
 _symmetry_equiv_pos_site_id
 _symmetry_equiv_pos_as_xyz
  1  'x, y, z'
loop_
 _atom_site_type_symbol
 _atom_site_label
 _atom_site_symmetry_multiplicity
 _atom_site_fract_x
 _atom_site_fract_y
 _atom_site_fract_z
 _atom_site_occupancy
  Tl  Tl0  1  0.75000000  0.84680697  0.89506123  1
  Tl  Tl1  1  0.25000000  0.15319303  0.10493877  1
  Tl  Tl2  1  0.25000000  0.65319303  0.39506123  1
  Tl  Tl3  1  0.75000000  0.34680697  0.60493877  1
  Tl  Tl4  1  0.75000000  0.01753752  0.31551679  1
  Tl  Tl5  1  0.25000000  0.98246248  0.68448321  1
  Tl  Tl6  1  0.25000000  0.48246248  0.81551679  1
  Tl  Tl7  1  0.75000000  0.51753752  0.18448321  1
  S  S8  1  0.75000000  0.96826823  0.61348750  1
  S  S9  1  0.25000000  0.03173177  0.38651250  1
  S  S10  1  0.25000000  0.53173177  0.11348750  1
  S  S11  1  0.75000000  0.46826823  0.88651250  1
  S  S12  1  0.75000000  0.74317911  0.56487958  1
  S  S13  1  0.25000000  0.25682089  0.43512042  1
  S  S14  1  0.25000000  0.75682089  0.06487958  1
  S  S15  1  0.75000000  0.24317911  0.93512042  1
  O  O16  1  0.75000000  0.73205083  0.42678566  1
  O  O17  1  0.25000000  0.26794917  0.57321434  1
  O  O18  1  0.25000000  0.76794917  0.92678566  1
  O  O19  1  0.75000000  0.23205083  0.07321434  1
  O  O20  1  0.94442574  0.67391109  0.61724063  1
  O  O21  1  0.05557426  0.32608891  0.38275937  1
  O  O22  1  0.05557426  0.82608891  0.11724063  1
  O  O23  1  0.44442574  0.32608891  0.38275937  1
  O  O24  1  0.94442574  0.17391109  0.88275937  1
  O  O25  1  0.55557426  0.67391109  0.61724063  1
  O  O26  1  0.55557426  0.17391109  0.88275937  1
  O  O27  1  0.44442574  0.82608891  0.11724063  1
