# generated using pymatgen
data_Sr2Mg3Al
_symmetry_space_group_name_H-M   'P 1'
_cell_length_a   6.23677249
_cell_length_b   6.23677249
_cell_length_c   20.81458806
_cell_angle_alpha   90.00000000
_cell_angle_beta   90.00000000
_cell_angle_gamma   120.00000121
_symmetry_Int_Tables_number   1
_chemical_formula_structural   Sr2Mg3Al
_chemical_formula_sum   'Sr8 Mg12 Al4'
_cell_volume   701.16180562
_cell_formula_units_Z   4
loop_
 _symmetry_equiv_pos_site_id
 _symmetry_equiv_pos_as_xyz
  1  'x, y, z'
loop_
 _atom_site_type_symbol
 _atom_site_label
 _atom_site_symmetry_multiplicity
 _atom_site_fract_x
 _atom_site_fract_y
 _atom_site_fract_z
 _atom_site_occupancy
  Sr  Sr0  1  0.66666700  0.33333300  0.34486168  1
  Sr  Sr1  1  0.33333300  0.66666700  0.65513832  1
  Sr  Sr2  1  0.33333300  0.66666700  0.84486168  1
  Sr  Sr3  1  0.66666700  0.33333300  0.15513832  1
  Sr  Sr4  1  -0.00000000  0.00000000  0.90341640  1
  Sr  Sr5  1  -0.00000000  0.00000000  0.09658360  1
  Sr  Sr6  1  -0.00000000  0.00000000  0.40341640  1
  Sr  Sr7  1  -0.00000000  0.00000000  0.59658360  1
  Mg  Mg8  1  0.83225352  0.16774648  0.75000000  1
  Mg  Mg9  1  0.16774648  0.83225352  0.25000000  1
  Mg  Mg10  1  0.33549296  0.16774648  0.75000000  1
  Mg  Mg11  1  0.66450704  0.83225352  0.25000000  1
  Mg  Mg12  1  0.83225352  0.66450704  0.75000000  1
  Mg  Mg13  1  0.16774648  0.33549296  0.25000000  1
  Mg  Mg14  1  0.50000000  0.50000000  -0.00000000  1
  Mg  Mg15  1  -0.00000000  0.50000000  -0.00000000  1
  Mg  Mg16  1  0.50000000  0.50000000  0.50000000  1
  Mg  Mg17  1  0.50000000  0.00000000  -0.00000000  1
  Mg  Mg18  1  -0.00000000  0.50000000  0.50000000  1
  Mg  Mg19  1  0.50000000  0.00000000  0.50000000  1
  Al  Al20  1  0.66666700  0.33333300  0.86911734  1
  Al  Al21  1  0.33333300  0.66666700  0.13088266  1
  Al  Al22  1  0.33333300  0.66666700  0.36911734  1
  Al  Al23  1  0.66666700  0.33333300  0.63088266  1
