# generated using pymatgen
data_SrZn2Fe16O27
_symmetry_space_group_name_H-M   'P 1'
_cell_length_a   6.00978234
_cell_length_b   6.00978234
_cell_length_c   33.28514557
_cell_angle_alpha   90.00000000
_cell_angle_beta   90.00000000
_cell_angle_gamma   120.00000130
_symmetry_Int_Tables_number   1
_chemical_formula_structural   SrZn2Fe16O27
_chemical_formula_sum   'Sr2 Zn4 Fe32 O54'
_cell_volume   1041.11468606
_cell_formula_units_Z   2
loop_
 _symmetry_equiv_pos_site_id
 _symmetry_equiv_pos_as_xyz
  1  'x, y, z'
loop_
 _atom_site_type_symbol
 _atom_site_label
 _atom_site_symmetry_multiplicity
 _atom_site_fract_x
 _atom_site_fract_y
 _atom_site_fract_z
 _atom_site_occupancy
  Sr  Sr0  1  0.00000000  0.00000000  0.75000000  1
  Sr  Sr1  1  0.00000000  0.00000000  0.25000000  1
  Zn  Zn2  1  0.00000000  0.00000000  0.94244258  1
  Zn  Zn3  1  0.00000000  0.00000000  0.05755742  1
  Zn  Zn4  1  0.00000000  0.00000000  0.44244258  1
  Zn  Zn5  1  0.00000000  0.00000000  0.55755742  1
  Fe  Fe6  1  0.66666700  0.33333300  0.40536227  1
  Fe  Fe7  1  0.33333300  0.66666700  0.59463773  1
  Fe  Fe8  1  0.33333300  0.66666700  0.90536227  1
  Fe  Fe9  1  0.66666700  0.33333300  0.09463773  1
  Fe  Fe10  1  0.83613283  0.16386717  0.84873843  1
  Fe  Fe11  1  0.16386717  0.83613283  0.15126157  1
  Fe  Fe12  1  0.32773434  0.16386717  0.84873843  1
  Fe  Fe13  1  0.16386717  0.83613283  0.34873843  1
  Fe  Fe14  1  0.67226566  0.83613283  0.15126157  1
  Fe  Fe15  1  0.83613283  0.16386717  0.65126157  1
  Fe  Fe16  1  0.83613283  0.67226566  0.84873843  1
  Fe  Fe17  1  0.67226566  0.83613283  0.34873843  1
  Fe  Fe18  1  0.16386717  0.32773434  0.15126157  1
  Fe  Fe19  1  0.32773434  0.16386717  0.65126157  1
  Fe  Fe20  1  0.16386717  0.32773434  0.34873843  1
  Fe  Fe21  1  0.83613283  0.67226566  0.65126157  1
  Fe  Fe22  1  0.66666700  0.33333300  0.75000000  1
  Fe  Fe23  1  0.33333300  0.66666700  0.25000000  1
  Fe  Fe24  1  0.66666700  0.33333300  0.92599003  1
  Fe  Fe25  1  0.33333300  0.66666700  0.07400997  1
  Fe  Fe26  1  0.33333300  0.66666700  0.42599003  1
  Fe  Fe27  1  0.66666700  0.33333300  0.57400997  1
  Fe  Fe28  1  0.66666700  0.33333300  0.29126840  1
  Fe  Fe29  1  0.33333300  0.66666700  0.70873160  1
  Fe  Fe30  1  0.33333300  0.66666700  0.79126840  1
  Fe  Fe31  1  0.66666700  0.33333300  0.20873160  1
  Fe  Fe32  1  0.50000000  0.50000000  -0.00000000  1
  Fe  Fe33  1  0.00000000  0.50000000  -0.00000000  1
  Fe  Fe34  1  0.50000000  0.50000000  0.50000000  1
  Fe  Fe35  1  0.50000000  0.00000000  -0.00000000  1
  Fe  Fe36  1  0.00000000  0.50000000  0.50000000  1
  Fe  Fe37  1  0.50000000  0.00000000  0.50000000  1
  O  O38  1  0.81959615  0.18040385  0.96512195  1
  O  O39  1  0.18040385  0.81959615  0.03487805  1
  O  O40  1  0.36080770  0.18040385  0.96512195  1
  O  O41  1  0.18040385  0.81959615  0.46512195  1
  O  O42  1  0.63919230  0.81959615  0.03487805  1
  O  O43  1  0.81959615  0.18040385  0.53487805  1
  O  O44  1  0.81959615  0.63919230  0.96512195  1
  O  O45  1  0.63919230  0.81959615  0.46512195  1
  O  O46  1  0.18040385  0.36080770  0.03487805  1
  O  O47  1  0.36080770  0.18040385  0.53487805  1
  O  O48  1  0.18040385  0.36080770  0.46512195  1
  O  O49  1  0.81959615  0.63919230  0.53487805  1
  O  O50  1  0.48451675  0.51548325  0.75000000  1
  O  O51  1  0.51548325  0.48451675  0.25000000  1
  O  O52  1  0.03096651  0.51548325  0.75000000  1
  O  O53  1  0.96903349  0.48451675  0.25000000  1
  O  O54  1  0.48451675  0.96903349  0.75000000  1
  O  O55  1  0.51548325  0.03096651  0.25000000  1
  O  O56  1  0.83727119  0.16272881  0.31935951  1
  O  O57  1  0.16272881  0.83727119  0.68064049  1
  O  O58  1  0.32545762  0.16272881  0.31935951  1
  O  O59  1  0.16272881  0.83727119  0.81935951  1
  O  O60  1  0.67454238  0.83727119  0.68064049  1
  O  O61  1  0.83727119  0.16272881  0.18064049  1
  O  O62  1  0.83727119  0.67454238  0.31935951  1
  O  O63  1  0.67454238  0.83727119  0.81935951  1
  O  O64  1  0.16272881  0.32545762  0.68064049  1
  O  O65  1  0.32545762  0.16272881  0.18064049  1
  O  O66  1  0.16272881  0.32545762  0.81935951  1
  O  O67  1  0.83727119  0.67454238  0.18064049  1
  O  O68  1  0.66666700  0.33333300  0.46528170  1
  O  O69  1  0.33333300  0.66666700  0.53471830  1
  O  O70  1  0.33333300  0.66666700  0.96528170  1
  O  O71  1  0.66666700  0.33333300  0.03471830  1
  O  O72  1  0.51125131  0.48874869  0.88940042  1
  O  O73  1  0.48874869  0.51125131  0.11059958  1
  O  O74  1  0.97749738  0.48874869  0.88940042  1
  O  O75  1  0.48874869  0.51125131  0.38940042  1
  O  O76  1  0.02250262  0.51125131  0.11059958  1
  O  O77  1  0.51125131  0.48874869  0.61059958  1
  O  O78  1  0.51125131  0.02250262  0.88940042  1
  O  O79  1  0.02250262  0.51125131  0.38940042  1
  O  O80  1  0.48874869  0.97749738  0.11059958  1
  O  O81  1  0.97749738  0.48874869  0.61059958  1
  O  O82  1  0.48874869  0.97749738  0.38940042  1
  O  O83  1  0.51125131  0.02250262  0.61059958  1
  O  O84  1  0.00000000  0.00000000  0.88368759  1
  O  O85  1  0.00000000  0.00000000  0.11631241  1
  O  O86  1  0.00000000  0.00000000  0.38368759  1
  O  O87  1  0.00000000  0.00000000  0.61631241  1
  O  O88  1  0.66666700  0.33333300  0.81960913  1
  O  O89  1  0.33333300  0.66666700  0.18039087  1
  O  O90  1  0.33333300  0.66666700  0.31960913  1
  O  O91  1  0.66666700  0.33333300  0.68039087  1
