# generated using pymatgen
data_TbCrSe3
_symmetry_space_group_name_H-M   'P 1'
_cell_length_a   3.90254240
_cell_length_b   8.22159649
_cell_length_c   13.35108607
_cell_angle_alpha   90.00000000
_cell_angle_beta   90.00000000
_cell_angle_gamma   90.00000000
_symmetry_Int_Tables_number   1
_chemical_formula_structural   TbCrSe3
_chemical_formula_sum   'Tb4 Cr4 Se12'
_cell_volume   428.37131748
_cell_formula_units_Z   4
loop_
 _symmetry_equiv_pos_site_id
 _symmetry_equiv_pos_as_xyz
  1  'x, y, z'
loop_
 _atom_site_type_symbol
 _atom_site_label
 _atom_site_symmetry_multiplicity
 _atom_site_fract_x
 _atom_site_fract_y
 _atom_site_fract_z
 _atom_site_occupancy
  Tb  Tb0  1  0.75000000  0.57941433  0.32841791  1
  Tb  Tb1  1  0.25000000  0.42058567  0.67158209  1
  Tb  Tb2  1  0.25000000  0.92058567  0.82841791  1
  Tb  Tb3  1  0.75000000  0.07941433  0.17158209  1
  Cr  Cr4  1  0.75000000  0.83636138  0.54914215  1
  Cr  Cr5  1  0.25000000  0.16363862  0.45085785  1
  Cr  Cr6  1  0.25000000  0.66363862  0.04914215  1
  Cr  Cr7  1  0.75000000  0.33636138  0.95085785  1
  Se  Se8  1  0.75000000  0.99207363  0.38952356  1
  Se  Se9  1  0.25000000  0.00792637  0.61047644  1
  Se  Se10  1  0.25000000  0.50792637  0.88952356  1
  Se  Se11  1  0.75000000  0.49207363  0.11047644  1
  Se  Se12  1  0.75000000  0.84664360  0.99222056  1
  Se  Se13  1  0.25000000  0.15335640  0.00777944  1
  Se  Se14  1  0.25000000  0.65335640  0.49222056  1
  Se  Se15  1  0.75000000  0.34664360  0.50777944  1
  Se  Se16  1  0.75000000  0.69863271  0.71646782  1
  Se  Se17  1  0.25000000  0.30136729  0.28353218  1
  Se  Se18  1  0.25000000  0.80136729  0.21646782  1
  Se  Se19  1  0.75000000  0.19863271  0.78353218  1
