# generated using pymatgen
data_RbTm(WO4)2
_symmetry_space_group_name_H-M   'P 1'
_cell_length_a   6.08955747
_cell_length_b   6.08955747
_cell_length_c   8.06267099
_cell_angle_alpha   90.00000000
_cell_angle_beta   90.00000000
_cell_angle_gamma   120.00000053
_symmetry_Int_Tables_number   1
_chemical_formula_structural   RbTm(WO4)2
_chemical_formula_sum   'Rb1 Tm1 W2 O8'
_cell_volume   258.92920282
_cell_formula_units_Z   1
loop_
 _symmetry_equiv_pos_site_id
 _symmetry_equiv_pos_as_xyz
  1  'x, y, z'
loop_
 _atom_site_type_symbol
 _atom_site_label
 _atom_site_symmetry_multiplicity
 _atom_site_fract_x
 _atom_site_fract_y
 _atom_site_fract_z
 _atom_site_occupancy
  Rb  Rb0  1  -0.00000000  -0.00000000  0.00000000  1
  Tm  Tm1  1  -0.00000000  -0.00000000  0.50000000  1
  W  W2  1  0.66666700  0.33333300  0.73365312  1
  W  W3  1  0.33333300  0.66666700  0.26634688  1
  O  O4  1  0.83157189  0.66314378  0.66349596  1
  O  O5  1  0.16842811  0.33685622  0.33650404  1
  O  O6  1  0.83157189  0.16842811  0.66349596  1
  O  O7  1  0.16842811  0.83157189  0.33650404  1
  O  O8  1  0.33685622  0.16842811  0.66349596  1
  O  O9  1  0.66314378  0.83157189  0.33650404  1
  O  O10  1  0.66666700  0.33333300  0.95343391  1
  O  O11  1  0.33333300  0.66666700  0.04656609  1
