# generated using pymatgen
data_Ta5Si3N
_symmetry_space_group_name_H-M   'P 1'
_cell_length_a   5.41865690
_cell_length_b   7.47283676
_cell_length_c   7.47283676
_cell_angle_alpha   119.99999861
_cell_angle_beta   90.00000000
_cell_angle_gamma   90.00000000
_symmetry_Int_Tables_number   1
_chemical_formula_structural   Ta5Si3N
_chemical_formula_sum   'Ta10 Si6 N2'
_cell_volume   262.05550184
_cell_formula_units_Z   2
loop_
 _symmetry_equiv_pos_site_id
 _symmetry_equiv_pos_as_xyz
  1  'x, y, z'
loop_
 _atom_site_type_symbol
 _atom_site_label
 _atom_site_symmetry_multiplicity
 _atom_site_fract_x
 _atom_site_fract_y
 _atom_site_fract_z
 _atom_site_occupancy
  Ta  Ta0  1  0.75000000  0.76494613  0.76494613  1
  Ta  Ta1  1  0.25000000  0.23505387  0.23505387  1
  Ta  Ta2  1  0.75000000  0.00000000  0.23505387  1
  Ta  Ta3  1  0.25000000  1.00000000  0.76494613  1
  Ta  Ta4  1  0.75000000  0.23505387  0.00000000  1
  Ta  Ta5  1  0.25000000  0.76494613  1.00000000  1
  Ta  Ta6  1  0.00000000  0.66666700  0.33333300  1
  Ta  Ta7  1  0.00000000  0.33333300  0.66666700  1
  Ta  Ta8  1  0.50000000  0.33333300  0.66666700  1
  Ta  Ta9  1  0.50000000  0.66666700  0.33333300  1
  Si  Si10  1  0.75000000  0.40471776  0.40471776  1
  Si  Si11  1  0.25000000  0.59528224  0.59528224  1
  Si  Si12  1  0.75000000  0.00000000  0.59528224  1
  Si  Si13  1  0.25000000  1.00000000  0.40471776  1
  Si  Si14  1  0.75000000  0.59528224  0.00000000  1
  Si  Si15  1  0.25000000  0.40471776  1.00000000  1
  N  N16  1  -0.00000000  0.00000000  -0.00000000  1
  N  N17  1  0.50000000  0.00000000  -0.00000000  1
