# generated using pymatgen
data_Y4NiB13
_symmetry_space_group_name_H-M   'P 1'
_cell_length_a   7.34828889
_cell_length_b   7.34828889
_cell_length_c   6.94249032
_cell_angle_alpha   90.00000000
_cell_angle_beta   90.00000000
_cell_angle_gamma   90.00000000
_symmetry_Int_Tables_number   1
_chemical_formula_structural   Y4NiB13
_chemical_formula_sum   'Y8 Ni2 B26'
_cell_volume   374.87607698
_cell_formula_units_Z   2
loop_
 _symmetry_equiv_pos_site_id
 _symmetry_equiv_pos_as_xyz
  1  'x, y, z'
loop_
 _atom_site_type_symbol
 _atom_site_label
 _atom_site_symmetry_multiplicity
 _atom_site_fract_x
 _atom_site_fract_y
 _atom_site_fract_z
 _atom_site_occupancy
  Y  Y0  1  0.18027658  0.68495831  0.50000000  1
  Y  Y1  1  0.81972342  0.31504169  0.50000000  1
  Y  Y2  1  0.31972342  0.18495831  -0.00000000  1
  Y  Y3  1  0.68027658  0.81504169  0.00000000  1
  Y  Y4  1  0.68495831  0.81972342  0.50000000  1
  Y  Y5  1  0.31504169  0.18027658  0.50000000  1
  Y  Y6  1  0.18495831  0.68027658  -0.00000000  1
  Y  Y7  1  0.81504169  0.31972342  0.00000000  1
  Ni  Ni8  1  0.50000000  0.50000000  0.50000000  1
  Ni  Ni9  1  0.00000000  -0.00000000  0.00000000  1
  B  B10  1  0.50000000  0.50000000  -0.00000000  1
  B  B11  1  -0.00000000  -0.00000000  0.50000000  1
  B  B12  1  0.40693645  0.90693645  0.25000000  1
  B  B13  1  0.59306355  0.09306355  0.25000000  1
  B  B14  1  0.09306355  0.40693645  0.75000000  1
  B  B15  1  0.90693645  0.59306355  0.75000000  1
  B  B16  1  0.90693645  0.59306355  0.25000000  1
  B  B17  1  0.09306355  0.40693645  0.25000000  1
  B  B18  1  0.40693645  0.90693645  0.75000000  1
  B  B19  1  0.59306355  0.09306355  0.75000000  1
  B  B20  1  0.66983781  0.53984959  0.24357035  1
  B  B21  1  0.33016219  0.46015041  0.24357035  1
  B  B22  1  0.83016219  0.03984959  0.74357035  1
  B  B23  1  0.16983781  0.96015041  0.74357035  1
  B  B24  1  0.53984959  0.33016219  0.24357035  1
  B  B25  1  0.46015041  0.66983781  0.24357035  1
  B  B26  1  0.03984959  0.16983781  0.74357035  1
  B  B27  1  0.96015041  0.83016219  0.74357035  1
  B  B28  1  0.33016219  0.46015041  0.75642965  1
  B  B29  1  0.66983781  0.53984959  0.75642965  1
  B  B30  1  0.16983781  0.96015041  0.25642965  1
  B  B31  1  0.83016219  0.03984959  0.25642965  1
  B  B32  1  0.46015041  0.66983781  0.75642965  1
  B  B33  1  0.53984959  0.33016219  0.75642965  1
  B  B34  1  0.96015041  0.83016219  0.25642965  1
  B  B35  1  0.03984959  0.16983781  0.25642965  1
