# generated using pymatgen
data_LiGd(MoO4)2
_symmetry_space_group_name_H-M   'P 1'
_cell_length_a   5.08262017
_cell_length_b   5.94667056
_cell_length_c   10.20558242
_cell_angle_alpha   90.00000000
_cell_angle_beta   93.91702046
_cell_angle_gamma   90.00000000
_symmetry_Int_Tables_number   1
_chemical_formula_structural   LiGd(MoO4)2
_chemical_formula_sum   'Li2 Gd2 Mo4 O16'
_cell_volume   307.73978339
_cell_formula_units_Z   2
loop_
 _symmetry_equiv_pos_site_id
 _symmetry_equiv_pos_as_xyz
  1  'x, y, z'
loop_
 _atom_site_type_symbol
 _atom_site_label
 _atom_site_symmetry_multiplicity
 _atom_site_fract_x
 _atom_site_fract_y
 _atom_site_fract_z
 _atom_site_occupancy
  Li  Li0  1  0.25000000  0.70542610  0.25000000  1
  Li  Li1  1  0.75000000  0.29457390  0.75000000  1
  Gd  Gd2  1  0.75000000  0.29216221  0.25000000  1
  Gd  Gd3  1  0.25000000  0.70783779  0.75000000  1
  Mo  Mo4  1  0.75462978  0.81757578  0.02050276  1
  Mo  Mo5  1  0.24537022  0.18242422  0.97949724  1
  Mo  Mo6  1  0.74537022  0.81757578  0.47949724  1
  Mo  Mo7  1  0.25462978  0.18242422  0.52050276  1
  O  O8  1  0.44841046  0.89612822  0.59407657  1
  O  O9  1  0.55158954  0.10387178  0.40592343  1
  O  O10  1  0.05158954  0.89612822  0.90592343  1
  O  O11  1  0.94841046  0.10387178  0.09407657  1
  O  O12  1  0.11225699  0.36443765  0.39157725  1
  O  O13  1  0.88774301  0.63556235  0.60842275  1
  O  O14  1  0.38774301  0.36443765  0.10842275  1
  O  O15  1  0.61225699  0.63556235  0.89157725  1
  O  O16  1  0.02584293  0.90879567  0.38634487  1
  O  O17  1  0.97415707  0.09120433  0.61365513  1
  O  O18  1  0.47415707  0.90879567  0.11365513  1
  O  O19  1  0.52584293  0.09120433  0.88634487  1
  O  O20  1  0.91150600  0.62327040  0.13569243  1
  O  O21  1  0.08849400  0.37672960  0.86430757  1
  O  O22  1  0.58849400  0.62327040  0.36430757  1
  O  O23  1  0.41150600  0.37672960  0.63569243  1
