# generated using pymatgen
data_ScZn10(B4Rh9)2
_symmetry_space_group_name_H-M   'P 1'
_cell_length_a   2.89487515
_cell_length_b   17.97885579
_cell_length_c   17.97885579
_cell_angle_alpha   90.00000000
_cell_angle_beta   90.00000000
_cell_angle_gamma   90.00000000
_symmetry_Int_Tables_number   1
_chemical_formula_structural   ScZn10(B4Rh9)2
_chemical_formula_sum   'Sc2 Zn20 B16 Rh36'
_cell_volume   935.73728830
_cell_formula_units_Z   2
loop_
 _symmetry_equiv_pos_site_id
 _symmetry_equiv_pos_as_xyz
  1  'x, y, z'
loop_
 _atom_site_type_symbol
 _atom_site_label
 _atom_site_symmetry_multiplicity
 _atom_site_fract_x
 _atom_site_fract_y
 _atom_site_fract_z
 _atom_site_occupancy
  Sc  Sc0  1  -0.00000000  -0.00000000  0.00000000  1
  Sc  Sc1  1  -0.00000000  0.50000000  0.50000000  1
  Zn  Zn2  1  0.00000000  0.05047108  0.55047108  1
  Zn  Zn3  1  -0.00000000  0.94952892  0.44952892  1
  Zn  Zn4  1  -0.00000000  0.44952892  0.05047108  1
  Zn  Zn5  1  0.00000000  0.55047108  0.94952892  1
  Zn  Zn6  1  -0.00000000  0.18742490  0.03227277  1
  Zn  Zn7  1  0.00000000  0.81257510  0.96772723  1
  Zn  Zn8  1  -0.00000000  0.96772723  0.18742490  1
  Zn  Zn9  1  0.00000000  0.31257510  0.53227277  1
  Zn  Zn10  1  0.00000000  0.03227277  0.81257510  1
  Zn  Zn11  1  -0.00000000  0.68742490  0.46772723  1
  Zn  Zn12  1  0.00000000  0.53227277  0.68742490  1
  Zn  Zn13  1  -0.00000000  0.46772723  0.31257510  1
  Zn  Zn14  1  0.00000000  0.71011305  0.21011305  1
  Zn  Zn15  1  -0.00000000  0.28988695  0.78988695  1
  Zn  Zn16  1  -0.00000000  0.78988695  0.71011305  1
  Zn  Zn17  1  0.00000000  0.21011305  0.28988695  1
  Zn  Zn18  1  -0.00000000  0.16746970  0.66746970  1
  Zn  Zn19  1  0.00000000  0.83253030  0.33253030  1
  Zn  Zn20  1  0.00000000  0.33253030  0.16746970  1
  Zn  Zn21  1  -0.00000000  0.66746970  0.83253030  1
  B  B22  1  0.00000000  0.03900207  0.33576010  1
  B  B23  1  -0.00000000  0.96099793  0.66423990  1
  B  B24  1  -0.00000000  0.66423990  0.03900207  1
  B  B25  1  -0.00000000  0.46099793  0.83576010  1
  B  B26  1  0.00000000  0.33576010  0.96099793  1
  B  B27  1  0.00000000  0.53900207  0.16423990  1
  B  B28  1  0.00000000  0.83576010  0.53900207  1
  B  B29  1  -0.00000000  0.16423990  0.46099793  1
  B  B30  1  0.00000000  0.12766939  0.17174900  1
  B  B31  1  -0.00000000  0.87233061  0.82825100  1
  B  B32  1  -0.00000000  0.82825100  0.12766939  1
  B  B33  1  -0.00000000  0.37233061  0.67174900  1
  B  B34  1  0.00000000  0.17174900  0.87233061  1
  B  B35  1  0.00000000  0.62766939  0.32825100  1
  B  B36  1  0.00000000  0.67174900  0.62766939  1
  B  B37  1  -0.00000000  0.32825100  0.37233061  1
  Rh  Rh38  1  0.50000000  0.08918092  0.25776871  1
  Rh  Rh39  1  0.50000000  0.91081908  0.74223129  1
  Rh  Rh40  1  0.50000000  0.74223129  0.08918092  1
  Rh  Rh41  1  0.50000000  0.41081908  0.75776871  1
  Rh  Rh42  1  0.50000000  0.25776871  0.91081908  1
  Rh  Rh43  1  0.50000000  0.58918092  0.24223129  1
  Rh  Rh44  1  0.50000000  0.75776871  0.58918092  1
  Rh  Rh45  1  0.50000000  0.24223129  0.41081908  1
  Rh  Rh46  1  0.50000000  0.32537635  0.04680899  1
  Rh  Rh47  1  0.50000000  0.67462365  0.95319101  1
  Rh  Rh48  1  0.50000000  0.95319101  0.32537635  1
  Rh  Rh49  1  0.50000000  0.17462365  0.54680899  1
  Rh  Rh50  1  0.50000000  0.04680899  0.67462365  1
  Rh  Rh51  1  0.50000000  0.82537635  0.45319101  1
  Rh  Rh52  1  0.50000000  0.54680899  0.82537635  1
  Rh  Rh53  1  0.50000000  0.45319101  0.17462365  1
  Rh  Rh54  1  0.50000000  0.21269406  0.16046357  1
  Rh  Rh55  1  0.50000000  0.78730594  0.83953643  1
  Rh  Rh56  1  0.50000000  0.83953643  0.21269406  1
  Rh  Rh57  1  0.50000000  0.28730594  0.66046357  1
  Rh  Rh58  1  0.50000000  0.16046357  0.78730594  1
  Rh  Rh59  1  0.50000000  0.71269406  0.33953643  1
  Rh  Rh60  1  0.50000000  0.66046357  0.71269406  1
  Rh  Rh61  1  0.50000000  0.33953643  0.28730594  1
  Rh  Rh62  1  0.50000000  0.06962355  0.10367928  1
  Rh  Rh63  1  0.50000000  0.93037645  0.89632072  1
  Rh  Rh64  1  0.50000000  0.89632072  0.06962355  1
  Rh  Rh65  1  0.50000000  0.43037645  0.60367928  1
  Rh  Rh66  1  0.50000000  0.10367928  0.93037645  1
  Rh  Rh67  1  0.50000000  0.56962355  0.39632072  1
  Rh  Rh68  1  0.50000000  0.60367928  0.56962355  1
  Rh  Rh69  1  0.50000000  0.39632072  0.43037645  1
  Rh  Rh70  1  0.50000000  0.58080866  0.08080866  1
  Rh  Rh71  1  0.50000000  0.41919134  0.91919134  1
  Rh  Rh72  1  0.50000000  0.91919134  0.58080866  1
  Rh  Rh73  1  0.50000000  0.08080866  0.41919134  1
