# generated using pymatgen
data_Na2Hf(MoO4)3
_symmetry_space_group_name_H-M   'P 1'
_cell_length_a   5.08720932
_cell_length_b   10.11400298
_cell_length_c   10.11400298
_cell_angle_alpha   68.87004573
_cell_angle_beta   79.84552086
_cell_angle_gamma   79.84552086
_symmetry_Int_Tables_number   1
_chemical_formula_structural   Na2Hf(MoO4)3
_chemical_formula_sum   'Na4 Hf2 Mo6 O24'
_cell_volume   474.17869256
_cell_formula_units_Z   2
loop_
 _symmetry_equiv_pos_site_id
 _symmetry_equiv_pos_as_xyz
  1  'x, y, z'
loop_
 _atom_site_type_symbol
 _atom_site_label
 _atom_site_symmetry_multiplicity
 _atom_site_fract_x
 _atom_site_fract_y
 _atom_site_fract_z
 _atom_site_occupancy
  Na  Na0  1  0.09106201  0.03968635  0.28637730  1
  Na  Na1  1  0.90893799  0.96031365  0.71362270  1
  Na  Na2  1  0.40893799  0.71362270  0.96031365  1
  Na  Na3  1  0.59106201  0.28637730  0.03968635  1
  Hf  Hf4  1  0.25000000  0.62378348  0.37621652  1
  Hf  Hf5  1  0.75000000  0.37621652  0.62378348  1
  Mo  Mo6  1  0.25000000  0.14373820  0.85626180  1
  Mo  Mo7  1  0.75000000  0.85626180  0.14373820  1
  Mo  Mo8  1  0.38020685  0.23425417  0.44586942  1
  Mo  Mo9  1  0.61979315  0.76574583  0.55413058  1
  Mo  Mo10  1  0.11979315  0.55413058  0.76574583  1
  Mo  Mo11  1  0.88020685  0.44586942  0.23425417  1
  O  O12  1  0.11627632  0.39003729  0.47183126  1
  O  O13  1  0.88372368  0.60996271  0.52816874  1
  O  O14  1  0.38372368  0.52816874  0.60996271  1
  O  O15  1  0.61627632  0.47183126  0.39003729  1
  O  O16  1  0.01649143  0.18634432  0.72096887  1
  O  O17  1  0.98350857  0.81365568  0.27903113  1
  O  O18  1  0.48350857  0.27903113  0.81365568  1
  O  O19  1  0.51649143  0.72096887  0.18634432  1
  O  O20  1  0.43876025  0.97797734  0.86439935  1
  O  O21  1  0.56123975  0.02202266  0.13560065  1
  O  O22  1  0.06123975  0.13560065  0.02202266  1
  O  O23  1  0.93876025  0.86439935  0.97797734  1
  O  O24  1  0.40441324  0.78788744  0.41775328  1
  O  O25  1  0.59558676  0.21211256  0.58224672  1
  O  O26  1  0.09558676  0.58224672  0.21211256  1
  O  O27  1  0.90441324  0.41775328  0.78788744  1
  O  O28  1  0.24568850  0.07443314  0.49530849  1
  O  O29  1  0.75431150  0.92556686  0.50469151  1
  O  O30  1  0.25431150  0.50469151  0.92556686  1
  O  O31  1  0.74568850  0.49530849  0.07443314  1
  O  O32  1  0.36904493  0.74761664  0.70736755  1
  O  O33  1  0.63095507  0.25238336  0.29263245  1
  O  O34  1  0.13095507  0.29263245  0.25238336  1
  O  O35  1  0.86904493  0.70736755  0.74761664  1
