# generated using pymatgen
data_LiCe(WO4)2
_symmetry_space_group_name_H-M   'P 1'
_cell_length_a   7.22579747
_cell_length_b   7.46240110
_cell_length_c   7.55870963
_cell_angle_alpha   113.81134471
_cell_angle_beta   115.71107753
_cell_angle_gamma   91.48247279
_symmetry_Int_Tables_number   1
_chemical_formula_structural   LiCe(WO4)2
_chemical_formula_sum   'Li2 Ce2 W4 O16'
_cell_volume   325.82425743
_cell_formula_units_Z   2
loop_
 _symmetry_equiv_pos_site_id
 _symmetry_equiv_pos_as_xyz
  1  'x, y, z'
loop_
 _atom_site_type_symbol
 _atom_site_label
 _atom_site_symmetry_multiplicity
 _atom_site_fract_x
 _atom_site_fract_y
 _atom_site_fract_z
 _atom_site_occupancy
  Li  Li0  1  0.25085293  0.67677730  0.01001524  1
  Li  Li1  1  0.74914707  0.32322270  0.98998476  1
  Ce  Ce2  1  0.18401830  0.28814437  0.46307970  1
  Ce  Ce3  1  0.81598170  0.71185563  0.53692030  1
  W  W4  1  0.26220428  0.29248760  0.03044340  1
  W  W5  1  0.73779572  0.70751240  0.96955660  1
  W  W6  1  0.64811304  0.10430701  0.28582088  1
  W  W7  1  0.35188696  0.89569299  0.71417912  1
  O  O8  1  0.18456371  0.36463562  0.80651652  1
  O  O9  1  0.81543629  0.63536438  0.19348348  1
  O  O10  1  0.44860569  0.53793202  0.25184683  1
  O  O11  1  0.55139431  0.46206798  0.74815317  1
  O  O12  1  0.86471204  0.01148348  0.20026733  1
  O  O13  1  0.13528796  0.98851652  0.79973267  1
  O  O14  1  0.70607884  0.00883337  0.48278409  1
  O  O15  1  0.29392116  0.99116663  0.51721591  1
  O  O16  1  0.17853751  0.63715313  0.56044809  1
  O  O17  1  0.82146249  0.36284687  0.43955191  1
  O  O18  1  0.48073850  0.82723637  0.00826629  1
  O  O19  1  0.51926150  0.17276363  0.99173371  1
  O  O20  1  0.04166598  0.30397036  0.09144587  1
  O  O21  1  0.95833402  0.69602964  0.90855413  1
  O  O22  1  0.38269525  0.17235750  0.25846444  1
  O  O23  1  0.61730475  0.82764250  0.74153556  1
