# generated using pymatgen
data_H7C2SN4Cl
_symmetry_space_group_name_H-M   'P 1'
_cell_length_a   6.53472087
_cell_length_b   7.71949183
_cell_length_c   14.94568168
_cell_angle_alpha   90.00000000
_cell_angle_beta   90.20266607
_cell_angle_gamma   90.00000000
_symmetry_Int_Tables_number   1
_chemical_formula_structural   H7C2SN4Cl
_chemical_formula_sum   'H28 C8 S4 N16 Cl4'
_cell_volume   753.92607700
_cell_formula_units_Z   4
loop_
 _symmetry_equiv_pos_site_id
 _symmetry_equiv_pos_as_xyz
  1  'x, y, z'
loop_
 _atom_site_type_symbol
 _atom_site_label
 _atom_site_symmetry_multiplicity
 _atom_site_fract_x
 _atom_site_fract_y
 _atom_site_fract_z
 _atom_site_occupancy
  H  H0  1  0.15741031  0.18911194  0.41418980  1
  H  H1  1  0.84258969  0.81088806  0.58581020  1
  H  H2  1  0.84258969  0.68911194  0.08581020  1
  H  H3  1  0.15741031  0.31088806  0.91418980  1
  H  H4  1  0.47414506  0.40000281  0.16662212  1
  H  H5  1  0.52585494  0.59999719  0.83337788  1
  H  H6  1  0.52585494  0.90000281  0.33337788  1
  H  H7  1  0.47414506  0.09999719  0.66662212  1
  H  H8  1  0.11152365  0.72132365  0.09034988  1
  H  H9  1  0.88847635  0.27867635  0.90965012  1
  H  H10  1  0.88847635  0.22132365  0.40965012  1
  H  H11  1  0.11152365  0.77867635  0.59034988  1
  H  H12  1  0.71438555  0.19121722  0.03154921  1
  H  H13  1  0.28561445  0.80878278  0.96845079  1
  H  H14  1  0.28561445  0.69121722  0.46845079  1
  H  H15  1  0.71438555  0.30878278  0.53154921  1
  H  H16  1  0.32064345  0.29529839  0.03833256  1
  H  H17  1  0.67935655  0.70470161  0.96166744  1
  H  H18  1  0.67935655  0.79529839  0.46166744  1
  H  H19  1  0.32064345  0.20470161  0.53833256  1
  H  H20  1  0.44706602  0.27408570  0.26435420  1
  H  H21  1  0.55293398  0.72591430  0.73564580  1
  H  H22  1  0.55293398  0.77408570  0.23564580  1
  H  H23  1  0.44706602  0.22591430  0.76435420  1
  H  H24  1  0.14649368  0.64169937  0.36627996  1
  H  H25  1  0.85350632  0.35830063  0.63372004  1
  H  H26  1  0.85350632  0.14169937  0.13372004  1
  H  H27  1  0.14649368  0.85830063  0.86627996  1
  C  C28  1  0.01794895  0.24120588  0.03144496  1
  C  C29  1  0.98205105  0.75879412  0.96855504  1
  C  C30  1  0.98205105  0.74120588  0.46855504  1
  C  C31  1  0.01794895  0.25879412  0.53144496  1
  C  C32  1  0.23909042  0.21907917  0.16745280  1
  C  C33  1  0.76090958  0.78092083  0.83254720  1
  C  C34  1  0.76090958  0.71907917  0.33254720  1
  C  C35  1  0.23909042  0.28092083  0.66745280  1
  S  S36  1  0.10170992  0.08242915  0.23043586  1
  S  S37  1  0.89829008  0.91757085  0.76956414  1
  S  S38  1  0.89829008  0.58242915  0.26956414  1
  S  S39  1  0.10170992  0.41757085  0.73043586  1
  N  N40  1  0.19854510  0.25647781  0.07795104  1
  N  N41  1  0.80145490  0.74352219  0.92204896  1
  N  N42  1  0.80145490  0.75647781  0.42204896  1
  N  N43  1  0.19854510  0.24352219  0.57795104  1
  N  N44  1  0.40820052  0.29738683  0.19887208  1
  N  N45  1  0.59179948  0.70261317  0.80112792  1
  N  N46  1  0.59179948  0.79738683  0.30112792  1
  N  N47  1  0.40820052  0.20261317  0.69887208  1
  N  N48  1  0.02128872  0.21328115  0.44576752  1
  N  N49  1  0.97871128  0.78671885  0.55423248  1
  N  N50  1  0.97871128  0.71328115  0.05423248  1
  N  N51  1  0.02128872  0.28671885  0.94576752  1
  N  N52  1  0.15435831  0.68894073  0.43038776  1
  N  N53  1  0.84564169  0.31105927  0.56961224  1
  N  N54  1  0.84564169  0.18894073  0.06961224  1
  N  N55  1  0.15435831  0.81105927  0.93038776  1
  Cl  Cl56  1  0.51478917  0.20516459  0.41725758  1
  Cl  Cl57  1  0.48521083  0.79483541  0.58274242  1
  Cl  Cl58  1  0.48521083  0.70516459  0.08274242  1
  Cl  Cl59  1  0.51478917  0.29483541  0.91725758  1
