# generated using pymatgen
data_KNaTiH2O3F4
_symmetry_space_group_name_H-M   'P 1'
_cell_length_a   5.80200404
_cell_length_b   10.89670200
_cell_length_c   10.67526024
_cell_angle_alpha   105.71349491
_cell_angle_beta   90.00000000
_cell_angle_gamma   90.00000000
_symmetry_Int_Tables_number   1
_chemical_formula_structural   KNaTiH2O3F4
_chemical_formula_sum   'K4 Na4 Ti4 H8 O12 F16'
_cell_volume   649.69579353
_cell_formula_units_Z   4
loop_
 _symmetry_equiv_pos_site_id
 _symmetry_equiv_pos_as_xyz
  1  'x, y, z'
loop_
 _atom_site_type_symbol
 _atom_site_label
 _atom_site_symmetry_multiplicity
 _atom_site_fract_x
 _atom_site_fract_y
 _atom_site_fract_z
 _atom_site_occupancy
  K  K0  1  0.93944703  0.67109042  0.61168184  1
  K  K1  1  0.06055297  0.32890958  0.38831816  1
  K  K2  1  0.43944703  0.32890958  0.88831816  1
  K  K3  1  0.56055297  0.67109042  0.11168184  1
  Na  Na4  1  0.48606095  0.93862477  0.79663427  1
  Na  Na5  1  0.51393905  0.06137523  0.20336573  1
  Na  Na6  1  0.98606095  0.06137523  0.70336573  1
  Na  Na7  1  0.01393905  0.93862477  0.29663427  1
  Ti  Ti8  1  0.95397520  0.83805049  0.96184016  1
  Ti  Ti9  1  0.04602480  0.16194951  0.03815984  1
  Ti  Ti10  1  0.45397520  0.16194951  0.53815984  1
  Ti  Ti11  1  0.54602480  0.83805049  0.46184016  1
  H  H12  1  0.85918803  0.51282305  0.78381528  1
  H  H13  1  0.14081197  0.48717695  0.21618472  1
  H  H14  1  0.35918803  0.48717695  0.71618472  1
  H  H15  1  0.64081197  0.51282305  0.28381528  1
  H  H16  1  0.93365429  0.37505220  0.70815934  1
  H  H17  1  0.06634571  0.62494780  0.29184066  1
  H  H18  1  0.43365429  0.62494780  0.79184066  1
  H  H19  1  0.56634571  0.37505220  0.20815934  1
  O  O20  1  0.94928432  0.66554667  0.95999770  1
  O  O21  1  0.05071568  0.33445333  0.04000230  1
  O  O22  1  0.44928432  0.33445333  0.54000230  1
  O  O23  1  0.55071568  0.66554667  0.45999770  1
  O  O24  1  0.92147403  0.46234852  0.70032368  1
  O  O25  1  0.07852597  0.53765148  0.29967632  1
  O  O26  1  0.42147403  0.53765148  0.79967632  1
  O  O27  1  0.57852597  0.46234852  0.20032368  1
  O  O28  1  0.86267040  0.26554210  0.96167235  1
  O  O29  1  0.13732960  0.73445790  0.03832765  1
  O  O30  1  0.36267040  0.73445790  0.53832765  1
  O  O31  1  0.63732960  0.26554210  0.46167235  1
  F  F32  1  0.68875366  0.78034721  0.84643496  1
  F  F33  1  0.31124634  0.21965279  0.15356504  1
  F  F34  1  0.18875366  0.21965279  0.65356504  1
  F  F35  1  0.81124634  0.78034721  0.34643496  1
  F  F36  1  0.74832319  0.89282444  0.61228898  1
  F  F37  1  0.25167681  0.10717556  0.38771102  1
  F  F38  1  0.24832319  0.10717556  0.88771102  1
  F  F39  1  0.75167681  0.89282444  0.11228898  1
  F  F40  1  0.14350673  0.83260939  0.81452627  1
  F  F41  1  0.85649327  0.16739061  0.18547373  1
  F  F42  1  0.64350673  0.16739061  0.68547373  1
  F  F43  1  0.35649327  0.83260939  0.31452627  1
  F  F44  1  0.33438855  0.98066807  0.56975522  1
  F  F45  1  0.66561145  0.01933193  0.43024478  1
  F  F46  1  0.83438855  0.01933193  0.93024478  1
  F  F47  1  0.16561145  0.98066807  0.06975522  1
