# generated using pymatgen
data_Mn4Cu3BiO12
_symmetry_space_group_name_H-M   'P 1'
_cell_length_a   6.46213294
_cell_length_b   6.46213294
_cell_length_c   6.46213294
_cell_angle_alpha   109.47122063
_cell_angle_beta   109.47122063
_cell_angle_gamma   109.47122063
_symmetry_Int_Tables_number   1
_chemical_formula_structural   Mn4Cu3BiO12
_chemical_formula_sum   'Mn4 Cu3 Bi1 O12'
_cell_volume   207.73313382
_cell_formula_units_Z   1
loop_
 _symmetry_equiv_pos_site_id
 _symmetry_equiv_pos_as_xyz
  1  'x, y, z'
loop_
 _atom_site_type_symbol
 _atom_site_label
 _atom_site_symmetry_multiplicity
 _atom_site_fract_x
 _atom_site_fract_y
 _atom_site_fract_z
 _atom_site_occupancy
  Mn  Mn0  1  0.50000000  0.50000000  0.50000000  1
  Mn  Mn1  1  0.50000000  -0.00000000  -0.00000000  1
  Mn  Mn2  1  -0.00000000  0.50000000  -0.00000000  1
  Mn  Mn3  1  -0.00000000  -0.00000000  0.50000000  1
  Cu  Cu4  1  0.50000000  0.50000000  -0.00000000  1
  Cu  Cu5  1  0.50000000  -0.00000000  0.50000000  1
  Cu  Cu6  1  -0.00000000  0.50000000  0.50000000  1
  Bi  Bi7  1  -0.00000000  -0.00000000  -0.00000000  1
  O  O8  1  0.82799689  0.69171979  0.51971668  1
  O  O9  1  0.17200311  0.30828021  0.48028332  1
  O  O10  1  0.17200311  0.69171979  0.86372289  1
  O  O11  1  0.82799689  0.30828021  0.13627711  1
  O  O12  1  0.69171979  0.51971668  0.82799689  1
  O  O13  1  0.30828021  0.48028332  0.17200311  1
  O  O14  1  0.69171979  0.86372289  0.17200311  1
  O  O15  1  0.30828021  0.13627711  0.82799689  1
  O  O16  1  0.51971668  0.82799689  0.69171979  1
  O  O17  1  0.48028332  0.17200311  0.30828021  1
  O  O18  1  0.13627711  0.82799689  0.30828021  1
  O  O19  1  0.86372289  0.17200311  0.69171979  1
