# generated using pymatgen
data_Na(SrAs)4
_symmetry_space_group_name_H-M   'P 1'
_cell_length_a   7.82998145
_cell_length_b   8.31285415
_cell_length_c   15.94453033
_cell_angle_alpha   90.00000000
_cell_angle_beta   90.00000000
_cell_angle_gamma   90.00000000
_symmetry_Int_Tables_number   1
_chemical_formula_structural   Na(SrAs)4
_chemical_formula_sum   'Na4 Sr16 As16'
_cell_volume   1037.82140792
_cell_formula_units_Z   4
loop_
 _symmetry_equiv_pos_site_id
 _symmetry_equiv_pos_as_xyz
  1  'x, y, z'
loop_
 _atom_site_type_symbol
 _atom_site_label
 _atom_site_symmetry_multiplicity
 _atom_site_fract_x
 _atom_site_fract_y
 _atom_site_fract_z
 _atom_site_occupancy
  Na  Na0  1  0.81625944  0.48194173  0.75000000  1
  Na  Na1  1  0.18374056  0.51805827  0.25000000  1
  Na  Na2  1  0.68374056  0.98194173  0.25000000  1
  Na  Na3  1  0.31625944  0.01805827  0.75000000  1
  Sr  Sr4  1  0.64799526  0.83298061  0.87739823  1
  Sr  Sr5  1  0.35200474  0.16701939  0.12260177  1
  Sr  Sr6  1  0.85200474  0.33298061  0.12260177  1
  Sr  Sr7  1  0.35200474  0.16701939  0.37739823  1
  Sr  Sr8  1  0.14799526  0.66701939  0.87739823  1
  Sr  Sr9  1  0.64799526  0.83298061  0.62260177  1
  Sr  Sr10  1  0.14799526  0.66701939  0.62260177  1
  Sr  Sr11  1  0.85200474  0.33298061  0.37739823  1
  Sr  Sr12  1  0.99677924  0.80746737  0.40499745  1
  Sr  Sr13  1  0.00322076  0.19253263  0.59500255  1
  Sr  Sr14  1  0.50322076  0.30746737  0.59500255  1
  Sr  Sr15  1  0.00322076  0.19253263  0.90499745  1
  Sr  Sr16  1  0.49677924  0.69253263  0.40499745  1
  Sr  Sr17  1  0.99677924  0.80746737  0.09500255  1
  Sr  Sr18  1  0.49677924  0.69253263  0.09500255  1
  Sr  Sr19  1  0.50322076  0.30746737  0.90499745  1
  As  As20  1  0.95033637  0.91574449  0.75000000  1
  As  As21  1  0.04966363  0.08425551  0.25000000  1
  As  As22  1  0.54966363  0.41574449  0.25000000  1
  As  As23  1  0.45033637  0.58425551  0.75000000  1
  As  As24  1  0.80634703  0.53665577  0.96178459  1
  As  As25  1  0.19365297  0.46334423  0.03821541  1
  As  As26  1  0.69365297  0.03665577  0.03821541  1
  As  As27  1  0.19365297  0.46334423  0.46178459  1
  As  As28  1  0.30634703  0.96334423  0.96178459  1
  As  As29  1  0.80634703  0.53665577  0.53821541  1
  As  As30  1  0.30634703  0.96334423  0.53821541  1
  As  As31  1  0.69365297  0.03665577  0.46178459  1
  As  As32  1  0.71638734  0.12722697  0.75000000  1
  As  As33  1  0.28361266  0.87277303  0.25000000  1
  As  As34  1  0.78361266  0.62722697  0.25000000  1
  As  As35  1  0.21638734  0.37277303  0.75000000  1
