# generated using pymatgen
data_NbFeSi
_symmetry_space_group_name_H-M   'P 1'
_cell_length_a   4.89682112
_cell_length_b   12.78502184
_cell_length_c   15.51797977
_cell_angle_alpha   90.00000000
_cell_angle_beta   90.00000000
_cell_angle_gamma   90.00000000
_symmetry_Int_Tables_number   1
_chemical_formula_structural   NbFeSi
_chemical_formula_sum   'Nb24 Fe24 Si24'
_cell_volume   971.51809782
_cell_formula_units_Z   24
loop_
 _symmetry_equiv_pos_site_id
 _symmetry_equiv_pos_as_xyz
  1  'x, y, z'
loop_
 _atom_site_type_symbol
 _atom_site_label
 _atom_site_symmetry_multiplicity
 _atom_site_fract_x
 _atom_site_fract_y
 _atom_site_fract_z
 _atom_site_occupancy
  Nb  Nb0  1  0.00000000  0.97478069  0.30478108  1
  Nb  Nb1  1  0.50000000  0.47478069  0.69521892  1
  Nb  Nb2  1  0.00000000  0.29579212  0.10069205  1
  Nb  Nb3  1  0.50000000  0.79579212  0.89930795  1
  Nb  Nb4  1  0.00000000  0.76944669  0.46134953  1
  Nb  Nb5  1  0.50000000  0.26944669  0.53865047  1
  Nb  Nb6  1  0.00000000  0.48356945  0.97894996  1
  Nb  Nb7  1  0.50000000  0.98356945  0.02105004  1
  Nb  Nb8  1  0.00000000  0.41237245  0.58019050  1
  Nb  Nb9  1  0.50000000  0.91237245  0.41980950  1
  Nb  Nb10  1  0.00000000  0.79693267  0.79114278  1
  Nb  Nb11  1  0.50000000  0.29693267  0.20885722  1
  Nb  Nb12  1  0.00000000  0.40858743  0.80251763  1
  Nb  Nb13  1  0.50000000  0.90858743  0.19748237  1
  Nb  Nb14  1  0.00000000  0.11012415  0.99274797  1
  Nb  Nb15  1  0.50000000  0.61012415  0.00725203  1
  Nb  Nb16  1  0.00000000  0.13724645  0.59629870  1
  Nb  Nb17  1  0.50000000  0.63724645  0.40370130  1
  Nb  Nb18  1  0.00000000  0.17851661  0.81163442  1
  Nb  Nb19  1  0.50000000  0.67851661  0.18836558  1
  Nb  Nb20  1  0.00000000  0.20409406  0.29225008  1
  Nb  Nb21  1  0.50000000  0.70409406  0.70774992  1
  Nb  Nb22  1  0.00000000  0.60209736  0.28731942  1
  Nb  Nb23  1  0.50000000  0.10209736  0.71268058  1
  Fe  Fe24  1  0.75053738  0.61136775  0.57156911  1
  Fe  Fe25  1  0.74946262  0.11136775  0.42843089  1
  Fe  Fe26  1  0.25053738  0.11136775  0.42843089  1
  Fe  Fe27  1  0.24946262  0.61136775  0.57156911  1
  Fe  Fe28  1  0.74850271  0.99123806  0.85653420  1
  Fe  Fe29  1  0.75149729  0.49123806  0.14346580  1
  Fe  Fe30  1  0.24850271  0.49123806  0.14346580  1
  Fe  Fe31  1  0.25149729  0.99123806  0.85653420  1
  Fe  Fe32  1  0.74735209  0.91029293  0.61139135  1
  Fe  Fe33  1  0.75264791  0.41029293  0.38860865  1
  Fe  Fe34  1  0.24735209  0.41029293  0.38860865  1
  Fe  Fe35  1  0.25264791  0.91029293  0.61139135  1
  Fe  Fe36  1  0.75166938  0.60817805  0.83995675  1
  Fe  Fe37  1  0.74833062  0.10817805  0.16004325  1
  Fe  Fe38  1  0.25166938  0.10817805  0.16004325  1
  Fe  Fe39  1  0.24833062  0.60817805  0.83995675  1
  Fe  Fe40  1  0.00000000  0.79440161  0.19097721  1
  Fe  Fe41  1  0.50000000  0.29440161  0.80902279  1
  Fe  Fe42  1  0.76035911  0.29748339  0.94002560  1
  Fe  Fe43  1  0.73964089  0.79748339  0.05997440  1
  Fe  Fe44  1  0.26035911  0.79748339  0.05997440  1
  Fe  Fe45  1  0.23964089  0.29748339  0.94002560  1
  Fe  Fe46  1  0.00000000  0.70069204  0.95071104  1
  Fe  Fe47  1  0.50000000  0.20069204  0.04928896  1
  Si  Si48  1  0.74764183  0.78530911  0.31308635  1
  Si  Si49  1  0.75235817  0.28530911  0.68691365  1
  Si  Si50  1  0.24764183  0.28530911  0.68691365  1
  Si  Si51  1  0.25235817  0.78530911  0.31308635  1
  Si  Si52  1  0.00000000  0.64146766  0.10364917  1
  Si  Si53  1  0.50000000  0.14146766  0.89635083  1
  Si  Si54  1  0.00000000  0.55573570  0.45184833  1
  Si  Si55  1  0.50000000  0.05573570  0.54815167  1
  Si  Si56  1  0.00000000  0.57889046  0.70452760  1
  Si  Si57  1  0.50000000  0.07889046  0.29547240  1
  Si  Si58  1  0.00000000  0.89184192  0.95303339  1
  Si  Si59  1  0.50000000  0.39184192  0.04696661  1
  Si  Si60  1  0.00000000  0.97365256  0.48471181  1
  Si  Si61  1  0.50000000  0.47365256  0.51528819  1
  Si  Si62  1  0.00000000  0.39983905  0.24978334  1
  Si  Si63  1  0.50000000  0.89983905  0.75021666  1
  Si  Si64  1  0.00000000  0.26618948  0.45840468  1
  Si  Si65  1  0.50000000  0.76618948  0.54159532  1
  Si  Si66  1  0.00000000  0.95570093  0.11855176  1
  Si  Si67  1  0.50000000  0.45570093  0.88144824  1
  Si  Si68  1  0.00000000  0.75095771  0.62925705  1
  Si  Si69  1  0.50000000  0.25095771  0.37074295  1
  Si  Si70  1  0.00000000  0.99883217  0.72483758  1
  Si  Si71  1  0.50000000  0.49883217  0.27516242  1
