# generated using pymatgen
data_Mg30TiBiO32
_symmetry_space_group_name_H-M   'P 1'
_cell_length_a   8.65437324
_cell_length_b   8.65437324
_cell_length_c   8.64918011
_cell_angle_alpha   90.00000000
_cell_angle_beta   90.00000000
_cell_angle_gamma   90.00000000
_symmetry_Int_Tables_number   1
_chemical_formula_structural   Mg30TiBiO32
_chemical_formula_sum   'Mg30 Ti1 Bi1 O32'
_cell_volume   647.80781567
_cell_formula_units_Z   1
loop_
 _symmetry_equiv_pos_site_id
 _symmetry_equiv_pos_as_xyz
  1  'x, y, z'
loop_
 _atom_site_type_symbol
 _atom_site_label
 _atom_site_symmetry_multiplicity
 _atom_site_fract_x
 _atom_site_fract_y
 _atom_site_fract_z
 _atom_site_occupancy
  Mg  Mg0  1  -0.00000000  0.50000000  0.00000000  1
  Mg  Mg1  1  -0.00000000  0.50000000  0.50000000  1
  Mg  Mg2  1  0.50000000  0.00000000  0.00000000  1
  Mg  Mg3  1  0.50000000  0.00000000  0.50000000  1
  Mg  Mg4  1  0.50000000  0.50000000  0.00000000  1
  Mg  Mg5  1  0.50000000  0.50000000  0.50000000  1
  Mg  Mg6  1  -0.00000000  0.25795844  0.24562920  1
  Mg  Mg7  1  -0.00000000  0.25795844  0.75437080  1
  Mg  Mg8  1  -0.00000000  0.74204156  0.24562920  1
  Mg  Mg9  1  -0.00000000  0.74204156  0.75437080  1
  Mg  Mg10  1  0.50000000  0.25104770  0.24931299  1
  Mg  Mg11  1  0.50000000  0.25104770  0.75068701  1
  Mg  Mg12  1  0.50000000  0.74895230  0.24931299  1
  Mg  Mg13  1  0.50000000  0.74895230  0.75068701  1
  Mg  Mg14  1  0.25795844  0.00000000  0.24562920  1
  Mg  Mg15  1  0.25795844  0.00000000  0.75437080  1
  Mg  Mg16  1  0.25104770  0.50000000  0.24931299  1
  Mg  Mg17  1  0.25104770  0.50000000  0.75068701  1
  Mg  Mg18  1  0.74204156  0.00000000  0.24562920  1
  Mg  Mg19  1  0.74204156  0.00000000  0.75437080  1
  Mg  Mg20  1  0.74895230  0.50000000  0.24931299  1
  Mg  Mg21  1  0.74895230  0.50000000  0.75068701  1
  Mg  Mg22  1  0.25118646  0.25118646  0.00000000  1
  Mg  Mg23  1  0.25592024  0.25592024  0.50000000  1
  Mg  Mg24  1  0.25118646  0.74881354  0.00000000  1
  Mg  Mg25  1  0.25592024  0.74407976  0.50000000  1
  Mg  Mg26  1  0.74881354  0.25118646  0.00000000  1
  Mg  Mg27  1  0.74407976  0.25592024  0.50000000  1
  Mg  Mg28  1  0.74881354  0.74881354  0.00000000  1
  Mg  Mg29  1  0.74407976  0.74407976  0.50000000  1
  Ti  Ti30  1  -0.00000000  0.00000000  0.00000000  1
  Bi  Bi31  1  -0.00000000  0.00000000  0.50000000  1
  O  O32  1  0.25755679  0.00000000  0.00000000  1
  O  O33  1  0.27401948  0.00000000  0.50000000  1
  O  O34  1  0.25112378  0.50000000  0.00000000  1
  O  O35  1  0.25389671  0.50000000  0.50000000  1
  O  O36  1  0.74244321  0.00000000  0.00000000  1
  O  O37  1  0.72598052  0.00000000  0.50000000  1
  O  O38  1  0.74887622  0.50000000  0.00000000  1
  O  O39  1  0.74610329  0.50000000  0.50000000  1
  O  O40  1  0.24935736  0.24935736  0.25011787  1
  O  O41  1  0.24935736  0.24935736  0.74988213  1
  O  O42  1  0.24935736  0.75064264  0.25011787  1
  O  O43  1  0.24935736  0.75064264  0.74988213  1
  O  O44  1  0.75064264  0.24935736  0.25011787  1
  O  O45  1  0.75064264  0.24935736  0.74988213  1
  O  O46  1  0.75064264  0.75064264  0.25011787  1
  O  O47  1  0.75064264  0.75064264  0.74988213  1
  O  O48  1  -0.00000000  0.00000000  0.22828229  1
  O  O49  1  -0.00000000  0.00000000  0.77171771  1
  O  O50  1  -0.00000000  0.50000000  0.24647790  1
  O  O51  1  -0.00000000  0.50000000  0.75352210  1
  O  O52  1  0.50000000  0.00000000  0.24647790  1
  O  O53  1  0.50000000  0.00000000  0.75352210  1
  O  O54  1  0.50000000  0.50000000  0.24941876  1
  O  O55  1  0.50000000  0.50000000  0.75058124  1
  O  O56  1  -0.00000000  0.25755679  0.00000000  1
  O  O57  1  -0.00000000  0.27401948  0.50000000  1
  O  O58  1  -0.00000000  0.74244321  0.00000000  1
  O  O59  1  -0.00000000  0.72598052  0.50000000  1
  O  O60  1  0.50000000  0.25112378  0.00000000  1
  O  O61  1  0.50000000  0.25389671  0.50000000  1
  O  O62  1  0.50000000  0.74887622  0.00000000  1
  O  O63  1  0.50000000  0.74610329  0.50000000  1
