# generated using pymatgen
data_Ba2CeV3O11
_symmetry_space_group_name_H-M   'P 1'
_cell_length_a   7.85224086
_cell_length_b   12.55101753
_cell_length_c   11.48653282
_cell_angle_alpha   103.12180551
_cell_angle_beta   90.00000000
_cell_angle_gamma   90.00000000
_symmetry_Int_Tables_number   1
_chemical_formula_structural   Ba2CeV3O11
_chemical_formula_sum   'Ba8 Ce4 V12 O44'
_cell_volume   1102.48135059
_cell_formula_units_Z   4
loop_
 _symmetry_equiv_pos_site_id
 _symmetry_equiv_pos_as_xyz
  1  'x, y, z'
loop_
 _atom_site_type_symbol
 _atom_site_label
 _atom_site_symmetry_multiplicity
 _atom_site_fract_x
 _atom_site_fract_y
 _atom_site_fract_z
 _atom_site_occupancy
  Ba  Ba0  1  0.27323511  0.76556053  0.94115310  1
  Ba  Ba1  1  0.72676489  0.23443947  0.05884690  1
  Ba  Ba2  1  0.77323511  0.23443947  0.55884690  1
  Ba  Ba3  1  0.22676489  0.76556053  0.44115310  1
  Ba  Ba4  1  0.74732545  0.55417394  0.88934965  1
  Ba  Ba5  1  0.25267455  0.44582606  0.11065035  1
  Ba  Ba6  1  0.24732545  0.44582606  0.61065035  1
  Ba  Ba7  1  0.75267455  0.55417394  0.38934965  1
  Ce  Ce8  1  0.50010081  0.99752618  0.71504418  1
  Ce  Ce9  1  0.49989919  0.00247382  0.28495582  1
  Ce  Ce10  1  0.00010081  0.00247382  0.78495582  1
  Ce  Ce11  1  -0.00010081  0.99752618  0.21504418  1
  V  V12  1  0.75056651  0.90349834  0.97557729  1
  V  V13  1  0.24943349  0.09650166  0.02442271  1
  V  V14  1  0.25056651  0.09650166  0.52442271  1
  V  V15  1  0.74943349  0.90349834  0.47557729  1
  V  V16  1  0.51993697  0.68305203  0.67348801  1
  V  V17  1  0.48006303  0.31694797  0.32651199  1
  V  V18  1  0.01993697  0.31694797  0.82651199  1
  V  V19  1  0.98006303  0.68305203  0.17348801  1
  V  V20  1  0.98054749  0.68614658  0.67018924  1
  V  V21  1  0.01945251  0.31385342  0.32981076  1
  V  V22  1  0.48054749  0.31385342  0.82981076  1
  V  V23  1  0.51945251  0.68614658  0.17018924  1
  O  O24  1  0.44246007  0.81603014  0.71941081  1
  O  O25  1  0.55753993  0.18396986  0.28058919  1
  O  O26  1  0.94246007  0.18396986  0.78058919  1
  O  O27  1  0.05753993  0.81603014  0.21941081  1
  O  O28  1  0.55132420  0.17947578  0.80891113  1
  O  O29  1  0.44867580  0.82052422  0.19108887  1
  O  O30  1  0.05132420  0.82052422  0.69108887  1
  O  O31  1  0.94867580  0.17947578  0.30891113  1
  O  O32  1  0.75049490  0.66714773  0.66759650  1
  O  O33  1  0.24950510  0.33285227  0.33240350  1
  O  O34  1  0.25049490  0.33285227  0.83240350  1
  O  O35  1  0.74950510  0.66714773  0.16759650  1
  O  O36  1  0.94573278  0.37505066  0.96537721  1
  O  O37  1  0.05426722  0.62494934  0.03462279  1
  O  O38  1  0.44573278  0.62494934  0.53462279  1
  O  O39  1  0.55426722  0.37505066  0.46537721  1
  O  O40  1  0.94244288  0.39294978  0.73199963  1
  O  O41  1  0.05755712  0.60705022  0.26800037  1
  O  O42  1  0.44244288  0.60705022  0.76800037  1
  O  O43  1  0.55755712  0.39294978  0.23199963  1
  O  O44  1  0.78580468  0.98622723  0.62189567  1
  O  O45  1  0.21419532  0.01377277  0.37810433  1
  O  O46  1  0.28580468  0.01377277  0.87810433  1
  O  O47  1  0.71419532  0.98622723  0.12189567  1
  O  O48  1  0.96921809  0.88126549  0.97238034  1
  O  O49  1  0.03078191  0.11873451  0.02761966  1
  O  O50  1  0.46921809  0.11873451  0.52761966  1
  O  O51  1  0.53078191  0.88126549  0.47238034  1
  O  O52  1  0.63765613  0.78487252  0.94653293  1
  O  O53  1  0.36234387  0.21512748  0.05346707  1
  O  O54  1  0.13765613  0.21512748  0.55346707  1
  O  O55  1  0.86234387  0.78487252  0.44653293  1
  O  O56  1  0.71721436  0.98238867  0.86583710  1
  O  O57  1  0.28278564  0.01761133  0.13416290  1
  O  O58  1  0.21721436  0.01761133  0.63416290  1
  O  O59  1  0.78278564  0.98238867  0.36583710  1
  O  O60  1  0.55810948  0.37016409  0.71964504  1
  O  O61  1  0.44189052  0.62983591  0.28035496  1
  O  O62  1  0.05810948  0.62983591  0.78035496  1
  O  O63  1  0.94189052  0.37016409  0.21964504  1
  O  O64  1  0.56190033  0.38806147  0.96111803  1
  O  O65  1  0.43809967  0.61193853  0.03888197  1
  O  O66  1  0.06190033  0.61193853  0.53888197  1
  O  O67  1  0.93809967  0.38806147  0.46111803  1
