# generated using pymatgen
data_Ba2La2TlCu2O9
_symmetry_space_group_name_H-M   'P 1'
_cell_length_a   3.82605348
_cell_length_b   3.82605348
_cell_length_c   16.49156164
_cell_angle_alpha   96.66132642
_cell_angle_beta   96.66132642
_cell_angle_gamma   90.00000000
_symmetry_Int_Tables_number   1
_chemical_formula_structural   Ba2La2TlCu2O9
_chemical_formula_sum   'Ba2 La2 Tl1 Cu2 O9'
_cell_volume   238.14412836
_cell_formula_units_Z   1
loop_
 _symmetry_equiv_pos_site_id
 _symmetry_equiv_pos_as_xyz
  1  'x, y, z'
loop_
 _atom_site_type_symbol
 _atom_site_label
 _atom_site_symmetry_multiplicity
 _atom_site_fract_x
 _atom_site_fract_y
 _atom_site_fract_z
 _atom_site_occupancy
  Ba  Ba0  1  0.41694578  0.41694578  0.83389156  1
  Ba  Ba1  1  0.58305422  0.58305422  0.16610844  1
  La  La2  1  0.29512729  0.29512729  0.59025459  1
  La  La3  1  0.70487271  0.70487271  0.40974541  1
  Tl  Tl4  1  0.00000000  0.00000000  0.00000000  1
  Cu  Cu5  1  0.15011347  0.15011347  0.30022694  1
  Cu  Cu6  1  0.84988653  0.84988653  0.69977306  1
  O  O7  1  0.06539963  0.06539963  0.13079927  1
  O  O8  1  0.93460037  0.93460037  0.86920073  1
  O  O9  1  0.22246413  0.22246413  0.44492826  1
  O  O10  1  0.77753587  0.77753587  0.55507174  1
  O  O11  1  0.50000000  0.50000000  0.00000000  1
  O  O12  1  0.15303525  0.65303525  0.30607050  1
  O  O13  1  0.84696475  0.34696475  0.69392950  1
  O  O14  1  0.65303525  0.15303525  0.30607050  1
  O  O15  1  0.34696475  0.84696475  0.69392950  1
