# generated using pymatgen
data_Ba5Na(GaSb3)2
_symmetry_space_group_name_H-M   'P 1'
_cell_length_a   10.86283626
_cell_length_b   12.82296875
_cell_length_c   14.45510691
_cell_angle_alpha   90.00000000
_cell_angle_beta   90.00000000
_cell_angle_gamma   90.00000000
_symmetry_Int_Tables_number   1
_chemical_formula_structural   Ba5Na(GaSb3)2
_chemical_formula_sum   'Ba20 Na4 Ga8 Sb24'
_cell_volume   2013.50691398
_cell_formula_units_Z   4
loop_
 _symmetry_equiv_pos_site_id
 _symmetry_equiv_pos_as_xyz
  1  'x, y, z'
loop_
 _atom_site_type_symbol
 _atom_site_label
 _atom_site_symmetry_multiplicity
 _atom_site_fract_x
 _atom_site_fract_y
 _atom_site_fract_z
 _atom_site_occupancy
  Ba  Ba0  1  0.97450146  0.57870942  0.74500502  1
  Ba  Ba1  1  0.02549854  0.42129058  0.25499498  1
  Ba  Ba2  1  0.02549854  0.92129058  0.24500502  1
  Ba  Ba3  1  0.47450146  0.42129058  0.25499498  1
  Ba  Ba4  1  0.97450146  0.07870942  0.75499498  1
  Ba  Ba5  1  0.52549854  0.57870942  0.74500502  1
  Ba  Ba6  1  0.52549854  0.07870942  0.75499498  1
  Ba  Ba7  1  0.47450146  0.92129058  0.24500502  1
  Ba  Ba8  1  0.75000000  0.66454837  0.30969545  1
  Ba  Ba9  1  0.25000000  0.33545163  0.69030455  1
  Ba  Ba10  1  0.25000000  0.83545163  0.80969545  1
  Ba  Ba11  1  0.75000000  0.16454837  0.19030455  1
  Ba  Ba12  1  0.48102379  0.82876417  0.53266352  1
  Ba  Ba13  1  0.51897621  0.17123583  0.46733648  1
  Ba  Ba14  1  0.51897621  0.67123583  0.03266352  1
  Ba  Ba15  1  0.98102379  0.17123583  0.46733648  1
  Ba  Ba16  1  0.48102379  0.32876417  0.96733648  1
  Ba  Ba17  1  0.01897621  0.82876417  0.53266352  1
  Ba  Ba18  1  0.01897621  0.32876417  0.96733648  1
  Ba  Ba19  1  0.98102379  0.67123583  0.03266352  1
  Na  Na20  1  -0.00000000  0.00000000  -0.00000000  1
  Na  Na21  1  0.00000000  0.50000000  0.50000000  1
  Na  Na22  1  0.50000000  0.00000000  -0.00000000  1
  Na  Na23  1  0.50000000  0.50000000  0.50000000  1
  Ga  Ga24  1  0.75000000  0.80880846  0.69337886  1
  Ga  Ga25  1  0.25000000  0.19119154  0.30662114  1
  Ga  Ga26  1  0.25000000  0.69119154  0.19337886  1
  Ga  Ga27  1  0.75000000  0.30880846  0.80662114  1
  Ga  Ga28  1  0.75000000  0.90801118  0.92213298  1
  Ga  Ga29  1  0.25000000  0.09198882  0.07786702  1
  Ga  Ga30  1  0.25000000  0.59198882  0.42213298  1
  Ga  Ga31  1  0.75000000  0.40801118  0.57786702  1
  Sb  Sb32  1  0.75000000  0.95579421  0.38391106  1
  Sb  Sb33  1  0.25000000  0.04420579  0.61608894  1
  Sb  Sb34  1  0.25000000  0.54420579  0.88391106  1
  Sb  Sb35  1  0.75000000  0.45579421  0.11608894  1
  Sb  Sb36  1  0.94058545  0.82569523  0.82057919  1
  Sb  Sb37  1  0.05941455  0.17430477  0.17942081  1
  Sb  Sb38  1  0.05941455  0.67430477  0.32057919  1
  Sb  Sb39  1  0.44058545  0.17430477  0.17942081  1
  Sb  Sb40  1  0.94058545  0.32569523  0.67942081  1
  Sb  Sb41  1  0.55941455  0.82569523  0.82057919  1
  Sb  Sb42  1  0.55941455  0.32569523  0.67942081  1
  Sb  Sb43  1  0.44058545  0.67430477  0.32057919  1
  Sb  Sb44  1  0.75000000  0.64123179  0.56608629  1
  Sb  Sb45  1  0.25000000  0.35876821  0.43391371  1
  Sb  Sb46  1  0.25000000  0.85876821  0.06608629  1
  Sb  Sb47  1  0.75000000  0.14123179  0.93391371  1
  Sb  Sb48  1  0.75000000  0.99234921  0.58426717  1
  Sb  Sb49  1  0.25000000  0.00765079  0.41573283  1
  Sb  Sb50  1  0.25000000  0.50765079  0.08426717  1
  Sb  Sb51  1  0.75000000  0.49234921  0.91573283  1
  Sb  Sb52  1  0.75000000  0.37681180  0.38673395  1
  Sb  Sb53  1  0.25000000  0.62318820  0.61326605  1
  Sb  Sb54  1  0.25000000  0.12318820  0.88673395  1
  Sb  Sb55  1  0.75000000  0.87681180  0.11326605  1
