# generated using pymatgen
data_BaMnVF7
_symmetry_space_group_name_H-M   'P 1'
_cell_length_a   5.32372609
_cell_length_b   7.49271410
_cell_length_c   15.20900534
_cell_angle_alpha   89.98608098
_cell_angle_beta   89.99999996
_cell_angle_gamma   110.80938804
_symmetry_Int_Tables_number   1
_chemical_formula_structural   BaMnVF7
_chemical_formula_sum   'Ba4 Mn4 V4 F28'
_cell_volume   567.09948981
_cell_formula_units_Z   4
loop_
 _symmetry_equiv_pos_site_id
 _symmetry_equiv_pos_as_xyz
  1  'x, y, z'
loop_
 _atom_site_type_symbol
 _atom_site_label
 _atom_site_symmetry_multiplicity
 _atom_site_fract_x
 _atom_site_fract_y
 _atom_site_fract_z
 _atom_site_occupancy
  Ba  Ba0  1  0.64875950  0.38755648  0.62345797  1
  Ba  Ba1  1  0.35124050  0.61244352  0.37654203  1
  Ba  Ba2  1  0.26120303  0.61244352  0.87654203  1
  Ba  Ba3  1  0.73879697  0.38755648  0.12345797  1
  Mn  Mn4  1  0.37077899  0.77317954  0.62736289  1
  Mn  Mn5  1  0.62922101  0.22682046  0.37263711  1
  Mn  Mn6  1  0.59759944  0.22682046  0.87263711  1
  Mn  Mn7  1  0.40240056  0.77317954  0.12736289  1
  V  V8  1  0.00000000  -0.00000000  0.00000000  1
  V  V9  1  0.00000000  -0.00000000  0.50000000  1
  V  V10  1  0.94356108  0.00000000  0.75000000  1
  V  V11  1  0.05643892  1.00000000  0.25000000  1
  F  F12  1  0.38249658  0.14780004  0.99429548  1
  F  F13  1  0.61750342  0.85219996  0.00570452  1
  F  F14  1  0.23469654  0.85219996  0.50570452  1
  F  F15  1  0.76530346  0.14780004  0.49429548  1
  F  F16  1  0.68391201  0.50355947  0.91400532  1
  F  F17  1  0.31608799  0.49644053  0.08599468  1
  F  F18  1  0.18035254  0.49644053  0.58599468  1
  F  F19  1  0.81964746  0.50355947  0.41400532  1
  F  F20  1  0.55514526  0.66536091  0.72604608  1
  F  F21  1  0.44485474  0.33463909  0.27395392  1
  F  F22  1  0.88978435  0.33463909  0.77395392  1
  F  F23  1  0.11021565  0.66536091  0.22604608  1
  F  F24  1  0.63595598  0.96693216  0.83304135  1
  F  F25  1  0.36404402  0.03306784  0.16695865  1
  F  F26  1  0.66902382  0.03306784  0.66695865  1
  F  F27  1  0.33097618  0.96693216  0.33304135  1
  F  F28  1  0.28944969  0.21039424  0.78018721  1
  F  F29  1  0.71055031  0.78960576  0.21981279  1
  F  F30  1  0.07905545  0.78960576  0.71981279  1
  F  F31  1  0.92094455  0.21039424  0.28018721  1
  F  F32  1  0.70187395  0.76894329  0.53806600  1
  F  F33  1  0.29812605  0.23105671  0.46193400  1
  F  F34  1  0.93293066  0.23105671  0.96193400  1
  F  F35  1  0.06706934  0.76894329  0.03806600  1
  F  F36  1  0.86052207  0.91696077  0.37510896  1
  F  F37  1  0.13947793  0.08303923  0.62489104  1
  F  F38  1  0.94356130  0.08303923  0.12489104  1
  F  F39  1  0.05643870  0.91696077  0.87510896  1
