# generated using pymatgen
data_BS4(NF)4
_symmetry_space_group_name_H-M   'P 1'
_cell_length_a   6.81088911
_cell_length_b   11.77148842
_cell_length_c   12.03944270
_cell_angle_alpha   90.00000000
_cell_angle_beta   90.00000000
_cell_angle_gamma   102.84687166
_symmetry_Int_Tables_number   1
_chemical_formula_structural   BS4(NF)4
_chemical_formula_sum   'B4 S16 N16 F16'
_cell_volume   941.09147615
_cell_formula_units_Z   4
loop_
 _symmetry_equiv_pos_site_id
 _symmetry_equiv_pos_as_xyz
  1  'x, y, z'
loop_
 _atom_site_type_symbol
 _atom_site_label
 _atom_site_symmetry_multiplicity
 _atom_site_fract_x
 _atom_site_fract_y
 _atom_site_fract_z
 _atom_site_occupancy
  B  B0  1  0.98341766  0.73789160  0.94475370  1
  B  B1  1  0.48341766  0.23789160  0.55524630  1
  B  B2  1  0.01658234  0.26210840  0.05524630  1
  B  B3  1  0.51658234  0.76210840  0.44475370  1
  S  S4  1  0.98286850  0.91437681  0.24031828  1
  S  S5  1  0.48286850  0.41437681  0.25968172  1
  S  S6  1  0.01713150  0.08562319  0.75968172  1
  S  S7  1  0.51713150  0.58562319  0.74031828  1
  S  S8  1  0.85401007  0.08392148  0.39151999  1
  S  S9  1  0.35401007  0.58392148  0.10848001  1
  S  S10  1  0.14598993  0.91607852  0.60848001  1
  S  S11  1  0.64598993  0.41607852  0.89151999  1
  S  S12  1  0.50056385  0.08661008  0.24467196  1
  S  S13  1  0.00056385  0.58661008  0.25532804  1
  S  S14  1  0.49943615  0.91338992  0.75532804  1
  S  S15  1  0.99943615  0.41338992  0.74467196  1
  S  S16  1  0.62226580  0.91153331  0.09714164  1
  S  S17  1  0.12226580  0.41153331  0.40285836  1
  S  S18  1  0.37773420  0.08846669  0.90285836  1
  S  S19  1  0.87773420  0.58846669  0.59714164  1
  N  N20  1  0.84908608  0.93061441  0.13666002  1
  N  N21  1  0.34908608  0.43061441  0.36333998  1
  N  N22  1  0.15091392  0.06938559  0.86333998  1
  N  N23  1  0.65091392  0.56938559  0.63666002  1
  N  N24  1  0.96186688  0.98688107  0.34811445  1
  N  N25  1  0.46186688  0.48688107  0.15188555  1
  N  N26  1  0.03813312  0.01311893  0.65188555  1
  N  N27  1  0.53813312  0.51311893  0.84811445  1
  N  N28  1  0.70799973  0.12898147  0.30786093  1
  N  N29  1  0.20799973  0.62898147  0.19213907  1
  N  N30  1  0.29200027  0.87101853  0.69213907  1
  N  N31  1  0.79200027  0.37101853  0.80786093  1
  N  N32  1  0.48816640  0.98702547  0.15572828  1
  N  N33  1  0.98816640  0.48702547  0.34427172  1
  N  N34  1  0.51183360  0.01297453  0.84427172  1
  N  N35  1  0.01183360  0.51297453  0.65572828  1
  F  F36  1  0.86296508  0.70030683  0.03995817  1
  F  F37  1  0.36296508  0.20030683  0.46004183  1
  F  F38  1  0.13703492  0.29969317  0.96004183  1
  F  F39  1  0.63703492  0.79969317  0.53995817  1
  F  F40  1  0.17277608  0.80660787  0.97751443  1
  F  F41  1  0.67277608  0.30660787  0.52248557  1
  F  F42  1  0.82722392  0.19339213  0.02248557  1
  F  F43  1  0.32722392  0.69339213  0.47751443  1
  F  F44  1  0.88278087  0.80370972  0.87427801  1
  F  F45  1  0.38278087  0.30370972  0.62572199  1
  F  F46  1  0.11721913  0.19629028  0.12572199  1
  F  F47  1  0.61721913  0.69629028  0.37427801  1
  F  F48  1  0.01328954  0.63770480  0.88567221  1
  F  F49  1  0.51328954  0.13770480  0.61432779  1
  F  F50  1  0.98671046  0.36229520  0.11432779  1
  F  F51  1  0.48671046  0.86229520  0.38567221  1
