# generated using pymatgen
data_ZrTiW4
_symmetry_space_group_name_H-M   'P 1'
_cell_length_a   5.36172690
_cell_length_b   5.36172690
_cell_length_c   5.36172690
_cell_angle_alpha   90.00000000
_cell_angle_beta   60.00000000
_cell_angle_gamma   120.00000000
_symmetry_Int_Tables_number   1
_chemical_formula_structural   ZrTiW4
_chemical_formula_sum   'Zr1 Ti1 W4'
_cell_volume   108.99311640
_cell_formula_units_Z   1
loop_
 _symmetry_equiv_pos_site_id
 _symmetry_equiv_pos_as_xyz
  1  'x, y, z'
loop_
 _atom_site_type_symbol
 _atom_site_label
 _atom_site_symmetry_multiplicity
 _atom_site_fract_x
 _atom_site_fract_y
 _atom_site_fract_z
 _atom_site_occupancy
  Zr  Zr0  1  0.00000000  0.00000000  0.00000000  1
  Ti  Ti1  1  0.50000000  0.75000000  0.75000000  1
  W  W2  1  0.75011122  0.37505561  0.87483317  1
  W  W3  1  0.24988878  0.37505561  0.37505561  1
  W  W4  1  0.24988878  0.87483317  0.37505561  1
  W  W5  1  0.75011122  0.37505561  0.37505561  1
