# generated using pymatgen
data_Cu64O
_symmetry_space_group_name_H-M   'P 1'
_cell_length_a   8.90105950
_cell_length_b   8.90105950
_cell_length_c   10.29532287
_cell_angle_alpha   90.00000000
_cell_angle_beta   90.00000000
_cell_angle_gamma   109.90232808
_symmetry_Int_Tables_number   1
_chemical_formula_structural   Cu64O
_chemical_formula_sum   'Cu64 O1'
_cell_volume   766.96923492
_cell_formula_units_Z   1
loop_
 _symmetry_equiv_pos_site_id
 _symmetry_equiv_pos_as_xyz
  1  'x, y, z'
loop_
 _atom_site_type_symbol
 _atom_site_label
 _atom_site_symmetry_multiplicity
 _atom_site_fract_x
 _atom_site_fract_y
 _atom_site_fract_z
 _atom_site_occupancy
  Cu  Cu0  1  0.68834440  0.31165560  0.87387264  1
  Cu  Cu1  1  0.68834440  0.31165560  0.12612736  1
  Cu  Cu2  1  0.18928934  0.06330520  0.74699720  1
  Cu  Cu3  1  0.93669480  0.81071066  0.25300280  1
  Cu  Cu4  1  0.93669480  0.81071066  0.74699720  1
  Cu  Cu5  1  0.18928934  0.06330520  0.25300280  1
  Cu  Cu6  1  0.19014495  0.80985505  0.87343830  1
  Cu  Cu7  1  0.19014495  0.80985505  0.12656170  1
  Cu  Cu8  1  0.43657145  0.06229992  0.62374016  1
  Cu  Cu9  1  0.93770008  0.56342855  0.37625984  1
  Cu  Cu10  1  0.93770008  0.56342855  0.62374016  1
  Cu  Cu11  1  0.43657145  0.06229992  0.37625984  1
  Cu  Cu12  1  0.43711631  0.81137949  0.74886743  1
  Cu  Cu13  1  0.18862051  0.56288369  0.25113257  1
  Cu  Cu14  1  0.18862051  0.56288369  0.74886743  1
  Cu  Cu15  1  0.43711631  0.81137949  0.25113257  1
  Cu  Cu16  1  0.68603302  0.06249235  0.50000000  1
  Cu  Cu17  1  0.93750765  0.31396698  0.50000000  1
  Cu  Cu18  1  0.43769807  0.56230193  0.62462746  1
  Cu  Cu19  1  0.43769807  0.56230193  0.37537254  1
  Cu  Cu20  1  0.68654991  0.31345009  0.62442832  1
  Cu  Cu21  1  0.68654991  0.31345009  0.37557168  1
  Cu  Cu22  1  0.44297131  0.06257899  0.87155040  1
  Cu  Cu23  1  0.93742101  0.55702869  0.12844960  1
  Cu  Cu24  1  0.93742101  0.55702869  0.87155040  1
  Cu  Cu25  1  0.44297131  0.06257899  0.12844960  1
  Cu  Cu26  1  0.92586354  0.07413646  0.84998211  1
  Cu  Cu27  1  0.92586354  0.07413646  0.15001789  1
  Cu  Cu28  1  0.43688433  0.56311567  0.87415100  1
  Cu  Cu29  1  0.43688433  0.56311567  0.12584900  1
  Cu  Cu30  1  0.18738658  0.81261342  0.62498265  1
  Cu  Cu31  1  0.18738658  0.81261342  0.37501735  1
  Cu  Cu32  1  0.43730916  0.81196720  0.50000000  1
  Cu  Cu33  1  0.18803280  0.56269084  0.50000000  1
  Cu  Cu34  1  0.43800035  0.81242589  -0.00000000  1
  Cu  Cu35  1  0.18757411  0.56199965  0.00000000  1
  Cu  Cu36  1  0.68773766  0.81274094  0.62477227  1
  Cu  Cu37  1  0.18725906  0.31226234  0.37522773  1
  Cu  Cu38  1  0.18725906  0.31226234  0.62477227  1
  Cu  Cu39  1  0.68773766  0.81274094  0.37522773  1
  Cu  Cu40  1  0.22043110  0.07135939  0.00000000  1
  Cu  Cu41  1  0.92864061  0.77956890  -0.00000000  1
  Cu  Cu42  1  0.44276963  0.31699350  -0.00000000  1
  Cu  Cu43  1  0.68300650  0.55723037  -0.00000000  1
  Cu  Cu44  1  0.68439626  0.81021377  0.87346090  1
  Cu  Cu45  1  0.18978623  0.31560374  0.12653910  1
  Cu  Cu46  1  0.18978623  0.31560374  0.87346090  1
  Cu  Cu47  1  0.68439626  0.81021377  0.12653910  1
  Cu  Cu48  1  0.18808747  0.06246785  0.50000000  1
  Cu  Cu49  1  0.93753215  0.81191253  0.50000000  1
  Cu  Cu50  1  0.68618379  0.06332562  -0.00000000  1
  Cu  Cu51  1  0.93667438  0.31381621  0.00000000  1
  Cu  Cu52  1  0.68198374  0.06267044  0.74534764  1
  Cu  Cu53  1  0.93732956  0.31801626  0.25465236  1
  Cu  Cu54  1  0.93732956  0.31801626  0.74534764  1
  Cu  Cu55  1  0.68198374  0.06267044  0.25465236  1
  Cu  Cu56  1  0.43800811  0.31267798  0.74977591  1
  Cu  Cu57  1  0.68732202  0.56199189  0.25022409  1
  Cu  Cu58  1  0.68732202  0.56199189  0.74977591  1
  Cu  Cu59  1  0.43800811  0.31267798  0.25022409  1
  Cu  Cu60  1  0.93726116  0.06273884  0.61894426  1
  Cu  Cu61  1  0.93726116  0.06273884  0.38105574  1
  Cu  Cu62  1  0.43728907  0.31320189  0.50000000  1
  Cu  Cu63  1  0.68679811  0.56271093  0.50000000  1
  O  O64  1  0.99744930  0.00255070  -0.00000000  1
