# generated using pymatgen
data_BaCa2Mg(SiO4)2
_symmetry_space_group_name_H-M   'P 1'
_cell_length_a   5.49807148
_cell_length_b   5.49807148
_cell_length_c   6.85576748
_cell_angle_alpha   90.00000000
_cell_angle_beta   90.00000000
_cell_angle_gamma   119.99999399
_symmetry_Int_Tables_number   1
_chemical_formula_structural   BaCa2Mg(SiO4)2
_chemical_formula_sum   'Ba1 Ca2 Mg1 Si2 O8'
_cell_volume   179.47646264
_cell_formula_units_Z   1
loop_
 _symmetry_equiv_pos_site_id
 _symmetry_equiv_pos_as_xyz
  1  'x, y, z'
loop_
 _atom_site_type_symbol
 _atom_site_label
 _atom_site_symmetry_multiplicity
 _atom_site_fract_x
 _atom_site_fract_y
 _atom_site_fract_z
 _atom_site_occupancy
  Ba  Ba0  1  -0.00000000  -0.00000000  -0.00000000  1
  Ca  Ca1  1  0.66666700  0.33333300  0.34089741  1
  Ca  Ca2  1  0.33333300  0.66666700  0.65910259  1
  Mg  Mg3  1  -0.00000000  -0.00000000  0.50000000  1
  Si  Si4  1  0.66666700  0.33333300  0.77614133  1
  Si  Si5  1  0.33333300  0.66666700  0.22385867  1
  O  O6  1  0.82468920  0.64937840  0.67674951  1
  O  O7  1  0.17531080  0.35062160  0.32325049  1
  O  O8  1  0.82468920  0.17531080  0.67674951  1
  O  O9  1  0.17531080  0.82468920  0.32325049  1
  O  O10  1  0.35062160  0.17531080  0.67674951  1
  O  O11  1  0.64937840  0.82468920  0.32325049  1
  O  O12  1  0.66666700  0.33333300  0.01280558  1
  O  O13  1  0.33333300  0.66666700  0.98719442  1
