# generated using pymatgen
data_Dy2Cu(WO4)4
_symmetry_space_group_name_H-M   'P 1'
_cell_length_a   5.68884684
_cell_length_b   10.09544208
_cell_length_c   11.33911966
_cell_angle_alpha   109.69693135
_cell_angle_beta   90.00000000
_cell_angle_gamma   106.36486841
_symmetry_Int_Tables_number   1
_chemical_formula_structural   Dy2Cu(WO4)4
_chemical_formula_sum   'Dy4 Cu2 W8 O32'
_cell_volume   585.01900177
_cell_formula_units_Z   2
loop_
 _symmetry_equiv_pos_site_id
 _symmetry_equiv_pos_as_xyz
  1  'x, y, z'
loop_
 _atom_site_type_symbol
 _atom_site_label
 _atom_site_symmetry_multiplicity
 _atom_site_fract_x
 _atom_site_fract_y
 _atom_site_fract_z
 _atom_site_occupancy
  Dy  Dy0  1  0.48343402  0.29859451  0.95511035  1
  Dy  Dy1  1  0.51656598  0.70140549  0.04488965  1
  Dy  Dy2  1  0.18483951  0.70140549  0.54488965  1
  Dy  Dy3  1  0.81516049  0.29859451  0.45511035  1
  Cu  Cu4  1  0.66233890  0.00000000  0.75000000  1
  Cu  Cu5  1  0.33766110  1.00000000  0.25000000  1
  W  W6  1  0.69089146  0.62618542  0.71514273  1
  W  W7  1  0.30910854  0.37381458  0.28485727  1
  W  W8  1  0.06470604  0.37381458  0.78485727  1
  W  W9  1  0.93529396  0.62618542  0.21514273  1
  W  W10  1  0.75603358  0.88855841  0.40946639  1
  W  W11  1  0.24396642  0.11144159  0.59053361  1
  W  W12  1  0.86747516  0.11144159  0.09053361  1
  W  W13  1  0.13252484  0.88855841  0.90946639  1
  O  O14  1  0.41246483  0.49530532  0.73541565  1
  O  O15  1  0.58753517  0.50469468  0.26458435  1
  O  O16  1  0.91715950  0.50469468  0.76458435  1
  O  O17  1  0.08284050  0.49530532  0.23541565  1
  O  O18  1  0.53743387  0.74929947  0.67853362  1
  O  O19  1  0.46256613  0.25070053  0.32146638  1
  O  O20  1  0.78813439  0.25070053  0.82146638  1
  O  O21  1  0.21186561  0.74929947  0.17853362  1
  O  O22  1  0.77848600  0.73703619  0.89849971  1
  O  O23  1  0.22151400  0.26296381  0.10150029  1
  O  O24  1  0.04144981  0.26296381  0.60150029  1
  O  O25  1  0.95855019  0.73703619  0.39849971  1
  O  O26  1  0.24286534  0.21620504  0.77087565  1
  O  O27  1  0.75713466  0.78379496  0.22912435  1
  O  O28  1  0.02666030  0.78379496  0.72912435  1
  O  O29  1  0.97333970  0.21620504  0.27087565  1
  O  O30  1  0.87497825  0.97984888  0.58933599  1
  O  O31  1  0.12502175  0.02015112  0.41066401  1
  O  O32  1  0.89512937  0.02015112  0.91066401  1
  O  O33  1  0.10487063  0.97984888  0.08933599  1
  O  O34  1  0.39379080  0.02804982  0.88036989  1
  O  O35  1  0.60620920  0.97195018  0.11963011  1
  O  O36  1  0.36574098  0.97195018  0.61963011  1
  O  O37  1  0.63425902  0.02804982  0.38036989  1
  O  O38  1  0.52117284  0.23906112  0.57384416  1
  O  O39  1  0.47882716  0.76093888  0.42615584  1
  O  O40  1  0.28211172  0.76093888  0.92615584  1
  O  O41  1  0.71788828  0.23906112  0.07384416  1
  O  O42  1  0.25368943  0.46529221  0.94506038  1
  O  O43  1  0.74631057  0.53470779  0.05493962  1
  O  O44  1  0.78839723  0.53470779  0.55493962  1
  O  O45  1  0.21160277  0.46529221  0.44506038  1
