# generated using pymatgen
data_Zn4Fe5(P3O14)2
_symmetry_space_group_name_H-M   'P 1'
_cell_length_a   6.41695569
_cell_length_b   8.88781195
_cell_length_c   10.12872700
_cell_angle_alpha   71.43165344
_cell_angle_beta   77.94456415
_cell_angle_gamma   74.51890894
_symmetry_Int_Tables_number   1
_chemical_formula_structural   Zn4Fe5(P3O14)2
_chemical_formula_sum   'Zn4 Fe5 P6 O28'
_cell_volume   522.85716394
_cell_formula_units_Z   1
loop_
 _symmetry_equiv_pos_site_id
 _symmetry_equiv_pos_as_xyz
  1  'x, y, z'
loop_
 _atom_site_type_symbol
 _atom_site_label
 _atom_site_symmetry_multiplicity
 _atom_site_fract_x
 _atom_site_fract_y
 _atom_site_fract_z
 _atom_site_occupancy
  Zn  Zn0  1  0.02241704  0.48889397  0.20188680  1
  Zn  Zn1  1  0.97758296  0.51110603  0.79811320  1
  Zn  Zn2  1  0.04533181  0.84646411  0.22228745  1
  Zn  Zn3  1  0.95466819  0.15353589  0.77771255  1
  Fe  Fe4  1  0.47376530  0.22597847  0.17430754  1
  Fe  Fe5  1  0.52623470  0.77402153  0.82569246  1
  Fe  Fe6  1  0.29222010  0.62782796  0.51757443  1
  Fe  Fe7  1  0.70777990  0.37217204  0.48242557  1
  Fe  Fe8  1  0.50000000  0.00000000  -0.00000000  1
  P  P9  1  0.01155462  0.20666123  0.06976941  1
  P  P10  1  0.98844538  0.79333877  0.93023059  1
  P  P11  1  0.47883426  0.60120981  0.19118815  1
  P  P12  1  0.52116574  0.39879019  0.80881185  1
  P  P13  1  0.23715984  0.28083310  0.47756661  1
  P  P14  1  0.76284016  0.71916690  0.52243339  1
  O  O15  1  0.36789309  0.18687729  0.37347458  1
  O  O16  1  0.63210691  0.81312271  0.62652542  1
  O  O17  1  0.78934103  0.20491029  0.15726480  1
  O  O18  1  0.21065897  0.79508971  0.84273520  1
  O  O19  1  0.13394430  0.30114387  0.12245808  1
  O  O20  1  0.86605570  0.69885613  0.87754192  1
  O  O21  1  0.38522799  0.47547866  0.15709534  1
  O  O22  1  0.61477201  0.52452134  0.84290466  1
  O  O23  1  0.49376979  0.25618665  0.94540078  1
  O  O24  1  0.50623021  0.74381335  0.05459922  1
  O  O25  1  0.02492591  0.39958832  0.41370341  1
  O  O26  1  0.97507409  0.60041168  0.58629659  1
  O  O27  1  0.00055035  0.72018498  0.09155419  1
  O  O28  1  0.99944965  0.27981502  0.90844581  1
  O  O29  1  0.30838935  0.48740537  0.74352782  1
  O  O30  1  0.69161065  0.51259463  0.25647218  1
  O  O31  1  0.30786433  0.68223660  0.29829591  1
  O  O32  1  0.69213567  0.31776340  0.70170409  1
  O  O33  1  0.15394598  0.02969759  0.08348487  1
  O  O34  1  0.84605402  0.97030241  0.91651513  1
  O  O35  1  0.82720786  0.83001057  0.37994147  1
  O  O36  1  0.17279214  0.16998943  0.62005853  1
  O  O37  1  0.37746498  0.39648030  0.49332454  1
  O  O38  1  0.62253502  0.60351970  0.50667546  1
  O  O39  1  0.53046304  0.00459632  0.16808739  1
  O  O40  1  0.46953696  0.99540368  0.83191261  1
  O  O41  1  0.23183074  0.81821157  0.52127712  1
  O  O42  1  0.76816926  0.18178843  0.47872288  1
