# generated using pymatgen
data_ZrCrCuSe4
_symmetry_space_group_name_H-M   'P 1'
_cell_length_a   7.60437883
_cell_length_b   7.68910315
_cell_length_c   7.53322801
_cell_angle_alpha   90.00000000
_cell_angle_beta   60.30903289
_cell_angle_gamma   120.36924793
_symmetry_Int_Tables_number   1
_chemical_formula_structural   ZrCrCuSe4
_chemical_formula_sum   'Zr2 Cr2 Cu2 Se8'
_cell_volume   311.16774786
_cell_formula_units_Z   2
loop_
 _symmetry_equiv_pos_site_id
 _symmetry_equiv_pos_as_xyz
  1  'x, y, z'
loop_
 _atom_site_type_symbol
 _atom_site_label
 _atom_site_symmetry_multiplicity
 _atom_site_fract_x
 _atom_site_fract_y
 _atom_site_fract_z
 _atom_site_occupancy
  Zr  Zr0  1  0.00000000  -0.00000000  0.50000000  1
  Zr  Zr1  1  0.00000000  -0.00000000  0.00000000  1
  Cr  Cr2  1  0.50000000  0.50000000  0.00000000  1
  Cr  Cr3  1  0.50000000  -0.00000000  0.00000000  1
  Cu  Cu4  1  0.74718144  0.37359072  0.37640928  1
  Cu  Cu5  1  0.25281856  0.62640928  0.62359072  1
  Se  Se6  1  0.01892710  0.75861463  0.24053645  1
  Se  Se7  1  0.01892710  0.26031247  0.24053645  1
  Se  Se8  1  0.50268325  0.25134163  0.76823417  1
  Se  Se9  1  0.50268325  0.25134163  0.22908257  1
  Se  Se10  1  0.98107290  0.24138537  0.75946355  1
  Se  Se11  1  0.98107290  0.73968753  0.75946355  1
  Se  Se12  1  0.49731675  0.74865837  0.23176583  1
  Se  Se13  1  0.49731675  0.74865837  0.77091743  1
