# generated using pymatgen
data_ZrAlRh
_symmetry_space_group_name_H-M   'P 1'
_cell_length_a   5.33530239
_cell_length_b   5.33534420
_cell_length_c   8.28078236
_cell_angle_alpha   90.00000000
_cell_angle_beta   90.00000000
_cell_angle_gamma   60.65849441
_symmetry_Int_Tables_number   1
_chemical_formula_structural   ZrAlRh
_chemical_formula_sum   'Zr4 Al4 Rh4'
_cell_volume   205.47885520
_cell_formula_units_Z   4
loop_
 _symmetry_equiv_pos_site_id
 _symmetry_equiv_pos_as_xyz
  1  'x, y, z'
loop_
 _atom_site_type_symbol
 _atom_site_label
 _atom_site_symmetry_multiplicity
 _atom_site_fract_x
 _atom_site_fract_y
 _atom_site_fract_z
 _atom_site_occupancy
  Zr  Zr0  1  0.33415517  0.33415308  0.54059312  1
  Zr  Zr1  1  0.66900126  0.66900506  0.42865775  1
  Zr  Zr2  1  0.66900126  0.66900506  0.07134225  1
  Zr  Zr3  1  0.33415517  0.33415308  0.95940688  1
  Al  Al4  1  0.99507264  0.99507264  0.49422267  1
  Al  Al5  1  0.99507264  0.99507264  0.00577733  1
  Al  Al6  1  0.83101088  0.34604077  0.75000000  1
  Al  Al7  1  0.34604027  0.83100202  0.75000000  1
  Rh  Rh8  1  0.83143700  0.83145040  0.75000000  1
  Rh  Rh9  1  0.16807078  0.66139127  0.25000000  1
  Rh  Rh10  1  0.66139747  0.16807283  0.25000000  1
  Rh  Rh11  1  0.16558545  0.16558114  0.25000000  1
