# generated using pymatgen
data_YbScAl4
_symmetry_space_group_name_H-M   'P 1'
_cell_length_a   5.49655321
_cell_length_b   5.49655321
_cell_length_c   5.49655321
_cell_angle_alpha   90.00000000
_cell_angle_beta   60.00000000
_cell_angle_gamma   120.00000000
_symmetry_Int_Tables_number   1
_chemical_formula_structural   YbScAl4
_chemical_formula_sum   'Yb1 Sc1 Al4'
_cell_volume   117.42384918
_cell_formula_units_Z   1
loop_
 _symmetry_equiv_pos_site_id
 _symmetry_equiv_pos_as_xyz
  1  'x, y, z'
loop_
 _atom_site_type_symbol
 _atom_site_label
 _atom_site_symmetry_multiplicity
 _atom_site_fract_x
 _atom_site_fract_y
 _atom_site_fract_z
 _atom_site_occupancy
  Yb  Yb0  1  0.00000000  0.00000000  0.00000000  1
  Sc  Sc1  1  0.50000000  0.75000000  0.75000000  1
  Al  Al2  1  0.75034970  0.37517485  0.87447545  1
  Al  Al3  1  0.24965030  0.37517485  0.37517485  1
  Al  Al4  1  0.24965030  0.87447545  0.37517485  1
  Al  Al5  1  0.75034970  0.37517485  0.37517485  1
