# generated using pymatgen
data_ZnHgSe2
_symmetry_space_group_name_H-M   'P 1'
_cell_length_a   4.25445433
_cell_length_b   4.25445433
_cell_length_c   7.38509124
_cell_angle_alpha   73.25914358
_cell_angle_beta   90.00000000
_cell_angle_gamma   120.00000000
_symmetry_Int_Tables_number   1
_chemical_formula_structural   ZnHgSe2
_chemical_formula_sum   'Zn1 Hg1 Se2'
_cell_volume   109.17334021
_cell_formula_units_Z   1
loop_
 _symmetry_equiv_pos_site_id
 _symmetry_equiv_pos_as_xyz
  1  'x, y, z'
loop_
 _atom_site_type_symbol
 _atom_site_label
 _atom_site_symmetry_multiplicity
 _atom_site_fract_x
 _atom_site_fract_y
 _atom_site_fract_z
 _atom_site_occupancy
  Zn  Zn0  1  0.50079612  0.00159223  0.49761165  1
  Hg  Hg1  1  0.99809972  0.99619944  0.00570085  1
  Se  Se2  1  0.86908406  0.73816813  0.39274781  1
  Se  Se3  1  0.38202010  0.76404021  0.85393969  1
