# generated using pymatgen
data_ZrCrFe
_symmetry_space_group_name_H-M   'P 1'
_cell_length_a   5.03423671
_cell_length_b   5.03466509
_cell_length_c   8.09480358
_cell_angle_alpha   90.00000000
_cell_angle_beta   90.00000000
_cell_angle_gamma   59.39026240
_symmetry_Int_Tables_number   1
_chemical_formula_structural   ZrCrFe
_chemical_formula_sum   'Zr4 Cr4 Fe4'
_cell_volume   176.57933757
_cell_formula_units_Z   4
loop_
 _symmetry_equiv_pos_site_id
 _symmetry_equiv_pos_as_xyz
  1  'x, y, z'
loop_
 _atom_site_type_symbol
 _atom_site_label
 _atom_site_symmetry_multiplicity
 _atom_site_fract_x
 _atom_site_fract_y
 _atom_site_fract_z
 _atom_site_occupancy
  Zr  Zr0  1  0.33353215  0.33354780  0.56084838  1
  Zr  Zr1  1  0.66586619  0.66590150  0.43655972  1
  Zr  Zr2  1  0.66586619  0.66590150  0.06344028  1
  Zr  Zr3  1  0.33353215  0.33354780  0.93915162  1
  Cr  Cr4  1  0.00024554  0.00019515  0.50340233  1
  Cr  Cr5  1  0.00024554  0.00019515  0.99659767  1
  Cr  Cr6  1  0.83135350  0.33898543  0.75000000  1
  Cr  Cr7  1  0.33900718  0.83134974  0.75000000  1
  Fe  Fe8  1  0.82892226  0.82894010  0.75000000  1
  Fe  Fe9  1  0.16730383  0.66512785  0.25000000  1
  Fe  Fe10  1  0.66512332  0.16730279  0.25000000  1
  Fe  Fe11  1  0.16900216  0.16900517  0.25000000  1
