# generated using pymatgen
data_ZrNb2ZnO8
_symmetry_space_group_name_H-M   'P 1'
_cell_length_a   4.86368993
_cell_length_b   5.14224428
_cell_length_c   5.88077737
_cell_angle_alpha   90.00000000
_cell_angle_beta   90.00000000
_cell_angle_gamma   90.72157746
_symmetry_Int_Tables_number   1
_chemical_formula_structural   ZrNb2ZnO8
_chemical_formula_sum   'Zr1 Nb2 Zn1 O8'
_cell_volume   147.06823509
_cell_formula_units_Z   1
loop_
 _symmetry_equiv_pos_site_id
 _symmetry_equiv_pos_as_xyz
  1  'x, y, z'
loop_
 _atom_site_type_symbol
 _atom_site_label
 _atom_site_symmetry_multiplicity
 _atom_site_fract_x
 _atom_site_fract_y
 _atom_site_fract_z
 _atom_site_occupancy
  Zr  Zr0  1  0.50000000  0.75000000  0.32889271  1
  Nb  Nb1  1  0.00000000  0.25000000  0.17064248  1
  Nb  Nb2  1  0.00000000  0.75000000  0.81409110  1
  Zn  Zn3  1  0.50000000  0.25000000  0.69410521  1
  O  O4  1  0.77673063  0.57228552  0.11211456  1
  O  O5  1  0.22326937  0.92771448  0.11211456  1
  O  O6  1  0.21281642  0.43263371  0.89213035  1
  O  O7  1  0.78718358  0.06736629  0.89213035  1
  O  O8  1  0.73960325  0.09093497  0.37421701  1
  O  O9  1  0.26039675  0.40906503  0.37421701  1
  O  O10  1  0.26631608  0.90533516  0.61767234  1
  O  O11  1  0.73368392  0.59466484  0.61767234  1
