# generated using pymatgen
data_ZnCu3
_symmetry_space_group_name_H-M   'P 1'
_cell_length_a   2.60864267
_cell_length_b   2.60891783
_cell_length_c   8.36600922
_cell_angle_alpha   90.00000000
_cell_angle_beta   90.00000000
_cell_angle_gamma   119.99648546
_symmetry_Int_Tables_number   1
_chemical_formula_structural   ZnCu3
_chemical_formula_sum   'Zn1 Cu3'
_cell_volume   49.31049304
_cell_formula_units_Z   1
loop_
 _symmetry_equiv_pos_site_id
 _symmetry_equiv_pos_as_xyz
  1  'x, y, z'
loop_
 _atom_site_type_symbol
 _atom_site_label
 _atom_site_symmetry_multiplicity
 _atom_site_fract_x
 _atom_site_fract_y
 _atom_site_fract_z
 _atom_site_occupancy
  Zn  Zn0  1  0.66668462  0.33336923  0.37500000  1
  Cu  Cu1  1  0.66665640  0.33331280  0.87500000  1
  Cu  Cu2  1  0.33332949  0.66665898  0.12063563  1
  Cu  Cu3  1  0.33332949  0.66665898  0.62936437  1
