# generated using pymatgen
data_ZrTiS4
_symmetry_space_group_name_H-M   'P 1'
_cell_length_a   3.57054716
_cell_length_b   3.57054134
_cell_length_c   12.29576046
_cell_angle_alpha   90.00000001
_cell_angle_beta   90.00182943
_cell_angle_gamma   119.99992845
_symmetry_Int_Tables_number   1
_chemical_formula_structural   ZrTiS4
_chemical_formula_sum   'Zr1 Ti1 S4'
_cell_volume   135.75479478
_cell_formula_units_Z   1
loop_
 _symmetry_equiv_pos_site_id
 _symmetry_equiv_pos_as_xyz
  1  'x, y, z'
loop_
 _atom_site_type_symbol
 _atom_site_label
 _atom_site_symmetry_multiplicity
 _atom_site_fract_x
 _atom_site_fract_y
 _atom_site_fract_z
 _atom_site_occupancy
  Zr  Zr0  1  -0.00000000  0.00000000  0.50000000  1
  Ti  Ti1  1  -0.00000000  0.00000000  0.00000000  1
  S  S2  1  0.33334363  0.66667181  0.11024333  1
  S  S3  1  0.33335787  0.66667893  0.62335913  1
  S  S4  1  0.66664213  0.33332107  0.37664087  1
  S  S5  1  0.66665637  0.33332819  0.88975667  1
