# generated using pymatgen
data_UMnAl
_symmetry_space_group_name_H-M   'P 1'
_cell_length_a   5.14466421
_cell_length_b   5.14466421
_cell_length_c   5.14466421
_cell_angle_alpha   85.56731242
_cell_angle_beta   60.06438328
_cell_angle_gamma   115.06749629
_symmetry_Int_Tables_number   1
_chemical_formula_structural   UMnAl
_chemical_formula_sum   'U2 Mn2 Al2'
_cell_volume   99.39311695
_cell_formula_units_Z   2
loop_
 _symmetry_equiv_pos_site_id
 _symmetry_equiv_pos_as_xyz
  1  'x, y, z'
loop_
 _atom_site_type_symbol
 _atom_site_label
 _atom_site_symmetry_multiplicity
 _atom_site_fract_x
 _atom_site_fract_y
 _atom_site_fract_z
 _atom_site_occupancy
  U  U0  1  0.50000000  0.78660936  0.71339064  1
  U  U1  1  -0.00000000  0.96339064  0.03660936  1
  Mn  Mn2  1  0.25000000  0.87500000  0.37500000  1
  Mn  Mn3  1  0.75000000  0.37500000  0.37500000  1
  Al  Al4  1  0.75000000  0.37500000  0.87500000  1
  Al  Al5  1  0.25000000  0.37500000  0.37500000  1
