# generated using pymatgen
data_Zn2Cr3GaSe8
_symmetry_space_group_name_H-M   'P 1'
_cell_length_a   7.53242826
_cell_length_b   7.54274004
_cell_length_c   7.53242826
_cell_angle_alpha   90.00000000
_cell_angle_beta   60.00000000
_cell_angle_gamma   119.95478661
_symmetry_Int_Tables_number   1
_chemical_formula_structural   Zn2Cr3GaSe8
_chemical_formula_sum   'Zn2 Cr3 Ga1 Se8'
_cell_volume   302.81724865
_cell_formula_units_Z   1
loop_
 _symmetry_equiv_pos_site_id
 _symmetry_equiv_pos_as_xyz
  1  'x, y, z'
loop_
 _atom_site_type_symbol
 _atom_site_label
 _atom_site_symmetry_multiplicity
 _atom_site_fract_x
 _atom_site_fract_y
 _atom_site_fract_z
 _atom_site_occupancy
  Zn  Zn0  1  0.25109802  0.12664703  0.12445099  1
  Zn  Zn1  1  0.74890198  0.87335297  0.87554901  1
  Cr  Cr2  1  0.50000000  0.50000000  0.50000000  1
  Cr  Cr3  1  -0.00000000  0.50000000  0.00000000  1
  Cr  Cr4  1  -0.00000000  0.50000000  0.50000000  1
  Ga  Ga5  1  0.50000000  0.00000000  0.50000000  1
  Se  Se6  1  0.97905974  0.71858961  0.26047013  1
  Se  Se7  1  0.98672752  0.26645463  0.25663624  1
  Se  Se8  1  0.52309088  0.26645463  0.72027288  1
  Se  Se9  1  0.52309088  0.26645463  0.25663624  1
  Se  Se10  1  0.02094026  0.28141039  0.73952987  1
  Se  Se11  1  0.01327248  0.73354537  0.74336376  1
  Se  Se12  1  0.47690912  0.73354537  0.27972712  1
  Se  Se13  1  0.47690912  0.73354537  0.74336376  1
