# generated using pymatgen
data_U2Si3Os
_symmetry_space_group_name_H-M   'P 1'
_cell_length_a   3.67847781
_cell_length_b   4.18592528
_cell_length_c   7.08980205
_cell_angle_alpha   89.99383822
_cell_angle_beta   90.00000000
_cell_angle_gamma   90.00000000
_symmetry_Int_Tables_number   1
_chemical_formula_structural   U2Si3Os
_chemical_formula_sum   'U2 Si3 Os1'
_cell_volume   109.16758909
_cell_formula_units_Z   1
loop_
 _symmetry_equiv_pos_site_id
 _symmetry_equiv_pos_as_xyz
  1  'x, y, z'
loop_
 _atom_site_type_symbol
 _atom_site_label
 _atom_site_symmetry_multiplicity
 _atom_site_fract_x
 _atom_site_fract_y
 _atom_site_fract_z
 _atom_site_occupancy
  U  U0  1  0.00000000  0.99997245  0.00584761  1
  U  U1  1  -0.00000000  0.50001301  0.49526767  1
  Si  Si2  1  0.50000000  0.49993115  0.83023728  1
  Si  Si3  1  0.50000000  0.49994763  0.15953633  1
  Si  Si4  1  0.50000000  0.00003022  0.67507986  1
  Os  Os5  1  0.50000000  0.99990554  0.33403124  1
