# generated using pymatgen
data_Zr2Ti(PbO3)3
_symmetry_space_group_name_H-M   'P 1'
_cell_length_a   5.85276320
_cell_length_b   7.29112999
_cell_length_c   5.85276312
_cell_angle_alpha   90.00334944
_cell_angle_beta   119.99864606
_cell_angle_gamma   89.99665057
_symmetry_Int_Tables_number   1
_chemical_formula_structural   Zr2Ti(PbO3)3
_chemical_formula_sum   'Zr2 Ti1 Pb3 O9'
_cell_volume   216.29839535
_cell_formula_units_Z   1
loop_
 _symmetry_equiv_pos_site_id
 _symmetry_equiv_pos_as_xyz
  1  'x, y, z'
loop_
 _atom_site_type_symbol
 _atom_site_label
 _atom_site_symmetry_multiplicity
 _atom_site_fract_x
 _atom_site_fract_y
 _atom_site_fract_z
 _atom_site_occupancy
  Zr  Zr0  1  0.33335597  0.67965561  0.66664403  1
  Zr  Zr1  1  0.00001667  0.02409178  0.99998333  1
  Ti  Ti2  1  0.66669253  0.35505356  0.33330847  1
  Pb  Pb3  1  0.66669444  0.90658420  0.33330556  1
  Pb  Pb4  1  0.33336324  0.22444143  0.66663676  1
  Pb  Pb5  1  0.00003113  0.55773094  0.99996887  1
  O  O6  1  0.50037742  0.47697940  0.00076097  1
  O  O7  1  0.15927287  0.81839821  0.31858858  1
  O  O8  1  0.82278907  0.16057984  0.64559843  1
  O  O9  1  0.99923903  0.47697940  0.49962258  1
  O  O10  1  0.68141142  0.81839821  0.84072713  1
  O  O11  1  0.35440157  0.16057984  0.17721093  1
  O  O12  1  0.50037520  0.47697223  0.49962480  1
  O  O13  1  0.15928714  0.81837126  0.84071286  1
  O  O14  1  0.82279230  0.16058410  0.17720770  1
