# generated using pymatgen
data_ZnFe4Cu10(SnS4)5
_symmetry_space_group_name_H-M   'P 1'
_cell_length_a   5.43287869
_cell_length_b   5.43287869
_cell_length_c   27.00224321
_cell_angle_alpha   95.77375136
_cell_angle_beta   95.77375136
_cell_angle_gamma   90.00000000
_symmetry_Int_Tables_number   1
_chemical_formula_structural   ZnFe4Cu10(SnS4)5
_chemical_formula_sum   'Zn1 Fe4 Cu10 Sn5 S20'
_cell_volume   788.89555291
_cell_formula_units_Z   1
loop_
 _symmetry_equiv_pos_site_id
 _symmetry_equiv_pos_as_xyz
  1  'x, y, z'
loop_
 _atom_site_type_symbol
 _atom_site_label
 _atom_site_symmetry_multiplicity
 _atom_site_fract_x
 _atom_site_fract_y
 _atom_site_fract_z
 _atom_site_occupancy
  Zn  Zn0  1  0.40000000  0.40000000  0.80000000  1
  Fe  Fe1  1  0.00001388  0.00001388  0.00002776  1
  Fe  Fe2  1  0.60001681  0.60001681  0.20003362  1
  Fe  Fe3  1  0.19998319  0.19998319  0.39996638  1
  Fe  Fe4  1  0.79998612  0.79998612  0.59997224  1
  Cu  Cu5  1  0.55001250  0.05001250  0.10002500  1
  Cu  Cu6  1  0.15000000  0.65000000  0.30000000  1
  Cu  Cu7  1  0.74998750  0.24998750  0.49997500  1
  Cu  Cu8  1  0.34971457  0.84971457  0.69942914  1
  Cu  Cu9  1  0.95028543  0.45028543  0.90057086  1
  Cu  Cu10  1  0.05001250  0.55001250  0.10002500  1
  Cu  Cu11  1  0.65000000  0.15000000  0.30000000  1
  Cu  Cu12  1  0.24998750  0.74998750  0.49997500  1
  Cu  Cu13  1  0.84971457  0.34971457  0.69942914  1
  Cu  Cu14  1  0.45028543  0.95028543  0.90057086  1
  Sn  Sn15  1  0.50005024  0.50005024  0.00010047  1
  Sn  Sn16  1  0.10001781  0.10001781  0.20003561  1
  Sn  Sn17  1  0.69998219  0.69998219  0.39996439  1
  Sn  Sn18  1  0.29994976  0.29994976  0.59989953  1
  Sn  Sn19  1  0.90000000  0.90000000  0.80000000  1
  S  S20  1  0.80694515  0.80694515  0.14711843  1
  S  S21  1  0.40685632  0.40685632  0.34710224  1
  S  S22  1  0.00709795  0.00709795  0.54713768  1
  S  S23  1  0.61404817  0.61404817  0.74608625  1
  S  S24  1  0.20742385  0.20742385  0.94730887  1
  S  S25  1  0.34017328  0.34017328  0.14711843  1
  S  S26  1  0.94024592  0.94024592  0.34710224  1
  S  S27  1  0.54003973  0.54003973  0.54713768  1
  S  S28  1  0.13203808  0.13203808  0.74608625  1
  S  S29  1  0.73988502  0.73988502  0.94730887  1
  S  S30  1  0.79290205  0.25996027  0.05286232  1
  S  S31  1  0.39314368  0.85975408  0.25289776  1
  S  S32  1  0.99305485  0.45982672  0.45288157  1
  S  S33  1  0.59257615  0.06011498  0.65269113  1
  S  S34  1  0.18595183  0.66796192  0.85391375  1
  S  S35  1  0.25996027  0.79290205  0.05286232  1
  S  S36  1  0.85975408  0.39314368  0.25289776  1
  S  S37  1  0.45982672  0.99305485  0.45288157  1
  S  S38  1  0.06011498  0.59257615  0.65269113  1
  S  S39  1  0.66796192  0.18595183  0.85391375  1
