# generated using pymatgen
data_CaSiBHO5
_symmetry_space_group_name_H-M   'P 1'
_cell_length_a   6.77336191
_cell_length_b   7.83109700
_cell_length_c   10.71049351
_cell_angle_alpha   90.00000000
_cell_angle_beta   63.53560421
_cell_angle_gamma   90.00000000
_symmetry_Int_Tables_number   1
_chemical_formula_structural   CaSiBHO5
_chemical_formula_sum   'Ca4 Si4 B4 H4 O20'
_cell_volume   508.58318914
_cell_formula_units_Z   4
loop_
 _symmetry_equiv_pos_site_id
 _symmetry_equiv_pos_as_xyz
  1  'x, y, z'
loop_
 _atom_site_type_symbol
 _atom_site_label
 _atom_site_symmetry_multiplicity
 _atom_site_fract_x
 _atom_site_fract_y
 _atom_site_fract_z
 _atom_site_occupancy
  Ca  Ca0  1  0.04024280  0.90817256  0.65350990  1
  Ca  Ca1  1  0.95975720  0.40817256  0.84649010  1
  Ca  Ca2  1  0.95975720  0.09182744  0.34649010  1
  Ca  Ca3  1  0.04024280  0.59182744  0.15350990  1
  Si  Si4  1  0.44597680  0.38119335  0.82298205  1
  Si  Si5  1  0.55402320  0.88119335  0.67701795  1
  Si  Si6  1  0.55402320  0.61880665  0.17701795  1
  Si  Si7  1  0.44597680  0.11880665  0.32298205  1
  B  B8  1  0.65622263  0.42420222  0.33536933  1
  B  B9  1  0.34377737  0.92420222  0.16463067  1
  B  B10  1  0.34377737  0.57579778  0.66463067  1
  B  B11  1  0.65622263  0.07579778  0.83536933  1
  H  H12  1  0.27583845  0.45594239  0.31165410  1
  H  H13  1  0.72416155  0.95594239  0.18834590  1
  H  H14  1  0.72416155  0.54405761  0.68834590  1
  H  H15  1  0.27583845  0.04405761  0.81165410  1
  O  O16  1  0.24383815  0.03207506  0.45053493  1
  O  O17  1  0.75616185  0.53207506  0.04946507  1
  O  O18  1  0.75616185  0.96792494  0.54946507  1
  O  O19  1  0.24383815  0.46792494  0.95053493  1
  O  O20  1  0.84796985  0.37236580  0.32806749  1
  O  O21  1  0.15203015  0.87236580  0.17193251  1
  O  O22  1  0.15203015  0.62763420  0.67193251  1
  O  O23  1  0.84796985  0.12763420  0.82806749  1
  O  O24  1  0.47335662  0.17946731  0.85621905  1
  O  O25  1  0.52664338  0.67946731  0.64378095  1
  O  O26  1  0.52664338  0.82053269  0.14378095  1
  O  O27  1  0.47335662  0.32053269  0.35621905  1
  O  O28  1  0.37367092  0.39981641  0.69196648  1
  O  O29  1  0.62632908  0.89981641  0.80803352  1
  O  O30  1  0.62632908  0.60018359  0.30803352  1
  O  O31  1  0.37367092  0.10018359  0.19196648  1
  O  O32  1  0.29808189  0.54075500  0.23916771  1
  O  O33  1  0.70191811  0.04075500  0.26083229  1
  O  O34  1  0.70191811  0.45924500  0.76083229  1
  O  O35  1  0.29808189  0.95924500  0.73916771  1
