# generated using pymatgen
data_TiNb2O7
_symmetry_space_group_name_H-M   'P 1'
_cell_length_a   3.85803517
_cell_length_b   10.59724867
_cell_length_c   11.37050851
_cell_angle_alpha   70.40621178
_cell_angle_beta   80.23247300
_cell_angle_gamma   100.48802820
_symmetry_Int_Tables_number   1
_chemical_formula_structural   TiNb2O7
_chemical_formula_sum   'Ti3 Nb6 O21'
_cell_volume   417.07429749
_cell_formula_units_Z   3
loop_
 _symmetry_equiv_pos_site_id
 _symmetry_equiv_pos_as_xyz
  1  'x, y, z'
loop_
 _atom_site_type_symbol
 _atom_site_label
 _atom_site_symmetry_multiplicity
 _atom_site_fract_x
 _atom_site_fract_y
 _atom_site_fract_z
 _atom_site_occupancy
  Ti  Ti0  1  0.06801939  0.77475819  0.63871942  1
  Ti  Ti1  1  0.93386924  0.23403282  0.36629433  1
  Ti  Ti2  1  0.55482505  0.47766195  0.36801185  1
  Nb  Nb3  1  0.81368837  0.63172177  0.00434503  1
  Nb  Nb4  1  0.17904241  0.36424238  0.00615757  1
  Nb  Nb5  1  0.74472056  0.86283801  0.37339688  1
  Nb  Nb6  1  0.25649840  0.14026660  0.62726981  1
  Nb  Nb7  1  -0.00177564  -0.00188780  0.00166348  1
  Nb  Nb8  1  0.44582741  0.52191054  0.63025571  1
  O  O9  1  0.14838622  0.09901533  0.80224289  1
  O  O10  1  0.85413469  0.90424610  0.19597672  1
  O  O11  1  0.20565139  0.83258423  0.42128145  1
  O  O12  1  0.79409360  0.16667377  0.57848658  1
  O  O13  1  0.29466032  0.58443727  0.99511663  1
  O  O14  1  0.70732773  0.41607594  0.00142047  1
  O  O15  1  0.08615274  0.18513634  0.01283086  1
  O  O16  1  0.91733770  0.81725322  0.98257782  1
  O  O17  1  0.94478718  0.69548589  0.80591154  1
  O  O18  1  0.05450736  0.30288043  0.19386572  1
  O  O19  1  0.42116198  0.24692022  0.40459627  1
  O  O20  1  0.57696365  0.75033300  0.59640569  1
  O  O21  1  0.39317254  0.36740093  0.58105585  1
  O  O22  1  0.60463562  0.62624020  0.41696897  1
  O  O23  1  0.31467415  0.43944192  0.81009363  1
  O  O24  1  0.68501076  0.55880176  0.18878024  1
  O  O25  1  0.02651740  0.42608544  0.37305065  1
  O  O26  1  0.97508540  0.57343125  0.62326046  1
  O  O27  1  0.50149751  0.00159886  0.99860383  1
  O  O28  1  0.82968579  0.03942836  0.38005677  1
  O  O29  1  0.16984107  0.96098504  0.62130289  1
