# generated using pymatgen
data_U2MnNiSe6
_symmetry_space_group_name_H-M   'P 1'
_cell_length_a   3.91443913
_cell_length_b   6.16679838
_cell_length_c   9.25044059
_cell_angle_alpha   88.97387003
_cell_angle_beta   90.00000006
_cell_angle_gamma   71.49544146
_symmetry_Int_Tables_number   1
_chemical_formula_structural   U2MnNiSe6
_chemical_formula_sum   'U2 Mn1 Ni1 Se6'
_cell_volume   211.71872847
_cell_formula_units_Z   1
loop_
 _symmetry_equiv_pos_site_id
 _symmetry_equiv_pos_as_xyz
  1  'x, y, z'
loop_
 _atom_site_type_symbol
 _atom_site_label
 _atom_site_symmetry_multiplicity
 _atom_site_fract_x
 _atom_site_fract_y
 _atom_site_fract_z
 _atom_site_occupancy
  U  U0  1  0.73525274  0.52949451  0.24445153  1
  U  U1  1  0.26474726  0.47050549  0.75554847  1
  Mn  Mn2  1  0.50000000  0.00000000  0.50000000  1
  Ni  Ni3  1  0.50000000  0.00000000  -0.00000000  1
  Se  Se4  1  0.13922309  0.72155381  0.04712695  1
  Se  Se5  1  0.86077691  0.27844619  0.95287305  1
  Se  Se6  1  0.14306140  0.71387720  0.44758188  1
  Se  Se7  1  0.85693860  0.28612280  0.55241812  1
  Se  Se8  1  0.41709607  0.16580786  0.24423003  1
  Se  Se9  1  0.58290393  0.83419214  0.75576997  1
