# generated using pymatgen
data_TbGaNi
_symmetry_space_group_name_H-M   'P 1'
_cell_length_a   4.18890406
_cell_length_b   5.29746313
_cell_length_c   5.75387171
_cell_angle_alpha   92.82219105
_cell_angle_beta   111.34651632
_cell_angle_gamma   66.71101338
_symmetry_Int_Tables_number   1
_chemical_formula_structural   TbGaNi
_chemical_formula_sum   'Tb2 Ga2 Ni2'
_cell_volume   108.56168036
_cell_formula_units_Z   2
loop_
 _symmetry_equiv_pos_site_id
 _symmetry_equiv_pos_as_xyz
  1  'x, y, z'
loop_
 _atom_site_type_symbol
 _atom_site_label
 _atom_site_symmetry_multiplicity
 _atom_site_fract_x
 _atom_site_fract_y
 _atom_site_fract_z
 _atom_site_occupancy
  Tb  Tb0  1  0.74468734  0.69789841  0.18727309  1
  Tb  Tb1  1  0.25531266  0.30210159  0.81272691  1
  Ga  Ga2  1  0.57768614  0.24654304  0.40191532  1
  Ga  Ga3  1  0.42231386  0.75345696  0.59808468  1
  Ni  Ni4  1  0.04510452  0.11141534  0.20162438  1
  Ni  Ni5  1  0.95489548  0.88858466  0.79837562  1
