# generated using pymatgen
data_TiCo3(BO4)2
_symmetry_space_group_name_H-M   'P 1'
_cell_length_a   3.14467010
_cell_length_b   9.38289672
_cell_length_c   9.52633640
_cell_angle_alpha   90.00000000
_cell_angle_beta   90.00000000
_cell_angle_gamma   90.00000000
_symmetry_Int_Tables_number   1
_chemical_formula_structural   TiCo3(BO4)2
_chemical_formula_sum   'Ti2 Co6 B4 O16'
_cell_volume   281.08517513
_cell_formula_units_Z   2
loop_
 _symmetry_equiv_pos_site_id
 _symmetry_equiv_pos_as_xyz
  1  'x, y, z'
loop_
 _atom_site_type_symbol
 _atom_site_label
 _atom_site_symmetry_multiplicity
 _atom_site_fract_x
 _atom_site_fract_y
 _atom_site_fract_z
 _atom_site_occupancy
  Ti  Ti0  1  0.25000000  0.60890402  0.93500269  1
  Ti  Ti1  1  0.25000000  0.10890402  0.56499731  1
  Co  Co2  1  0.75000000  0.39582739  0.68287229  1
  Co  Co3  1  0.75000000  0.89582739  0.81712771  1
  Co  Co4  1  0.25000000  0.60372404  0.31484406  1
  Co  Co5  1  0.25000000  0.10372404  0.18515594  1
  Co  Co6  1  0.75000000  0.37593752  0.07049525  1
  Co  Co7  1  0.75000000  0.87593752  0.42950475  1
  B  B8  1  0.75000000  0.33112453  0.37040368  1
  B  B9  1  0.75000000  0.83112453  0.12959632  1
  B  B10  1  0.25000000  0.66691483  0.62735341  1
  B  B11  1  0.25000000  0.16691483  0.87264659  1
  O  O12  1  0.75000000  0.50662676  0.87726040  1
  O  O13  1  0.75000000  0.00662676  0.62273960  1
  O  O14  1  0.25000000  0.52353518  0.10704510  1
  O  O15  1  0.25000000  0.02353518  0.39295490  1
  O  O16  1  0.75000000  0.47540969  0.37084039  1
  O  O17  1  0.75000000  0.97540969  0.12915961  1
  O  O18  1  0.25000000  0.52130507  0.63383255  1
  O  O19  1  0.25000000  0.02130507  0.86616745  1
  O  O20  1  0.75000000  0.25667942  0.50254136  1
  O  O21  1  0.75000000  0.75667942  0.99745864  1
  O  O22  1  0.25000000  0.73740636  0.49918271  1
  O  O23  1  0.25000000  0.23740636  0.00081729  1
  O  O24  1  0.75000000  0.25198671  0.24831742  1
  O  O25  1  0.75000000  0.75198671  0.25168258  1
  O  O26  1  0.25000000  0.74461848  0.75519254  1
  O  O27  1  0.25000000  0.24461848  0.74480746  1
