# generated using pymatgen
data_TiFe2Bi2PbO9
_symmetry_space_group_name_H-M   'P 1'
_cell_length_a   5.64139808
_cell_length_b   5.64139798
_cell_length_c   14.04199843
_cell_angle_alpha   90.00000000
_cell_angle_beta   90.00000000
_cell_angle_gamma   120.00000293
_symmetry_Int_Tables_number   1
_chemical_formula_structural   TiFe2Bi2PbO9
_chemical_formula_sum   'Ti2 Fe4 Bi4 Pb2 O18'
_cell_volume   387.01965729
_cell_formula_units_Z   2
loop_
 _symmetry_equiv_pos_site_id
 _symmetry_equiv_pos_as_xyz
  1  'x, y, z'
loop_
 _atom_site_type_symbol
 _atom_site_label
 _atom_site_symmetry_multiplicity
 _atom_site_fract_x
 _atom_site_fract_y
 _atom_site_fract_z
 _atom_site_occupancy
  Ti  Ti0  1  0.33333300  0.66666700  0.20474256  1
  Ti  Ti1  1  0.00000000  0.00000000  0.02909852  1
  Fe  Fe2  1  0.00000000  0.00000000  0.52769415  1
  Fe  Fe3  1  0.66666700  0.33333300  0.86001794  1
  Fe  Fe4  1  0.66666700  0.33333300  0.36721784  1
  Fe  Fe5  1  0.33333300  0.66666700  0.69658322  1
  Bi  Bi6  1  0.33333300  0.66666700  0.47538089  1
  Bi  Bi7  1  -0.00000000  -0.00000000  0.80060672  1
  Bi  Bi8  1  0.66666700  0.33333300  0.63546302  1
  Bi  Bi9  1  0.33333300  0.66666700  0.96858337  1
  Pb  Pb10  1  0.66666700  0.33333300  0.13107204  1
  Pb  Pb11  1  -0.00000000  0.00000000  0.30320931  1
  O  O12  1  0.31199168  0.22898185  0.92852779  1
  O  O13  1  0.99857585  0.53303889  0.26457770  1
  O  O14  1  0.65056552  0.90227256  0.59990413  1
  O  O15  1  0.91699117  0.68800832  0.92852779  1
  O  O16  1  0.53446204  0.00142415  0.26457770  1
  O  O17  1  0.25170703  0.34943448  0.59990413  1
  O  O18  1  0.77101815  0.08300883  0.92852779  1
  O  O19  1  0.46696111  0.46553796  0.26457770  1
  O  O20  1  0.09772744  0.74829297  0.59990413  1
  O  O21  1  0.43204646  0.01737671  0.76475030  1
  O  O22  1  0.13501111  0.34366125  0.09212105  1
  O  O23  1  0.76342148  0.67481867  0.43656249  1
  O  O24  1  0.58532925  0.56795354  0.76475030  1
  O  O25  1  0.20865013  0.86498889  0.09212105  1
  O  O26  1  0.91139819  0.23657852  0.43656249  1
  O  O27  1  0.98262329  0.41467075  0.76475030  1
  O  O28  1  0.65633875  0.79134987  0.09212105  1
  O  O29  1  0.32518133  0.08860181  0.43656249  1
