# generated using pymatgen
data_U(SiNi5)2
_symmetry_space_group_name_H-M   'P 1'
_cell_length_a   4.79614490
_cell_length_b   6.17327378
_cell_length_c   6.17327378
_cell_angle_alpha   100.95407813
_cell_angle_beta   112.85874075
_cell_angle_gamma   67.14125925
_symmetry_Int_Tables_number   1
_chemical_formula_structural   U(SiNi5)2
_chemical_formula_sum   'U1 Si2 Ni10'
_cell_volume   155.03151164
_cell_formula_units_Z   1
loop_
 _symmetry_equiv_pos_site_id
 _symmetry_equiv_pos_as_xyz
  1  'x, y, z'
loop_
 _atom_site_type_symbol
 _atom_site_label
 _atom_site_symmetry_multiplicity
 _atom_site_fract_x
 _atom_site_fract_y
 _atom_site_fract_z
 _atom_site_occupancy
  U  U0  1  0.00000000  0.00000000  0.00000000  1
  Si  Si1  1  0.75070194  0.74929806  0.25070194  1
  Si  Si2  1  0.24929806  0.25070194  0.74929806  1
  Ni  Ni3  1  0.64676473  0.35323527  0.64676473  1
  Ni  Ni4  1  0.35323527  0.64676473  0.35323527  1
  Ni  Ni5  1  -0.00000000  0.34028815  0.34028815  1
  Ni  Ni6  1  0.00000000  0.65971185  0.65971185  1
  Ni  Ni7  1  0.50000000  0.82021757  0.82021757  1
  Ni  Ni8  1  0.50000000  0.17978243  0.17978243  1
  Ni  Ni9  1  0.50000000  0.00000000  0.50000000  1
  Ni  Ni10  1  0.00000000  0.00000000  0.50000000  1
  Ni  Ni11  1  0.50000000  0.50000000  0.00000000  1
  Ni  Ni12  1  0.00000000  0.50000000  0.00000000  1
