# generated using pymatgen
data_Ti3NiBi2(PbO6)2
_symmetry_space_group_name_H-M   'P 1'
_cell_length_a   5.68238318
_cell_length_b   9.78846674
_cell_length_c   5.67032662
_cell_angle_alpha   103.52062044
_cell_angle_beta   119.78598689
_cell_angle_gamma   76.57160660
_symmetry_Int_Tables_number   1
_chemical_formula_structural   Ti3NiBi2(PbO6)2
_chemical_formula_sum   'Ti3 Ni1 Bi2 Pb2 O12'
_cell_volume   263.60956308
_cell_formula_units_Z   1
loop_
 _symmetry_equiv_pos_site_id
 _symmetry_equiv_pos_as_xyz
  1  'x, y, z'
loop_
 _atom_site_type_symbol
 _atom_site_label
 _atom_site_symmetry_multiplicity
 _atom_site_fract_x
 _atom_site_fract_y
 _atom_site_fract_z
 _atom_site_occupancy
  Ti  Ti0  1  0.61520297  0.12015553  0.36130770  1
  Ti  Ti1  1  0.87316513  0.37026956  0.09874445  1
  Ti  Ti2  1  0.12659154  0.61645014  0.84243119  1
  Ni  Ni3  1  0.38682339  0.84872551  0.58873154  1
  Bi  Bi4  1  0.95075363  0.00621420  0.02665427  1
  Bi  Bi5  1  0.72665071  0.78502804  0.25561270  1
  Pb  Pb6  1  0.22678775  0.25484485  0.74025642  1
  Pb  Pb7  1  0.47617015  0.51292303  0.48376683  1
  O  O8  1  0.26540213  0.70341568  0.68698964  1
  O  O9  1  0.02891854  0.45968203  0.95088617  1
  O  O10  1  0.53202981  0.96168392  0.44185842  1
  O  O11  1  0.78309744  0.20601711  0.20063546  1
  O  O12  1  0.77867211  0.71644677  0.69608295  1
  O  O13  1  0.52372462  0.46071790  0.95171403  1
  O  O14  1  0.00533317  0.95864914  0.42223430  1
  O  O15  1  0.26814887  0.21232769  0.20391080  1
  O  O16  1  0.55509861  0.95977376  0.97291713  1
  O  O17  1  0.77869399  0.21044577  0.71470712  1
  O  O18  1  0.02511360  0.45877860  0.45441423  1
  O  O19  1  0.28662183  0.71445077  0.19314466  1
