# generated using pymatgen
data_Ti3NbO8
_symmetry_space_group_name_H-M   'P 1'
_cell_length_a   2.98606596
_cell_length_b   4.72812261
_cell_length_c   9.45886190
_cell_angle_alpha   90.60197130
_cell_angle_beta   90.00000000
_cell_angle_gamma   90.00000000
_symmetry_Int_Tables_number   1
_chemical_formula_structural   Ti3NbO8
_chemical_formula_sum   'Ti3 Nb1 O8'
_cell_volume   133.53743859
_cell_formula_units_Z   1
loop_
 _symmetry_equiv_pos_site_id
 _symmetry_equiv_pos_as_xyz
  1  'x, y, z'
loop_
 _atom_site_type_symbol
 _atom_site_label
 _atom_site_symmetry_multiplicity
 _atom_site_fract_x
 _atom_site_fract_y
 _atom_site_fract_z
 _atom_site_occupancy
  Ti  Ti0  1  0.50000000  0.50311150  0.24059966  1
  Ti  Ti1  1  0.50000000  0.49688850  0.75940034  1
  Ti  Ti2  1  -0.00000000  0.00000000  -0.00000000  1
  Nb  Nb3  1  -0.00000000  0.00000000  0.50000000  1
  O  O4  1  0.50000000  0.21166127  0.39406684  1
  O  O5  1  0.50000000  0.19246740  0.90410285  1
  O  O6  1  0.50000000  0.80753260  0.09589715  1
  O  O7  1  0.50000000  0.78833873  0.60593316  1
  O  O8  1  0.00000000  0.30888354  0.14950793  1
  O  O9  1  -0.00000000  0.30123218  0.65555756  1
  O  O10  1  -0.00000000  0.69876782  0.34444244  1
  O  O11  1  -0.00000000  0.69111646  0.85049207  1
