# generated using pymatgen
data_SrEuNiO4
_symmetry_space_group_name_H-M   'P 1'
_cell_length_a   3.83031164
_cell_length_b   3.83031164
_cell_length_c   6.71114213
_cell_angle_alpha   73.41906255
_cell_angle_beta   73.41906255
_cell_angle_gamma   90.00000000
_symmetry_Int_Tables_number   1
_chemical_formula_structural   SrEuNiO4
_chemical_formula_sum   'Sr1 Eu1 Ni1 O4'
_cell_volume   90.08670786
_cell_formula_units_Z   1
loop_
 _symmetry_equiv_pos_site_id
 _symmetry_equiv_pos_as_xyz
  1  'x, y, z'
loop_
 _atom_site_type_symbol
 _atom_site_label
 _atom_site_symmetry_multiplicity
 _atom_site_fract_x
 _atom_site_fract_y
 _atom_site_fract_z
 _atom_site_occupancy
  Sr  Sr0  1  0.35774526  0.35774526  0.28450948  1
  Eu  Eu1  1  0.63949146  0.63949146  0.72101709  1
  Ni  Ni2  1  0.99825610  0.99825610  0.00348780  1
  O  O3  1  0.50700197  0.00700197  0.98599606  1
  O  O4  1  0.00700197  0.50700197  0.98599606  1
  O  O5  1  0.16054973  0.16054973  0.67890053  1
  O  O6  1  0.82995351  0.82995351  0.34009298  1
