# generated using pymatgen
data_SrNdMnCoO6
_symmetry_space_group_name_H-M   'P 1'
_cell_length_a   5.52716788
_cell_length_b   5.43800897
_cell_length_c   5.43800897
_cell_angle_alpha   118.86830002
_cell_angle_beta   120.54386180
_cell_angle_gamma   59.45613820
_symmetry_Int_Tables_number   1
_chemical_formula_structural   SrNdMnCoO6
_chemical_formula_sum   'Sr1 Nd1 Mn1 Co1 O6'
_cell_volume   115.54772301
_cell_formula_units_Z   1
loop_
 _symmetry_equiv_pos_site_id
 _symmetry_equiv_pos_as_xyz
  1  'x, y, z'
loop_
 _atom_site_type_symbol
 _atom_site_label
 _atom_site_symmetry_multiplicity
 _atom_site_fract_x
 _atom_site_fract_y
 _atom_site_fract_z
 _atom_site_occupancy
  Sr  Sr0  1  0.24992841  0.75007159  0.24992841  1
  Nd  Nd1  1  0.74907395  0.25092605  0.74907395  1
  Mn  Mn2  1  -0.00008275  0.50008275  0.49991725  1
  Co  Co3  1  0.50015559  -0.00015559  0.00015559  1
  O  O4  1  0.75557551  0.74370214  0.74410903  1
  O  O5  1  0.24483138  0.25589097  0.25629786  1
  O  O6  1  0.75557551  0.25589097  0.25629786  1
  O  O7  1  0.24483138  0.74370214  0.74410903  1
  O  O8  1  0.74597792  0.75402208  0.24597792  1
  O  O9  1  0.25413309  0.24586691  0.75413309  1
