# generated using pymatgen
data_B(HO)2
_symmetry_space_group_name_H-M   'P 1'
_cell_length_a   7.80892898
_cell_length_b   8.16435596
_cell_length_c   7.70116983
_cell_angle_alpha   90.00000000
_cell_angle_beta   90.00000000
_cell_angle_gamma   122.59037167
_symmetry_Int_Tables_number   1
_chemical_formula_structural   B(HO)2
_chemical_formula_sum   'B8 H16 O16'
_cell_volume   413.67772886
_cell_formula_units_Z   8
loop_
 _symmetry_equiv_pos_site_id
 _symmetry_equiv_pos_as_xyz
  1  'x, y, z'
loop_
 _atom_site_type_symbol
 _atom_site_label
 _atom_site_symmetry_multiplicity
 _atom_site_fract_x
 _atom_site_fract_y
 _atom_site_fract_z
 _atom_site_occupancy
  B  B0  1  0.58527940  0.58210217  0.57360221  1
  B  B1  1  0.91472060  0.41789783  0.07360221  1
  B  B2  1  0.41472060  0.41789783  0.42639779  1
  B  B3  1  0.08527940  0.58210217  0.92639779  1
  B  B4  1  0.57289987  0.07468169  0.58343151  1
  B  B5  1  0.92710013  0.92531831  0.08343151  1
  B  B6  1  0.42710013  0.92531831  0.41656849  1
  B  B7  1  0.07289987  0.07468169  0.91656849  1
  H  H8  1  0.79219889  0.29169574  0.43626917  1
  H  H9  1  0.70780111  0.70830426  0.93626917  1
  H  H10  1  0.20780111  0.70830426  0.56373083  1
  H  H11  1  0.29219889  0.29169574  0.06373083  1
  H  H12  1  0.43878682  0.43520055  0.79121212  1
  H  H13  1  0.06121318  0.56479945  0.29121212  1
  H  H14  1  0.56121318  0.56479945  0.20878788  1
  H  H15  1  0.93878682  0.43520055  0.70878788  1
  H  H16  1  0.84328794  0.83778900  0.61357754  1
  H  H17  1  0.65671206  0.16221100  0.11357754  1
  H  H18  1  0.15671206  0.16221100  0.38642246  1
  H  H19  1  0.34328794  0.83778900  0.88642246  1
  H  H20  1  0.61031224  0.11645463  0.83994628  1
  H  H21  1  0.88968776  0.88354537  0.33994628  1
  H  H22  1  0.38968776  0.88354537  0.16005372  1
  H  H23  1  0.11031224  0.11645463  0.66005372  1
  O  O24  1  0.56260920  0.55687052  0.75028007  1
  O  O25  1  0.93739080  0.44312948  0.25028007  1
  O  O26  1  0.43739080  0.44312948  0.24971993  1
  O  O27  1  0.06260920  0.55687052  0.74971993  1
  O  O28  1  0.75621510  0.75258126  0.51658376  1
  O  O29  1  0.74378490  0.24741874  0.01658376  1
  O  O30  1  0.24378490  0.24741874  0.48341624  1
  O  O31  1  0.25621510  0.75258126  0.98341624  1
  O  O32  1  0.74996944  0.25243422  0.55873175  1
  O  O33  1  0.75003056  0.74756578  0.05873175  1
  O  O34  1  0.25003056  0.74756578  0.44126825  1
  O  O35  1  0.24996944  0.25243422  0.94126825  1
  O  O36  1  0.51414665  0.01933152  0.75343249  1
  O  O37  1  0.98585335  0.98066848  0.25343249  1
  O  O38  1  0.48585335  0.98066848  0.24656751  1
  O  O39  1  0.01414665  0.01933152  0.74656751  1
