# generated using pymatgen
data_Ta6V3Fe3C2
_symmetry_space_group_name_H-M   'P 1'
_cell_length_a   8.15700080
_cell_length_b   8.11891413
_cell_length_c   8.16829332
_cell_angle_alpha   90.00000000
_cell_angle_beta   59.95419396
_cell_angle_gamma   119.84566394
_symmetry_Int_Tables_number   1
_chemical_formula_structural   Ta6V3Fe3C2
_chemical_formula_sum   'Ta12 V6 Fe6 C4'
_cell_volume   383.13720848
_cell_formula_units_Z   2
loop_
 _symmetry_equiv_pos_site_id
 _symmetry_equiv_pos_as_xyz
  1  'x, y, z'
loop_
 _atom_site_type_symbol
 _atom_site_label
 _atom_site_symmetry_multiplicity
 _atom_site_fract_x
 _atom_site_fract_y
 _atom_site_fract_z
 _atom_site_occupancy
  Ta  Ta0  1  0.64130664  0.82065332  0.42934668  1
  Ta  Ta1  1  0.86692180  0.43346090  0.81653910  1
  Ta  Ta2  1  0.25275173  0.81710011  0.81599835  1
  Ta  Ta3  1  0.25275173  0.43565162  0.43124993  1
  Ta  Ta4  1  0.25275173  0.43565162  0.81599835  1
  Ta  Ta5  1  0.25275173  0.81710011  0.43124993  1
  Ta  Ta6  1  0.37440127  0.18720064  0.56279936  1
  Ta  Ta7  1  0.13536873  0.56768436  0.18231564  1
  Ta  Ta8  1  0.75230404  0.18612057  0.18506412  1
  Ta  Ta9  1  0.75230404  0.56618346  0.56263185  1
  Ta  Ta10  1  0.75230404  0.56618346  0.18506412  1
  Ta  Ta11  1  0.75230404  0.18612057  0.56263185  1
  V  V12  1  0.39930845  0.19965423  0.89315244  1
  V  V13  1  0.39930845  0.19965423  0.20753911  1
  V  V14  1  0.90931059  0.11369889  0.79534470  1
  V  V15  1  0.90931059  0.79561170  0.79534470  1
  V  V16  1  0.59125442  0.79562721  0.11186117  1
  V  V17  1  0.59125442  0.79562721  0.79688441  1
  Fe  Fe18  1  0.49874195  0.49595872  0.00062903  1
  Fe  Fe19  1  0.49874195  0.00278323  0.00062903  1
  Fe  Fe20  1  0.99616604  0.99808302  0.50153655  1
  Fe  Fe21  1  0.99616604  0.99808302  0.00229741  1
  Fe  Fe22  1  0.08386527  0.88223492  0.20806737  1
  Fe  Fe23  1  0.08386527  0.20163035  0.20806737  1
  C  C24  1  0.50118712  0.99795715  0.49940644  1
  C  C25  1  0.50118712  0.50322997  0.49940644  1
  C  C26  1  0.00105540  0.50052770  0.00036829  1
  C  C27  1  0.00105540  0.50052770  0.49857630  1
