# generated using pymatgen
data_Ti2NbNi9
_symmetry_space_group_name_H-M   'P 1'
_cell_length_a   8.44131118
_cell_length_b   5.12354548
_cell_length_c   13.56171918
_cell_angle_alpha   100.88291755
_cell_angle_beta   90.00000000
_cell_angle_gamma   90.00000000
_symmetry_Int_Tables_number   1
_chemical_formula_structural   Ti2NbNi9
_chemical_formula_sum   'Ti8 Nb4 Ni36'
_cell_volume   575.98794667
_cell_formula_units_Z   4
loop_
 _symmetry_equiv_pos_site_id
 _symmetry_equiv_pos_as_xyz
  1  'x, y, z'
loop_
 _atom_site_type_symbol
 _atom_site_label
 _atom_site_symmetry_multiplicity
 _atom_site_fract_x
 _atom_site_fract_y
 _atom_site_fract_z
 _atom_site_occupancy
  Ti  Ti0  1  0.25000000  0.77834642  0.55596490  1
  Ti  Ti1  1  0.25000000  0.44248465  0.88493463  1
  Ti  Ti2  1  0.49941122  0.99960257  0.99949381  1
  Ti  Ti3  1  0.50006328  0.66659494  0.33369262  1
  Ti  Ti4  1  0.49953877  0.33267684  0.66637384  1
  Ti  Ti5  1  0.00058878  0.99960257  0.99949381  1
  Ti  Ti6  1  -0.00006328  0.66659494  0.33369262  1
  Ti  Ti7  1  0.00046123  0.33267684  0.66637384  1
  Nb  Nb8  1  0.75000000  0.55611968  0.11112951  1
  Nb  Nb9  1  0.75000000  0.22512976  0.44813934  1
  Nb  Nb10  1  0.75000000  0.89074841  0.77959797  1
  Nb  Nb11  1  0.25000000  0.10994049  0.22049144  1
  Ni  Ni12  1  0.75000000  0.89517470  0.27828818  1
  Ni  Ni13  1  0.75000000  0.56317150  0.61202798  1
  Ni  Ni14  1  0.75000000  0.22806642  0.94381377  1
  Ni  Ni15  1  0.75000000  0.38295275  0.27815740  1
  Ni  Ni16  1  0.75000000  0.04830084  0.61174839  1
  Ni  Ni17  1  0.75000000  0.71583844  0.94368457  1
  Ni  Ni18  1  0.75000000  0.05712200  0.11383026  1
  Ni  Ni19  1  0.75000000  0.72394700  0.44737012  1
  Ni  Ni20  1  0.75000000  0.39036556  0.78006154  1
  Ni  Ni21  1  0.25000000  0.76968089  0.05415706  1
  Ni  Ni22  1  0.25000000  0.44018685  0.38998087  1
  Ni  Ni23  1  0.25000000  0.10459456  0.72194766  1
  Ni  Ni24  1  0.25000000  0.28459961  0.05425778  1
  Ni  Ni25  1  0.25000000  0.94988213  0.39007053  1
  Ni  Ni26  1  0.25000000  0.61698371  0.72189508  1
  Ni  Ni27  1  0.25000000  0.60942439  0.21879728  1
  Ni  Ni28  1  0.25000000  0.27658322  0.55259884  1
  Ni  Ni29  1  0.25000000  0.94261477  0.88550285  1
  Ni  Ni30  1  0.49970886  0.16696319  0.33443438  1
  Ni  Ni31  1  0.49747049  0.83311860  0.66701098  1
  Ni  Ni32  1  0.49706166  0.49930925  0.99900514  1
  Ni  Ni33  1  0.49981449  0.33388904  0.16674294  1
  Ni  Ni34  1  0.49738736  0.99814898  0.50041018  1
  Ni  Ni35  1  0.49754405  0.66565123  0.83309818  1
  Ni  Ni36  1  0.49959721  0.83264579  0.16672856  1
  Ni  Ni37  1  0.49683114  0.50264716  0.50053151  1
  Ni  Ni38  1  0.49717320  0.16762303  0.83325389  1
  Ni  Ni39  1  0.00029114  0.16696319  0.33443438  1
  Ni  Ni40  1  0.00252951  0.83311860  0.66701098  1
  Ni  Ni41  1  0.00293834  0.49930925  0.99900514  1
  Ni  Ni42  1  0.00018551  0.33388904  0.16674294  1
  Ni  Ni43  1  0.00261264  0.99814898  0.50041018  1
  Ni  Ni44  1  0.00245595  0.66565123  0.83309818  1
  Ni  Ni45  1  0.00040279  0.83264579  0.16672856  1
  Ni  Ni46  1  0.00316886  0.50264716  0.50053151  1
  Ni  Ni47  1  0.00282680  0.16762303  0.83325389  1
