# generated using pymatgen
data_TeP6H34(N3O13)2
_symmetry_space_group_name_H-M   'P 1'
_cell_length_a   7.67238358
_cell_length_b   10.06300317
_cell_length_c   11.16812347
_cell_angle_alpha   102.06298185
_cell_angle_beta   109.07057020
_cell_angle_gamma   106.20766340
_symmetry_Int_Tables_number   1
_chemical_formula_structural   TeP6H34(N3O13)2
_chemical_formula_sum   'Te1 P6 H34 N6 O26'
_cell_volume   738.50149296
_cell_formula_units_Z   1
loop_
 _symmetry_equiv_pos_site_id
 _symmetry_equiv_pos_as_xyz
  1  'x, y, z'
loop_
 _atom_site_type_symbol
 _atom_site_label
 _atom_site_symmetry_multiplicity
 _atom_site_fract_x
 _atom_site_fract_y
 _atom_site_fract_z
 _atom_site_occupancy
  Te  Te0  1  -0.00000000  0.00000000  -0.00000000  1
  P  P1  1  0.77852803  0.33203966  0.24676166  1
  P  P2  1  0.22147197  0.66796034  0.75323834  1
  P  P3  1  0.09742635  0.34909199  0.71981809  1
  P  P4  1  0.90257365  0.65090801  0.28018191  1
  P  P5  1  0.72407536  0.24804212  0.47041908  1
  P  P6  1  0.27592464  0.75195788  0.52958092  1
  H  H7  1  0.33470416  0.09839445  0.86241559  1
  H  H8  1  0.66529584  0.90160555  0.13758441  1
  H  H9  1  0.68135075  0.83781095  0.57871281  1
  H  H10  1  0.31864925  0.16218905  0.42128719  1
  H  H11  1  0.92018292  0.95506331  0.67507598  1
  H  H12  1  0.07981708  0.04493669  0.32492402  1
  H  H13  1  0.15088584  0.61488907  0.11250027  1
  H  H14  1  0.84911416  0.38511093  0.88749973  1
  H  H15  1  0.52524777  0.21741699  0.84576006  1
  H  H16  1  0.47475223  0.78258301  0.15423994  1
  H  H17  1  0.65430429  0.82509530  0.84979956  1
  H  H18  1  0.34569571  0.17490470  0.15020044  1
  H  H19  1  0.79781017  0.58817181  0.72148446  1
  H  H20  1  0.20218983  0.41182819  0.27851554  1
  H  H21  1  0.91642989  0.82232389  0.12105611  1
  H  H22  1  0.08357011  0.17767611  0.87894389  1
  H  H23  1  0.21068825  0.52180959  0.01179837  1
  H  H24  1  0.78931175  0.47819041  0.98820163  1
  H  H25  1  0.39900976  0.56160710  0.39751841  1
  H  H26  1  0.60099024  0.43839290  0.60248159  1
  H  H27  1  0.55925826  0.07899150  0.89566781  1
  H  H28  1  0.44074174  0.92100850  0.10433219  1
  H  H29  1  0.59895219  0.95907818  0.26472044  1
  H  H30  1  0.40104781  0.04092182  0.73527956  1
  H  H31  1  0.63241219  0.48815735  0.76521344  1
  H  H32  1  0.36758781  0.51184265  0.23478656  1
  H  H33  1  0.56543268  0.59236320  0.66717367  1
  H  H34  1  0.43456732  0.40763680  0.33282633  1
  H  H35  1  0.77807287  0.98843972  0.54043486  1
  H  H36  1  0.22192713  0.01156028  0.45956514  1
  H  H37  1  0.85159414  0.84819880  0.51092142  1
  H  H38  1  0.14840586  0.15180120  0.48907858  1
  H  H39  1  0.88544370  0.19799099  0.07668184  1
  H  H40  1  0.11455630  0.80200901  0.92331816  1
  N  N41  1  0.45323328  0.10847209  0.83424255  1
  N  N42  1  0.54676672  0.89152791  0.16575745  1
  N  N43  1  0.81077809  0.90762324  0.57824217  1
  N  N44  1  0.18922191  0.09237676  0.42175783  1
  N  N45  1  0.64562153  0.52707443  0.68825988  1
  N  N46  1  0.35437847  0.47292557  0.31174012  1
  O  O47  1  0.09557719  0.35868131  0.85619845  1
  O  O48  1  0.90442281  0.64131869  0.14380155  1
  O  O49  1  0.94490680  0.33328300  0.20331554  1
  O  O50  1  0.05509320  0.66671700  0.79668446  1
  O  O51  1  0.31279883  0.91269571  0.56653410  1
  O  O52  1  0.68720117  0.08730429  0.43346590  1
  O  O53  1  0.42541616  0.78089280  0.83887200  1
  O  O54  1  0.57458384  0.21910720  0.16112800  1
  O  O55  1  0.85666178  0.32438034  0.39844066  1
  O  O56  1  0.14333822  0.67561966  0.60155934  1
  O  O57  1  0.45023583  0.70393692  0.54782834  1
  O  O58  1  0.54976417  0.29606308  0.45217166  1
  O  O59  1  0.23571686  0.50703709  0.72397697  1
  O  O60  1  0.76428314  0.49296291  0.27602303  1
  O  O61  1  0.21223952  0.15900007  0.15429947  1
  O  O62  1  0.78776048  0.84099993  0.84570053  1
  O  O63  1  0.15803665  0.23646997  0.65253403  1
  O  O64  1  0.84196335  0.76353003  0.34746597  1
  O  O65  1  0.12563196  0.66582821  0.37423203  1
  O  O66  1  0.87436804  0.33417179  0.62576797  1
  O  O67  1  0.90672496  0.92023984  0.12682070  1
  O  O68  1  0.09327504  0.07976016  0.87317930  1
  O  O69  1  0.17082954  0.88940612  0.00862959  1
  O  O70  1  0.82917046  0.11059388  0.99137041  1
  O  O71  1  0.26524561  0.59629566  0.10183841  1
  O  O72  1  0.73475439  0.40370434  0.89816159  1
