# generated using pymatgen
data_Tb2Al3Co
_symmetry_space_group_name_H-M   'P 1'
_cell_length_a   5.49457149
_cell_length_b   5.49457149
_cell_length_c   5.37197117
_cell_angle_alpha   90.00000000
_cell_angle_beta   59.24213107
_cell_angle_gamma   120.00000000
_symmetry_Int_Tables_number   1
_chemical_formula_structural   Tb2Al3Co
_chemical_formula_sum   'Tb2 Al3 Co1'
_cell_volume   113.34836074
_cell_formula_units_Z   1
loop_
 _symmetry_equiv_pos_site_id
 _symmetry_equiv_pos_as_xyz
  1  'x, y, z'
loop_
 _atom_site_type_symbol
 _atom_site_label
 _atom_site_symmetry_multiplicity
 _atom_site_fract_x
 _atom_site_fract_y
 _atom_site_fract_z
 _atom_site_occupancy
  Tb  Tb0  1  0.49722896  0.74861448  0.75415656  1
  Tb  Tb1  1  0.00277104  0.00138552  0.99584344  1
  Al  Al2  1  0.25000000  0.37500000  0.37500000  1
  Al  Al3  1  0.25000000  0.87500000  0.37500000  1
  Al  Al4  1  0.75000000  0.37500000  0.37500000  1
  Co  Co5  1  0.75000000  0.37500000  0.87500000  1
