# generated using pymatgen
data_Tb4CeS7
_symmetry_space_group_name_H-M   'P 1'
_cell_length_a   3.82390846
_cell_length_b   6.76658957
_cell_length_c   11.69083296
_cell_angle_alpha   104.08107838
_cell_angle_beta   90.00000000
_cell_angle_gamma   73.58706446
_symmetry_Int_Tables_number   1
_chemical_formula_structural   Tb4CeS7
_chemical_formula_sum   'Tb4 Ce1 S7'
_cell_volume   280.68321680
_cell_formula_units_Z   1
loop_
 _symmetry_equiv_pos_site_id
 _symmetry_equiv_pos_as_xyz
  1  'x, y, z'
loop_
 _atom_site_type_symbol
 _atom_site_label
 _atom_site_symmetry_multiplicity
 _atom_site_fract_x
 _atom_site_fract_y
 _atom_site_fract_z
 _atom_site_occupancy
  Tb  Tb0  1  0.69923641  0.60152718  0.18630280  1
  Tb  Tb1  1  0.30119638  0.39760724  0.81269858  1
  Tb  Tb2  1  0.00003923  -0.00007846  0.99835332  1
  Tb  Tb3  1  0.11337943  0.77324115  0.58126274  1
  Ce  Ce4  1  0.88751789  0.22496422  0.42037764  1
  S  S5  1  0.73815264  0.52369472  0.65349716  1
  S  S6  1  0.25376983  0.49246034  0.34943024  1
  S  S7  1  0.34172196  0.31655608  0.05043501  1
  S  S8  1  0.65939455  0.68121091  0.94903560  1
  S  S9  1  0.04420359  0.91159282  0.21015127  1
  S  S10  1  0.95757102  0.08485796  0.78534706  1
  S  S11  1  0.50381708  0.99236585  0.50310858  1
