# generated using pymatgen
data_SrPrInO4
_symmetry_space_group_name_H-M   'P 1'
_cell_length_a   5.95500161
_cell_length_b   6.02343960
_cell_length_c   12.46494494
_cell_angle_alpha   90.00000000
_cell_angle_beta   90.00000000
_cell_angle_gamma   90.00000000
_symmetry_Int_Tables_number   1
_chemical_formula_structural   SrPrInO4
_chemical_formula_sum   'Sr4 Pr4 In4 O16'
_cell_volume   447.11249573
_cell_formula_units_Z   4
loop_
 _symmetry_equiv_pos_site_id
 _symmetry_equiv_pos_as_xyz
  1  'x, y, z'
loop_
 _atom_site_type_symbol
 _atom_site_label
 _atom_site_symmetry_multiplicity
 _atom_site_fract_x
 _atom_site_fract_y
 _atom_site_fract_z
 _atom_site_occupancy
  Sr  Sr0  1  0.99239685  0.53591777  0.64749140  1
  Sr  Sr1  1  0.50760315  0.46408223  0.14749140  1
  Sr  Sr2  1  0.49239685  0.96408223  0.35250860  1
  Sr  Sr3  1  0.00760315  0.03591777  0.85250860  1
  Pr  Pr4  1  0.01446011  0.44330523  0.35209711  1
  Pr  Pr5  1  0.48553989  0.55669477  0.85209711  1
  Pr  Pr6  1  0.51446011  0.05669477  0.64790289  1
  Pr  Pr7  1  0.98553989  0.94330523  0.14790289  1
  In  In8  1  0.99628475  0.49293836  0.99917147  1
  In  In9  1  0.50371525  0.50706164  0.49917147  1
  In  In10  1  0.49628475  0.00706164  0.00082853  1
  In  In11  1  0.00371525  0.99293836  0.50082853  1
  O  O12  1  0.22290732  0.27983247  0.53020134  1
  O  O13  1  0.27709268  0.72016753  0.03020134  1
  O  O14  1  0.72290732  0.22016753  0.46979866  1
  O  O15  1  0.77709268  0.77983247  0.96979866  1
  O  O16  1  0.80472508  0.70215423  0.45929593  1
  O  O17  1  0.69527492  0.29784577  0.95929593  1
  O  O18  1  0.30472508  0.79784577  0.54070407  1
  O  O19  1  0.19527492  0.20215423  0.04070407  1
  O  O20  1  0.10977930  0.45657194  0.83124586  1
  O  O21  1  0.39022070  0.54342806  0.33124586  1
  O  O22  1  0.60977930  0.04342806  0.16875414  1
  O  O23  1  0.89022070  0.95657194  0.66875414  1
  O  O24  1  0.91903530  0.55031930  0.17822022  1
  O  O25  1  0.58096470  0.44968070  0.67822022  1
  O  O26  1  0.41903530  0.94968070  0.82177978  1
  O  O27  1  0.08096470  0.05031930  0.32177978  1
