# generated using pymatgen
data_Sr5Mn(Fe2O5)2
_symmetry_space_group_name_H-M   'P 1'
_cell_length_a   3.48934951
_cell_length_b   4.06578591
_cell_length_c   20.31009478
_cell_angle_alpha   90.00000000
_cell_angle_beta   90.00000000
_cell_angle_gamma   90.00000000
_symmetry_Int_Tables_number   1
_chemical_formula_structural   Sr5Mn(Fe2O5)2
_chemical_formula_sum   'Sr5 Mn1 Fe4 O10'
_cell_volume   288.13826000
_cell_formula_units_Z   1
loop_
 _symmetry_equiv_pos_site_id
 _symmetry_equiv_pos_as_xyz
  1  'x, y, z'
loop_
 _atom_site_type_symbol
 _atom_site_label
 _atom_site_symmetry_multiplicity
 _atom_site_fract_x
 _atom_site_fract_y
 _atom_site_fract_z
 _atom_site_occupancy
  Sr  Sr0  1  0.50000000  0.50000000  0.09963152  1
  Sr  Sr1  1  0.50000000  0.50000000  0.29989267  1
  Sr  Sr2  1  0.50000000  0.50000000  0.50000000  1
  Sr  Sr3  1  0.50000000  0.50000000  0.70010733  1
  Sr  Sr4  1  0.50000000  0.50000000  0.90036848  1
  Mn  Mn5  1  0.00000000  0.00000000  -0.00000000  1
  Fe  Fe6  1  -0.00000000  0.00000000  0.19999937  1
  Fe  Fe7  1  0.00000000  0.00000000  0.39996375  1
  Fe  Fe8  1  -0.00000000  0.00000000  0.60003625  1
  Fe  Fe9  1  0.00000000  0.00000000  0.80000063  1
  O  O10  1  0.00000000  0.00000000  0.10092058  1
  O  O11  1  -0.00000000  0.00000000  0.29988869  1
  O  O12  1  0.00000000  0.00000000  0.50000000  1
  O  O13  1  -0.00000000  0.00000000  0.70011131  1
  O  O14  1  0.00000000  0.00000000  0.89907942  1
  O  O15  1  0.00000000  0.50000000  -0.00000000  1
  O  O16  1  0.00000000  0.50000000  0.19995698  1
  O  O17  1  -0.00000000  0.50000000  0.39993862  1
  O  O18  1  0.00000000  0.50000000  0.60006138  1
  O  O19  1  0.00000000  0.50000000  0.80004302  1
