# generated using pymatgen
data_Sr3TaFeO7
_symmetry_space_group_name_H-M   'P 1'
_cell_length_a   3.99005510
_cell_length_b   3.99005510
_cell_length_c   11.01877617
_cell_angle_alpha   79.56866464
_cell_angle_beta   79.56866464
_cell_angle_gamma   90.00000000
_symmetry_Int_Tables_number   1
_chemical_formula_structural   Sr3TaFeO7
_chemical_formula_sum   'Sr3 Ta1 Fe1 O7'
_cell_volume   169.57666511
_cell_formula_units_Z   1
loop_
 _symmetry_equiv_pos_site_id
 _symmetry_equiv_pos_as_xyz
  1  'x, y, z'
loop_
 _atom_site_type_symbol
 _atom_site_label
 _atom_site_symmetry_multiplicity
 _atom_site_fract_x
 _atom_site_fract_y
 _atom_site_fract_z
 _atom_site_occupancy
  Sr  Sr0  1  0.51826107  0.51826107  0.96347785  1
  Sr  Sr1  1  0.30862057  0.30862057  0.38275886  1
  Sr  Sr2  1  0.68162257  0.68162257  0.63675485  1
  Ta  Ta3  1  0.90276722  0.90276722  0.19446556  1
  Fe  Fe4  1  0.10484047  0.10484047  0.79031906  1
  O  O5  1  0.59541896  0.09541896  0.80916207  1
  O  O6  1  0.09541896  0.59541896  0.80916207  1
  O  O7  1  0.39840221  0.89840221  0.20319558  1
  O  O8  1  0.89840221  0.39840221  0.20319558  1
  O  O9  1  0.19808913  0.19808913  0.60382175  1
  O  O10  1  0.80571883  0.80571883  0.38856234  1
  O  O11  1  0.99243779  0.99243779  0.01512442  1
