# generated using pymatgen
data_Na2VO4
_symmetry_space_group_name_H-M   'P 1'
_cell_length_a   8.59664093
_cell_length_b   8.72916922
_cell_length_c   11.27015536
_cell_angle_alpha   90.00000000
_cell_angle_beta   95.51401044
_cell_angle_gamma   90.00000000
_symmetry_Int_Tables_number   1
_chemical_formula_structural   Na2VO4
_chemical_formula_sum   'Na16 V8 O32'
_cell_volume   841.81632110
_cell_formula_units_Z   8
loop_
 _symmetry_equiv_pos_site_id
 _symmetry_equiv_pos_as_xyz
  1  'x, y, z'
loop_
 _atom_site_type_symbol
 _atom_site_label
 _atom_site_symmetry_multiplicity
 _atom_site_fract_x
 _atom_site_fract_y
 _atom_site_fract_z
 _atom_site_occupancy
  Na  Na0  1  0.28573926  0.55271090  0.53008245  1
  Na  Na1  1  0.71426074  0.05271090  0.96991755  1
  Na  Na2  1  0.71426074  0.44728910  0.46991755  1
  Na  Na3  1  0.28573926  0.94728910  0.03008245  1
  Na  Na4  1  0.33687797  0.28142916  0.82214760  1
  Na  Na5  1  0.66312203  0.78142916  0.67785240  1
  Na  Na6  1  0.66312203  0.71857084  0.17785240  1
  Na  Na7  1  0.33687797  0.21857084  0.32214760  1
  Na  Na8  1  0.03983668  0.18256444  0.49955682  1
  Na  Na9  1  0.96016332  0.68256444  0.00044318  1
  Na  Na10  1  0.96016332  0.81743556  0.50044318  1
  Na  Na11  1  0.03983668  0.31743556  0.99955682  1
  Na  Na12  1  0.31668018  0.65845069  0.81440052  1
  Na  Na13  1  0.68331982  0.15845069  0.68559948  1
  Na  Na14  1  0.68331982  0.34154931  0.18559948  1
  Na  Na15  1  0.31668018  0.84154931  0.31440052  1
  V  V16  1  0.04050206  0.97280536  0.80662830  1
  V  V17  1  0.95949794  0.47280536  0.69337170  1
  V  V18  1  0.95949794  0.02719464  0.19337170  1
  V  V19  1  0.04050206  0.52719464  0.30662830  1
  V  V20  1  0.30673136  0.97032207  0.61071753  1
  V  V21  1  0.69326864  0.47032207  0.88928247  1
  V  V22  1  0.69326864  0.02967793  0.38928247  1
  V  V23  1  0.30673136  0.52967793  0.11071753  1
  O  O24  1  0.84044922  0.97169768  0.80391746  1
  O  O25  1  0.15955078  0.47169768  0.69608254  1
  O  O26  1  0.15955078  0.02830232  0.19608254  1
  O  O27  1  0.84044922  0.52830232  0.30391746  1
  O  O28  1  0.11684736  0.81221106  0.87898196  1
  O  O29  1  0.88315264  0.31221106  0.62101804  1
  O  O30  1  0.88315264  0.18778894  0.12101804  1
  O  O31  1  0.11684736  0.68778894  0.37898196  1
  O  O32  1  0.12450290  0.12476761  0.88538057  1
  O  O33  1  0.87549710  0.62476761  0.61461943  1
  O  O34  1  0.87549710  0.87523239  0.11461943  1
  O  O35  1  0.12450290  0.37523239  0.38538057  1
  O  O36  1  0.10328743  0.97737294  0.65241235  1
  O  O37  1  0.89671257  0.47737294  0.84758765  1
  O  O38  1  0.89671257  0.02262706  0.34758765  1
  O  O39  1  0.10328743  0.52262706  0.15241235  1
  O  O40  1  0.42591682  0.08926156  0.70201668  1
  O  O41  1  0.57408318  0.58926156  0.79798332  1
  O  O42  1  0.57408318  0.91073844  0.29798332  1
  O  O43  1  0.42591682  0.41073844  0.20201668  1
  O  O44  1  0.28874212  0.03529128  0.46761712  1
  O  O45  1  0.71125788  0.53529128  0.03238288  1
  O  O46  1  0.71125788  0.96470872  0.53238288  1
  O  O47  1  0.28874212  0.46470872  0.96761712  1
  O  O48  1  0.37518100  0.78568476  0.62166119  1
  O  O49  1  0.62481900  0.28568476  0.87833881  1
  O  O50  1  0.62481900  0.21431524  0.37833881  1
  O  O51  1  0.37518100  0.71431524  0.12166119  1
  O  O52  1  0.49998448  0.38035791  0.59585013  1
  O  O53  1  0.50001552  0.88035791  0.90414987  1
  O  O54  1  0.50001552  0.61964209  0.40414987  1
  O  O55  1  0.49998448  0.11964209  0.09585013  1
