# generated using pymatgen
data_Sm2NbInO7
_symmetry_space_group_name_H-M   'P 1'
_cell_length_a   7.53478798
_cell_length_b   7.42441815
_cell_length_c   7.64699967
_cell_angle_alpha   90.00000000
_cell_angle_beta   59.50612568
_cell_angle_gamma   119.51661844
_symmetry_Int_Tables_number   1
_chemical_formula_structural   Sm2NbInO7
_chemical_formula_sum   'Sm4 Nb2 In2 O14'
_cell_volume   302.41898610
_cell_formula_units_Z   2
loop_
 _symmetry_equiv_pos_site_id
 _symmetry_equiv_pos_as_xyz
  1  'x, y, z'
loop_
 _atom_site_type_symbol
 _atom_site_label
 _atom_site_symmetry_multiplicity
 _atom_site_fract_x
 _atom_site_fract_y
 _atom_site_fract_z
 _atom_site_occupancy
  Sm  Sm0  1  0.50000000  0.00000000  0.50000000  1
  Sm  Sm1  1  0.50000000  0.50000000  0.50000000  1
  Sm  Sm2  1  -0.00000000  0.50000000  0.00000000  1
  Sm  Sm3  1  -0.00000000  0.50000000  0.50000000  1
  Nb  Nb4  1  -0.00000000  0.00000000  0.50000000  1
  Nb  Nb5  1  -0.00000000  0.00000000  0.00000000  1
  In  In6  1  0.50000000  0.50000000  0.00000000  1
  In  In7  1  0.50000000  0.00000000  0.00000000  1
  O  O8  1  0.74226055  0.37113027  0.37886973  1
  O  O9  1  0.25773945  0.62886973  0.62113027  1
  O  O10  1  0.87609377  0.93804689  0.31195311  1
  O  O11  1  0.70850267  0.35425134  0.89574866  1
  O  O12  1  0.24969479  0.92441420  0.90114175  1
  O  O13  1  0.24969479  0.32528059  0.34916346  1
  O  O14  1  0.24969479  0.32528059  0.90114175  1
  O  O15  1  0.24969479  0.92441420  0.34916346  1
  O  O16  1  0.12390623  0.06195311  0.68804689  1
  O  O17  1  0.29149733  0.64574866  0.10425134  1
  O  O18  1  0.75030521  0.07558580  0.09885825  1
  O  O19  1  0.75030521  0.67471941  0.65083654  1
  O  O20  1  0.75030521  0.67471941  0.09885825  1
  O  O21  1  0.75030521  0.07558580  0.65083654  1
