# generated using pymatgen
data_Sr2Gd2TlNi2O9
_symmetry_space_group_name_H-M   'P 1'
_cell_length_a   3.81128498
_cell_length_b   3.81128498
_cell_length_c   15.03263474
_cell_angle_alpha   82.65583511
_cell_angle_beta   82.65583511
_cell_angle_gamma   89.51993074
_symmetry_Int_Tables_number   1
_chemical_formula_structural   Sr2Gd2TlNi2O9
_chemical_formula_sum   'Sr2 Gd2 Tl1 Ni2 O9'
_cell_volume   214.78730464
_cell_formula_units_Z   1
loop_
 _symmetry_equiv_pos_site_id
 _symmetry_equiv_pos_as_xyz
  1  'x, y, z'
loop_
 _atom_site_type_symbol
 _atom_site_label
 _atom_site_symmetry_multiplicity
 _atom_site_fract_x
 _atom_site_fract_y
 _atom_site_fract_z
 _atom_site_occupancy
  Sr  Sr0  1  0.59177408  0.59177408  0.82963285  1
  Sr  Sr1  1  0.42140692  0.42140692  0.17036715  1
  Gd  Gd2  1  0.70406515  0.70406515  0.59331026  1
  Gd  Gd3  1  0.29737541  0.29737541  0.40668974  1
  Tl  Tl4  1  0.04358418  0.04358418  0.00000000  1
  Ni  Ni5  1  0.15010011  0.15010011  0.70312163  1
  Ni  Ni6  1  0.85322174  0.85322174  0.29687837  1
  O  O7  1  0.15257589  0.65327870  0.69761477  1
  O  O8  1  0.65327870  0.15257589  0.69761477  1
  O  O9  1  0.85019065  0.35089347  0.30238523  1
  O  O10  1  0.35089347  0.85019065  0.30238523  1
  O  O11  1  0.22130675  0.22130675  0.55818827  1
  O  O12  1  0.77949502  0.77949502  0.44181173  1
  O  O13  1  0.47922865  0.47922865  1.00000000  1
  O  O14  1  0.07108347  0.07108347  0.85733635  1
  O  O15  1  0.92841982  0.92841982  0.14266365  1
