# generated using pymatgen
data_Sr8Mn6Cu4S4O15
_symmetry_space_group_name_H-M   'P 1'
_cell_length_a   5.58506869
_cell_length_b   5.58498265
_cell_length_c   17.56350032
_cell_angle_alpha   89.94611462
_cell_angle_beta   80.85135042
_cell_angle_gamma   89.66108858
_symmetry_Int_Tables_number   1
_chemical_formula_structural   Sr8Mn6Cu4S4O15
_chemical_formula_sum   'Sr8 Mn6 Cu4 S4 O15'
_cell_volume   540.87111893
_cell_formula_units_Z   1
loop_
 _symmetry_equiv_pos_site_id
 _symmetry_equiv_pos_as_xyz
  1  'x, y, z'
loop_
 _atom_site_type_symbol
 _atom_site_label
 _atom_site_symmetry_multiplicity
 _atom_site_fract_x
 _atom_site_fract_y
 _atom_site_fract_z
 _atom_site_occupancy
  Sr  Sr0  1  0.06577908  0.50786824  0.88431924  1
  Sr  Sr1  1  0.54990169  0.99213176  0.88431924  1
  Sr  Sr2  1  0.43422092  0.99213176  0.11568076  1
  Sr  Sr3  1  0.95009831  0.50786824  0.11568076  1
  Sr  Sr4  1  0.16821537  0.50215321  0.66788669  1
  Sr  Sr5  1  0.66389794  0.99784679  0.66788669  1
  Sr  Sr6  1  0.33178463  0.99784679  0.33211331  1
  Sr  Sr7  1  0.83610206  0.50215321  0.33211331  1
  Mn  Mn8  1  0.10969692  0.00376528  0.77302591  1
  Mn  Mn9  1  0.61727717  0.49623472  0.77302591  1
  Mn  Mn10  1  0.39030308  0.49623472  0.22697409  1
  Mn  Mn11  1  0.88272283  0.00376528  0.22697409  1
  Mn  Mn12  1  0.49331717  0.50674569  1.00000000  1
  Mn  Mn13  1  0.00668283  0.99325431  0.00000000  1
  Cu  Cu14  1  0.00010154  0.25000000  0.49979693  1
  Cu  Cu15  1  0.50016580  0.75000000  0.49966840  1
  Cu  Cu16  1  0.49989846  0.25000000  0.50020307  1
  Cu  Cu17  1  0.99983420  0.75000000  0.50033160  1
  S  S18  1  0.21060953  0.99972605  0.57998058  1
  S  S19  1  0.70940989  0.50027395  0.57998058  1
  S  S20  1  0.28939047  0.50027395  0.42001942  1
  S  S21  1  0.79059011  0.99972605  0.42001942  1
  O  O22  1  0.02449987  0.03020829  0.89061506  1
  O  O23  1  0.58488507  0.46979171  0.89061506  1
  O  O24  1  0.47550013  0.46979171  0.10938494  1
  O  O25  1  0.91511493  0.03020829  0.10938494  1
  O  O26  1  0.87365511  0.25000000  0.75268979  1
  O  O27  1  0.36679508  0.75000000  0.76640984  1
  O  O28  1  0.37057892  0.25000000  0.75884216  1
  O  O29  1  0.87059773  0.75000000  0.75880454  1
  O  O30  1  0.62634489  0.25000000  0.24731021  1
  O  O31  1  0.13320492  0.75000000  0.23359016  1
  O  O32  1  0.12942108  0.25000000  0.24115784  1
  O  O33  1  0.62940227  0.75000000  0.24119546  1
  O  O34  1  0.25000000  0.75000000  -0.00000000  1
  O  O35  1  0.75000000  0.75000000  -0.00000000  1
  O  O36  1  0.25000000  0.25000000  -0.00000000  1
