# generated using pymatgen
data_SmTiVFe10
_symmetry_space_group_name_H-M   'P 1'
_cell_length_a   4.70177450
_cell_length_b   6.50297688
_cell_length_c   6.50297688
_cell_angle_alpha   97.88111373
_cell_angle_beta   111.19291887
_cell_angle_gamma   68.80708113
_symmetry_Int_Tables_number   1
_chemical_formula_structural   SmTiVFe10
_chemical_formula_sum   'Sm1 Ti1 V1 Fe10'
_cell_volume   172.84209128
_cell_formula_units_Z   1
loop_
 _symmetry_equiv_pos_site_id
 _symmetry_equiv_pos_as_xyz
  1  'x, y, z'
loop_
 _atom_site_type_symbol
 _atom_site_label
 _atom_site_symmetry_multiplicity
 _atom_site_fract_x
 _atom_site_fract_y
 _atom_site_fract_z
 _atom_site_occupancy
  Sm  Sm0  1  0.00052718  0.99947282  0.00052718  1
  Ti  Ti1  1  0.64135048  0.35864952  0.64135048  1
  V  V2  1  0.35056405  0.64943595  0.35056405  1
  Fe  Fe3  1  0.73071902  0.76928098  0.23071902  1
  Fe  Fe4  1  0.27366831  0.22633169  0.77366831  1
  Fe  Fe5  1  0.49949981  0.77354098  0.77254060  1
  Fe  Fe6  1  0.49949981  0.22745940  0.22645902  1
  Fe  Fe7  1  0.49988395  0.99798931  0.49875268  1
  Fe  Fe8  1  0.00087941  0.99798931  0.49875268  1
  Fe  Fe9  1  0.49988395  0.50124732  0.00201069  1
  Fe  Fe10  1  0.00087941  0.50124732  0.00201069  1
  Fe  Fe11  1  0.00132230  0.35765996  0.36030457  1
  Fe  Fe12  1  0.00132230  0.63969543  0.64234004  1
