# generated using pymatgen
data_SmGd(MnNi4)2
_symmetry_space_group_name_H-M   'P 1'
_cell_length_a   3.93951333
_cell_length_b   4.98932401
_cell_length_c   8.63898003
_cell_angle_alpha   90.01372481
_cell_angle_beta   90.00000000
_cell_angle_gamma   90.00000000
_symmetry_Int_Tables_number   1
_chemical_formula_structural   SmGd(MnNi4)2
_chemical_formula_sum   'Sm1 Gd1 Mn2 Ni8'
_cell_volume   169.80354003
_cell_formula_units_Z   1
loop_
 _symmetry_equiv_pos_site_id
 _symmetry_equiv_pos_as_xyz
  1  'x, y, z'
loop_
 _atom_site_type_symbol
 _atom_site_label
 _atom_site_symmetry_multiplicity
 _atom_site_fract_x
 _atom_site_fract_y
 _atom_site_fract_z
 _atom_site_occupancy
  Sm  Sm0  1  -0.00000000  0.49992921  0.49990414  1
  Gd  Gd1  1  -0.00000000  0.00000734  -0.00005301  1
  Mn  Mn2  1  0.00000000  0.99998224  0.33266370  1
  Mn  Mn3  1  -0.00000000  0.49999719  0.83428326  1
  Ni  Ni4  1  -0.00000000  0.50000260  0.16547608  1
  Ni  Ni5  1  0.00000000  -0.00004400  0.66774046  1
  Ni  Ni6  1  0.50000000  0.49998099  0.00228244  1
  Ni  Ni7  1  0.50000000  0.00000016  0.50219206  1
  Ni  Ni8  1  0.50000000  0.25259357  0.24835643  1
  Ni  Ni9  1  0.50000000  0.75382354  0.74940140  1
  Ni  Ni10  1  0.50000000  0.74736955  0.24833424  1
  Ni  Ni11  1  0.50000000  0.24615760  0.74941880  1
