# generated using pymatgen
data_Sr3(AlIn2)2
_symmetry_space_group_name_H-M   'P 1'
_cell_length_a   5.32130686
_cell_length_b   6.21093688
_cell_length_c   17.75285230
_cell_angle_alpha   92.26855561
_cell_angle_beta   81.38049785
_cell_angle_gamma   115.36492018
_symmetry_Int_Tables_number   1
_chemical_formula_structural   Sr3(AlIn2)2
_chemical_formula_sum   'Sr6 Al4 In8'
_cell_volume   523.98717245
_cell_formula_units_Z   2
loop_
 _symmetry_equiv_pos_site_id
 _symmetry_equiv_pos_as_xyz
  1  'x, y, z'
loop_
 _atom_site_type_symbol
 _atom_site_label
 _atom_site_symmetry_multiplicity
 _atom_site_fract_x
 _atom_site_fract_y
 _atom_site_fract_z
 _atom_site_occupancy
  Sr  Sr0  1  0.31869331  0.70742517  0.07003954  1
  Sr  Sr1  1  0.65587250  0.71140385  0.39965885  1
  Sr  Sr2  1  0.98824773  0.71191460  0.73541815  1
  Sr  Sr3  1  0.01337757  0.29139132  0.26463718  1
  Sr  Sr4  1  0.34782821  0.29426245  0.59860604  1
  Sr  Sr5  1  0.68120618  0.29518458  0.93277123  1
  Al  Al6  1  0.56988077  0.27352714  0.13376560  1
  Al  Al7  1  0.89601831  0.25746495  0.46542734  1
  Al  Al8  1  0.22963657  0.25779892  0.79852678  1
  Al  Al9  1  0.76295692  0.72583111  0.19991627  1
  In  In10  1  0.09237194  0.71722955  0.53248668  1
  In  In11  1  0.42517034  0.71676361  0.86642292  1
  In  In12  1  0.01312393  0.10594131  0.07969344  1
  In  In13  1  0.35298105  0.11371065  0.40774755  1
  In  In14  1  0.68683553  0.11602292  0.74235286  1
  In  In15  1  0.31962622  0.89479591  0.25554247  1
  In  In16  1  0.65614321  0.90414635  0.59186093  1
  In  In17  1  0.99002973  0.90518562  0.92512616  1
