# generated using pymatgen
data_Sm4Si9Ni7
_symmetry_space_group_name_H-M   'P 1'
_cell_length_a   5.65974849
_cell_length_b   7.96809450
_cell_length_c   7.96809450
_cell_angle_alpha   88.66405933
_cell_angle_beta   111.05384594
_cell_angle_gamma   68.94615406
_symmetry_Int_Tables_number   1
_chemical_formula_structural   Sm4Si9Ni7
_chemical_formula_sum   'Sm4 Si9 Ni7'
_cell_volume   308.13823893
_cell_formula_units_Z   1
loop_
 _symmetry_equiv_pos_site_id
 _symmetry_equiv_pos_as_xyz
  1  'x, y, z'
loop_
 _atom_site_type_symbol
 _atom_site_label
 _atom_site_symmetry_multiplicity
 _atom_site_fract_x
 _atom_site_fract_y
 _atom_site_fract_z
 _atom_site_occupancy
  Sm  Sm0  1  0.24490405  0.62831158  0.10997424  1
  Sm  Sm1  1  0.76545678  0.36563196  0.89342013  1
  Sm  Sm2  1  0.25509595  0.10997424  0.62831158  1
  Sm  Sm3  1  0.73454322  0.89342013  0.36563196  1
  Si  Si4  1  0.14862310  0.45696990  0.76054868  1
  Si  Si5  1  0.86999347  0.52909513  0.24919025  1
  Si  Si6  1  0.35137690  0.76054868  0.45696990  1
  Si  Si7  1  0.63000653  0.24919025  0.52909513  1
  Si  Si8  1  0.25000000  0.00160160  0.00160160  1
  Si  Si9  1  0.75000000  0.99277019  0.99277019  1
  Si  Si10  1  0.25000000  0.73327108  0.73327108  1
  Si  Si11  1  0.75000000  0.73766368  0.73766368  1
  Si  Si12  1  0.75000000  0.26462208  0.26462208  1
  Ni  Ni13  1  0.39701342  0.23826471  0.01624787  1
  Ni  Ni14  1  0.61008515  0.75062672  0.97931235  1
  Ni  Ni15  1  0.10298658  0.01624787  0.23826471  1
  Ni  Ni16  1  0.88991485  0.97931235  0.75062672  1
  Ni  Ni17  1  0.75000000  0.50400153  0.50400153  1
  Ni  Ni18  1  0.25000000  0.51239343  0.51239343  1
  Ni  Ni19  1  0.25000000  0.27608289  0.27608289  1
