# generated using pymatgen
data_Sr2CaAlO4F
_symmetry_space_group_name_H-M   'P 1'
_cell_length_a   6.71475301
_cell_length_b   6.71475301
_cell_length_c   7.25903620
_cell_angle_alpha   63.24264474
_cell_angle_beta   63.24264474
_cell_angle_gamma   91.52351268
_symmetry_Int_Tables_number   1
_chemical_formula_structural   Sr2CaAlO4F
_chemical_formula_sum   'Sr4 Ca2 Al2 O8 F2'
_cell_volume   249.93224794
_cell_formula_units_Z   2
loop_
 _symmetry_equiv_pos_site_id
 _symmetry_equiv_pos_as_xyz
  1  'x, y, z'
loop_
 _atom_site_type_symbol
 _atom_site_label
 _atom_site_symmetry_multiplicity
 _atom_site_fract_x
 _atom_site_fract_y
 _atom_site_fract_z
 _atom_site_occupancy
  Sr  Sr0  1  0.25000000  0.25000000  0.50000000  1
  Sr  Sr1  1  0.75000000  0.75000000  0.50000000  1
  Sr  Sr2  1  0.83175339  0.66824661  -0.00000000  1
  Sr  Sr3  1  0.16824661  0.33175339  -0.00000000  1
  Ca  Ca4  1  0.66982911  0.16982911  0.00000000  1
  Ca  Ca5  1  0.33017089  0.83017089  1.00000000  1
  Al  Al6  1  0.75017140  0.25017140  0.49965721  1
  Al  Al7  1  0.24982860  0.74982860  0.50034279  1
  O  O8  1  0.21425388  0.99471456  0.29103156  1
  O  O9  1  0.49471456  0.71425388  0.29103156  1
  O  O10  1  0.00174629  0.50174629  0.29065260  1
  O  O11  1  0.70760111  0.20760111  0.29065260  1
  O  O12  1  0.78574612  0.00528544  0.70896844  1
  O  O13  1  0.50528544  0.28574612  0.70896844  1
  O  O14  1  0.99825371  0.49825371  0.70934740  1
  O  O15  1  0.29239889  0.79239889  0.70934740  1
  F  F16  1  0.50000000  0.50000000  -0.00000000  1
  F  F17  1  0.00000000  -0.00000000  -0.00000000  1
