# generated using pymatgen
data_Ni3(Sn2Pt)2
_symmetry_space_group_name_H-M   'P 1'
_cell_length_a   4.21191996
_cell_length_b   4.21289971
_cell_length_c   10.62016785
_cell_angle_alpha   90.00000000
_cell_angle_beta   90.00655869
_cell_angle_gamma   59.99230501
_symmetry_Int_Tables_number   1
_chemical_formula_structural   Ni3(Sn2Pt)2
_chemical_formula_sum   'Ni3 Sn4 Pt2'
_cell_volume   163.18850325
_cell_formula_units_Z   1
loop_
 _symmetry_equiv_pos_site_id
 _symmetry_equiv_pos_as_xyz
  1  'x, y, z'
loop_
 _atom_site_type_symbol
 _atom_site_label
 _atom_site_symmetry_multiplicity
 _atom_site_fract_x
 _atom_site_fract_y
 _atom_site_fract_z
 _atom_site_occupancy
  Ni  Ni0  1  0.33303009  0.33348496  0.12920497  1
  Ni  Ni1  1  0.00002619  0.99998690  0.24819895  1
  Ni  Ni2  1  0.00014131  0.99992935  0.74741212  1
  Sn  Sn3  1  0.33319736  0.33340132  0.37610267  1
  Sn  Sn4  1  0.33339679  0.33330160  0.86332373  1
  Sn  Sn5  1  0.66682534  0.66658733  0.13503815  1
  Sn  Sn6  1  0.66669114  0.66665443  0.63173412  1
  Pt  Pt7  1  0.00002247  0.99998877  0.99372576  1
  Pt  Pt8  1  0.00006930  0.99996535  0.50025953  1
