# generated using pymatgen
data_Sm4Ga3Fe31
_symmetry_space_group_name_H-M   'P 1'
_cell_length_a   6.44010556
_cell_length_b   6.48695683
_cell_length_c   12.96204649
_cell_angle_alpha   83.21400083
_cell_angle_beta   82.86933973
_cell_angle_gamma   83.10512521
_symmetry_Int_Tables_number   1
_chemical_formula_structural   Sm4Ga3Fe31
_chemical_formula_sum   'Sm4 Ga3 Fe31'
_cell_volume   530.49851540
_cell_formula_units_Z   1
loop_
 _symmetry_equiv_pos_site_id
 _symmetry_equiv_pos_as_xyz
  1  'x, y, z'
loop_
 _atom_site_type_symbol
 _atom_site_label
 _atom_site_symmetry_multiplicity
 _atom_site_fract_x
 _atom_site_fract_y
 _atom_site_fract_z
 _atom_site_occupancy
  Sm  Sm0  1  0.66142925  0.66455720  0.33030400  1
  Sm  Sm1  1  0.65828106  0.66137025  0.83068258  1
  Sm  Sm2  1  0.34187627  0.34176028  0.16980229  1
  Sm  Sm3  1  0.34250936  0.34314896  0.67292324  1
  Ga  Ga4  1  0.84727173  0.34460862  0.17209235  1
  Ga  Ga5  1  0.84788162  0.34419794  0.67191424  1
  Ga  Ga6  1  0.34429063  0.34443858  0.42405641  1
  Fe  Fe7  1  0.90417864  0.90329134  0.45175167  1
  Fe  Fe8  1  0.90443411  0.90320203  0.95153398  1
  Fe  Fe9  1  0.09710725  0.09442957  0.04751993  1
  Fe  Fe10  1  0.09590850  0.09222281  0.54785220  1
  Fe  Fe11  1  0.28894712  0.71095343  0.50110615  1
  Fe  Fe12  1  0.28960931  0.71043383  0.00029742  1
  Fe  Fe13  1  0.70913559  0.99856599  0.14459846  1
  Fe  Fe14  1  0.70942578  0.99844557  0.64409897  1
  Fe  Fe15  1  0.99646289  0.28777749  0.35583858  1
  Fe  Fe16  1  0.00020766  0.28891481  0.85576025  1
  Fe  Fe17  1  0.28954023  0.99832729  0.35494175  1
  Fe  Fe18  1  0.29112811  0.00095978  0.85498600  1
  Fe  Fe19  1  0.00081657  0.71159652  0.14413185  1
  Fe  Fe20  1  0.00034942  0.71173783  0.64420009  1
  Fe  Fe21  1  0.70961424  0.28928559  0.99889603  1
  Fe  Fe22  1  0.71177819  0.28892326  0.49851565  1
  Fe  Fe23  1  0.99935228  0.99687066  0.25012510  1
  Fe  Fe24  1  0.99931899  0.99719920  0.75061511  1
  Fe  Fe25  1  0.99640185  0.50323268  0.49797860  1
  Fe  Fe26  1  0.99968522  0.49983581  0.99875501  1
  Fe  Fe27  1  0.49878378  -0.00001133  0.99985854  1
  Fe  Fe28  1  0.49959179  0.99684121  0.49982106  1
  Fe  Fe29  1  0.34232292  0.34372188  0.92310406  1
  Fe  Fe30  1  0.34227643  0.84594127  0.17177815  1
  Fe  Fe31  1  0.34208385  0.84490210  0.67120260  1
  Fe  Fe32  1  0.15360823  0.66207926  0.32834694  1
  Fe  Fe33  1  0.15676525  0.65881934  0.82904273  1
  Fe  Fe34  1  0.65507603  0.66155079  0.07528949  1
  Fe  Fe35  1  0.65758808  0.66167550  0.57608937  1
  Fe  Fe36  1  0.65957491  0.14410833  0.32993219  1
  Fe  Fe37  1  0.65538683  0.15008435  0.83025696  1
