# generated using pymatgen
data_Sm2Fe15Co2C3
_symmetry_space_group_name_H-M   'P 1'
_cell_length_a   6.51448138
_cell_length_b   6.53323068
_cell_length_c   6.51448170
_cell_angle_alpha   83.77449447
_cell_angle_beta   83.70265318
_cell_angle_gamma   83.77448860
_symmetry_Int_Tables_number   1
_chemical_formula_structural   Sm2Fe15Co2C3
_chemical_formula_sum   'Sm2 Fe15 Co2 C3'
_cell_volume   272.65122225
_cell_formula_units_Z   1
loop_
 _symmetry_equiv_pos_site_id
 _symmetry_equiv_pos_as_xyz
  1  'x, y, z'
loop_
 _atom_site_type_symbol
 _atom_site_label
 _atom_site_symmetry_multiplicity
 _atom_site_fract_x
 _atom_site_fract_y
 _atom_site_fract_z
 _atom_site_occupancy
  Sm  Sm0  1  0.65444928  0.65392307  0.65444928  1
  Sm  Sm1  1  0.34633285  0.34565281  0.34633285  1
  Fe  Fe2  1  0.28347027  0.71711013  0.99932055  1
  Fe  Fe3  1  0.71588507  0.00012933  0.28381861  1
  Fe  Fe4  1  0.99981492  0.28340651  0.71640175  1
  Fe  Fe5  1  0.28381861  0.00012933  0.71588507  1
  Fe  Fe6  1  0.99932055  0.71711013  0.28347027  1
  Fe  Fe7  1  0.71640175  0.28340651  0.99981492  1
  Fe  Fe8  1  0.00026206  0.00107839  0.49940188  1
  Fe  Fe9  1  0.00041781  0.49946122  0.00041781  1
  Fe  Fe10  1  0.49940188  0.00107839  0.00026206  1
  Fe  Fe11  1  0.90468206  0.90390524  0.90468206  1
  Fe  Fe12  1  0.09452795  0.09478861  0.09452795  1
  Fe  Fe13  1  0.34165391  0.85736872  0.34165391  1
  Fe  Fe14  1  0.14178994  0.65768874  0.65657636  1
  Fe  Fe15  1  0.65657636  0.65768874  0.14178994  1
  Fe  Fe16  1  0.65856412  0.14197399  0.65856412  1
  Co  Co17  1  0.86171525  0.34271163  0.34249685  1
  Co  Co18  1  0.34249685  0.34271163  0.86171525  1
  C  C19  1  0.49898296  0.49918582  0.99982526  1
  C  C20  1  0.49961027  0.00030524  0.49961027  1
  C  C21  1  0.99982526  0.49918582  0.49898296  1
