# generated using pymatgen
data_ScMnGaS4
_symmetry_space_group_name_H-M   'P 1'
_cell_length_a   6.11615026
_cell_length_b   7.42039738
_cell_length_c   12.86500726
_cell_angle_alpha   90.00000000
_cell_angle_beta   90.00000000
_cell_angle_gamma   90.00000000
_symmetry_Int_Tables_number   1
_chemical_formula_structural   ScMnGaS4
_chemical_formula_sum   'Sc4 Mn4 Ga4 S16'
_cell_volume   583.86890341
_cell_formula_units_Z   4
loop_
 _symmetry_equiv_pos_site_id
 _symmetry_equiv_pos_as_xyz
  1  'x, y, z'
loop_
 _atom_site_type_symbol
 _atom_site_label
 _atom_site_symmetry_multiplicity
 _atom_site_fract_x
 _atom_site_fract_y
 _atom_site_fract_z
 _atom_site_occupancy
  Sc  Sc0  1  0.49664132  0.75000000  0.23299960  1
  Sc  Sc1  1  0.00335868  0.75000000  0.73299960  1
  Sc  Sc2  1  0.50335868  0.25000000  0.76700040  1
  Sc  Sc3  1  0.99664132  0.25000000  0.26700040  1
  Mn  Mn4  1  0.50000000  0.00000000  0.50000000  1
  Mn  Mn5  1  0.00000000  0.50000000  -0.00000000  1
  Mn  Mn6  1  0.50000000  0.50000000  0.50000000  1
  Mn  Mn7  1  0.00000000  0.00000000  -0.00000000  1
  Ga  Ga8  1  0.91904309  0.75000000  0.41163057  1
  Ga  Ga9  1  0.58095691  0.75000000  0.91163057  1
  Ga  Ga10  1  0.08095691  0.25000000  0.58836943  1
  Ga  Ga11  1  0.41904309  0.25000000  0.08836943  1
  S  S12  1  0.28735722  0.75000000  0.40991301  1
  S  S13  1  0.21264278  0.75000000  0.90991301  1
  S  S14  1  0.71264278  0.25000000  0.59008699  1
  S  S15  1  0.78735722  0.25000000  0.09008699  1
  S  S16  1  0.74833449  0.75000000  0.07219407  1
  S  S17  1  0.75166551  0.75000000  0.57219407  1
  S  S18  1  0.25166551  0.25000000  0.92780593  1
  S  S19  1  0.24833449  0.25000000  0.42780593  1
  S  S20  1  0.74372826  0.99011128  0.33197373  1
  S  S21  1  0.75627174  0.50988872  0.83197373  1
  S  S22  1  0.25627174  0.49011128  0.66802627  1
  S  S23  1  0.24372826  0.00988872  0.16802627  1
  S  S24  1  0.25627174  0.00988872  0.66802627  1
  S  S25  1  0.24372826  0.49011128  0.16802627  1
  S  S26  1  0.74372826  0.50988872  0.33197373  1
  S  S27  1  0.75627174  0.99011128  0.83197373  1
