# generated using pymatgen
data_P(W3O10)4
_symmetry_space_group_name_H-M   'P 1'
_cell_length_a   12.26802030
_cell_length_b   12.26802030
_cell_length_c   12.26802030
_cell_angle_alpha   90.00000000
_cell_angle_beta   90.00000000
_cell_angle_gamma   90.00000000
_symmetry_Int_Tables_number   1
_chemical_formula_structural   P(W3O10)4
_chemical_formula_sum   'P2 W24 O80'
_cell_volume   1846.39007853
_cell_formula_units_Z   2
loop_
 _symmetry_equiv_pos_site_id
 _symmetry_equiv_pos_as_xyz
  1  'x, y, z'
loop_
 _atom_site_type_symbol
 _atom_site_label
 _atom_site_symmetry_multiplicity
 _atom_site_fract_x
 _atom_site_fract_y
 _atom_site_fract_z
 _atom_site_occupancy
  P  P0  1  0.50000000  0.50000000  0.50000000  1
  P  P1  1  -0.00000000  -0.00000000  0.00000000  1
  W  W2  1  0.70989086  0.70989086  0.49216735  1
  W  W3  1  0.50783265  0.70989086  0.29010914  1
  W  W4  1  0.70989086  0.50783265  0.29010914  1
  W  W5  1  0.70989086  0.29010914  0.50783265  1
  W  W6  1  0.50783265  0.29010914  0.70989086  1
  W  W7  1  0.70989086  0.49216735  0.70989086  1
  W  W8  1  0.29010914  0.70989086  0.50783265  1
  W  W9  1  0.49216735  0.70989086  0.70989086  1
  W  W10  1  0.29010914  0.50783265  0.70989086  1
  W  W11  1  0.29010914  0.29010914  0.49216735  1
  W  W12  1  0.49216735  0.29010914  0.29010914  1
  W  W13  1  0.29010914  0.49216735  0.29010914  1
  W  W14  1  0.79010914  0.79010914  0.00783265  1
  W  W15  1  0.99216735  0.79010914  0.20989086  1
  W  W16  1  0.79010914  0.99216735  0.20989086  1
  W  W17  1  0.79010914  0.20989086  0.99216735  1
  W  W18  1  0.99216735  0.20989086  0.79010914  1
  W  W19  1  0.79010914  0.00783265  0.79010914  1
  W  W20  1  0.20989086  0.79010914  0.99216735  1
  W  W21  1  0.00783265  0.79010914  0.79010914  1
  W  W22  1  0.20989086  0.99216735  0.79010914  1
  W  W23  1  0.20989086  0.20989086  0.00783265  1
  W  W24  1  0.00783265  0.20989086  0.20989086  1
  W  W25  1  0.20989086  0.00783265  0.20989086  1
  O  O26  1  0.57289774  0.57289774  0.42710226  1
  O  O27  1  0.57289774  0.42710226  0.57289774  1
  O  O28  1  0.42710226  0.57289774  0.57289774  1
  O  O29  1  0.42710226  0.42710226  0.42710226  1
  O  O30  1  0.92710226  0.92710226  0.07289774  1
  O  O31  1  0.92710226  0.07289774  0.92710226  1
  O  O32  1  0.07289774  0.92710226  0.92710226  1
  O  O33  1  0.07289774  0.07289774  0.07289774  1
  O  O34  1  0.59399406  0.59399406  0.74623982  1
  O  O35  1  0.25376018  0.59399406  0.40600594  1
  O  O36  1  0.59399406  0.25376018  0.40600594  1
  O  O37  1  0.59399406  0.40600594  0.25376018  1
  O  O38  1  0.25376018  0.40600594  0.59399406  1
  O  O39  1  0.59399406  0.74623982  0.59399406  1
  O  O40  1  0.40600594  0.59399406  0.25376018  1
  O  O41  1  0.74623982  0.59399406  0.59399406  1
  O  O42  1  0.40600594  0.25376018  0.59399406  1
  O  O43  1  0.40600594  0.40600594  0.74623982  1
  O  O44  1  0.74623982  0.40600594  0.40600594  1
  O  O45  1  0.40600594  0.74623982  0.40600594  1
  O  O46  1  0.90600594  0.90600594  0.75376018  1
  O  O47  1  0.24623982  0.90600594  0.09399406  1
  O  O48  1  0.90600594  0.24623982  0.09399406  1
  O  O49  1  0.90600594  0.09399406  0.24623982  1
  O  O50  1  0.24623982  0.09399406  0.90600594  1
  O  O51  1  0.90600594  0.75376018  0.90600594  1
  O  O52  1  0.09399406  0.90600594  0.24623982  1
  O  O53  1  0.75376018  0.90600594  0.90600594  1
  O  O54  1  0.09399406  0.24623982  0.90600594  1
  O  O55  1  0.09399406  0.09399406  0.75376018  1
  O  O56  1  0.75376018  0.09399406  0.09399406  1
  O  O57  1  0.09399406  0.75376018  0.09399406  1
  O  O58  1  0.62299403  0.62299403  0.22178001  1
  O  O59  1  0.77821999  0.62299403  0.37700597  1
  O  O60  1  0.62299403  0.77821999  0.37700597  1
  O  O61  1  0.62299403  0.37700597  0.77821999  1
  O  O62  1  0.77821999  0.37700597  0.62299403  1
  O  O63  1  0.62299403  0.22178001  0.62299403  1
  O  O64  1  0.37700597  0.62299403  0.77821999  1
  O  O65  1  0.22178001  0.62299403  0.62299403  1
  O  O66  1  0.37700597  0.77821999  0.62299403  1
  O  O67  1  0.37700597  0.37700597  0.22178001  1
  O  O68  1  0.22178001  0.37700597  0.37700597  1
  O  O69  1  0.37700597  0.22178001  0.37700597  1
  O  O70  1  0.87700597  0.87700597  0.27821999  1
  O  O71  1  0.72178001  0.87700597  0.12299403  1
  O  O72  1  0.87700597  0.72178001  0.12299403  1
  O  O73  1  0.87700597  0.12299403  0.72178001  1
  O  O74  1  0.72178001  0.12299403  0.87700597  1
  O  O75  1  0.87700597  0.27821999  0.87700597  1
  O  O76  1  0.12299403  0.87700597  0.72178001  1
  O  O77  1  0.27821999  0.87700597  0.87700597  1
  O  O78  1  0.12299403  0.72178001  0.87700597  1
  O  O79  1  0.12299403  0.12299403  0.27821999  1
  O  O80  1  0.27821999  0.12299403  0.12299403  1
  O  O81  1  0.12299403  0.27821999  0.12299403  1
  O  O82  1  0.80739071  0.80739071  0.51925515  1
  O  O83  1  0.48074485  0.80739071  0.19260929  1
  O  O84  1  0.80739071  0.48074485  0.19260929  1
  O  O85  1  0.80739071  0.19260929  0.48074485  1
  O  O86  1  0.48074485  0.19260929  0.80739071  1
  O  O87  1  0.80739071  0.51925515  0.80739071  1
  O  O88  1  0.19260929  0.80739071  0.48074485  1
  O  O89  1  0.51925515  0.80739071  0.80739071  1
  O  O90  1  0.19260929  0.48074485  0.80739071  1
  O  O91  1  0.19260929  0.19260929  0.51925515  1
  O  O92  1  0.51925515  0.19260929  0.19260929  1
  O  O93  1  0.19260929  0.51925515  0.19260929  1
  O  O94  1  0.69260929  0.69260929  0.98074485  1
  O  O95  1  0.01925515  0.69260929  0.30739071  1
  O  O96  1  0.69260929  0.01925515  0.30739071  1
  O  O97  1  0.69260929  0.30739071  0.01925515  1
  O  O98  1  0.01925515  0.30739071  0.69260929  1
  O  O99  1  0.69260929  0.98074485  0.69260929  1
  O  O100  1  0.30739071  0.69260929  0.01925515  1
  O  O101  1  0.98074485  0.69260929  0.69260929  1
  O  O102  1  0.30739071  0.01925515  0.69260929  1
  O  O103  1  0.30739071  0.30739071  0.98074485  1
  O  O104  1  0.98074485  0.30739071  0.30739071  1
  O  O105  1  0.30739071  0.98074485  0.30739071  1
