# generated using pymatgen
data_Sm2ZrFe16
_symmetry_space_group_name_H-M   'P 1'
_cell_length_a   6.50503812
_cell_length_b   6.50503832
_cell_length_c   6.50503812
_cell_angle_alpha   83.26235082
_cell_angle_beta   83.26234692
_cell_angle_gamma   83.26235082
_symmetry_Int_Tables_number   1
_chemical_formula_structural   Sm2ZrFe16
_chemical_formula_sum   'Sm2 Zr1 Fe16'
_cell_volume   269.97437149
_cell_formula_units_Z   1
loop_
 _symmetry_equiv_pos_site_id
 _symmetry_equiv_pos_as_xyz
  1  'x, y, z'
loop_
 _atom_site_type_symbol
 _atom_site_label
 _atom_site_symmetry_multiplicity
 _atom_site_fract_x
 _atom_site_fract_y
 _atom_site_fract_z
 _atom_site_occupancy
  Sm  Sm0  1  0.65870863  0.65870863  0.65870863  1
  Sm  Sm1  1  0.35174919  0.35174919  0.35174919  1
  Zr  Zr2  1  0.09483213  0.09483213  0.09483213  1
  Fe  Fe3  1  0.34548969  0.34548969  0.83572987  1
  Fe  Fe4  1  0.34548969  0.83572987  0.34548969  1
  Fe  Fe5  1  0.83572987  0.34548969  0.34548969  1
  Fe  Fe6  1  0.65998358  0.65998358  0.15669970  1
  Fe  Fe7  1  0.65998358  0.15669970  0.65998358  1
  Fe  Fe8  1  0.15669970  0.65998358  0.65998358  1
  Fe  Fe9  1  0.69713446  0.99937146  0.30086075  1
  Fe  Fe10  1  0.99937146  0.30086075  0.69713446  1
  Fe  Fe11  1  0.30086075  0.69713446  0.99937146  1
  Fe  Fe12  1  0.99937146  0.69713446  0.30086075  1
  Fe  Fe13  1  0.69713446  0.30086075  0.99937146  1
  Fe  Fe14  1  0.30086075  0.99937146  0.69713446  1
  Fe  Fe15  1  0.99615446  0.51003727  0.99615446  1
  Fe  Fe16  1  0.51003727  0.99615446  0.99615446  1
  Fe  Fe17  1  0.99615446  0.99615446  0.51003727  1
  Fe  Fe18  1  0.89425440  0.89425440  0.89425440  1
