# generated using pymatgen
data_PrMnCu10
_symmetry_space_group_name_H-M   'P 1'
_cell_length_a   4.92196084
_cell_length_b   8.24771951
_cell_length_c   8.24771951
_cell_angle_alpha   89.89225094
_cell_angle_beta   90.00000000
_cell_angle_gamma   90.00000000
_symmetry_Int_Tables_number   1
_chemical_formula_structural   PrMnCu10
_chemical_formula_sum   'Pr2 Mn2 Cu20'
_cell_volume   334.81518894
_cell_formula_units_Z   2
loop_
 _symmetry_equiv_pos_site_id
 _symmetry_equiv_pos_as_xyz
  1  'x, y, z'
loop_
 _atom_site_type_symbol
 _atom_site_label
 _atom_site_symmetry_multiplicity
 _atom_site_fract_x
 _atom_site_fract_y
 _atom_site_fract_z
 _atom_site_occupancy
  Pr  Pr0  1  -0.00000000  0.50000000  0.50000000  1
  Pr  Pr1  1  -0.00000000  0.00000000  -0.00000000  1
  Mn  Mn2  1  -0.00000000  0.38304293  0.11695707  1
  Mn  Mn3  1  -0.00000000  0.61695707  0.88304293  1
  Cu  Cu4  1  0.50000000  0.56492944  0.71039090  1
  Cu  Cu5  1  0.50000000  0.43507056  0.28960910  1
  Cu  Cu6  1  0.50000000  0.93512755  0.21211411  1
  Cu  Cu7  1  0.50000000  0.06487245  0.78788589  1
  Cu  Cu8  1  0.50000000  0.71211411  0.43512755  1
  Cu  Cu9  1  0.50000000  0.28788589  0.56487245  1
  Cu  Cu10  1  0.50000000  0.21039090  0.06492944  1
  Cu  Cu11  1  0.50000000  0.78960910  0.93507056  1
  Cu  Cu12  1  0.75929431  0.32080018  0.82080018  1
  Cu  Cu13  1  0.75929431  0.67919982  0.17919982  1
  Cu  Cu14  1  0.75961592  0.17820498  0.32179502  1
  Cu  Cu15  1  0.75961592  0.82179502  0.67820498  1
  Cu  Cu16  1  0.24070569  0.67919982  0.17919982  1
  Cu  Cu17  1  0.24070569  0.32080018  0.82080018  1
  Cu  Cu18  1  0.24038408  0.82179502  0.67820498  1
  Cu  Cu19  1  0.24038408  0.17820498  0.32179502  1
  Cu  Cu20  1  0.50000000  0.00000000  0.50000000  1
  Cu  Cu21  1  0.50000000  0.50000000  -0.00000000  1
  Cu  Cu22  1  -0.00000000  0.11435264  0.61435264  1
  Cu  Cu23  1  -0.00000000  0.88564736  0.38564736  1
