# generated using pymatgen
data_Pr3SiN3O2
_symmetry_space_group_name_H-M   'P 1'
_cell_length_a   6.74174306
_cell_length_b   6.74174306
_cell_length_c   7.34403056
_cell_angle_alpha   62.20685200
_cell_angle_beta   62.20685200
_cell_angle_gamma   89.09044741
_symmetry_Int_Tables_number   1
_chemical_formula_structural   Pr3SiN3O2
_chemical_formula_sum   'Pr6 Si2 N6 O4'
_cell_volume   252.41003642
_cell_formula_units_Z   2
loop_
 _symmetry_equiv_pos_site_id
 _symmetry_equiv_pos_as_xyz
  1  'x, y, z'
loop_
 _atom_site_type_symbol
 _atom_site_label
 _atom_site_symmetry_multiplicity
 _atom_site_fract_x
 _atom_site_fract_y
 _atom_site_fract_z
 _atom_site_occupancy
  Pr  Pr0  1  0.24311464  0.25688536  0.50000000  1
  Pr  Pr1  1  0.74311464  0.75688536  0.50000000  1
  Pr  Pr2  1  0.32413989  0.17586011  -0.00000000  1
  Pr  Pr3  1  0.66661248  0.83338752  -0.00000000  1
  Pr  Pr4  1  0.17898995  0.67558115  0.00000000  1
  Pr  Pr5  1  0.82441885  0.32101005  -0.00000000  1
  Si  Si6  1  0.75122282  0.24413044  0.50464674  1
  Si  Si7  1  0.25586956  0.74877718  0.49535326  1
  N  N8  1  0.99204118  0.20744753  0.30051128  1
  N  N9  1  0.49147733  0.99041621  0.30162540  1
  N  N10  1  0.20795839  0.70689727  0.30162540  1
  N  N11  1  0.29255247  0.50795882  0.69948872  1
  N  N12  1  0.50958379  0.00852267  0.69837460  1
  N  N13  1  0.79310273  0.29204161  0.69837460  1
  O  O14  1  0.50866299  0.50648812  -0.00000000  1
  O  O15  1  0.99351188  0.99133701  0.00000000  1
  O  O16  1  0.71026814  0.48664173  0.30309013  1
  O  O17  1  0.01335827  0.78973186  0.69690987  1
