# generated using pymatgen
data_Na4AlFe3O8
_symmetry_space_group_name_H-M   'P 1'
_cell_length_a   5.43911012
_cell_length_b   5.75609974
_cell_length_c   7.11609590
_cell_angle_alpha   89.98993355
_cell_angle_beta   89.97504994
_cell_angle_gamma   89.90986614
_symmetry_Int_Tables_number   1
_chemical_formula_structural   Na4AlFe3O8
_chemical_formula_sum   'Na4 Al1 Fe3 O8'
_cell_volume   222.79085921
_cell_formula_units_Z   1
loop_
 _symmetry_equiv_pos_site_id
 _symmetry_equiv_pos_as_xyz
  1  'x, y, z'
loop_
 _atom_site_type_symbol
 _atom_site_label
 _atom_site_symmetry_multiplicity
 _atom_site_fract_x
 _atom_site_fract_y
 _atom_site_fract_z
 _atom_site_occupancy
  Na  Na0  1  0.51177196  0.92026662  0.37441130  1
  Na  Na1  1  0.00872823  0.08185048  0.62054317  1
  Na  Na2  1  0.00982667  0.58372050  0.88388419  1
  Na  Na3  1  0.51237417  0.41042316  0.12152054  1
  Al  Al4  1  0.02106772  0.06517417  0.12603250  1
  Fe  Fe5  1  0.02123321  0.56710517  0.36794837  1
  Fe  Fe6  1  0.52137304  0.43553648  0.62654867  1
  Fe  Fe7  1  0.52100964  0.93596626  0.87865429  1
  O  O8  1  0.94096721  0.88578164  0.32244663  1
  O  O9  1  0.44068732  0.11456894  0.65995972  1
  O  O10  1  0.43916337  0.61541390  0.84297785  1
  O  O11  1  0.94128954  0.36310964  0.16559108  1
  O  O12  1  0.36829988  0.54677573  0.40438250  1
  O  O13  1  0.86824056  0.46393013  0.59339236  1
  O  O14  1  0.86506092  0.96638521  0.92072422  1
  O  O15  1  0.34490657  0.04399197  0.09098260  1
