# generated using pymatgen
data_Pr16Re25B24
_symmetry_space_group_name_H-M   'P 1'
_cell_length_a   7.95000074
_cell_length_b   7.95000074
_cell_length_c   15.89962371
_cell_angle_alpha   84.86631380
_cell_angle_beta   84.86631380
_cell_angle_gamma   84.77488071
_symmetry_Int_Tables_number   1
_chemical_formula_structural   Pr16Re25B24
_chemical_formula_sum   'Pr16 Re25 B24'
_cell_volume   993.34959429
_cell_formula_units_Z   1
loop_
 _symmetry_equiv_pos_site_id
 _symmetry_equiv_pos_as_xyz
  1  'x, y, z'
loop_
 _atom_site_type_symbol
 _atom_site_label
 _atom_site_symmetry_multiplicity
 _atom_site_fract_x
 _atom_site_fract_y
 _atom_site_fract_z
 _atom_site_occupancy
  Pr  Pr0  1  0.18477206  0.18477206  0.35021999  1
  Pr  Pr1  1  0.18945976  0.18945976  0.84583506  1
  Pr  Pr2  1  0.18767393  0.68965976  0.09431232  1
  Pr  Pr3  1  0.18521225  0.70109625  0.59207781  1
  Pr  Pr4  1  0.68965976  0.18767393  0.09431232  1
  Pr  Pr5  1  0.70109625  0.18521225  0.59207781  1
  Pr  Pr6  1  0.81054024  0.81054024  0.15416494  1
  Pr  Pr7  1  0.81522794  0.81522794  0.64978001  1
  Pr  Pr8  1  0.81478775  0.29890375  0.40792219  1
  Pr  Pr9  1  0.81232607  0.31034024  0.90568768  1
  Pr  Pr10  1  0.29890375  0.81478775  0.40792219  1
  Pr  Pr11  1  0.31034024  0.81232607  0.90568768  1
  Pr  Pr12  1  0.64127316  0.64127316  0.32059319  1
  Pr  Pr13  1  0.64238193  0.64238193  0.82129959  1
  Pr  Pr14  1  0.35761807  0.35761807  0.17870041  1
  Pr  Pr15  1  0.35872684  0.35872684  0.67940681  1
  Re  Re16  1  0.06632793  0.59222561  0.29750975  1
  Re  Re17  1  0.06597012  0.59731277  0.79769051  1
  Re  Re18  1  0.59605544  0.59605544  0.03254415  1
  Re  Re19  1  0.59437387  0.59437387  0.53309195  1
  Re  Re20  1  0.59222561  0.06632793  0.29750975  1
  Re  Re21  1  0.59731277  0.06597012  0.79769051  1
  Re  Re22  1  0.93402988  0.40268723  0.20230949  1
  Re  Re23  1  0.93367207  0.40777439  0.70249025  1
  Re  Re24  1  0.40562613  0.40562613  0.46690805  1
  Re  Re25  1  0.40394456  0.40394456  0.96745585  1
  Re  Re26  1  0.40268723  0.93402988  0.20230949  1
  Re  Re27  1  0.40777439  0.93367207  0.70249025  1
  Re  Re28  1  0.91237038  0.91237038  0.33165329  1
  Re  Re29  1  0.92203748  0.92203748  0.83454866  1
  Re  Re30  1  0.91293269  0.66296018  0.45609495  1
  Re  Re31  1  0.92075781  0.67120035  0.96036014  1
  Re  Re32  1  0.66296018  0.91293269  0.45609495  1
  Re  Re33  1  0.67120035  0.92075781  0.96036014  1
  Re  Re34  1  0.07796252  0.07796252  0.16545134  1
  Re  Re35  1  0.08762962  0.08762962  0.66834671  1
  Re  Re36  1  0.07924219  0.32879965  0.03963986  1
  Re  Re37  1  0.08706731  0.33703982  0.54390505  1
  Re  Re38  1  0.32879965  0.07924219  0.03963986  1
  Re  Re39  1  0.33703982  0.08706731  0.54390505  1
  Re  Re40  1  0.00000000  0.00000000  0.00000000  1
  B  B41  1  0.84709142  0.15027717  0.25052169  1
  B  B42  1  0.84972283  0.15290858  0.74947831  1
  B  B43  1  0.15207492  0.49953401  0.42454203  1
  B  B44  1  0.15068232  0.49968913  0.92406537  1
  B  B45  1  0.50031087  0.84931768  0.07593463  1
  B  B46  1  0.50046599  0.84792508  0.57545797  1
  B  B47  1  0.84931768  0.50031087  0.07593463  1
  B  B48  1  0.84792508  0.50046599  0.57545797  1
  B  B49  1  0.49953401  0.15207492  0.42454203  1
  B  B50  1  0.49968913  0.15068232  0.92406537  1
  B  B51  1  0.15027717  0.84709142  0.25052169  1
  B  B52  1  0.15290858  0.84972283  0.74947831  1
  B  B53  1  0.50107686  0.67385910  0.16338157  1
  B  B54  1  0.49913125  0.67292198  0.66322912  1
  B  B55  1  0.67388758  0.32644042  0.25126588  1
  B  B56  1  0.67355958  0.32611242  0.74873412  1
  B  B57  1  0.32707802  0.50086875  0.33677088  1
  B  B58  1  0.32614090  0.49892314  0.83661843  1
  B  B59  1  0.50086875  0.32707802  0.33677088  1
  B  B60  1  0.49892314  0.32614090  0.83661843  1
  B  B61  1  0.32644042  0.67388758  0.25126588  1
  B  B62  1  0.32611242  0.67355958  0.74873412  1
  B  B63  1  0.67385910  0.50107686  0.16338157  1
  B  B64  1  0.67292198  0.49913125  0.66322912  1
