# generated using pymatgen
data_Nd4(WO5)3
_symmetry_space_group_name_H-M   'P 1'
_cell_length_a   10.13031849
_cell_length_b   10.13031849
_cell_length_c   12.38861201
_cell_angle_alpha   89.76841638
_cell_angle_beta   90.23158362
_cell_angle_gamma   89.93686179
_symmetry_Int_Tables_number   1
_chemical_formula_structural   Nd4(WO5)3
_chemical_formula_sum   'Nd16 W12 O60'
_cell_volume   1271.33933398
_cell_formula_units_Z   4
loop_
 _symmetry_equiv_pos_site_id
 _symmetry_equiv_pos_as_xyz
  1  'x, y, z'
loop_
 _atom_site_type_symbol
 _atom_site_label
 _atom_site_symmetry_multiplicity
 _atom_site_fract_x
 _atom_site_fract_y
 _atom_site_fract_z
 _atom_site_occupancy
  Nd  Nd0  1  0.50100619  0.50100619  0.50000000  1
  Nd  Nd1  1  0.99851445  0.99851445  0.00000000  1
  Nd  Nd2  1  0.23427553  0.23427553  0.50000000  1
  Nd  Nd3  1  0.76518506  0.76518506  0.50000000  1
  Nd  Nd4  1  0.72837497  0.72837497  0.00000000  1
  Nd  Nd5  1  0.26845067  0.26845067  -0.00000000  1
  Nd  Nd6  1  0.75014188  0.22163612  0.49861183  1
  Nd  Nd7  1  0.22163612  0.75014188  0.50138817  1
  Nd  Nd8  1  0.26991994  0.72957999  0.00262578  1
  Nd  Nd9  1  0.72957999  0.26991994  0.99737422  1
  Nd  Nd10  1  0.76215193  0.49948693  0.73839691  1
  Nd  Nd11  1  0.73307978  0.99583390  0.76374279  1
  Nd  Nd12  1  0.26819092  0.99764333  0.76827856  1
  Nd  Nd13  1  0.49948693  0.76215193  0.26160309  1
  Nd  Nd14  1  0.99583390  0.73307978  0.23625721  1
  Nd  Nd15  1  0.99764333  0.26819092  0.23172144  1
  W  W16  1  0.49531584  0.30671323  0.73005131  1
  W  W17  1  0.49467037  0.68932490  0.73137359  1
  W  W18  1  0.99969986  0.80320745  0.77244596  1
  W  W19  1  0.99865145  0.19542711  0.76974023  1
  W  W20  1  0.68932490  0.49467037  0.26862641  1
  W  W21  1  0.30671323  0.49531584  0.26994869  1
  W  W22  1  0.19542711  0.99865145  0.23025977  1
  W  W23  1  0.80320745  0.99969986  0.22755404  1
  W  W24  1  0.50209007  0.99763414  0.54963066  1
  W  W25  1  0.00003240  0.49940164  0.95492601  1
  W  W26  1  0.99763414  0.50209007  0.45036934  1
  W  W27  1  0.49940164  0.00003240  0.04507399  1
  O  O28  1  0.49723819  0.49958602  0.76597626  1
  O  O29  1  0.99421472  0.99949623  0.74447853  1
  O  O30  1  0.49958602  0.49723819  0.23402374  1
  O  O31  1  0.99949623  0.99421472  0.25552147  1
  O  O32  1  0.15077917  0.50910272  0.52722312  1
  O  O33  1  0.86984930  0.50766090  0.55535763  1
  O  O34  1  0.63804973  0.99101366  0.94807350  1
  O  O35  1  0.35558008  0.99282019  0.95258714  1
  O  O36  1  0.50910272  0.15077917  0.47277688  1
  O  O37  1  0.50766090  0.86984930  0.44464237  1
  O  O38  1  0.99101366  0.63804973  0.05192650  1
  O  O39  1  0.99282019  0.35558008  0.04741286  1
  O  O40  1  0.18715404  0.50080142  0.94959301  1
  O  O41  1  0.80277074  0.49978774  0.94013854  1
  O  O42  1  0.69844870  0.99437056  0.56464128  1
  O  O43  1  0.31217394  0.99775457  0.56808340  1
  O  O44  1  0.50080142  0.18715404  0.05040699  1
  O  O45  1  0.49978774  0.80277074  0.05986146  1
  O  O46  1  0.99437056  0.69844870  0.43535872  1
  O  O47  1  0.99775457  0.31217394  0.43191660  1
  O  O48  1  0.11967690  0.51432922  0.30727157  1
  O  O49  1  0.87780996  0.51332214  0.31138050  1
  O  O50  1  0.62516306  0.98721327  0.18008711  1
  O  O51  1  0.37248490  0.98655738  0.18071768  1
  O  O52  1  0.51432922  0.11967690  0.69272843  1
  O  O53  1  0.51332214  0.87780996  0.68861950  1
  O  O54  1  0.98721327  0.62516306  0.81991289  1
  O  O55  1  0.98655738  0.37248490  0.81928232  1
  O  O56  1  0.37882220  0.34311394  0.61412862  1
  O  O57  1  0.63539288  0.64043739  0.61886060  1
  O  O58  1  0.86667490  0.85630598  0.88380799  1
  O  O59  1  0.13064227  0.14370689  0.88326481  1
  O  O60  1  0.63533746  0.36021906  0.61868959  1
  O  O61  1  0.37961722  0.65834588  0.61354872  1
  O  O62  1  0.13018601  0.85456265  0.88503727  1
  O  O63  1  0.86488649  0.14108929  0.88183113  1
  O  O64  1  0.65834588  0.37961722  0.38645128  1
  O  O65  1  0.36021906  0.63533746  0.38131041  1
  O  O66  1  0.14108929  0.86488649  0.11816887  1
  O  O67  1  0.85456265  0.13018601  0.11496273  1
  O  O68  1  0.34311394  0.37882220  0.38587138  1
  O  O69  1  0.64043739  0.63539288  0.38113940  1
  O  O70  1  0.85630598  0.86667490  0.11619201  1
  O  O71  1  0.14370689  0.13064227  0.11673519  1
  O  O72  1  0.26018434  0.37265212  0.16624618  1
  O  O73  1  0.69920586  0.64962759  0.17649040  1
  O  O74  1  0.79621368  0.86014195  0.32750431  1
  O  O75  1  0.19474950  0.14122489  0.32711086  1
  O  O76  1  0.73867636  0.37310910  0.16538073  1
  O  O77  1  0.30133974  0.65020611  0.17728930  1
  O  O78  1  0.20367761  0.86073466  0.33179630  1
  O  O79  1  0.80498852  0.14217800  0.32413056  1
  O  O80  1  0.65020611  0.30133974  0.82271070  1
  O  O81  1  0.37310910  0.73867636  0.83461927  1
  O  O82  1  0.14217800  0.80498852  0.67586944  1
  O  O83  1  0.86073466  0.20367761  0.66820370  1
  O  O84  1  0.37265212  0.26018434  0.83375382  1
  O  O85  1  0.64962759  0.69920586  0.82350960  1
  O  O86  1  0.86014195  0.79621368  0.67249569  1
  O  O87  1  0.14122489  0.19474950  0.67288914  1
