# generated using pymatgen
data_Mo2As3P
_symmetry_space_group_name_H-M   'P 1'
_cell_length_a   3.28150174
_cell_length_b   4.79098631
_cell_length_c   6.95890788
_cell_angle_alpha   89.68335448
_cell_angle_beta   76.36256754
_cell_angle_gamma   110.02719964
_symmetry_Int_Tables_number   1
_chemical_formula_structural   Mo2As3P
_chemical_formula_sum   'Mo2 As3 P1'
_cell_volume   99.44479477
_cell_formula_units_Z   1
loop_
 _symmetry_equiv_pos_site_id
 _symmetry_equiv_pos_as_xyz
  1  'x, y, z'
loop_
 _atom_site_type_symbol
 _atom_site_label
 _atom_site_symmetry_multiplicity
 _atom_site_fract_x
 _atom_site_fract_y
 _atom_site_fract_z
 _atom_site_occupancy
  Mo  Mo0  1  0.05333286  0.89966557  0.79299986  1
  Mo  Mo1  1  0.95208915  0.11519991  0.21102162  1
  As  As2  1  0.70935483  0.30899854  0.89028888  1
  As  As3  1  0.29804620  0.70479051  0.10869810  1
  As  As4  1  0.60857703  0.74282651  0.52567246  1
  P  P5  1  0.37859994  0.22851896  0.47131909  1
