# generated using pymatgen
data_LiBH6N
_symmetry_space_group_name_H-M   'P 1'
_cell_length_a   6.76998064
_cell_length_b   7.60497422
_cell_length_c   12.07845056
_cell_angle_alpha   90.00000000
_cell_angle_beta   90.00000000
_cell_angle_gamma   90.00000000
_symmetry_Int_Tables_number   1
_chemical_formula_structural   LiBH6N
_chemical_formula_sum   'Li8 B8 H48 N8'
_cell_volume   621.86540737
_cell_formula_units_Z   8
loop_
 _symmetry_equiv_pos_site_id
 _symmetry_equiv_pos_as_xyz
  1  'x, y, z'
loop_
 _atom_site_type_symbol
 _atom_site_label
 _atom_site_symmetry_multiplicity
 _atom_site_fract_x
 _atom_site_fract_y
 _atom_site_fract_z
 _atom_site_occupancy
  Li  Li0  1  0.73856581  0.56032295  0.73878026  1
  Li  Li1  1  0.23856581  0.93967705  0.26121974  1
  Li  Li2  1  0.26143419  0.06032295  0.76121974  1
  Li  Li3  1  0.76143419  0.43967705  0.23878026  1
  Li  Li4  1  0.25330007  0.54846472  0.74918258  1
  Li  Li5  1  0.75330007  0.95153528  0.25081742  1
  Li  Li6  1  0.74669993  0.04846472  0.75081742  1
  Li  Li7  1  0.24669993  0.45153528  0.24918258  1
  B  B8  1  0.98711367  0.68909255  0.27229912  1
  B  B9  1  0.48711367  0.81090745  0.72770088  1
  B  B10  1  0.01288633  0.18909255  0.22770088  1
  B  B11  1  0.51288633  0.31090745  0.77229912  1
  B  B12  1  0.98765285  0.53047493  0.88946505  1
  B  B13  1  0.48765285  0.96952507  0.11053495  1
  B  B14  1  0.01234715  0.03047493  0.61053495  1
  B  B15  1  0.51234715  0.46952507  0.38946505  1
  H  H16  1  0.84358960  0.69456499  0.21046052  1
  H  H17  1  0.34358960  0.80543501  0.78953948  1
  H  H18  1  0.15641040  0.19456499  0.28953948  1
  H  H19  1  0.65641040  0.30543501  0.71046052  1
  H  H20  1  0.13556537  0.69323074  0.21404597  1
  H  H21  1  0.63556537  0.80676926  0.78595403  1
  H  H22  1  0.86443463  0.19323074  0.28595403  1
  H  H23  1  0.36443463  0.30676926  0.71404597  1
  H  H24  1  0.98357597  0.81289883  0.33692840  1
  H  H25  1  0.48357597  0.68710117  0.66307160  1
  H  H26  1  0.01642403  0.31289883  0.16307160  1
  H  H27  1  0.51642403  0.18710117  0.83692840  1
  H  H28  1  0.98323777  0.55380374  0.32812018  1
  H  H29  1  0.48323777  0.94619626  0.67187982  1
  H  H30  1  0.01676223  0.05380374  0.17187982  1
  H  H31  1  0.51676223  0.44619626  0.82812018  1
  H  H32  1  0.84358283  0.62855613  0.88448131  1
  H  H33  1  0.34358283  0.87144387  0.11551869  1
  H  H34  1  0.15641717  0.12855613  0.61551869  1
  H  H35  1  0.65641717  0.37144387  0.38448131  1
  H  H36  1  0.13721500  0.62112816  0.90036958  1
  H  H37  1  0.63721500  0.87887184  0.09963042  1
  H  H38  1  0.86278500  0.12112816  0.59963042  1
  H  H39  1  0.36278500  0.37887184  0.40036958  1
  H  H40  1  0.97243958  0.43333962  0.96940320  1
  H  H41  1  0.47243958  0.06666038  0.03059680  1
  H  H42  1  0.02756042  0.93333962  0.53059680  1
  H  H43  1  0.52756042  0.56666038  0.46940320  1
  H  H44  1  0.00060977  0.44081992  0.80478092  1
  H  H45  1  0.50060977  0.05918008  0.19521908  1
  H  H46  1  0.99939023  0.94081992  0.69521908  1
  H  H47  1  0.49939023  0.55918008  0.30478092  1
  H  H48  1  0.90962852  0.37704994  0.60183010  1
  H  H49  1  0.40962852  0.12295006  0.39816990  1
  H  H50  1  0.09037148  0.87704994  0.89816990  1
  H  H51  1  0.59037148  0.62295006  0.10183010  1
  H  H52  1  0.84115284  0.53184559  0.51674749  1
  H  H53  1  0.34115284  0.96815441  0.48325251  1
  H  H54  1  0.15884716  0.03184559  0.98325251  1
  H  H55  1  0.65884716  0.46815441  0.01674749  1
  H  H56  1  0.10026840  0.70616143  0.58638973  1
  H  H57  1  0.60026840  0.79383857  0.41361027  1
  H  H58  1  0.89973160  0.20616143  0.91361027  1
  H  H59  1  0.39973160  0.29383857  0.08638973  1
  H  H60  1  0.18543012  0.52419548  0.53020346  1
  H  H61  1  0.68543012  0.97580452  0.46979654  1
  H  H62  1  0.81456988  0.02419548  0.96979654  1
  H  H63  1  0.31456988  0.47580452  0.03020346  1
  N  N64  1  0.90367115  0.51092550  0.59349999  1
  N  N65  1  0.40367115  0.98907450  0.40650001  1
  N  N66  1  0.09632885  0.01092550  0.90650001  1
  N  N67  1  0.59632885  0.48907450  0.09349999  1
  N  N68  1  0.10677608  0.57239371  0.59651322  1
  N  N69  1  0.60677608  0.92760629  0.40348678  1
  N  N70  1  0.89322392  0.07239371  0.90348678  1
  N  N71  1  0.39322392  0.42760629  0.09651322  1
