# generated using pymatgen
data_Nd3Sm(GaO3)4
_symmetry_space_group_name_H-M   'P 1'
_cell_length_a   5.46171366
_cell_length_b   5.61136233
_cell_length_c   7.79251639
_cell_angle_alpha   90.00000000
_cell_angle_beta   90.00000000
_cell_angle_gamma   89.92557859
_symmetry_Int_Tables_number   1
_chemical_formula_structural   Nd3Sm(GaO3)4
_chemical_formula_sum   'Nd3 Sm1 Ga4 O12'
_cell_volume   238.82214711
_cell_formula_units_Z   1
loop_
 _symmetry_equiv_pos_site_id
 _symmetry_equiv_pos_as_xyz
  1  'x, y, z'
loop_
 _atom_site_type_symbol
 _atom_site_label
 _atom_site_symmetry_multiplicity
 _atom_site_fract_x
 _atom_site_fract_y
 _atom_site_fract_z
 _atom_site_occupancy
  Nd  Nd0  1  0.98670373  0.05227239  0.25000000  1
  Nd  Nd1  1  0.48679876  0.44864735  0.75000000  1
  Nd  Nd2  1  0.01383208  0.94705938  0.75000000  1
  Sm  Sm3  1  0.51452586  0.55574106  0.25000000  1
  Ga  Ga4  1  0.00030339  0.49992257  0.00098268  1
  Ga  Ga5  1  0.49973414  0.00084836  0.49928759  1
  Ga  Ga6  1  0.00030339  0.49992257  0.49901732  1
  Ga  Ga7  1  0.49973414  0.00084836  0.00071241  1
  O  O8  1  0.41226746  0.97238524  0.25000000  1
  O  O9  1  0.09455114  0.47666288  0.25000000  1
  O  O10  1  0.58762102  0.02348152  0.75000000  1
  O  O11  1  0.91300569  0.52184338  0.75000000  1
  O  O12  1  0.79099894  0.79179840  0.04799023  1
  O  O13  1  0.70553581  0.29547639  0.45023780  1
  O  O14  1  0.20655599  0.20598718  0.54626840  1
  O  O15  1  0.29221886  0.70692049  0.95386617  1
  O  O16  1  0.20655599  0.20598718  0.95373160  1
  O  O17  1  0.29221886  0.70692049  0.54613383  1
  O  O18  1  0.79099894  0.79179840  0.45200977  1
  O  O19  1  0.70553581  0.29547639  0.04976220  1
