# generated using pymatgen
data_Na2MnVF7
_symmetry_space_group_name_H-M   'P 1'
_cell_length_a   7.60578859
_cell_length_b   7.60578867
_cell_length_c   18.48803989
_cell_angle_alpha   90.00000000
_cell_angle_beta   90.00000000
_cell_angle_gamma   59.99999967
_symmetry_Int_Tables_number   1
_chemical_formula_structural   Na2MnVF7
_chemical_formula_sum   'Na12 Mn6 V6 F42'
_cell_volume   926.21114687
_cell_formula_units_Z   6
loop_
 _symmetry_equiv_pos_site_id
 _symmetry_equiv_pos_as_xyz
  1  'x, y, z'
loop_
 _atom_site_type_symbol
 _atom_site_label
 _atom_site_symmetry_multiplicity
 _atom_site_fract_x
 _atom_site_fract_y
 _atom_site_fract_z
 _atom_site_occupancy
  Na  Na0  1  0.49514649  0.87547735  0.33502852  1
  Na  Na1  1  0.87547735  0.62937616  0.66836252  1
  Na  Na2  1  0.62937616  0.49514649  0.00169552  1
  Na  Na3  1  0.37323885  0.12396134  0.66664609  1
  Na  Na4  1  0.50279981  0.37323885  0.33331209  1
  Na  Na5  1  0.12396134  0.50279981  0.99997909  1
  Na  Na6  1  0.85422890  0.14366822  0.66863049  1
  Na  Na7  1  0.14366822  0.00210288  0.00196449  1
  Na  Na8  1  0.00210288  0.85422890  0.33529749  1
  Na  Na9  1  0.13483526  0.04464612  0.50341136  1
  Na  Na10  1  0.04464612  0.82051862  0.83674536  1
  Na  Na11  1  0.82051862  0.13483526  0.17007836  1
  Mn  Mn12  1  0.65630771  0.50586177  0.50365343  1
  Mn  Mn13  1  0.50586177  0.83783052  0.83698743  1
  Mn  Mn14  1  0.83783052  0.65630771  0.17032043  1
  Mn  Mn15  1  0.16199909  0.49968670  0.49643072  1
  Mn  Mn16  1  0.33831421  0.16199909  0.16309672  1
  Mn  Mn17  1  0.49968670  0.33831421  0.82976372  1
  V  V18  1  0.66205226  0.00078499  0.49994414  1
  V  V19  1  0.00078499  0.33716274  0.83327814  1
  V  V20  1  0.33716274  0.66205226  0.16661114  1
  V  V21  1  0.00000830  0.31432367  0.33312392  1
  V  V22  1  0.31432367  0.68566804  0.66645792  1
  V  V23  1  0.68566804  0.00000830  0.99979092  1
  F  F24  1  0.14205136  0.05299093  0.38587576  1
  F  F25  1  0.05299093  0.80495771  0.71920976  1
  F  F26  1  0.80495771  0.14205136  0.05254276  1
  F  F27  1  0.19407099  0.94751153  0.61531995  1
  F  F28  1  0.85841748  0.19407099  0.28198595  1
  F  F29  1  0.94751153  0.85841748  0.94865295  1
  F  F30  1  0.76036354  0.43284534  0.39568123  1
  F  F31  1  0.43284534  0.80679112  0.72901523  1
  F  F32  1  0.80679112  0.76036354  0.06234823  1
  F  F33  1  0.19072967  0.56653396  0.60499643  1
  F  F34  1  0.24273637  0.19072967  0.27166243  1
  F  F35  1  0.56653396  0.24273637  0.93832943  1
  F  F36  1  0.38277529  0.56153450  0.45717240  1
  F  F37  1  0.56153450  0.05569021  0.79050640  1
  F  F38  1  0.05569021  0.38277529  0.12383940  1
  F  F39  1  0.95026387  0.42605701  0.54017147  1
  F  F40  1  0.62367913  0.95026387  0.20683747  1
  F  F41  1  0.42605701  0.62367913  0.87350447  1
  F  F42  1  0.85882810  0.57937903  0.28116378  1
  F  F43  1  0.57937903  0.56179288  0.61449778  1
  F  F44  1  0.56179288  0.85882810  0.94783078  1
  F  F45  1  0.43765059  0.42272616  0.71878196  1
  F  F46  1  0.13962325  0.43765059  0.38544796  1
  F  F47  1  0.42272616  0.13962325  0.05211496  1
  F  F48  1  0.56659556  0.80977957  0.47503910  1
  F  F49  1  0.80977957  0.62362487  0.80837310  1
  F  F50  1  0.62362487  0.56659556  0.14170610  1
  F  F51  1  0.37266016  0.19047514  0.52487604  1
  F  F52  1  0.43686469  0.37266016  0.19154204  1
  F  F53  1  0.19047514  0.43686469  0.85820904  1
  F  F54  1  0.76100299  0.19023265  0.52668409  1
  F  F55  1  0.19023265  0.04876436  0.86001809  1
  F  F56  1  0.04876436  0.76100299  0.19335109  1
  F  F57  1  0.94925047  0.80991912  0.47301004  1
  F  F58  1  0.24083040  0.94925047  0.13967604  1
  F  F59  1  0.80991912  0.24083040  0.80634304  1
  F  F60  1  0.62694359  0.06851852  0.39507086  1
  F  F61  1  0.06851852  0.30453789  0.72840486  1
  F  F62  1  0.30453789  0.62694359  0.06173786  1
  F  F63  1  0.69482384  0.93241205  0.60482024  1
  F  F64  1  0.37276411  0.69482384  0.27148624  1
  F  F65  1  0.93241205  0.37276411  0.93815324  1
