# generated using pymatgen
data_NaLiGa2(SiO3)4
_symmetry_space_group_name_H-M   'P 1'
_cell_length_a   5.34193753
_cell_length_b   6.52931415
_cell_length_c   6.52931415
_cell_angle_alpha   84.02093413
_cell_angle_beta   75.82608743
_cell_angle_gamma   75.82608743
_symmetry_Int_Tables_number   1
_chemical_formula_structural   NaLiGa2(SiO3)4
_chemical_formula_sum   'Na1 Li1 Ga2 Si4 O12'
_cell_volume   213.84536685
_cell_formula_units_Z   1
loop_
 _symmetry_equiv_pos_site_id
 _symmetry_equiv_pos_as_xyz
  1  'x, y, z'
loop_
 _atom_site_type_symbol
 _atom_site_label
 _atom_site_symmetry_multiplicity
 _atom_site_fract_x
 _atom_site_fract_y
 _atom_site_fract_z
 _atom_site_occupancy
  Na  Na0  1  0.25000000  0.29401360  0.70598640  1
  Li  Li1  1  0.75000000  0.72270959  0.27729041  1
  Ga  Ga2  1  0.75000000  0.09803421  0.90196579  1
  Ga  Ga3  1  0.25000000  0.89885075  0.10114925  1
  Si  Si4  1  0.74521055  0.61651559  0.79795050  1
  Si  Si5  1  0.75478945  0.20204950  0.38348441  1
  Si  Si6  1  0.25239131  0.38472692  0.20346771  1
  Si  Si7  1  0.24760869  0.79653229  0.61527308  1
  O  O8  1  0.63987499  0.80292433  0.97273943  1
  O  O9  1  0.86012501  0.02726057  0.19707567  1
  O  O10  1  0.36154646  0.19192892  0.03625951  1
  O  O11  1  0.13845354  0.96374049  0.80807108  1
  O  O12  1  0.53265144  0.64263819  0.64717895  1
  O  O13  1  0.96734856  0.35282105  0.35736181  1
  O  O14  1  0.47139998  0.35848799  0.34911932  1
  O  O15  1  0.02860002  0.65088068  0.64151201  1
  O  O16  1  0.80454016  0.37973417  0.90040859  1
  O  O17  1  0.69545984  0.09959141  0.62026583  1
  O  O18  1  0.17693380  0.62331140  0.10675163  1
  O  O19  1  0.32306620  0.89324837  0.37668860  1
