# generated using pymatgen
data_Ca4Si3O11
_symmetry_space_group_name_H-M   'P 1'
_cell_length_a   6.96168224
_cell_length_b   7.48868162
_cell_length_c   10.58227543
_cell_angle_alpha   89.50770169
_cell_angle_beta   107.75860313
_cell_angle_gamma   89.86548658
_symmetry_Int_Tables_number   1
_chemical_formula_structural   Ca4Si3O11
_chemical_formula_sum   'Ca8 Si6 O22'
_cell_volume   525.37968300
_cell_formula_units_Z   2
loop_
 _symmetry_equiv_pos_site_id
 _symmetry_equiv_pos_as_xyz
  1  'x, y, z'
loop_
 _atom_site_type_symbol
 _atom_site_label
 _atom_site_symmetry_multiplicity
 _atom_site_fract_x
 _atom_site_fract_y
 _atom_site_fract_z
 _atom_site_occupancy
  Ca  Ca0  1  0.65139650  0.63212813  0.42180680  1
  Ca  Ca1  1  0.34860350  0.36787187  0.57819320  1
  Ca  Ca2  1  0.63707882  0.11803429  0.40572009  1
  Ca  Ca3  1  0.36292118  0.88196571  0.59427991  1
  Ca  Ca4  1  0.74370772  0.87283079  0.12981191  1
  Ca  Ca5  1  0.25629228  0.12716921  0.87018809  1
  Ca  Ca6  1  0.74645239  0.37615178  0.13451315  1
  Ca  Ca7  1  0.25354761  0.62384822  0.86548685  1
  Si  Si8  1  0.10536829  0.12082077  0.28957573  1
  Si  Si9  1  0.89463171  0.87917923  0.71042427  1
  Si  Si10  1  0.29682057  0.83373473  0.15639542  1
  Si  Si11  1  0.70317943  0.16626527  0.84360458  1
  Si  Si12  1  0.30092692  0.41522033  0.16066379  1
  Si  Si13  1  0.69907308  0.58477967  0.83933621  1
  O  O14  1  0.28580993  0.11694979  0.42927463  1
  O  O15  1  0.71419007  0.88305021  0.57072537  1
  O  O16  1  0.33907305  0.63314528  0.46509858  1
  O  O17  1  0.66092695  0.36685472  0.53490142  1
  O  O18  1  0.87585301  0.12435383  0.29469502  1
  O  O19  1  0.12414699  0.87564617  0.70530498  1
  O  O20  1  0.84068969  0.62379664  0.27710454  1
  O  O21  1  0.15931031  0.37620336  0.72289546  1
  O  O22  1  0.51649179  0.87132023  0.26433163  1
  O  O23  1  0.48350821  0.12867977  0.73566837  1
  O  O24  1  0.52109720  0.37784229  0.26951116  1
  O  O25  1  0.47890280  0.62215771  0.73048884  1
  O  O26  1  0.30668026  0.87667136  0.00862405  1
  O  O27  1  0.69331974  0.12332864  0.99137595  1
  O  O28  1  0.31762833  0.37115560  0.01489195  1
  O  O29  1  0.68237167  0.62884440  0.98510805  1
  O  O30  1  0.11541420  0.94565693  0.19490642  1
  O  O31  1  0.88458580  0.05434307  0.80509358  1
  O  O32  1  0.12044681  0.30188335  0.19867778  1
  O  O33  1  0.87955319  0.69811665  0.80132222  1
  O  O34  1  0.22729812  0.62397220  0.16311770  1
  O  O35  1  0.77270188  0.37602780  0.83688230  1
