# generated using pymatgen
data_Na2Ca2Zr2MnFeSi4O17F
_symmetry_space_group_name_H-M   'P 1'
_cell_length_a   7.25282571
_cell_length_b   10.00445036
_cell_length_c   10.99071378
_cell_angle_alpha   90.39964283
_cell_angle_beta   108.33817140
_cell_angle_gamma   90.09840662
_symmetry_Int_Tables_number   1
_chemical_formula_structural   Na2Ca2Zr2MnFeSi4O17F
_chemical_formula_sum   'Na4 Ca4 Zr4 Mn2 Fe2 Si8 O34 F2'
_cell_volume   756.96745196
_cell_formula_units_Z   2
loop_
 _symmetry_equiv_pos_site_id
 _symmetry_equiv_pos_as_xyz
  1  'x, y, z'
loop_
 _atom_site_type_symbol
 _atom_site_label
 _atom_site_symmetry_multiplicity
 _atom_site_fract_x
 _atom_site_fract_y
 _atom_site_fract_z
 _atom_site_occupancy
  Na  Na0  1  0.66210642  0.88420869  0.07006756  1
  Na  Na1  1  0.34242712  0.38534902  0.42724071  1
  Na  Na2  1  0.34396840  0.11400463  0.92869419  1
  Na  Na3  1  0.65661352  0.61721229  0.56797776  1
  Ca  Ca4  1  0.48069423  0.60633186  0.20383178  1
  Ca  Ca5  1  0.52555722  0.10778398  0.30398208  1
  Ca  Ca6  1  0.52711460  0.39126568  0.80483967  1
  Ca  Ca7  1  0.48298609  0.89641594  0.70411139  1
  Zr  Zr8  1  0.97663188  0.60045208  0.20934078  1
  Zr  Zr9  1  0.02315138  0.10380737  0.29242480  1
  Zr  Zr10  1  0.02177991  0.39477110  0.79094462  1
  Zr  Zr11  1  0.97664613  0.90004953  0.71188417  1
  Mn  Mn12  1  0.84620857  0.11652522  0.93988689  1
  Mn  Mn13  1  0.13705313  0.62417524  0.55837128  1
  Fe  Fe14  1  0.13488473  0.87442179  0.05800306  1
  Fe  Fe15  1  0.83913318  0.39049670  0.43838302  1
  Si  Si16  1  0.78262457  0.83115702  0.37993358  1
  Si  Si17  1  0.21456035  0.32614848  0.11905836  1
  Si  Si18  1  0.21633856  0.17201410  0.61928192  1
  Si  Si19  1  0.78266786  0.66986683  0.87960703  1
  Si  Si20  1  0.33245724  0.83071876  0.38394344  1
  Si  Si21  1  0.66750294  0.33004689  0.11690577  1
  Si  Si22  1  0.66853914  0.16990318  0.61597433  1
  Si  Si23  1  0.33233941  0.67133446  0.88545781  1
  O  O24  1  0.78789736  0.73676280  0.25882356  1
  O  O25  1  0.22255466  0.23541246  0.24458411  1
  O  O26  1  0.22273942  0.26484260  0.74496714  1
  O  O27  1  0.78541048  0.76238500  0.75722380  1
  O  O28  1  0.03195342  0.51030199  0.37939415  1
  O  O29  1  0.96010729  0.01880219  0.12145881  1
  O  O30  1  0.95312173  0.47137580  0.61549784  1
  O  O31  1  0.03114092  0.98824067  0.88332907  1
  O  O32  1  0.82564938  0.98570748  0.34962778  1
  O  O33  1  0.17287751  0.48100348  0.14933416  1
  O  O34  1  0.17582957  0.01808960  0.65419615  1
  O  O35  1  0.82615075  0.51532517  0.84769855  1
  O  O36  1  0.54999379  0.82825751  0.36633937  1
  O  O37  1  0.44054674  0.32118973  0.11672874  1
  O  O38  1  0.44419006  0.17676806  0.62082992  1
  O  O39  1  0.55052196  0.67190746  0.86856413  1
  O  O40  1  0.34138465  0.74164621  0.01955252  1
  O  O41  1  0.67346081  0.23890883  0.48478791  1
  O  O42  1  0.67156052  0.25870921  0.98475189  1
  O  O43  1  0.34387654  0.76120064  0.51824669  1
  O  O44  1  0.27454360  0.98999529  0.37608127  1
  O  O45  1  0.72170904  0.48904040  0.12003674  1
  O  O46  1  0.72478613  0.01082668  0.62238783  1
  O  O47  1  0.27117161  0.51228043  0.87349562  1
  O  O48  1  0.20315771  0.74816149  0.25547504  1
  O  O49  1  0.79206880  0.25310314  0.24902880  1
  O  O50  1  0.79173472  0.25105826  0.74651536  1
  O  O51  1  0.20448284  0.75389095  0.75752402  1
  O  O52  1  0.90987237  0.72103125  0.02126016  1
  O  O53  1  0.08252085  0.22641436  0.48071679  1
  O  O54  1  0.07575947  0.26806628  0.98069709  1
  O  O55  1  0.90880584  0.77966973  0.52177994  1
  O  O56  1  0.61720838  0.49277418  0.38086831  1
  O  O57  1  0.62989063  0.00909115  0.88384412  1
  F  F58  1  0.40327332  0.00277966  0.11608682  1
  F  F59  1  0.40406056  0.49651898  0.61811979  1
