# generated using pymatgen
data_LiTiAlO4
_symmetry_space_group_name_H-M   'P 1'
_cell_length_a   5.85113007
_cell_length_b   5.85113007
_cell_length_c   5.85113007
_cell_angle_alpha   90.03092867
_cell_angle_beta   59.06323194
_cell_angle_gamma   119.10738639
_symmetry_Int_Tables_number   1
_chemical_formula_structural   LiTiAlO4
_chemical_formula_sum   'Li2 Ti2 Al2 O8'
_cell_volume   141.55354979
_cell_formula_units_Z   2
loop_
 _symmetry_equiv_pos_site_id
 _symmetry_equiv_pos_as_xyz
  1  'x, y, z'
loop_
 _atom_site_type_symbol
 _atom_site_label
 _atom_site_symmetry_multiplicity
 _atom_site_fract_x
 _atom_site_fract_y
 _atom_site_fract_z
 _atom_site_occupancy
  Li  Li0  1  0.50000000  0.75356785  0.74643215  1
  Li  Li1  1  -0.00000000  0.99643215  0.00356785  1
  Ti  Ti2  1  0.25000000  0.87500000  0.37500000  1
  Ti  Ti3  1  0.75000000  0.37500000  0.37500000  1
  Al  Al4  1  0.75000000  0.37500000  0.87500000  1
  Al  Al5  1  0.25000000  0.37500000  0.37500000  1
  O  O6  1  0.27099226  0.13827465  0.59073309  1
  O  O7  1  0.72900774  0.13827465  0.13271761  1
  O  O8  1  0.71695288  0.58009389  0.13685899  1
  O  O9  1  0.28304712  0.14618812  0.13685899  1
  O  O10  1  0.22900774  0.61172535  0.15926691  1
  O  O11  1  0.77099226  0.61172535  0.61728239  1
  O  O12  1  0.78304712  0.16990611  0.61314101  1
  O  O13  1  0.21695288  0.60381188  0.61314101  1
