# generated using pymatgen
data_LiRuRhO4
_symmetry_space_group_name_H-M   'P 1'
_cell_length_a   6.05641087
_cell_length_b   6.17773986
_cell_length_c   5.96309199
_cell_angle_alpha   90.00000000
_cell_angle_beta   60.50840634
_cell_angle_gamma   120.66493382
_symmetry_Int_Tables_number   1
_chemical_formula_structural   LiRuRhO4
_chemical_formula_sum   'Li2 Ru2 Rh2 O8'
_cell_volume   157.37116790
_cell_formula_units_Z   2
loop_
 _symmetry_equiv_pos_site_id
 _symmetry_equiv_pos_as_xyz
  1  'x, y, z'
loop_
 _atom_site_type_symbol
 _atom_site_label
 _atom_site_symmetry_multiplicity
 _atom_site_fract_x
 _atom_site_fract_y
 _atom_site_fract_z
 _atom_site_occupancy
  Li  Li0  1  0.24827271  0.12413636  0.12586364  1
  Li  Li1  1  0.75172729  0.87586364  0.87413636  1
  Ru  Ru2  1  -0.00000000  0.50000000  -0.00000000  1
  Ru  Ru3  1  -0.00000000  0.50000000  0.50000000  1
  Rh  Rh4  1  0.50000000  0.00000000  0.50000000  1
  Rh  Rh5  1  0.50000000  0.50000000  0.50000000  1
  O  O6  1  0.01438232  0.27909310  0.74280884  1
  O  O7  1  0.01438232  0.73528922  0.74280884  1
  O  O8  1  0.47406670  0.73703335  0.28341202  1
  O  O9  1  0.47406670  0.73703335  0.74252129  1
  O  O10  1  0.98561768  0.72090690  0.25719116  1
  O  O11  1  0.98561768  0.26471078  0.25719116  1
  O  O12  1  0.52593330  0.26296665  0.71658798  1
  O  O13  1  0.52593330  0.26296665  0.25747871  1
