# generated using pymatgen
data_Mg9Al8Fe3(SiO4)12
_symmetry_space_group_name_H-M   'P 1'
_cell_length_a   10.03796730
_cell_length_b   10.03796730
_cell_length_c   10.04343276
_cell_angle_alpha   70.66851740
_cell_angle_beta   70.39217550
_cell_angle_gamma   109.45241636
_symmetry_Int_Tables_number   1
_chemical_formula_structural   Mg9Al8Fe3(SiO4)12
_chemical_formula_sum   'Mg9 Al8 Fe3 Si12 O48'
_cell_volume   779.23322864
_cell_formula_units_Z   1
loop_
 _symmetry_equiv_pos_site_id
 _symmetry_equiv_pos_as_xyz
  1  'x, y, z'
loop_
 _atom_site_type_symbol
 _atom_site_label
 _atom_site_symmetry_multiplicity
 _atom_site_fract_x
 _atom_site_fract_y
 _atom_site_fract_z
 _atom_site_occupancy
  Mg  Mg0  1  0.37512363  0.62512363  0.25000000  1
  Mg  Mg1  1  0.12447696  0.24916943  0.62545850  1
  Mg  Mg2  1  0.37462793  0.74993546  0.87454150  1
  Mg  Mg3  1  0.25007669  0.12518854  0.12484345  1
  Mg  Mg4  1  0.75003199  0.37492014  0.37515655  1
  Mg  Mg5  1  0.87528705  0.12528705  0.25000000  1
  Mg  Mg6  1  0.62472401  0.37472401  0.75000000  1
  Mg  Mg7  1  0.87508954  0.74991821  0.37488475  1
  Mg  Mg8  1  0.62480295  0.24997429  0.12511525  1
  Al  Al9  1  0.49978903  0.00014283  0.99986640  1
  Al  Al10  1  0.50000923  0.49965544  0.50013360  1
  Al  Al11  1  0.99979802  0.49941832  0.00079884  1
  Al  Al12  1  0.00021716  0.00059686  0.49920116  1
  Al  Al13  1  0.49937488  0.49949777  0.00037957  1
  Al  Al14  1  0.50055212  0.00067864  0.49965395  1
  Al  Al15  1  0.99987734  0.49975445  0.49962043  1
  Al  Al16  1  0.00033259  0.00020608  0.00034605  1
  Fe  Fe17  1  0.75015445  0.87506539  0.87499060  1
  Fe  Fe18  1  0.25005598  0.62514504  0.62500940  1
  Fe  Fe19  1  0.12489005  0.87489005  0.75000000  1
  Si  Si20  1  0.74948828  0.62322774  0.12681349  1
  Si  Si21  1  0.25004123  0.87630176  0.37318651  1
  Si  Si22  1  0.37612079  0.12612079  0.75000000  1
  Si  Si23  1  0.12488327  0.37488327  0.25000000  1
  Si  Si24  1  0.87445832  0.24999277  0.87560203  1
  Si  Si25  1  0.62559480  0.75006035  0.62439797  1
  Si  Si26  1  0.24993766  0.37373547  0.87632642  1
  Si  Si27  1  0.75006189  0.12626408  0.62367358  1
  Si  Si28  1  0.62569572  0.87569572  0.25000000  1
  Si  Si29  1  0.87333514  0.62333514  0.75000000  1
  Si  Si30  1  0.12503524  0.74999886  0.12554661  1
  Si  Si31  1  0.37554547  0.25058184  0.37445339  1
  O  O32  1  0.51802773  0.31443771  0.60312285  1
  O  O33  1  0.41756056  0.12115058  0.89687715  1
  O  O34  1  0.08303705  0.18639586  0.29612167  1
  O  O35  1  0.98251754  0.37915873  0.20387833  1
  O  O36  1  0.68576602  0.20304817  0.91770207  1
  O  O37  1  0.87929779  0.29670175  0.01739896  1
  O  O38  1  0.81410072  0.89669676  0.48260104  1
  O  O39  1  0.62075024  0.60346809  0.58229793  1
  O  O40  1  0.79656510  0.48196225  0.12102953  1
  O  O41  1  0.70314942  0.58177953  0.31494803  1
  O  O42  1  0.10299178  0.91759463  0.37897047  1
  O  O43  1  0.39672756  0.01809745  0.18505197  1
  O  O44  1  0.48430032  0.68621013  0.39571589  1
  O  O45  1  0.58192601  0.88001621  0.10428411  1
  O  O46  1  0.91524220  0.81232708  0.70187850  1
  O  O47  1  0.01420557  0.61712069  0.79812150  1
  O  O48  1  0.31428299  0.79715385  0.08219309  1
  O  O49  1  0.12038744  0.70174828  0.98414670  1
  O  O50  1  0.18589498  0.10453414  0.51585330  1
  O  O51  1  0.37934695  0.39647608  0.41780691  1
  O  O52  1  0.20326514  0.51564581  0.88249055  1
  O  O53  1  0.29692774  0.41496132  0.68768438  1
  O  O54  1  0.89813636  0.08575569  0.61750945  1
  O  O55  1  0.60264570  0.98461212  0.81231562  1
  O  O56  1  0.48412027  0.79817583  0.61988505  1
  O  O57  1  0.58130484  0.70171189  0.81403613  1
  O  O58  1  0.91806088  0.10400532  0.88011495  1
  O  O59  1  0.01574803  0.39534098  0.68596387  1
  O  O60  1  0.31412181  0.51704863  0.10369165  1
  O  O61  1  0.12074028  0.41781346  0.39630835  1
  O  O62  1  0.18741021  0.08510049  0.79701937  1
  O  O63  1  0.38211986  0.98442958  0.70298063  1
  O  O64  1  0.20322674  0.68768834  0.41436048  1
  O  O65  1  0.29797611  0.88280833  0.51416430  1
  O  O66  1  0.89697263  0.81214041  0.98583570  1
  O  O67  1  0.60204881  0.61758721  0.08563952  1
  O  O68  1  0.51737176  0.20368159  0.37940576  1
  O  O69  1  0.41755894  0.29665176  0.18596806  1
  O  O70  1  0.08308735  0.89677752  0.12059424  1
  O  O71  1  0.98261982  0.60352699  0.31403194  1
  O  O72  1  0.68495156  0.48206256  0.89684704  1
  O  O73  1  0.87890960  0.58179860  0.60315296  1
  O  O74  1  0.81422000  0.91760643  0.20319953  1
  O  O75  1  0.62080596  0.01741953  0.29680047  1
  O  O76  1  0.79649566  0.31456435  0.58224064  1
  O  O77  1  0.70376598  0.12119365  0.48182195  1
  O  O78  1  0.10301560  0.18558793  0.01817805  1
  O  O79  1  0.39680500  0.37873630  0.91775936  1
