# generated using pymatgen
data_Mg3ZnO4
_symmetry_space_group_name_H-M   'P 1'
_cell_length_a   3.02559494
_cell_length_b   3.02559494
_cell_length_c   10.00975451
_cell_angle_alpha   90.00000000
_cell_angle_beta   81.30744786
_cell_angle_gamma   120.00000000
_symmetry_Int_Tables_number   1
_chemical_formula_structural   Mg3ZnO4
_chemical_formula_sum   'Mg3 Zn1 O4'
_cell_volume   78.13753296
_cell_formula_units_Z   1
loop_
 _symmetry_equiv_pos_site_id
 _symmetry_equiv_pos_as_xyz
  1  'x, y, z'
loop_
 _atom_site_type_symbol
 _atom_site_label
 _atom_site_symmetry_multiplicity
 _atom_site_fract_x
 _atom_site_fract_y
 _atom_site_fract_z
 _atom_site_occupancy
  Mg  Mg0  1  0.49955502  0.24977751  0.25066746  1
  Mg  Mg1  1  0.00000000  0.50000000  0.50000000  1
  Mg  Mg2  1  0.50044498  0.75022249  0.74933254  1
  Zn  Zn3  1  0.00000000  0.00000000  -0.00000000  1
  O  O4  1  0.25014170  0.12507085  0.62478745  1
  O  O5  1  0.75303330  0.37651665  0.87045004  1
  O  O6  1  0.24696670  0.62348335  0.12954996  1
  O  O7  1  0.74985830  0.87492915  0.37521255  1
