# generated using pymatgen
data_LiMn8O16
_symmetry_space_group_name_H-M   'P 1'
_cell_length_a   5.86495109
_cell_length_b   8.26001258
_cell_length_c   5.86495109
_cell_angle_alpha   90.00000000
_cell_angle_beta   90.00000000
_cell_angle_gamma   90.00000000
_symmetry_Int_Tables_number   1
_chemical_formula_structural   LiMn8O16
_chemical_formula_sum   'Li1 Mn8 O16'
_cell_volume   284.12503276
_cell_formula_units_Z   1
loop_
 _symmetry_equiv_pos_site_id
 _symmetry_equiv_pos_as_xyz
  1  'x, y, z'
loop_
 _atom_site_type_symbol
 _atom_site_label
 _atom_site_symmetry_multiplicity
 _atom_site_fract_x
 _atom_site_fract_y
 _atom_site_fract_z
 _atom_site_occupancy
  Li  Li0  1  0.25000000  0.12500000  0.00000000  1
  Mn  Mn1  1  0.75000000  0.25091051  0.74746998  1
  Mn  Mn2  1  0.25000000  0.74830930  0.25094170  1
  Mn  Mn3  1  0.75000000  0.25091051  0.25253002  1
  Mn  Mn4  1  0.25000000  0.74830930  0.74905830  1
  Mn  Mn5  1  0.50094170  0.50169070  -0.00000000  1
  Mn  Mn6  1  0.99746998  0.99908949  0.50000000  1
  Mn  Mn7  1  0.99905830  0.50169070  0.00000000  1
  Mn  Mn8  1  0.50253002  0.99908949  0.50000000  1
  O  O9  1  0.75000000  0.48603502  0.22013632  1
  O  O10  1  0.25000000  0.98582177  0.72433821  1
  O  O11  1  0.75000000  0.48603502  0.77986368  1
  O  O12  1  0.25000000  0.98582177  0.27566179  1
  O  O13  1  0.97433821  0.26417823  -0.00000000  1
  O  O14  1  0.47013632  0.76396498  0.50000000  1
  O  O15  1  0.52566179  0.26417823  0.00000000  1
  O  O16  1  0.02986368  0.76396498  0.50000000  1
  O  O17  1  0.25000000  0.51380832  0.77999271  1
  O  O18  1  0.75000000  0.01524808  0.27657961  1
  O  O19  1  0.25000000  0.51380832  0.22000729  1
  O  O20  1  0.75000000  0.01524808  0.72342039  1
  O  O21  1  0.02999271  0.73619168  0.00000000  1
  O  O22  1  0.52657961  0.23475192  0.50000000  1
  O  O23  1  0.47000729  0.73619168  0.00000000  1
  O  O24  1  0.97342039  0.23475192  0.50000000  1
