# generated using pymatgen
data_La4Nd4S4O7
_symmetry_space_group_name_H-M   'P 1'
_cell_length_a   7.98250397
_cell_length_b   8.06083223
_cell_length_c   7.98257366
_cell_angle_alpha   104.61885449
_cell_angle_beta   60.63014895
_cell_angle_gamma   75.39143033
_symmetry_Int_Tables_number   1
_chemical_formula_structural   La4Nd4S4O7
_chemical_formula_sum   'La4 Nd4 S4 O7'
_cell_volume   387.69469938
_cell_formula_units_Z   1
loop_
 _symmetry_equiv_pos_site_id
 _symmetry_equiv_pos_as_xyz
  1  'x, y, z'
loop_
 _atom_site_type_symbol
 _atom_site_label
 _atom_site_symmetry_multiplicity
 _atom_site_fract_x
 _atom_site_fract_y
 _atom_site_fract_z
 _atom_site_occupancy
  La  La0  1  0.31164037  0.16657035  0.97821548  1
  La  La1  1  0.80551789  0.17884261  0.48433862  1
  La  La2  1  0.80530334  0.66041745  0.48497076  1
  La  La3  1  0.32453534  0.66040269  0.96573905  1
  Nd  Nd4  1  0.19879547  0.33309889  0.53063125  1
  Nd  Nd5  1  0.69753064  0.33311177  0.03189361  1
  Nd  Nd6  1  0.20384369  0.83307883  0.53692253  1
  Nd  Nd7  1  0.69821853  0.83402602  0.03224749  1
  S  S8  1  0.00184878  0.99971148  0.00610398  1
  S  S9  1  0.50638960  0.99971077  0.50156264  1
  S  S10  1  0.00193901  0.50190368  0.00384980  1
  S  S11  1  0.49952972  0.49859074  0.49812564  1
  O  O12  1  0.48837535  0.16546106  0.15383566  1
  O  O13  1  0.98687235  0.16081790  0.64769536  1
  O  O14  1  0.47935584  0.67012734  0.15611909  1
  O  O15  1  0.98599239  0.67012340  0.64948353  1
  O  O16  1  0.02754175  0.33255299  0.35644051  1
  O  O17  1  0.52388738  0.33255809  0.86009581  1
  O  O18  1  0.52413257  0.83554393  0.85967919  1
