# generated using pymatgen
data_InGaAs2
_symmetry_space_group_name_H-M   'P 1'
_cell_length_a   4.22882963
_cell_length_b   4.22882963
_cell_length_c   7.31970252
_cell_angle_alpha   106.79009060
_cell_angle_beta   73.20990940
_cell_angle_gamma   120.00000000
_symmetry_Int_Tables_number   1
_chemical_formula_structural   InGaAs2
_chemical_formula_sum   'In1 Ga1 As2'
_cell_volume   106.86911911
_cell_formula_units_Z   1
loop_
 _symmetry_equiv_pos_site_id
 _symmetry_equiv_pos_as_xyz
  1  'x, y, z'
loop_
 _atom_site_type_symbol
 _atom_site_label
 _atom_site_symmetry_multiplicity
 _atom_site_fract_x
 _atom_site_fract_y
 _atom_site_fract_z
 _atom_site_occupancy
  In  In0  1  0.37514200  0.62485800  0.87457400  1
  Ga  Ga1  1  0.87521145  0.12478855  0.37436564  1
  As  As2  1  0.99525025  0.00474975  0.01424926  1
  As  As3  1  0.50439630  0.49560370  0.48681110  1
