# generated using pymatgen
data_Li3B8O15
_symmetry_space_group_name_H-M   'P 1'
_cell_length_a   9.02628815
_cell_length_b   9.02628815
_cell_length_c   15.99567662
_cell_angle_alpha   90.00000000
_cell_angle_beta   90.00000000
_cell_angle_gamma   119.99999744
_symmetry_Int_Tables_number   1
_chemical_formula_structural   Li3B8O15
_chemical_formula_sum   'Li12 B32 O60'
_cell_volume   1128.63014463
_cell_formula_units_Z   4
loop_
 _symmetry_equiv_pos_site_id
 _symmetry_equiv_pos_as_xyz
  1  'x, y, z'
loop_
 _atom_site_type_symbol
 _atom_site_label
 _atom_site_symmetry_multiplicity
 _atom_site_fract_x
 _atom_site_fract_y
 _atom_site_fract_z
 _atom_site_occupancy
  Li  Li0  1  0.30832323  0.97016960  0.25000000  1
  Li  Li1  1  0.66184637  0.69167677  0.25000000  1
  Li  Li2  1  0.02983040  0.33815363  0.25000000  1
  Li  Li3  1  0.33815363  0.02983040  0.75000000  1
  Li  Li4  1  0.97016960  0.30832323  0.75000000  1
  Li  Li5  1  0.69167677  0.66184637  0.75000000  1
  Li  Li6  1  0.56274289  0.56274289  0.50000000  1
  Li  Li7  1  1.00000000  0.43725711  0.50000000  1
  Li  Li8  1  0.43725711  1.00000000  0.50000000  1
  Li  Li9  1  0.56274289  0.56274289  -0.00000000  1
  Li  Li10  1  1.00000000  0.43725711  -0.00000000  1
  Li  Li11  1  0.43725711  1.00000000  -0.00000000  1
  B  B12  1  0.15803355  0.63539228  0.33586733  1
  B  B13  1  0.47735873  0.84196645  0.33586733  1
  B  B14  1  0.36460772  0.52264127  0.33586733  1
  B  B15  1  0.15803355  0.63539228  0.16413267  1
  B  B16  1  0.47735873  0.84196645  0.16413267  1
  B  B17  1  0.36460772  0.52264127  0.16413267  1
  B  B18  1  0.52264127  0.36460772  0.83586733  1
  B  B19  1  0.63539228  0.15803355  0.83586733  1
  B  B20  1  0.84196645  0.47735873  0.83586733  1
  B  B21  1  0.52264127  0.36460772  0.66413267  1
  B  B22  1  0.63539228  0.15803355  0.66413267  1
  B  B23  1  0.84196645  0.47735873  0.66413267  1
  B  B24  1  -0.00000000  -0.00000000  0.25000000  1
  B  B25  1  -0.00000000  -0.00000000  0.75000000  1
  B  B26  1  0.94381637  0.69639768  0.25000000  1
  B  B27  1  0.75258130  0.05618363  0.25000000  1
  B  B28  1  0.30360232  0.24741870  0.25000000  1
  B  B29  1  0.24741870  0.30360232  0.75000000  1
  B  B30  1  0.69639768  0.94381637  0.75000000  1
  B  B31  1  0.05618363  0.75258130  0.75000000  1
  B  B32  1  0.88507186  0.61244055  0.39718705  1
  B  B33  1  0.72736869  0.11492814  0.39718705  1
  B  B34  1  0.38755945  0.27263131  0.39718705  1
  B  B35  1  0.88507186  0.61244055  0.10281295  1
  B  B36  1  0.72736869  0.11492814  0.10281295  1
  B  B37  1  0.38755945  0.27263131  0.10281295  1
  B  B38  1  0.27263131  0.38755945  0.89718705  1
  B  B39  1  0.61244055  0.88507186  0.89718705  1
  B  B40  1  0.11492814  0.72736869  0.89718705  1
  B  B41  1  0.27263131  0.38755945  0.60281295  1
  B  B42  1  0.61244055  0.88507186  0.60281295  1
  B  B43  1  0.11492814  0.72736869  0.60281295  1
  O  O44  1  0.05554075  0.61590859  0.25000000  1
  O  O45  1  0.56036784  0.94445925  0.25000000  1
  O  O46  1  0.38409141  0.43963216  0.25000000  1
  O  O47  1  0.43963216  0.38409141  0.75000000  1
  O  O48  1  0.61590859  0.05554075  0.75000000  1
  O  O49  1  0.94445925  0.56036784  0.75000000  1
  O  O50  1  0.03351581  0.60499100  0.40511967  1
  O  O51  1  0.57147519  0.96648419  0.40511967  1
  O  O52  1  0.39500900  0.42852481  0.40511967  1
  O  O53  1  0.03351581  0.60499100  0.09488033  1
  O  O54  1  0.57147519  0.96648419  0.09488033  1
  O  O55  1  0.39500900  0.42852481  0.09488033  1
  O  O56  1  0.42852481  0.39500900  0.90511967  1
  O  O57  1  0.60499100  0.03351581  0.90511967  1
  O  O58  1  0.96648419  0.57147519  0.90511967  1
  O  O59  1  0.42852481  0.39500900  0.59488033  1
  O  O60  1  0.60499100  0.03351581  0.59488033  1
  O  O61  1  0.96648419  0.57147519  0.59488033  1
  O  O62  1  0.82860392  0.63874132  0.17772851  1
  O  O63  1  0.81013741  0.17139608  0.17772851  1
  O  O64  1  0.36125868  0.18986259  0.17772851  1
  O  O65  1  0.82860392  0.63874132  0.32227149  1
  O  O66  1  0.81013741  0.17139608  0.32227149  1
  O  O67  1  0.36125868  0.18986259  0.32227149  1
  O  O68  1  0.18986259  0.36125868  0.67772851  1
  O  O69  1  0.63874132  0.82860392  0.67772851  1
  O  O70  1  0.17139608  0.81013741  0.67772851  1
  O  O71  1  0.18986259  0.36125868  0.82227149  1
  O  O72  1  0.63874132  0.82860392  0.82227149  1
  O  O73  1  0.17139608  0.81013741  0.82227149  1
  O  O74  1  0.05559485  0.88312877  0.25000000  1
  O  O75  1  0.82753392  0.94440515  0.25000000  1
  O  O76  1  0.11687123  0.17246608  0.25000000  1
  O  O77  1  0.17246608  0.11687123  0.75000000  1
  O  O78  1  0.88312877  0.05559485  0.75000000  1
  O  O79  1  0.94440515  0.82753392  0.75000000  1
  O  O80  1  0.19521282  0.49867414  0.33753167  1
  O  O81  1  0.30346133  0.80478718  0.33753167  1
  O  O82  1  0.50132586  0.69653867  0.33753167  1
  O  O83  1  0.19521282  0.49867414  0.16246833  1
  O  O84  1  0.30346133  0.80478718  0.16246833  1
  O  O85  1  0.50132586  0.69653867  0.16246833  1
  O  O86  1  0.69653867  0.50132586  0.83753167  1
  O  O87  1  0.49867414  0.19521282  0.83753167  1
  O  O88  1  0.80478718  0.30346133  0.83753167  1
  O  O89  1  0.69653867  0.50132586  0.66246833  1
  O  O90  1  0.49867414  0.19521282  0.66246833  1
  O  O91  1  0.80478718  0.30346133  0.66246833  1
  O  O92  1  0.78156007  0.58912298  0.46402359  1
  O  O93  1  0.80756291  0.21843993  0.46402359  1
  O  O94  1  0.41087702  0.19243709  0.46402359  1
  O  O95  1  0.78156007  0.58912298  0.03597641  1
  O  O96  1  0.80756291  0.21843993  0.03597641  1
  O  O97  1  0.41087702  0.19243709  0.03597641  1
  O  O98  1  0.19243709  0.41087702  0.96402359  1
  O  O99  1  0.58912298  0.78156007  0.96402359  1
  O  O100  1  0.21843993  0.80756291  0.96402359  1
  O  O101  1  0.19243709  0.41087702  0.53597641  1
  O  O102  1  0.58912298  0.78156007  0.53597641  1
  O  O103  1  0.21843993  0.80756291  0.53597641  1
