# generated using pymatgen
data_Li3H4IN2
_symmetry_space_group_name_H-M   'P 1'
_cell_length_a   7.21833996
_cell_length_b   7.32901972
_cell_length_c   11.86407996
_cell_angle_alpha   90.00000000
_cell_angle_beta   90.00000000
_cell_angle_gamma   120.50354170
_symmetry_Int_Tables_number   1
_chemical_formula_structural   Li3H4IN2
_chemical_formula_sum   'Li12 H16 I4 N8'
_cell_volume   540.78154397
_cell_formula_units_Z   4
loop_
 _symmetry_equiv_pos_site_id
 _symmetry_equiv_pos_as_xyz
  1  'x, y, z'
loop_
 _atom_site_type_symbol
 _atom_site_label
 _atom_site_symmetry_multiplicity
 _atom_site_fract_x
 _atom_site_fract_y
 _atom_site_fract_z
 _atom_site_occupancy
  Li  Li0  1  0.88672503  0.10147183  0.12860968  1
  Li  Li1  1  0.23195416  0.11596688  0.16999968  1
  Li  Li2  1  0.88674790  0.78527853  0.12861203  1
  Li  Li3  1  0.11327497  0.89852817  0.62860968  1
  Li  Li4  1  0.76804584  0.88403312  0.66999968  1
  Li  Li5  1  0.11325210  0.21472147  0.62861203  1
  Li  Li6  1  0.76537701  0.16293850  0.28553641  1
  Li  Li7  1  0.19478620  0.09737358  0.37169523  1
  Li  Li8  1  0.76540949  0.60241805  0.28552620  1
  Li  Li9  1  0.23462299  0.83706150  0.78553641  1
  Li  Li10  1  0.80521380  0.90262642  0.87169523  1
  Li  Li11  1  0.23459051  0.39758195  0.78552620  1
  H  H12  1  0.20216556  0.42752327  0.22861721  1
  H  H13  1  0.20217945  0.77462447  0.22861943  1
  H  H14  1  0.53028996  0.76513637  0.22132258  1
  H  H15  1  0.79783444  0.57247673  0.72861721  1
  H  H16  1  0.79782055  0.22537553  0.72861943  1
  H  H17  1  0.46971004  0.23486363  0.72132258  1
  H  H18  1  0.09344418  0.31097362  0.34199421  1
  H  H19  1  0.09344542  0.78246646  0.34199378  1
  H  H20  1  0.70908711  0.85454023  0.32032093  1
  H  H21  1  0.90655582  0.68902638  0.84199421  1
  H  H22  1  0.90655458  0.21753354  0.84199378  1
  H  H23  1  0.29091289  0.14545977  0.82032093  1
  H  H24  1  0.11873083  0.16863385  0.98438330  1
  H  H25  1  0.11873836  0.95008807  0.98437897  1
  H  H26  1  0.88126917  0.83136615  0.48438330  1
  H  H27  1  0.88126164  0.04991193  0.48437897  1
  I  I28  1  0.33466422  0.66733335  0.58884408  1
  I  I29  1  0.66533578  0.33266665  0.08884408  1
  I  I30  1  0.35525210  0.67764136  0.95914681  1
  I  I31  1  0.64474790  0.32235864  0.45914681  1
  N  N32  1  0.10688820  0.83032778  0.25901278  1
  N  N33  1  0.69281896  0.84641102  0.23360395  1
  N  N34  1  0.10687909  0.27654209  0.25901447  1
  N  N35  1  0.89311180  0.16967222  0.75901278  1
  N  N36  1  0.30718104  0.15358898  0.73360395  1
  N  N37  1  0.89312091  0.72345791  0.75901447  1
  N  N38  1  0.02866945  0.01433262  0.01156827  1
  N  N39  1  0.97133055  0.98566738  0.51156827  1
