# generated using pymatgen
data_LaU2S5
_symmetry_space_group_name_H-M   'P 1'
_cell_length_a   7.47600657
_cell_length_b   8.04373019
_cell_length_c   11.82178769
_cell_angle_alpha   90.00000000
_cell_angle_beta   90.00000000
_cell_angle_gamma   90.00000000
_symmetry_Int_Tables_number   1
_chemical_formula_structural   LaU2S5
_chemical_formula_sum   'La4 U8 S20'
_cell_volume   710.90296332
_cell_formula_units_Z   4
loop_
 _symmetry_equiv_pos_site_id
 _symmetry_equiv_pos_as_xyz
  1  'x, y, z'
loop_
 _atom_site_type_symbol
 _atom_site_label
 _atom_site_symmetry_multiplicity
 _atom_site_fract_x
 _atom_site_fract_y
 _atom_site_fract_z
 _atom_site_occupancy
  La  La0  1  0.97415289  0.99883270  0.17658450  1
  La  La1  1  0.02584711  0.49883270  0.82341550  1
  La  La2  1  0.47415289  0.49883270  0.32341550  1
  La  La3  1  0.52584711  0.99883270  0.67658450  1
  U  U4  1  0.42739594  0.75044617  0.00809534  1
  U  U5  1  0.07260406  0.75044617  0.50809534  1
  U  U6  1  0.57260406  0.25044617  0.99190466  1
  U  U7  1  0.92739594  0.25044617  0.49190466  1
  U  U8  1  0.51935175  0.50109895  0.68039596  1
  U  U9  1  0.48064825  0.00109895  0.31960404  1
  U  U10  1  0.01935175  0.00109895  0.81960404  1
  U  U11  1  0.98064825  0.50109895  0.18039596  1
  S  S12  1  0.65460464  0.54157379  0.90096955  1
  S  S13  1  0.83001810  0.95668999  0.40677020  1
  S  S14  1  0.34539536  0.04157379  0.09903045  1
  S  S15  1  0.16998190  0.45668999  0.59322980  1
  S  S16  1  0.33001810  0.45668999  0.09322980  1
  S  S17  1  0.15460464  0.04157379  0.59903045  1
  S  S18  1  0.66998190  0.95668999  0.90677020  1
  S  S19  1  0.84539536  0.54157379  0.40096955  1
  S  S20  1  0.04375338  0.75140240  0.00156932  1
  S  S21  1  0.45624662  0.75140240  0.50156932  1
  S  S22  1  0.95624662  0.25140240  0.99843068  1
  S  S23  1  0.54375338  0.25140240  0.49843068  1
  S  S24  1  0.30169110  0.75054770  0.78497155  1
  S  S25  1  0.19830890  0.75054770  0.28497155  1
  S  S26  1  0.69830890  0.25054770  0.21502845  1
  S  S27  1  0.80169110  0.25054770  0.71502845  1
  S  S28  1  0.66878358  0.74940829  0.18715075  1
  S  S29  1  0.83121642  0.74940829  0.68715075  1
  S  S30  1  0.33121642  0.24940829  0.81284925  1
  S  S31  1  0.16878358  0.24940829  0.31284925  1
