# generated using pymatgen
data_Li2TiMn2NiO8
_symmetry_space_group_name_H-M   'P 1'
_cell_length_a   5.86861759
_cell_length_b   5.86861759
_cell_length_c   5.91920224
_cell_angle_alpha   90.15896844
_cell_angle_beta   60.33573845
_cell_angle_gamma   120.23950451
_symmetry_Int_Tables_number   1
_chemical_formula_structural   Li2TiMn2NiO8
_chemical_formula_sum   'Li2 Ti1 Mn2 Ni1 O8'
_cell_volume   144.55534547
_cell_formula_units_Z   1
loop_
 _symmetry_equiv_pos_site_id
 _symmetry_equiv_pos_as_xyz
  1  'x, y, z'
loop_
 _atom_site_type_symbol
 _atom_site_label
 _atom_site_symmetry_multiplicity
 _atom_site_fract_x
 _atom_site_fract_y
 _atom_site_fract_z
 _atom_site_occupancy
  Li  Li0  1  0.50616687  0.75834254  0.73549060  1
  Li  Li1  1  0.99383313  0.99165746  0.01450940  1
  Ti  Ti2  1  0.25000000  0.37500000  0.37500000  1
  Mn  Mn3  1  0.25000000  0.87500000  0.37500000  1
  Mn  Mn4  1  0.75000000  0.37500000  0.37500000  1
  Ni  Ni5  1  0.75000000  0.37500000  0.87500000  1
  O  O6  1  0.27767566  0.13419195  0.58813239  1
  O  O7  1  0.71431671  0.12933654  0.15634675  1
  O  O8  1  0.71901845  0.58695151  0.15803793  1
  O  O9  1  0.25501057  0.12294362  0.15803793  1
  O  O10  1  0.22232434  0.61580805  0.16186761  1
  O  O11  1  0.78568329  0.62066346  0.59365325  1
  O  O12  1  0.78098155  0.16304849  0.59196207  1
  O  O13  1  0.24498943  0.62705638  0.59196207  1
