# generated using pymatgen
data_La6CuSb15
_symmetry_space_group_name_H-M   'P 1'
_cell_length_a   4.55688436
_cell_length_b   12.42890123
_cell_length_c   12.42890123
_cell_angle_alpha   79.49976304
_cell_angle_beta   100.68430668
_cell_angle_gamma   79.31569332
_symmetry_Int_Tables_number   1
_chemical_formula_structural   La6CuSb15
_chemical_formula_sum   'La6 Cu1 Sb15'
_cell_volume   662.41745618
_cell_formula_units_Z   1
loop_
 _symmetry_equiv_pos_site_id
 _symmetry_equiv_pos_as_xyz
  1  'x, y, z'
loop_
 _atom_site_type_symbol
 _atom_site_label
 _atom_site_symmetry_multiplicity
 _atom_site_fract_x
 _atom_site_fract_y
 _atom_site_fract_z
 _atom_site_occupancy
  La  La0  1  0.93275074  0.67061256  0.67197809  1
  La  La1  1  0.93275074  0.32802191  0.32938744  1
  La  La2  1  0.06751465  0.73115700  0.00286576  1
  La  La3  1  0.79667115  0.27276393  0.99621446  1
  La  La4  1  0.79667115  0.00378554  0.72723607  1
  La  La5  1  0.06751465  0.99713424  0.26884300  1
  Cu  Cu6  1  0.20229483  0.74081341  0.25918659  1
  Sb  Sb7  1  0.83444867  0.59901797  0.40098203  1
  Sb  Sb8  1  0.02902865  0.39572609  0.60427391  1
  Sb  Sb9  1  0.28180669  0.53292158  0.24469123  1
  Sb  Sb10  1  0.58130727  0.45709309  0.75196360  1
  Sb  Sb11  1  0.58130727  0.24803640  0.54290691  1
  Sb  Sb12  1  0.28180669  0.75530877  0.46707842  1
  Sb  Sb13  1  0.14047372  0.48741735  0.91676807  1
  Sb  Sb14  1  0.71468804  0.51382333  0.07902455  1
  Sb  Sb15  1  0.71468804  0.92097545  0.48617667  1
  Sb  Sb16  1  0.14047372  0.08323193  0.51258265  1
  Sb  Sb17  1  0.58303692  0.84709686  0.15290314  1
  Sb  Sb18  1  0.29038873  0.14661749  0.85338251  1
  Sb  Sb19  1  0.43106189  0.79945754  0.79743000  1
  Sb  Sb20  1  0.43106189  0.20257000  0.20054246  1
  Sb  Sb21  1  0.95675390  0.00581753  0.99418247  1
