# generated using pymatgen
data_Li2Ti3ZnO8
_symmetry_space_group_name_H-M   'P 1'
_cell_length_a   5.98363755
_cell_length_b   5.98363755
_cell_length_c   5.96416221
_cell_angle_alpha   59.89192260
_cell_angle_beta   120.10807740
_cell_angle_gamma   120.00000000
_symmetry_Int_Tables_number   1
_chemical_formula_structural   Li2Ti3ZnO8
_chemical_formula_sum   'Li2 Ti3 Zn1 O8'
_cell_volume   150.74871299
_cell_formula_units_Z   1
loop_
 _symmetry_equiv_pos_site_id
 _symmetry_equiv_pos_as_xyz
  1  'x, y, z'
loop_
 _atom_site_type_symbol
 _atom_site_label
 _atom_site_symmetry_multiplicity
 _atom_site_fract_x
 _atom_site_fract_y
 _atom_site_fract_z
 _atom_site_occupancy
  Li  Li0  1  0.62562529  0.37437471  0.87687588  1
  Li  Li1  1  0.24580367  0.75419633  0.73741100  1
  Ti  Ti2  1  0.62329616  0.37670384  0.37859009  1
  Ti  Ti3  1  0.62329616  0.86800224  0.37859009  1
  Ti  Ti4  1  0.13199776  0.37670384  0.37859009  1
  Zn  Zn5  1  0.00768237  0.99231763  0.02304711  1
  O  O6  1  0.86701574  0.13298426  0.60104721  1
  O  O7  1  0.87168858  0.12831142  0.15592185  1
  O  O8  1  0.87168858  0.58745531  0.15592185  1
  O  O9  1  0.41254469  0.12831142  0.15592185  1
  O  O10  1  0.38457582  0.61542418  0.15372746  1
  O  O11  1  0.37607222  0.62392778  0.58478518  1
  O  O12  1  0.37607222  0.16735927  0.58478518  1
  O  O13  1  0.83264073  0.62392778  0.58478518  1
