# generated using pymatgen
data_La4As2S5O4
_symmetry_space_group_name_H-M   'P 1'
_cell_length_a   4.21978672
_cell_length_b   9.72783721
_cell_length_c   8.31533978
_cell_angle_alpha   102.80527478
_cell_angle_beta   91.92773286
_cell_angle_gamma   77.01725859
_symmetry_Int_Tables_number   1
_chemical_formula_structural   La4As2S5O4
_chemical_formula_sum   'La4 As2 S5 O4'
_cell_volume   324.29495580
_cell_formula_units_Z   1
loop_
 _symmetry_equiv_pos_site_id
 _symmetry_equiv_pos_as_xyz
  1  'x, y, z'
loop_
 _atom_site_type_symbol
 _atom_site_label
 _atom_site_symmetry_multiplicity
 _atom_site_fract_x
 _atom_site_fract_y
 _atom_site_fract_z
 _atom_site_occupancy
  La  La0  1  0.18582149  0.63046875  0.41122926  1
  La  La1  1  0.18095730  0.62822013  0.90786595  1
  La  La2  1  0.81833287  0.36812796  0.59363738  1
  La  La3  1  0.80844879  0.37304724  0.09547584  1
  As  As4  1  0.50981047  0.00037355  0.63997425  1
  As  As5  1  0.24079398  0.99967385  0.20810346  1
  S  S6  1  0.41342420  0.21040210  0.29185494  1
  S  S7  1  0.34750431  0.21106043  0.82912440  1
  S  S8  1  0.55917519  0.78867229  0.72239643  1
  S  S9  1  0.62550782  0.78971475  0.18700810  1
  S  S10  1  0.04631261  0.00014638  0.46757471  1
  O  O11  1  0.74453396  0.50134077  0.37760411  1
  O  O12  1  0.74428801  0.49886792  0.87376378  1
  O  O13  1  0.24753738  0.49623736  0.62358562  1
  O  O14  1  0.24155160  0.50364652  0.12780177  1
