# generated using pymatgen
data_La3Ni7P5
_symmetry_space_group_name_H-M   'P 1'
_cell_length_a   3.96221959
_cell_length_b   16.66256854
_cell_length_c   16.63258159
_cell_angle_alpha   59.94306045
_cell_angle_beta   90.00000000
_cell_angle_gamma   90.00000000
_symmetry_Int_Tables_number   1
_chemical_formula_structural   La3Ni7P5
_chemical_formula_sum   'La12 Ni28 P20'
_cell_volume   950.43258322
_cell_formula_units_Z   4
loop_
 _symmetry_equiv_pos_site_id
 _symmetry_equiv_pos_as_xyz
  1  'x, y, z'
loop_
 _atom_site_type_symbol
 _atom_site_label
 _atom_site_symmetry_multiplicity
 _atom_site_fract_x
 _atom_site_fract_y
 _atom_site_fract_z
 _atom_site_occupancy
  La  La0  1  0.75000000  0.88033653  0.76703422  1
  La  La1  1  0.75000000  0.35292060  0.87992017  1
  La  La2  1  0.75000000  0.76403833  0.35676927  1
  La  La3  1  0.25000000  0.12121309  0.23430153  1
  La  La4  1  0.25000000  0.64561054  0.11928292  1
  La  La5  1  0.25000000  0.23365857  0.64604281  1
  La  La6  1  0.75000000  0.61728262  0.82468832  1
  La  La7  1  0.75000000  0.55779559  0.61766945  1
  La  La8  1  0.75000000  0.82534338  0.55829868  1
  La  La9  1  0.25000000  0.38309292  0.17512875  1
  La  La10  1  0.25000000  0.44202214  0.38312451  1
  La  La11  1  0.25000000  0.17475037  0.44198520  1
  Ni  Ni12  1  0.75000000  0.01266767  0.55237329  1
  Ni  Ni13  1  0.75000000  0.43438684  0.01253772  1
  Ni  Ni14  1  0.75000000  0.55288013  0.43406025  1
  Ni  Ni15  1  0.25000000  0.98704854  0.44770850  1
  Ni  Ni16  1  0.25000000  0.56433695  0.98682087  1
  Ni  Ni17  1  0.25000000  0.44715821  0.56643109  1
  Ni  Ni18  1  0.75000000  0.06678932  0.76182121  1
  Ni  Ni19  1  0.75000000  0.17243059  0.06635141  1
  Ni  Ni20  1  0.75000000  0.75362282  0.17253356  1
  Ni  Ni21  1  0.25000000  0.92550243  0.24838993  1
  Ni  Ni22  1  0.25000000  0.82475875  0.92780748  1
  Ni  Ni23  1  0.25000000  0.24901821  0.82494786  1
  Ni  Ni24  1  0.75000000  0.28232914  0.49283254  1
  Ni  Ni25  1  0.75000000  0.22457409  0.28208181  1
  Ni  Ni26  1  0.75000000  0.49219377  0.22483800  1
  Ni  Ni27  1  0.25000000  0.71707676  0.50789725  1
  Ni  Ni28  1  0.25000000  0.77529008  0.71800293  1
  Ni  Ni29  1  0.25000000  0.50710247  0.77533762  1
  Ni  Ni30  1  0.75000000  0.70272329  0.95632693  1
  Ni  Ni31  1  0.75000000  0.33987124  0.70306111  1
  Ni  Ni32  1  0.75000000  0.95800181  0.34144517  1
  Ni  Ni33  1  0.25000000  0.30314029  0.04365246  1
  Ni  Ni34  1  0.25000000  0.65720607  0.30068487  1
  Ni  Ni35  1  0.25000000  0.04380185  0.65383712  1
  Ni  Ni36  1  0.75000000  0.91113369  0.14646701  1
  Ni  Ni37  1  0.25000000  0.05775068  0.09214093  1
  Ni  Ni38  1  0.25000000  0.84932364  0.05987880  1
  Ni  Ni39  1  0.25000000  0.09599079  0.84295703  1
  P  P40  1  0.75000000  0.33290430  0.33346388  1
  P  P41  1  0.25000000  0.66672618  0.66674396  1
  P  P42  1  0.75000000  0.39213446  0.53899527  1
  P  P43  1  0.75000000  0.06883814  0.39243962  1
  P  P44  1  0.75000000  0.53862095  0.06875215  1
  P  P45  1  0.25000000  0.60672451  0.46248620  1
  P  P46  1  0.25000000  0.93091073  0.60840688  1
  P  P47  1  0.25000000  0.46136235  0.93014320  1
  P  P48  1  0.75000000  0.17996082  0.80452075  1
  P  P49  1  0.75000000  0.02046352  0.18042007  1
  P  P50  1  0.75000000  0.80425616  0.01423074  1
  P  P51  1  0.25000000  0.81819279  0.20191163  1
  P  P52  1  0.25000000  0.98295932  0.81367182  1
  P  P53  1  0.25000000  0.20322260  0.98331656  1
  P  P54  1  0.75000000  0.12421626  0.59847324  1
  P  P55  1  0.75000000  0.27710983  0.12468895  1
  P  P56  1  0.75000000  0.59714983  0.27705712  1
  P  P57  1  0.25000000  0.87465247  0.40323352  1
  P  P58  1  0.25000000  0.72169119  0.87538436  1
  P  P59  1  0.25000000  0.40372880  0.72218948  1
