# generated using pymatgen
data_USO6
_symmetry_space_group_name_H-M   'P 1'
_cell_length_a   5.52054170
_cell_length_b   6.90203285
_cell_length_c   11.95274083
_cell_angle_alpha   90.00000000
_cell_angle_beta   90.00000000
_cell_angle_gamma   90.00000000
_symmetry_Int_Tables_number   1
_chemical_formula_structural   USO6
_chemical_formula_sum   'U4 S4 O24'
_cell_volume   455.43480769
_cell_formula_units_Z   4
loop_
 _symmetry_equiv_pos_site_id
 _symmetry_equiv_pos_as_xyz
  1  'x, y, z'
loop_
 _atom_site_type_symbol
 _atom_site_label
 _atom_site_symmetry_multiplicity
 _atom_site_fract_x
 _atom_site_fract_y
 _atom_site_fract_z
 _atom_site_occupancy
  U  U0  1  0.25000000  0.38607614  0.55801194  1
  U  U1  1  0.25000000  0.11392386  0.05801194  1
  U  U2  1  0.75000000  0.61392386  0.44198806  1
  U  U3  1  0.75000000  0.88607614  0.94198806  1
  S  S4  1  0.25000000  0.55885940  0.86454480  1
  S  S5  1  0.25000000  0.94114060  0.36454480  1
  S  S6  1  0.75000000  0.44114060  0.13545520  1
  S  S7  1  0.75000000  0.05885940  0.63545520  1
  O  O8  1  0.99840684  0.10402866  0.92096638  1
  O  O9  1  0.50159316  0.39597134  0.42096638  1
  O  O10  1  0.49840684  0.89597134  0.07903362  1
  O  O11  1  0.00159316  0.60402866  0.57903362  1
  O  O12  1  0.00159316  0.89597134  0.07903362  1
  O  O13  1  0.49840684  0.60402866  0.57903362  1
  O  O14  1  0.50159316  0.10402866  0.92096638  1
  O  O15  1  0.99840684  0.39597134  0.42096638  1
  O  O16  1  0.25000000  0.44763773  0.96812140  1
  O  O17  1  0.25000000  0.05236227  0.46812140  1
  O  O18  1  0.75000000  0.55236227  0.03187860  1
  O  O19  1  0.75000000  0.94763773  0.53187860  1
  O  O20  1  0.25000000  0.43734143  0.76464676  1
  O  O21  1  0.25000000  0.06265857  0.26464676  1
  O  O22  1  0.75000000  0.56265857  0.23535324  1
  O  O23  1  0.75000000  0.93734143  0.73535324  1
  O  O24  1  0.03179477  0.69139353  0.86176637  1
  O  O25  1  0.46820523  0.80860647  0.36176637  1
  O  O26  1  0.53179477  0.30860647  0.13823363  1
  O  O27  1  0.96820523  0.19139353  0.63823363  1
  O  O28  1  0.96820523  0.30860647  0.13823363  1
  O  O29  1  0.53179477  0.19139353  0.63823363  1
  O  O30  1  0.46820523  0.69139353  0.86176637  1
  O  O31  1  0.03179477  0.80860647  0.36176637  1
