# generated using pymatgen
data_HoSc(BRh)8
_symmetry_space_group_name_H-M   'P 1'
_cell_length_a   5.33079737
_cell_length_b   5.33079737
_cell_length_c   7.41104177
_cell_angle_alpha   90.00000000
_cell_angle_beta   90.00000000
_cell_angle_gamma   90.00000000
_symmetry_Int_Tables_number   1
_chemical_formula_structural   HoSc(BRh)8
_chemical_formula_sum   'Ho1 Sc1 B8 Rh8'
_cell_volume   210.60254284
_cell_formula_units_Z   1
loop_
 _symmetry_equiv_pos_site_id
 _symmetry_equiv_pos_as_xyz
  1  'x, y, z'
loop_
 _atom_site_type_symbol
 _atom_site_label
 _atom_site_symmetry_multiplicity
 _atom_site_fract_x
 _atom_site_fract_y
 _atom_site_fract_z
 _atom_site_occupancy
  Ho  Ho0  1  0.75000000  0.25000000  0.25000000  1
  Sc  Sc1  1  0.25000000  0.75000000  0.75000000  1
  B  B2  1  0.58138866  0.75000000  0.39997769  1
  B  B3  1  0.91861134  0.75000000  0.39997769  1
  B  B4  1  0.75000000  0.57979307  0.89939842  1
  B  B5  1  0.75000000  0.92020693  0.89939842  1
  B  B6  1  0.42020693  0.25000000  0.60060158  1
  B  B7  1  0.07979307  0.25000000  0.60060158  1
  B  B8  1  0.25000000  0.41861134  0.10002231  1
  B  B9  1  0.25000000  0.08138866  0.10002231  1
  Rh  Rh10  1  0.00238008  0.75000000  0.10102901  1
  Rh  Rh11  1  0.49761992  0.75000000  0.10102901  1
  Rh  Rh12  1  0.75000000  0.00014243  0.60649742  1
  Rh  Rh13  1  0.75000000  0.49985757  0.60649742  1
  Rh  Rh14  1  0.99985757  0.25000000  0.89350258  1
  Rh  Rh15  1  0.50014243  0.25000000  0.89350258  1
  Rh  Rh16  1  0.25000000  0.99761992  0.39897099  1
  Rh  Rh17  1  0.25000000  0.50238008  0.39897099  1
