# generated using pymatgen
data_GdY(WO4)3
_symmetry_space_group_name_H-M   'P 1'
_cell_length_a   6.98111792
_cell_length_b   6.98111792
_cell_length_c   11.46443397
_cell_angle_alpha   100.84701039
_cell_angle_beta   100.84701039
_cell_angle_gamma   111.73754329
_symmetry_Int_Tables_number   1
_chemical_formula_structural   GdY(WO4)3
_chemical_formula_sum   'Gd2 Y2 W6 O24'
_cell_volume   488.93763916
_cell_formula_units_Z   2
loop_
 _symmetry_equiv_pos_site_id
 _symmetry_equiv_pos_as_xyz
  1  'x, y, z'
loop_
 _atom_site_type_symbol
 _atom_site_label
 _atom_site_symmetry_multiplicity
 _atom_site_fract_x
 _atom_site_fract_y
 _atom_site_fract_z
 _atom_site_occupancy
  Gd  Gd0  1  0.04103577  0.78756421  0.09423516  1
  Gd  Gd1  1  0.71243579  0.45896423  0.40576484  1
  Y  Y2  1  0.95806727  0.21249841  0.90608883  1
  Y  Y3  1  0.28750159  0.54193273  0.59391117  1
  W  W4  1  0.24987233  0.96150977  0.45463095  1
  W  W5  1  0.53849023  0.25012767  0.04536905  1
  W  W6  1  0.75225135  0.04052854  0.54823150  1
  W  W7  1  0.45947146  0.74774865  0.95176850  1
  W  W8  1  0.13343644  0.36656356  0.25000000  1
  W  W9  1  0.86644738  0.63355262  0.75000000  1
  O  O10  1  0.10400002  0.95751245  0.30289169  1
  O  O11  1  0.54248755  0.39599998  0.19710831  1
  O  O12  1  0.89797275  0.04579367  0.70016984  1
  O  O13  1  0.45420633  0.60202725  0.79983016  1
  O  O14  1  0.52912815  0.10693291  0.42896800  1
  O  O15  1  0.39306709  0.97087185  0.07103200  1
  O  O16  1  0.47234323  0.89252834  0.57321352  1
  O  O17  1  0.60747166  0.02765677  0.92678648  1
  O  O18  1  0.66529802  0.73062655  0.06224544  1
  O  O19  1  0.76937345  0.83470198  0.43775456  1
  O  O20  1  0.33076440  0.26483876  0.93496555  1
  O  O21  1  0.23516124  0.16923560  0.56503445  1
  O  O22  1  0.08143033  0.16246890  0.10541669  1
  O  O23  1  0.33753110  0.41856967  0.39458331  1
  O  O24  1  0.91818814  0.84089734  0.89284599  1
  O  O25  1  0.65910266  0.58181186  0.60715401  1
  O  O26  1  0.20809466  0.62545918  0.22149166  1
  O  O27  1  0.87454082  0.29190534  0.27850834  1
  O  O28  1  0.79344321  0.37589930  0.78041696  1
  O  O29  1  0.12410070  0.70655679  0.71958304  1
  O  O30  1  0.81459523  0.41697296  0.03569980  1
  O  O31  1  0.08302704  0.68540477  0.46430020  1
  O  O32  1  0.18496657  0.57930396  0.96271785  1
  O  O33  1  0.92069604  0.31503343  0.53728215  1
