# generated using pymatgen
data_Ho4MnS7
_symmetry_space_group_name_H-M   'P 1'
_cell_length_a   3.79429408
_cell_length_b   6.53830228
_cell_length_c   11.44315398
_cell_angle_alpha   104.26176718
_cell_angle_beta   89.99999995
_cell_angle_gamma   73.13252231
_symmetry_Int_Tables_number   1
_chemical_formula_structural   Ho4MnS7
_chemical_formula_sum   'Ho4 Mn1 S7'
_cell_volume   262.51541698
_cell_formula_units_Z   1
loop_
 _symmetry_equiv_pos_site_id
 _symmetry_equiv_pos_as_xyz
  1  'x, y, z'
loop_
 _atom_site_type_symbol
 _atom_site_label
 _atom_site_symmetry_multiplicity
 _atom_site_fract_x
 _atom_site_fract_y
 _atom_site_fract_z
 _atom_site_occupancy
  Ho  Ho0  1  0.69301293  0.61397414  0.20400789  1
  Ho  Ho1  1  0.30675904  0.38648192  0.80163806  1
  Ho  Ho2  1  0.99938636  0.00122728  0.00584646  1
  Ho  Ho3  1  0.11401565  0.77196870  0.56672130  1
  Mn  Mn4  1  0.88492496  0.23015009  0.42215236  1
  S  S5  1  0.74386020  0.51227960  0.64016723  1
  S  S6  1  0.26819802  0.46360395  0.35255108  1
  S  S7  1  0.33848129  0.32303741  0.05117876  1
  S  S8  1  0.65976757  0.68046485  0.94872346  1
  S  S9  1  0.03463840  0.93072320  0.22532793  1
  S  S10  1  0.96289981  0.07420037  0.78464886  1
  S  S11  1  0.49405575  0.01188849  0.49703660  1
