# generated using pymatgen
data_GeMoAs
_symmetry_space_group_name_H-M   'P 1'
_cell_length_a   3.29814378
_cell_length_b   4.93762329
_cell_length_c   6.96971536
_cell_angle_alpha   88.07411121
_cell_angle_beta   76.31372474
_cell_angle_gamma   109.51058560
_symmetry_Int_Tables_number   1
_chemical_formula_structural   GeMoAs
_chemical_formula_sum   'Ge2 Mo2 As2'
_cell_volume   103.15766267
_cell_formula_units_Z   2
loop_
 _symmetry_equiv_pos_site_id
 _symmetry_equiv_pos_as_xyz
  1  'x, y, z'
loop_
 _atom_site_type_symbol
 _atom_site_label
 _atom_site_symmetry_multiplicity
 _atom_site_fract_x
 _atom_site_fract_y
 _atom_site_fract_z
 _atom_site_occupancy
  Ge  Ge0  1  0.70712957  0.31106687  0.89680772  1
  Ge  Ge1  1  0.29287043  0.68893313  0.10319228  1
  Mo  Mo2  1  0.04689557  0.89244482  0.79865369  1
  Mo  Mo3  1  0.95310443  0.10755518  0.20134631  1
  As  As4  1  0.60923190  0.75477760  0.53631379  1
  As  As5  1  0.39076810  0.24522240  0.46368621  1
