# generated using pymatgen
data_Cu(Bi4Ir)3
_symmetry_space_group_name_H-M   'P 1'
_cell_length_a   4.24242286
_cell_length_b   9.12694793
_cell_length_c   11.68545506
_cell_angle_alpha   89.73223608
_cell_angle_beta   90.00000000
_cell_angle_gamma   90.00000000
_symmetry_Int_Tables_number   1
_chemical_formula_structural   Cu(Bi4Ir)3
_chemical_formula_sum   'Cu1 Bi12 Ir3'
_cell_volume   452.46023188
_cell_formula_units_Z   1
loop_
 _symmetry_equiv_pos_site_id
 _symmetry_equiv_pos_as_xyz
  1  'x, y, z'
loop_
 _atom_site_type_symbol
 _atom_site_label
 _atom_site_symmetry_multiplicity
 _atom_site_fract_x
 _atom_site_fract_y
 _atom_site_fract_z
 _atom_site_occupancy
  Cu  Cu0  1  0.75000000  0.40397033  0.02258448  1
  Bi  Bi1  1  0.75000000  0.20445195  0.38692008  1
  Bi  Bi2  1  0.75000000  0.71208247  0.11230122  1
  Bi  Bi3  1  0.25000000  0.79326580  0.61055012  1
  Bi  Bi4  1  0.25000000  0.30364482  0.88586369  1
  Bi  Bi5  1  0.75000000  0.10675926  0.09063650  1
  Bi  Bi6  1  0.75000000  0.60775077  0.40229503  1
  Bi  Bi7  1  0.25000000  0.88217464  0.90982459  1
  Bi  Bi8  1  0.25000000  0.38869120  0.59600315  1
  Bi  Bi9  1  0.75000000  0.09297813  0.67988219  1
  Bi  Bi10  1  0.75000000  0.60135822  0.81871611  1
  Bi  Bi11  1  0.25000000  0.90691806  0.32001981  1
  Bi  Bi12  1  0.25000000  0.41040202  0.18187207  1
  Ir  Ir13  1  0.75000000  0.89956104  0.47837382  1
  Ir  Ir14  1  0.25000000  0.58662542  0.98211022  1
  Ir  Ir15  1  0.25000000  0.09936586  0.52204691  1
