# generated using pymatgen
data_Er2Al3Co
_symmetry_space_group_name_H-M   'P 1'
_cell_length_a   5.44117339
_cell_length_b   5.44117339
_cell_length_c   5.30842970
_cell_angle_alpha   90.00000000
_cell_angle_beta   59.16929550
_cell_angle_gamma   120.00000000
_symmetry_Int_Tables_number   1
_chemical_formula_structural   Er2Al3Co
_chemical_formula_sum   'Er2 Al3 Co1'
_cell_volume   109.71537296
_cell_formula_units_Z   1
loop_
 _symmetry_equiv_pos_site_id
 _symmetry_equiv_pos_as_xyz
  1  'x, y, z'
loop_
 _atom_site_type_symbol
 _atom_site_label
 _atom_site_symmetry_multiplicity
 _atom_site_fract_x
 _atom_site_fract_y
 _atom_site_fract_z
 _atom_site_occupancy
  Er  Er0  1  0.49638270  0.74819135  0.75542594  1
  Er  Er1  1  0.00361730  0.00180865  0.99457406  1
  Al  Al2  1  0.25000000  0.37500000  0.37500000  1
  Al  Al3  1  0.25000000  0.87500000  0.37500000  1
  Al  Al4  1  0.75000000  0.37500000  0.37500000  1
  Co  Co5  1  0.75000000  0.37500000  0.87500000  1
