# generated using pymatgen
data_Er9MnS14
_symmetry_space_group_name_H-M   'P 1'
_cell_length_a   3.75966200
_cell_length_b   6.54947092
_cell_length_c   22.23284651
_cell_angle_alpha   87.35541875
_cell_angle_beta   85.14973803
_cell_angle_gamma   73.32035146
_symmetry_Int_Tables_number   1
_chemical_formula_structural   Er9MnS14
_chemical_formula_sum   'Er9 Mn1 S14'
_cell_volume   522.40743950
_cell_formula_units_Z   1
loop_
 _symmetry_equiv_pos_site_id
 _symmetry_equiv_pos_as_xyz
  1  'x, y, z'
loop_
 _atom_site_type_symbol
 _atom_site_label
 _atom_site_symmetry_multiplicity
 _atom_site_fract_x
 _atom_site_fract_y
 _atom_site_fract_z
 _atom_site_occupancy
  Er  Er0  1  0.69434679  0.50907861  0.10222781  1
  Er  Er1  1  0.69881497  0.00876135  0.59360871  1
  Er  Er2  1  0.30411769  0.99143487  0.40032975  1
  Er  Er3  1  0.30222697  0.48878199  0.90676408  1
  Er  Er4  1  0.00013410  0.99607611  0.00365570  1
  Er  Er5  1  0.99977836  0.50158741  0.49885586  1
  Er  Er6  1  0.88749250  0.51439457  0.71062044  1
  Er  Er7  1  0.11348398  0.48995532  0.28307672  1
  Er  Er8  1  0.11199876  0.98618323  0.78981925  1
  Mn  Mn9  1  0.88678544  0.01575068  0.21067844  1
  S  S10  1  0.26673078  0.28960992  0.17692852  1
  S  S11  1  0.25914907  0.80532731  0.67637456  1
  S  S12  1  0.74191015  0.19529231  0.32088739  1
  S  S13  1  0.74102299  0.69435645  0.82359758  1
  S  S14  1  0.33921533  0.29589312  0.02567623  1
  S  S15  1  0.34106756  0.79219434  0.52567054  1
  S  S16  1  0.66047588  0.20499542  0.47405282  1
  S  S17  1  0.65864143  0.70799499  0.97472216  1
  S  S18  1  0.03672123  0.81466906  0.11188848  1
  S  S19  1  0.04041762  0.31170682  0.60745794  1
  S  S20  1  0.96082466  0.68704249  0.39130819  1
  S  S21  1  0.96031045  0.18613027  0.89324882  1
  S  S22  1  0.49408982  0.76313771  0.24868265  1
  S  S23  1  0.50024348  0.24964567  0.74986738  1
