# generated using pymatgen
data_Fe2Cu3(Sn3Se8)2
_symmetry_space_group_name_H-M   'P 1'
_cell_length_a   7.72413039
_cell_length_b   10.88150306
_cell_length_c   7.67669819
_cell_angle_alpha   90.60339964
_cell_angle_beta   90.00000000
_cell_angle_gamma   90.00000000
_symmetry_Int_Tables_number   1
_chemical_formula_structural   Fe2Cu3(Sn3Se8)2
_chemical_formula_sum   'Fe2 Cu3 Sn6 Se16'
_cell_volume   645.19184270
_cell_formula_units_Z   1
loop_
 _symmetry_equiv_pos_site_id
 _symmetry_equiv_pos_as_xyz
  1  'x, y, z'
loop_
 _atom_site_type_symbol
 _atom_site_label
 _atom_site_symmetry_multiplicity
 _atom_site_fract_x
 _atom_site_fract_y
 _atom_site_fract_z
 _atom_site_occupancy
  Fe  Fe0  1  0.75000000  0.24705871  0.74593442  1
  Fe  Fe1  1  0.25000000  0.75008398  0.24675449  1
  Cu  Cu2  1  0.25000000  0.13056180  0.00828990  1
  Cu  Cu3  1  0.75000000  0.62742389  0.50994600  1
  Cu  Cu4  1  0.75000000  0.87008775  0.98961965  1
  Sn  Sn5  1  0.25000000  0.74354533  0.74894027  1
  Sn  Sn6  1  0.75000000  0.25180884  0.25672852  1
  Sn  Sn7  1  0.49060228  0.49976818  0.99722484  1
  Sn  Sn8  1  0.00114313  0.00251856  0.50012657  1
  Sn  Sn9  1  0.00939772  0.49976818  0.99722484  1
  Sn  Sn10  1  0.49885687  0.00251856  0.50012657  1
  Se  Se11  1  0.25000000  0.49350142  0.73661751  1
  Se  Se12  1  0.75000000  0.99862101  0.24628086  1
  Se  Se13  1  0.25000000  0.52941855  0.25015171  1
  Se  Se14  1  0.75000000  0.01975635  0.75173033  1
  Se  Se15  1  0.02235495  0.75086189  0.02197635  1
  Se  Se16  1  0.52453634  0.25064970  0.52860706  1
  Se  Se17  1  0.47764505  0.75086189  0.02197635  1
  Se  Se18  1  0.97546366  0.25064970  0.52860706  1
  Se  Se19  1  0.75000000  0.50232040  0.24882578  1
  Se  Se20  1  0.25000000  0.99919837  0.75418875  1
  Se  Se21  1  0.75000000  0.47734389  0.75047525  1
  Se  Se22  1  0.25000000  0.97821392  0.24907832  1
  Se  Se23  1  0.97920558  0.24892819  0.98017749  1
  Se  Se24  1  0.47698083  0.75030137  0.47510680  1
  Se  Se25  1  0.52079442  0.24892819  0.98017749  1
  Se  Se26  1  0.02301917  0.75030137  0.47510680  1
