# generated using pymatgen
data_LiH4SNO5
_symmetry_space_group_name_H-M   'P 1'
_cell_length_a   6.81432354
_cell_length_b   7.49196600
_cell_length_c   18.42855458
_cell_angle_alpha   90.00000000
_cell_angle_beta   90.00000000
_cell_angle_gamma   90.00000000
_symmetry_Int_Tables_number   1
_chemical_formula_structural   LiH4SNO5
_chemical_formula_sum   'Li8 H32 S8 N8 O40'
_cell_volume   940.82710490
_cell_formula_units_Z   8
loop_
 _symmetry_equiv_pos_site_id
 _symmetry_equiv_pos_as_xyz
  1  'x, y, z'
loop_
 _atom_site_type_symbol
 _atom_site_label
 _atom_site_symmetry_multiplicity
 _atom_site_fract_x
 _atom_site_fract_y
 _atom_site_fract_z
 _atom_site_occupancy
  Li  Li0  1  0.91216555  0.74753982  0.23768564  1
  Li  Li1  1  0.08783445  0.75246018  0.73768564  1
  Li  Li2  1  0.58783445  0.24753982  0.76231436  1
  Li  Li3  1  0.41216555  0.25246018  0.26231436  1
  Li  Li4  1  0.08783445  0.25246018  0.76231436  1
  Li  Li5  1  0.91216555  0.24753982  0.26231436  1
  Li  Li6  1  0.41216555  0.75246018  0.23768564  1
  Li  Li7  1  0.58783445  0.74753982  0.73768564  1
  H  H8  1  0.82535436  0.97573347  0.09606677  1
  H  H9  1  0.17464564  0.52426653  0.59606677  1
  H  H10  1  0.67464564  0.47573347  0.90393323  1
  H  H11  1  0.32535436  0.02426653  0.40393323  1
  H  H12  1  0.17464564  0.02426653  0.90393323  1
  H  H13  1  0.82535436  0.47573347  0.40393323  1
  H  H14  1  0.32535436  0.52426653  0.09606677  1
  H  H15  1  0.67464564  0.97573347  0.59606677  1
  H  H16  1  0.65857865  0.12951380  0.06640573  1
  H  H17  1  0.34142135  0.37048620  0.56640573  1
  H  H18  1  0.84142135  0.62951380  0.93359427  1
  H  H19  1  0.15857865  0.87048620  0.43359427  1
  H  H20  1  0.34142135  0.87048620  0.93359427  1
  H  H21  1  0.65857865  0.62951380  0.43359427  1
  H  H22  1  0.15857865  0.37048620  0.06640573  1
  H  H23  1  0.84142135  0.12951380  0.56640573  1
  H  H24  1  0.77286872  0.99489820  0.00479783  1
  H  H25  1  0.22713128  0.50510180  0.50479783  1
  H  H26  1  0.72713128  0.49489820  0.99520217  1
  H  H27  1  0.27286872  0.00510180  0.49520217  1
  H  H28  1  0.22713128  0.00510180  0.99520217  1
  H  H29  1  0.77286872  0.49489820  0.49520217  1
  H  H30  1  0.27286872  0.50510180  0.00479783  1
  H  H31  1  0.72713128  0.99489820  0.50479783  1
  H  H32  1  0.48113553  0.89640133  0.10163921  1
  H  H33  1  0.51886447  0.60359867  0.60163921  1
  H  H34  1  0.01886447  0.39640133  0.89836079  1
  H  H35  1  0.98113553  0.10359867  0.39836079  1
  H  H36  1  0.51886447  0.10359867  0.89836079  1
  H  H37  1  0.48113553  0.39640133  0.39836079  1
  H  H38  1  0.98113553  0.60359867  0.10163921  1
  H  H39  1  0.01886447  0.89640133  0.60163921  1
  S  S40  1  0.65831959  0.94976813  0.34436824  1
  S  S41  1  0.34168041  0.55023187  0.84436824  1
  S  S42  1  0.84168041  0.44976813  0.65563176  1
  S  S43  1  0.15831959  0.05023187  0.15563176  1
  S  S44  1  0.34168041  0.05023187  0.65563176  1
  S  S45  1  0.65831959  0.44976813  0.15563176  1
  S  S46  1  0.15831959  0.55023187  0.34436824  1
  S  S47  1  0.84168041  0.94976813  0.84436824  1
  N  N48  1  0.71568469  0.00209235  0.05713901  1
  N  N49  1  0.28431531  0.49790765  0.55713901  1
  N  N50  1  0.78431531  0.50209235  0.94286099  1
  N  N51  1  0.21568469  0.99790765  0.44286099  1
  N  N52  1  0.28431531  0.99790765  0.94286099  1
  N  N53  1  0.71568469  0.50209235  0.44286099  1
  N  N54  1  0.21568469  0.49790765  0.05713901  1
  N  N55  1  0.78431531  0.00209235  0.55713901  1
  O  O56  1  0.83872919  0.56110129  0.16546206  1
  O  O57  1  0.16127081  0.93889871  0.66546206  1
  O  O58  1  0.66127081  0.06110129  0.83453794  1
  O  O59  1  0.33872919  0.43889871  0.33453794  1
  O  O60  1  0.16127081  0.43889871  0.83453794  1
  O  O61  1  0.83872919  0.06110129  0.33453794  1
  O  O62  1  0.33872919  0.93889871  0.16546206  1
  O  O63  1  0.66127081  0.56110129  0.66546206  1
  O  O64  1  0.97921361  0.94152973  0.16946971  1
  O  O65  1  0.02078639  0.55847027  0.66946971  1
  O  O66  1  0.52078639  0.44152973  0.83053029  1
  O  O67  1  0.47921361  0.05847027  0.33053029  1
  O  O68  1  0.02078639  0.05847027  0.83053029  1
  O  O69  1  0.97921361  0.44152973  0.33053029  1
  O  O70  1  0.47921361  0.55847027  0.16946971  1
  O  O71  1  0.52078639  0.94152973  0.66946971  1
  O  O72  1  0.66478739  0.80000271  0.29072272  1
  O  O73  1  0.33521261  0.69999729  0.79072272  1
  O  O74  1  0.83521261  0.30000271  0.70927728  1
  O  O75  1  0.16478739  0.19999729  0.20927728  1
  O  O76  1  0.33521261  0.19999729  0.70927728  1
  O  O77  1  0.66478739  0.30000271  0.20927728  1
  O  O78  1  0.16478739  0.69999729  0.29072272  1
  O  O79  1  0.83521261  0.80000271  0.79072272  1
  O  O80  1  0.65057053  0.87791417  0.41963422  1
  O  O81  1  0.34942947  0.62208583  0.91963422  1
  O  O82  1  0.84942947  0.37791417  0.58036578  1
  O  O83  1  0.15057053  0.12208583  0.08036578  1
  O  O84  1  0.34942947  0.12208583  0.58036578  1
  O  O85  1  0.65057053  0.37791417  0.08036578  1
  O  O86  1  0.15057053  0.62208583  0.41963422  1
  O  O87  1  0.84942947  0.87791417  0.91963422  1
  O  O88  1  0.57140106  0.86572410  0.05937218  1
  O  O89  1  0.42859894  0.63427590  0.55937218  1
  O  O90  1  0.92859894  0.36572410  0.94062782  1
  O  O91  1  0.07140106  0.13427590  0.44062782  1
  O  O92  1  0.42859894  0.13427590  0.94062782  1
  O  O93  1  0.57140106  0.36572410  0.44062782  1
  O  O94  1  0.07140106  0.63427590  0.05937218  1
  O  O95  1  0.92859894  0.86572410  0.55937218  1
