# generated using pymatgen
data_Dy9B5S21
_symmetry_space_group_name_H-M   'P 1'
_cell_length_a   11.19467741
_cell_length_b   11.19472360
_cell_length_c   11.19469848
_cell_angle_alpha   94.26508136
_cell_angle_beta   85.73538834
_cell_angle_gamma   85.73532907
_symmetry_Int_Tables_number   1
_chemical_formula_structural   Dy9B5S21
_chemical_formula_sum   'Dy18 B10 S42'
_cell_volume   1390.66582450
_cell_formula_units_Z   2
loop_
 _symmetry_equiv_pos_site_id
 _symmetry_equiv_pos_as_xyz
  1  'x, y, z'
loop_
 _atom_site_type_symbol
 _atom_site_label
 _atom_site_symmetry_multiplicity
 _atom_site_fract_x
 _atom_site_fract_y
 _atom_site_fract_z
 _atom_site_occupancy
  Dy  Dy0  1  0.90635845  0.24608105  0.48204948  1
  Dy  Dy1  1  0.58969897  0.56846206  0.79926921  1
  Dy  Dy2  1  0.22401669  0.91297782  0.13393187  1
  Dy  Dy3  1  0.20073122  0.41029883  0.56846366  1
  Dy  Dy4  1  0.86606839  0.77598297  0.91298062  1
  Dy  Dy5  1  0.51795088  0.09364074  0.24608484  1
  Dy  Dy6  1  0.08701849  0.13392917  0.77598894  1
  Dy  Dy7  1  0.75391740  0.48204482  0.09364524  1
  Dy  Dy8  1  0.43153897  0.79926643  0.41030341  1
  Dy  Dy9  1  0.72676292  0.12122684  0.88488763  1
  Dy  Dy10  1  0.39257865  0.46631610  0.24911143  1
  Dy  Dy11  1  0.04562453  0.80071846  0.56557489  1
  Dy  Dy12  1  0.43442341  0.95437736  0.80071534  1
  Dy  Dy13  1  0.11511114  0.27323826  0.12122540  1
  Dy  Dy14  1  0.75088685  0.60742387  0.46631227  1
  Dy  Dy15  1  0.53368473  0.24911749  0.60741973  1
  Dy  Dy16  1  0.19928030  0.56558028  0.95437229  1
  Dy  Dy17  1  0.87877309  0.88489027  0.27323360  1
  B  B18  1  0.75394028  0.90939718  0.57220072  1
  B  B19  1  0.42779626  0.24606111  0.90939244  1
  B  B20  1  0.09060413  0.57220552  0.24605714  1
  B  B21  1  0.58877523  0.74502640  0.07119817  1
  B  B22  1  0.25497116  0.07119484  0.41122911  1
  B  B23  1  0.92880392  0.41122440  0.74502993  1
  B  B24  1  0.19407073  0.80592893  0.80592907  1
  B  B25  1  0.86774094  0.13226059  0.13226011  1
  B  B26  1  0.69386892  0.30613144  0.30612981  1
  B  B27  1  0.36807613  0.63192702  0.63192323  1
  S  S28  1  0.97863877  0.67669119  0.35846426  1
  S  S29  1  0.64153402  0.02136246  0.67668967  1
  S  S30  1  0.32330932  0.35846660  0.02136015  1
  S  S31  1  0.47652565  0.85729384  0.17555826  1
  S  S32  1  0.14270277  0.17555951  0.52347637  1
  S  S33  1  0.82444204  0.52347542  0.85729718  1
  S  S34  1  0.61702655  0.80430951  0.91248427  1
  S  S35  1  0.27693466  0.13060867  0.25217637  1
  S  S36  1  0.95626556  0.46943431  0.58630045  1
  S  S37  1  0.74782131  0.72306229  0.13061555  1
  S  S38  1  0.41369905  0.04373593  0.46943946  1
  S  S39  1  0.08751839  0.38297362  0.80431081  1
  S  S40  1  0.53056669  0.58630035  0.04373889  1
  S  S41  1  0.19569239  0.91248074  0.38297691  1
  S  S42  1  0.86938839  0.25217449  0.72306564  1
  S  S43  1  0.81000611  0.76548161  0.64803105  1
  S  S44  1  0.48844176  0.10444458  0.98547638  1
  S  S45  1  0.14845253  0.42931419  0.31929446  1
  S  S46  1  0.68070470  0.85155101  0.42931110  1
  S  S47  1  0.35196668  0.18999643  0.76548126  1
  S  S48  1  0.01452090  0.51156012  0.10444328  1
  S  S49  1  0.89555639  0.98547883  0.51155723  1
  S  S50  1  0.57068560  0.31929411  0.85154673  1
  S  S51  1  0.23451727  0.64803322  0.18999296  1
  S  S52  1  0.30579494  0.78266513  0.91517649  1
  S  S53  1  0.97457338  0.11350954  0.24693870  1
  S  S54  1  0.66284161  0.44087345  0.59557786  1
  S  S55  1  0.75305853  0.02542579  0.11350669  1
  S  S56  1  0.40442127  0.33716001  0.44086891  1
  S  S57  1  0.08481917  0.69420263  0.78265875  1
  S  S58  1  0.55912731  0.59557547  0.33716084  1
  S  S59  1  0.21733809  0.91518025  0.69420276  1
  S  S60  1  0.88649258  0.24694109  0.02542396  1
  S  S61  1  0.92186348  0.97667771  0.81963744  1
  S  S62  1  0.59948003  0.31210282  0.17959866  1
  S  S63  1  0.26772964  0.64229474  0.51049333  1
  S  S64  1  0.48950928  0.73227173  0.64229591  1
  S  S65  1  0.18036735  0.07813470  0.97668157  1
  S  S66  1  0.82040227  0.40051850  0.31210524  1
  S  S67  1  0.68789690  0.17959536  0.40052196  1
  S  S68  1  0.35770573  0.51048733  0.73227591  1
  S  S69  1  0.02332212  0.81963648  0.07813269  1
