# generated using pymatgen
data_Er4MnS7
_symmetry_space_group_name_H-M   'P 1'
_cell_length_a   3.77573049
_cell_length_b   6.52459642
_cell_length_c   11.41289715
_cell_angle_alpha   103.79093906
_cell_angle_beta   89.99999995
_cell_angle_gamma   73.18119520
_symmetry_Int_Tables_number   1
_chemical_formula_structural   Er4MnS7
_chemical_formula_sum   'Er4 Mn1 S7'
_cell_volume   260.65247166
_cell_formula_units_Z   1
loop_
 _symmetry_equiv_pos_site_id
 _symmetry_equiv_pos_as_xyz
  1  'x, y, z'
loop_
 _atom_site_type_symbol
 _atom_site_label
 _atom_site_symmetry_multiplicity
 _atom_site_fract_x
 _atom_site_fract_y
 _atom_site_fract_z
 _atom_site_occupancy
  Er  Er0  1  0.69462770  0.61074460  0.20072382  1
  Er  Er1  1  0.30477049  0.39045903  0.80398145  1
  Er  Er2  1  0.11393126  0.77213748  0.56893119  1
  Er  Er3  1  0.00006192  0.99987615  0.00404349  1
  Mn  Mn4  1  0.88668197  0.22663605  0.42105919  1
  S  S5  1  0.03635690  0.92728621  0.22274512  1
  S  S6  1  0.96097773  0.07804455  0.78437290  1
  S  S7  1  0.33999282  0.32001436  0.05040664  1
  S  S8  1  0.65955255  0.68089491  0.94885193  1
  S  S9  1  0.74264072  0.51471855  0.64333376  1
  S  S10  1  0.26608492  0.46783016  0.35411330  1
  S  S11  1  0.49432102  0.01135795  0.49743724  1
