# generated using pymatgen
data_Er(MnAl)6
_symmetry_space_group_name_H-M   'P 1'
_cell_length_a   4.91996938
_cell_length_b   6.60985674
_cell_length_c   6.60985674
_cell_angle_alpha   99.21312512
_cell_angle_beta   111.84945604
_cell_angle_gamma   68.15054396
_symmetry_Int_Tables_number   1
_chemical_formula_structural   Er(MnAl)6
_chemical_formula_sum   'Er1 Mn6 Al6'
_cell_volume   185.12295788
_cell_formula_units_Z   1
loop_
 _symmetry_equiv_pos_site_id
 _symmetry_equiv_pos_as_xyz
  1  'x, y, z'
loop_
 _atom_site_type_symbol
 _atom_site_label
 _atom_site_symmetry_multiplicity
 _atom_site_fract_x
 _atom_site_fract_y
 _atom_site_fract_z
 _atom_site_occupancy
  Er  Er0  1  -0.00000000  -0.00000000  -0.00000000  1
  Mn  Mn1  1  0.50000000  -0.00000000  0.50000000  1
  Mn  Mn2  1  -0.00000000  -0.00000000  0.50000000  1
  Mn  Mn3  1  0.50000000  0.50000000  -0.00000000  1
  Mn  Mn4  1  -0.00000000  0.50000000  -0.00000000  1
  Mn  Mn5  1  0.50000000  0.76456244  0.76456244  1
  Mn  Mn6  1  0.50000000  0.23543756  0.23543756  1
  Al  Al7  1  0.65330364  0.34669636  0.65330364  1
  Al  Al8  1  0.34669636  0.65330364  0.34669636  1
  Al  Al9  1  -0.00000000  0.33779181  0.33779181  1
  Al  Al10  1  -0.00000000  0.66220819  0.66220819  1
  Al  Al11  1  0.69460198  0.80539802  0.19460198  1
  Al  Al12  1  0.30539802  0.19460198  0.80539802  1
