# generated using pymatgen
data_Dy18Mn(FeBi3)2
_symmetry_space_group_name_H-M   'P 1'
_cell_length_a   4.21028131
_cell_length_b   8.32662075
_cell_length_c   22.14531738
_cell_angle_alpha   79.16393819
_cell_angle_beta   90.00000000
_cell_angle_gamma   90.00000000
_symmetry_Int_Tables_number   1
_chemical_formula_structural   Dy18Mn(FeBi3)2
_chemical_formula_sum   'Dy18 Mn1 Fe2 Bi6'
_cell_volume   762.51445745
_cell_formula_units_Z   1
loop_
 _symmetry_equiv_pos_site_id
 _symmetry_equiv_pos_as_xyz
  1  'x, y, z'
loop_
 _atom_site_type_symbol
 _atom_site_label
 _atom_site_symmetry_multiplicity
 _atom_site_fract_x
 _atom_site_fract_y
 _atom_site_fract_z
 _atom_site_occupancy
  Dy  Dy0  1  0.00000000  0.23412025  1.00000000  1
  Dy  Dy1  1  0.00000000  0.56516962  0.33343875  1
  Dy  Dy2  1  0.00000000  0.89860937  0.66656125  1
  Dy  Dy3  1  -0.00000000  0.25619989  0.25597979  1
  Dy  Dy4  1  0.00000000  0.58985680  0.58934487  1
  Dy  Dy5  1  -0.00000000  0.92153870  0.92176887  1
  Dy  Dy6  1  0.00000000  0.84330656  0.07823113  1
  Dy  Dy7  1  0.00000000  0.17920267  0.41065513  1
  Dy  Dy8  1  -0.00000000  0.51217968  0.74402021  1
  Dy  Dy9  1  0.50000000  0.60258746  0.00000000  1
  Dy  Dy10  1  0.50000000  0.93574209  0.33335337  1
  Dy  Dy11  1  0.50000000  0.26909646  0.66664663  1
  Dy  Dy12  1  0.50000000  0.13240352  0.13256516  1
  Dy  Dy13  1  0.50000000  0.46589126  0.46620687  1
  Dy  Dy14  1  0.50000000  0.79943901  0.79958966  1
  Dy  Dy15  1  0.50000000  0.59902867  0.20041034  1
  Dy  Dy16  1  0.50000000  0.93209713  0.53379313  1
  Dy  Dy17  1  0.50000000  0.26496968  0.86743484  1
  Mn  Mn18  1  0.50000000  0.99990167  -0.00000000  1
  Fe  Fe19  1  0.50000000  0.33261712  0.33323955  1
  Fe  Fe20  1  0.50000000  0.66585767  0.66676045  1
  Bi  Bi21  1  -0.00000000  0.88922527  0.22235541  1
  Bi  Bi22  1  -0.00000000  0.22227478  0.55538306  1
  Bi  Bi23  1  0.00000000  0.55537357  0.88839902  1
  Bi  Bi24  1  0.00000000  0.44377259  0.11160098  1
  Bi  Bi25  1  0.00000000  0.77765683  0.44461694  1
  Bi  Bi26  1  -0.00000000  0.11158168  0.77764459  1
