# generated using pymatgen
data_Cu15Bi4(Se4I)4
_symmetry_space_group_name_H-M   'P 1'
_cell_length_a   4.08805290
_cell_length_b   9.68311289
_cell_length_c   23.06501958
_cell_angle_alpha   90.60391998
_cell_angle_beta   90.00000000
_cell_angle_gamma   90.00000000
_symmetry_Int_Tables_number   1
_chemical_formula_structural   Cu15Bi4(Se4I)4
_chemical_formula_sum   'Cu15 Bi4 Se16 I4'
_cell_volume   912.97987435
_cell_formula_units_Z   1
loop_
 _symmetry_equiv_pos_site_id
 _symmetry_equiv_pos_as_xyz
  1  'x, y, z'
loop_
 _atom_site_type_symbol
 _atom_site_label
 _atom_site_symmetry_multiplicity
 _atom_site_fract_x
 _atom_site_fract_y
 _atom_site_fract_z
 _atom_site_occupancy
  Cu  Cu0  1  0.75000000  0.36808361  0.29573421  1
  Cu  Cu1  1  0.75000000  0.86025589  0.20782990  1
  Cu  Cu2  1  0.25000000  0.63306619  0.70525828  1
  Cu  Cu3  1  0.25000000  0.14061431  0.79316781  1
  Cu  Cu4  1  0.75000000  0.47714392  0.73671238  1
  Cu  Cu5  1  0.75000000  0.97599075  0.76057746  1
  Cu  Cu6  1  0.25000000  0.52010032  0.26370135  1
  Cu  Cu7  1  0.25000000  0.02392645  0.24040083  1
  Cu  Cu8  1  0.75000000  0.35077661  0.90500954  1
  Cu  Cu9  1  0.75000000  0.84836891  0.59449393  1
  Cu  Cu10  1  0.25000000  0.65015493  0.09518846  1
  Cu  Cu11  1  0.25000000  0.15284984  0.40837968  1
  Cu  Cu12  1  0.75000000  0.96121431  0.03008138  1
  Cu  Cu13  1  0.25000000  0.53069308  0.52306640  1
  Cu  Cu14  1  0.25000000  0.03864331  0.97008039  1
  Bi  Bi15  1  0.75000000  0.28249035  0.12406209  1
  Bi  Bi16  1  0.75000000  0.77507584  0.37964494  1
  Bi  Bi17  1  0.25000000  0.71794190  0.87634298  1
  Bi  Bi18  1  0.25000000  0.22017377  0.62044572  1
  Se  Se19  1  0.75000000  0.45599397  0.57206052  1
  Se  Se20  1  0.75000000  0.95718334  0.92132123  1
  Se  Se21  1  0.25000000  0.55970119  0.42067042  1
  Se  Se22  1  0.25000000  0.04251984  0.07872773  1
  Se  Se23  1  0.75000000  0.03868109  0.65842896  1
  Se  Se24  1  0.75000000  0.53635683  0.84044304  1
  Se  Se25  1  0.25000000  0.96414136  0.34217848  1
  Se  Se26  1  0.25000000  0.46400600  0.15955516  1
  Se  Se27  1  0.75000000  0.16671611  0.23138968  1
  Se  Se28  1  0.75000000  0.65915805  0.27000778  1
  Se  Se29  1  0.25000000  0.83441852  0.76912628  1
  Se  Se30  1  0.25000000  0.33789046  0.72994137  1
  Se  Se31  1  0.75000000  0.14167188  0.84491502  1
  Se  Se32  1  0.75000000  0.63402080  0.65112176  1
  Se  Se33  1  0.25000000  0.85879401  0.15575358  1
  Se  Se34  1  0.25000000  0.36652062  0.35075280  1
  I  I35  1  0.75000000  0.17988123  0.47917898  1
  I  I36  1  0.75000000  0.68391835  0.02459789  1
  I  I37  1  0.25000000  0.81241198  0.52472756  1
  I  I38  1  0.25000000  0.31585006  0.97513400  1
