# generated using pymatgen
data_CeY4S7
_symmetry_space_group_name_H-M   'P 1'
_cell_length_a   3.81935784
_cell_length_b   6.80450894
_cell_length_c   11.70066497
_cell_angle_alpha   103.94448217
_cell_angle_beta   90.00000000
_cell_angle_gamma   73.70104996
_symmetry_Int_Tables_number   1
_chemical_formula_structural   CeY4S7
_chemical_formula_sum   'Ce1 Y4 S7'
_cell_volume   282.51683207
_cell_formula_units_Z   1
loop_
 _symmetry_equiv_pos_site_id
 _symmetry_equiv_pos_as_xyz
  1  'x, y, z'
loop_
 _atom_site_type_symbol
 _atom_site_label
 _atom_site_symmetry_multiplicity
 _atom_site_fract_x
 _atom_site_fract_y
 _atom_site_fract_z
 _atom_site_occupancy
  Ce  Ce0  1  0.88832572  0.22334856  0.41947967  1
  Y  Y1  1  0.70014861  0.59970278  0.18665546  1
  Y  Y2  1  0.30029849  0.39940302  0.81238836  1
  Y  Y3  1  0.11279238  0.77441524  0.58240296  1
  Y  Y4  1  -0.00000333  0.00000667  0.99831098  1
  S  S5  1  0.04517309  0.90965382  0.21019438  1
  S  S6  1  0.95670783  0.08658434  0.78535656  1
  S  S7  1  0.73896772  0.52206457  0.65166832  1
  S  S8  1  0.25256257  0.49487486  0.35080112  1
  S  S9  1  0.34215159  0.31569682  0.05179839  1
  S  S10  1  0.65906262  0.68187477  0.94780592  1
  S  S11  1  0.50381272  0.99237455  0.50313788  1
