# generated using pymatgen
data_Ce4ZrO10
_symmetry_space_group_name_H-M   'P 1'
_cell_length_a   3.81529284
_cell_length_b   13.81323083
_cell_length_c   3.81529284
_cell_angle_alpha   97.93808067
_cell_angle_beta   90.00000000
_cell_angle_gamma   97.93808067
_symmetry_Int_Tables_number   1
_chemical_formula_structural   Ce4ZrO10
_chemical_formula_sum   'Ce4 Zr1 O10'
_cell_volume   197.19953007
_cell_formula_units_Z   1
loop_
 _symmetry_equiv_pos_site_id
 _symmetry_equiv_pos_as_xyz
  1  'x, y, z'
loop_
 _atom_site_type_symbol
 _atom_site_label
 _atom_site_symmetry_multiplicity
 _atom_site_fract_x
 _atom_site_fract_y
 _atom_site_fract_z
 _atom_site_occupancy
  Ce  Ce0  1  0.59732707  0.19465415  0.59732707  1
  Ce  Ce1  1  0.19908301  0.39816602  0.19908301  1
  Ce  Ce2  1  0.80091699  0.60183398  0.80091699  1
  Ce  Ce3  1  0.40267293  0.80534585  0.40267293  1
  Zr  Zr4  1  0.00000000  0.00000000  0.00000000  1
  O  O5  1  0.95367864  0.90735728  0.45367864  1
  O  O6  1  0.75000000  0.50000000  0.25000000  1
  O  O7  1  0.35186183  0.70372366  0.85186183  1
  O  O8  1  0.54632136  0.09264272  0.04632136  1
  O  O9  1  0.14813817  0.29627634  0.64813817  1
  O  O10  1  0.04632136  0.09264272  0.54632136  1
  O  O11  1  0.85186183  0.70372366  0.35186183  1
  O  O12  1  0.45367864  0.90735728  0.95367864  1
  O  O13  1  0.64813817  0.29627634  0.14813817  1
  O  O14  1  0.25000000  0.50000000  0.75000000  1
