# generated using pymatgen
data_CsTi2(OF)3
_symmetry_space_group_name_H-M   'P 1'
_cell_length_a   7.39449308
_cell_length_b   7.23415089
_cell_length_c   7.23415089
_cell_angle_alpha   89.06049238
_cell_angle_beta   61.24028682
_cell_angle_gamma   118.75971318
_symmetry_Int_Tables_number   1
_chemical_formula_structural   CsTi2(OF)3
_chemical_formula_sum   'Cs2 Ti4 O6 F6'
_cell_volume   281.49733204
_cell_formula_units_Z   2
loop_
 _symmetry_equiv_pos_site_id
 _symmetry_equiv_pos_as_xyz
  1  'x, y, z'
loop_
 _atom_site_type_symbol
 _atom_site_label
 _atom_site_symmetry_multiplicity
 _atom_site_fract_x
 _atom_site_fract_y
 _atom_site_fract_z
 _atom_site_occupancy
  Cs  Cs0  1  0.75000000  0.37500000  0.37500000  1
  Cs  Cs1  1  0.25000000  0.62500000  0.62500000  1
  Ti  Ti2  1  0.48600323  0.48874305  0.01988027  1
  Ti  Ti3  1  0.48600323  0.99726018  0.99411650  1
  Ti  Ti4  1  0.01399677  0.01988027  0.48874305  1
  Ti  Ti5  1  0.01399677  0.99411650  0.99726018  1
  O  O6  1  0.89571877  0.94785938  0.30214062  1
  O  O7  1  0.60428123  0.30214062  0.94785938  1
  O  O8  1  0.25000000  0.93603027  0.93603027  1
  O  O9  1  0.25000000  0.31396973  0.31396973  1
  O  O10  1  0.09077430  0.04538715  0.70461285  1
  O  O11  1  0.40922570  0.70461285  0.04538715  1
  F  F12  1  0.25000000  0.32344987  0.92655013  1
  F  F13  1  0.25000000  0.92655013  0.32344987  1
  F  F14  1  0.75000000  0.06891023  0.06891023  1
  F  F15  1  0.75000000  0.68108977  0.68108977  1
  F  F16  1  0.75000000  0.67498408  0.07501592  1
  F  F17  1  0.75000000  0.07501592  0.67498408  1
