# generated using pymatgen
data_Co2Ni2Te5
_symmetry_space_group_name_H-M   'P 1'
_cell_length_a   6.63095894
_cell_length_b   6.63777056
_cell_length_c   9.43766474
_cell_angle_alpha   77.85182829
_cell_angle_beta   77.81577743
_cell_angle_gamma   61.41310810
_symmetry_Int_Tables_number   1
_chemical_formula_structural   Co2Ni2Te5
_chemical_formula_sum   'Co4 Ni4 Te10'
_cell_volume   353.62947405
_cell_formula_units_Z   2
loop_
 _symmetry_equiv_pos_site_id
 _symmetry_equiv_pos_as_xyz
  1  'x, y, z'
loop_
 _atom_site_type_symbol
 _atom_site_label
 _atom_site_symmetry_multiplicity
 _atom_site_fract_x
 _atom_site_fract_y
 _atom_site_fract_z
 _atom_site_occupancy
  Co  Co0  1  0.59693628  0.60390441  0.29387931  1
  Co  Co1  1  0.00805496  0.99989573  0.49882189  1
  Co  Co2  1  0.39194504  0.40010427  0.70117811  1
  Co  Co3  1  0.80306372  0.79609559  0.90612069  1
  Ni  Ni4  1  0.00464923  0.01389475  0.99714098  1
  Ni  Ni5  1  0.39535077  0.38610525  0.20285902  1
  Ni  Ni6  1  0.79388181  0.80143769  0.40684839  1
  Ni  Ni7  1  0.60611819  0.59856231  0.79315161  1
  Te  Te8  1  0.76127471  0.42612923  0.54598616  1
  Te  Te9  1  0.16266483  0.82863331  0.74681399  1
  Te  Te10  1  0.56587512  0.22954165  0.94967366  1
  Te  Te11  1  0.96432144  0.63739759  0.15236212  1
  Te  Te12  1  0.36503471  0.02613786  0.35181599  1
  Te  Te13  1  0.23733517  0.57136669  0.45318601  1
  Te  Te14  1  0.63872529  0.97387077  0.65401384  1
  Te  Te15  1  0.03496529  0.37386214  0.84818401  1
  Te  Te16  1  0.43567856  0.76260241  0.04763788  1
  Te  Te17  1  0.83412488  0.17045835  0.25032634  1
