# generated using pymatgen
data_Cd5Te4S
_symmetry_space_group_name_H-M   'P 1'
_cell_length_a   4.59673393
_cell_length_b   4.59673393
_cell_length_c   18.91932626
_cell_angle_alpha   96.97766932
_cell_angle_beta   83.02233068
_cell_angle_gamma   120.00000000
_symmetry_Int_Tables_number   1
_chemical_formula_structural   Cd5Te4S
_chemical_formula_sum   'Cd5 Te4 S1'
_cell_volume   342.78321947
_cell_formula_units_Z   1
loop_
 _symmetry_equiv_pos_site_id
 _symmetry_equiv_pos_as_xyz
  1  'x, y, z'
loop_
 _atom_site_type_symbol
 _atom_site_label
 _atom_site_symmetry_multiplicity
 _atom_site_fract_x
 _atom_site_fract_y
 _atom_site_fract_z
 _atom_site_occupancy
  Cd  Cd0  1  0.99501845  0.00498155  0.01494465  1
  Cd  Cd1  1  0.60492201  0.39507799  0.18523398  1
  Cd  Cd2  1  0.20233668  0.79766332  0.39298997  1
  Cd  Cd3  1  0.79993507  0.20006493  0.60019480  1
  Cd  Cd4  1  0.39747112  0.60252888  0.80758663  1
  Te  Te5  1  0.55381343  0.44618657  0.33855970  1
  Te  Te6  1  0.15139378  0.84860622  0.54581865  1
  Te  Te7  1  0.74905606  0.25094394  0.75283183  1
  Te  Te8  1  0.34669418  0.65330582  0.95991747  1
  S  S9  1  0.94935923  0.05064077  0.15192231  1
