# generated using pymatgen
data_Cs2CuBrCl3
_symmetry_space_group_name_H-M   'P 1'
_cell_length_a   5.14405225
_cell_length_b   5.14405225
_cell_length_c   17.00920436
_cell_angle_alpha   90.00000000
_cell_angle_beta   90.00000000
_cell_angle_gamma   90.00000000
_symmetry_Int_Tables_number   1
_chemical_formula_structural   Cs2CuBrCl3
_chemical_formula_sum   'Cs4 Cu2 Br2 Cl6'
_cell_volume   450.08520945
_cell_formula_units_Z   2
loop_
 _symmetry_equiv_pos_site_id
 _symmetry_equiv_pos_as_xyz
  1  'x, y, z'
loop_
 _atom_site_type_symbol
 _atom_site_label
 _atom_site_symmetry_multiplicity
 _atom_site_fract_x
 _atom_site_fract_y
 _atom_site_fract_z
 _atom_site_occupancy
  Cs  Cs0  1  0.50000000  0.50000000  0.13688686  1
  Cs  Cs1  1  -0.00000000  0.00000000  0.63688686  1
  Cs  Cs2  1  -0.00000000  -0.00000000  0.36431301  1
  Cs  Cs3  1  0.50000000  0.50000000  0.86431301  1
  Cu  Cu4  1  0.00000000  -0.00000000  0.99658290  1
  Cu  Cu5  1  0.50000000  0.50000000  0.49658290  1
  Br  Br6  1  -0.00000000  0.00000000  0.14496901  1
  Br  Br7  1  0.50000000  0.50000000  0.64496901  1
  Cl  Cl8  1  -0.00000000  0.50000000  0.99905171  1
  Cl  Cl9  1  0.50000000  -0.00000000  0.49905171  1
  Cl  Cl10  1  0.50000000  -0.00000000  0.99905171  1
  Cl  Cl11  1  -0.00000000  0.50000000  0.49905171  1
  Cl  Cl12  1  0.50000000  0.50000000  0.35914481  1
  Cl  Cl13  1  -0.00000000  -0.00000000  0.85914481  1
