# generated using pymatgen
data_PuH24C8N2(Cl2O)2
_symmetry_space_group_name_H-M   'P 1'
_cell_length_a   9.62034728
_cell_length_b   9.62034728
_cell_length_c   12.29437284
_cell_angle_alpha   90.00000000
_cell_angle_beta   90.00000000
_cell_angle_gamma   90.00000000
_symmetry_Int_Tables_number   1
_chemical_formula_structural   PuH24C8N2(Cl2O)2
_chemical_formula_sum   'Pu2 H48 C16 N4 Cl8 O4'
_cell_volume   1137.85750624
_cell_formula_units_Z   2
loop_
 _symmetry_equiv_pos_site_id
 _symmetry_equiv_pos_as_xyz
  1  'x, y, z'
loop_
 _atom_site_type_symbol
 _atom_site_label
 _atom_site_symmetry_multiplicity
 _atom_site_fract_x
 _atom_site_fract_y
 _atom_site_fract_z
 _atom_site_occupancy
  Pu  Pu0  1  0.50000000  0.50000000  0.50000000  1
  Pu  Pu1  1  -0.00000000  0.00000000  -0.00000000  1
  H  H2  1  0.47512781  0.15320573  0.12867075  1
  H  H3  1  0.52487219  0.84679427  0.12867075  1
  H  H4  1  0.02487219  0.65320573  0.62867075  1
  H  H5  1  0.97512781  0.34679427  0.62867075  1
  H  H6  1  0.52487219  0.84679427  0.87132925  1
  H  H7  1  0.47512781  0.15320573  0.87132925  1
  H  H8  1  0.97512781  0.34679427  0.37132925  1
  H  H9  1  0.02487219  0.65320573  0.37132925  1
  H  H10  1  0.15320573  0.47512781  0.12867075  1
  H  H11  1  0.84679427  0.52487219  0.12867075  1
  H  H12  1  0.65320573  0.02487219  0.62867075  1
  H  H13  1  0.34679427  0.97512781  0.62867075  1
  H  H14  1  0.84679427  0.52487219  0.87132925  1
  H  H15  1  0.15320573  0.47512781  0.87132925  1
  H  H16  1  0.34679427  0.97512781  0.37132925  1
  H  H17  1  0.65320573  0.02487219  0.37132925  1
  H  H18  1  0.60008018  0.19410504  0.23251200  1
  H  H19  1  0.39991982  0.80589496  0.23251200  1
  H  H20  1  0.89991982  0.69410504  0.73251200  1
  H  H21  1  0.10008018  0.30589496  0.73251200  1
  H  H22  1  0.39991982  0.80589496  0.76748800  1
  H  H23  1  0.60008018  0.19410504  0.76748800  1
  H  H24  1  0.10008018  0.30589496  0.26748800  1
  H  H25  1  0.89991982  0.69410504  0.26748800  1
  H  H26  1  0.19410504  0.60008018  0.23251200  1
  H  H27  1  0.80589496  0.39991982  0.23251200  1
  H  H28  1  0.69410504  0.89991982  0.73251200  1
  H  H29  1  0.30589496  0.10008018  0.73251200  1
  H  H30  1  0.80589496  0.39991982  0.76748800  1
  H  H31  1  0.19410504  0.60008018  0.76748800  1
  H  H32  1  0.30589496  0.10008018  0.26748800  1
  H  H33  1  0.69410504  0.89991982  0.26748800  1
  H  H34  1  0.64225099  0.06782899  0.12935465  1
  H  H35  1  0.35774901  0.93217101  0.12935465  1
  H  H36  1  0.85774901  0.56782899  0.62935465  1
  H  H37  1  0.14225099  0.43217101  0.62935465  1
  H  H38  1  0.35774901  0.93217101  0.87064535  1
  H  H39  1  0.64225099  0.06782899  0.87064535  1
  H  H40  1  0.14225099  0.43217101  0.37064535  1
  H  H41  1  0.85774901  0.56782899  0.37064535  1
  H  H42  1  0.06782899  0.64225099  0.12935465  1
  H  H43  1  0.93217101  0.35774901  0.12935465  1
  H  H44  1  0.56782899  0.85774901  0.62935465  1
  H  H45  1  0.43217101  0.14225099  0.62935465  1
  H  H46  1  0.93217101  0.35774901  0.87064535  1
  H  H47  1  0.06782899  0.64225099  0.87064535  1
  H  H48  1  0.43217101  0.14225099  0.37064535  1
  H  H49  1  0.56782899  0.85774901  0.37064535  1
  C  C50  1  0.55942472  0.11267418  0.17929029  1
  C  C51  1  0.44057528  0.88732582  0.17929029  1
  C  C52  1  0.94057528  0.61267418  0.67929029  1
  C  C53  1  0.05942472  0.38732582  0.67929029  1
  C  C54  1  0.44057528  0.88732582  0.82070971  1
  C  C55  1  0.55942472  0.11267418  0.82070971  1
  C  C56  1  0.05942472  0.38732582  0.32070971  1
  C  C57  1  0.94057528  0.61267418  0.32070971  1
  C  C58  1  0.11267418  0.55942472  0.17929029  1
  C  C59  1  0.88732582  0.44057528  0.17929029  1
  C  C60  1  0.61267418  0.94057528  0.67929029  1
  C  C61  1  0.38732582  0.05942472  0.67929029  1
  C  C62  1  0.88732582  0.44057528  0.82070971  1
  C  C63  1  0.11267418  0.55942472  0.82070971  1
  C  C64  1  0.38732582  0.05942472  0.32070971  1
  C  C65  1  0.61267418  0.94057528  0.32070971  1
  N  N66  1  0.50000000  0.00000000  0.25000000  1
  N  N67  1  -0.00000000  0.50000000  0.75000000  1
  N  N68  1  0.50000000  0.00000000  0.75000000  1
  N  N69  1  -0.00000000  0.50000000  0.25000000  1
  Cl  Cl70  1  0.50000000  0.50000000  0.28526156  1
  Cl  Cl71  1  -0.00000000  0.00000000  0.78526156  1
  Cl  Cl72  1  0.50000000  0.50000000  0.71473844  1
  Cl  Cl73  1  -0.00000000  0.00000000  0.21473844  1
  Cl  Cl74  1  0.69650450  0.30349550  0.50000000  1
  Cl  Cl75  1  0.30349550  0.69650450  0.50000000  1
  Cl  Cl76  1  0.80349550  0.80349550  -0.00000000  1
  Cl  Cl77  1  0.19650450  0.19650450  -0.00000000  1
  O  O78  1  0.36814154  0.36814154  0.50000000  1
  O  O79  1  0.63185846  0.63185846  0.50000000  1
  O  O80  1  0.13185846  0.86814154  0.00000000  1
  O  O81  1  0.86814154  0.13185846  0.00000000  1
