# generated using pymatgen
data_Co3Cu3(TeO6)2
_symmetry_space_group_name_H-M   'P 1'
_cell_length_a   8.40660976
_cell_length_b   8.40660976
_cell_length_c   8.40660976
_cell_angle_alpha   70.52877937
_cell_angle_beta   70.52877937
_cell_angle_gamma   109.47122063
_symmetry_Int_Tables_number   1
_chemical_formula_structural   Co3Cu3(TeO6)2
_chemical_formula_sum   'Co6 Cu6 Te4 O24'
_cell_volume   457.34166952
_cell_formula_units_Z   2
loop_
 _symmetry_equiv_pos_site_id
 _symmetry_equiv_pos_as_xyz
  1  'x, y, z'
loop_
 _atom_site_type_symbol
 _atom_site_label
 _atom_site_symmetry_multiplicity
 _atom_site_fract_x
 _atom_site_fract_y
 _atom_site_fract_z
 _atom_site_occupancy
  Co  Co0  1  0.53671815  0.75000000  0.71328185  1
  Co  Co1  1  0.96328185  0.25000000  0.78671815  1
  Co  Co2  1  0.21328185  0.46328185  0.25000000  1
  Co  Co3  1  0.28671815  0.03671815  0.75000000  1
  Co  Co4  1  0.25000000  0.78671815  0.46328185  1
  Co  Co5  1  0.75000000  0.71328185  0.03671815  1
  Cu  Cu6  1  0.47055599  0.25000000  0.27944401  1
  Cu  Cu7  1  0.02944401  0.75000000  0.22055599  1
  Cu  Cu8  1  0.77944401  0.52944401  0.75000000  1
  Cu  Cu9  1  0.72055599  0.97055599  0.25000000  1
  Cu  Cu10  1  0.75000000  0.22055599  0.52944401  1
  Cu  Cu11  1  0.25000000  0.27944401  0.97055599  1
  Te  Te12  1  0.50000000  0.00634205  0.00000000  1
  Te  Te13  1  0.99365795  0.49365795  0.00634205  1
  Te  Te14  1  0.50634205  0.50000000  0.50000000  1
  Te  Te15  1  -0.00000000  0.00000000  0.49365795  1
  O  O16  1  0.70487071  0.94435943  0.01692831  1
  O  O17  1  0.03871226  0.55564057  0.73948872  1
  O  O18  1  0.46128774  0.72179902  0.48307169  1
  O  O19  1  0.79512929  0.77820098  0.76051128  1
  O  O20  1  0.23948872  0.29512929  0.72179902  1
  O  O21  1  0.51692831  0.96128774  0.77820098  1
  O  O22  1  0.26051128  0.53871226  0.94435943  1
  O  O23  1  0.98307169  0.20487071  0.55564057  1
  O  O24  1  0.05564057  0.76051128  0.96128774  1
  O  O25  1  0.44435943  0.48307169  0.29512929  1
  O  O26  1  0.27820098  0.73948872  0.20487071  1
  O  O27  1  0.22179902  0.01692831  0.53871226  1
  O  O28  1  0.29738527  0.06633875  0.98089682  1
  O  O29  1  0.95276443  0.43366125  0.26895348  1
  O  O30  1  0.54723557  0.27828209  0.51910318  1
  O  O31  1  0.20261473  0.22171791  0.23104652  1
  O  O32  1  0.76895348  0.70261473  0.27828209  1
  O  O33  1  0.48089682  0.04723557  0.22171791  1
  O  O34  1  0.73104652  0.45276443  0.06633875  1
  O  O35  1  0.01910318  0.79738527  0.43366125  1
  O  O36  1  0.93366125  0.23104652  0.04723557  1
  O  O37  1  0.56633875  0.51910318  0.70261473  1
  O  O38  1  0.72171791  0.26895348  0.79738527  1
  O  O39  1  0.77828209  0.98089682  0.45276443  1
