# generated using pymatgen
data_CdBiBrO2
_symmetry_space_group_name_H-M   'P 1'
_cell_length_a   3.97330937
_cell_length_b   3.97330937
_cell_length_c   6.93676989
_cell_angle_alpha   73.35776073
_cell_angle_beta   73.35776073
_cell_angle_gamma   90.00000000
_symmetry_Int_Tables_number   1
_chemical_formula_structural   CdBiBrO2
_chemical_formula_sum   'Cd1 Bi1 Br1 O2'
_cell_volume   100.12759315
_cell_formula_units_Z   1
loop_
 _symmetry_equiv_pos_site_id
 _symmetry_equiv_pos_as_xyz
  1  'x, y, z'
loop_
 _atom_site_type_symbol
 _atom_site_label
 _atom_site_symmetry_multiplicity
 _atom_site_fract_x
 _atom_site_fract_y
 _atom_site_fract_z
 _atom_site_occupancy
  Cd  Cd0  1  0.15904806  0.15904806  0.68190387  1
  Bi  Bi1  1  0.83314239  0.83314239  0.33371521  1
  Br  Br2  1  0.51104403  0.51104403  0.97791194  1
  O  O3  1  0.74838276  0.24838276  0.50323449  1
  O  O4  1  0.24838276  0.74838276  0.50323449  1
