# generated using pymatgen
data_Cr4(SeS)3
_symmetry_space_group_name_H-M   'P 1'
_cell_length_a   6.14582060
_cell_length_b   6.14582012
_cell_length_c   6.59350796
_cell_angle_alpha   62.22174172
_cell_angle_beta   117.77825450
_cell_angle_gamma   120.00000325
_symmetry_Int_Tables_number   1
_chemical_formula_structural   Cr4(SeS)3
_chemical_formula_sum   'Cr4 Se3 S3'
_cell_volume   181.78454127
_cell_formula_units_Z   1
loop_
 _symmetry_equiv_pos_site_id
 _symmetry_equiv_pos_as_xyz
  1  'x, y, z'
loop_
 _atom_site_type_symbol
 _atom_site_label
 _atom_site_symmetry_multiplicity
 _atom_site_fract_x
 _atom_site_fract_y
 _atom_site_fract_z
 _atom_site_occupancy
  Cr  Cr0  1  0.00598122  0.99401878  0.01794365  1
  Cr  Cr1  1  0.49105646  0.50894354  0.47316937  1
  Cr  Cr2  1  0.67541496  0.32458504  0.02624487  1
  Cr  Cr3  1  0.33626861  0.66373139  0.00880583  1
  Se  Se4  1  0.58829490  0.74943678  0.75155960  1
  Se  Se5  1  0.91270148  0.41170510  0.75155960  1
  Se  Se6  1  0.25056322  0.08729852  0.75155960  1
  S  S7  1  0.40894688  0.26396369  0.23971916  1
  S  S8  1  0.09473597  0.59105312  0.23971916  1
  S  S9  1  0.73603631  0.90526403  0.23971916  1
