# generated using pymatgen
data_Ce2Si3Ni
_symmetry_space_group_name_H-M   'P 1'
_cell_length_a   4.07493313
_cell_length_b   4.07493808
_cell_length_c   8.01556822
_cell_angle_alpha   90.00000000
_cell_angle_beta   90.00000000
_cell_angle_gamma   119.99647640
_symmetry_Int_Tables_number   1
_chemical_formula_structural   Ce2Si3Ni
_chemical_formula_sum   'Ce2 Si3 Ni1'
_cell_volume   115.27147901
_cell_formula_units_Z   1
loop_
 _symmetry_equiv_pos_site_id
 _symmetry_equiv_pos_as_xyz
  1  'x, y, z'
loop_
 _atom_site_type_symbol
 _atom_site_label
 _atom_site_symmetry_multiplicity
 _atom_site_fract_x
 _atom_site_fract_y
 _atom_site_fract_z
 _atom_site_occupancy
  Ce  Ce0  1  0.99996604  0.99999127  0.00717768  1
  Ce  Ce1  1  0.99996604  0.99999127  0.49282232  1
  Si  Si2  1  0.33328500  0.66668139  0.75000000  1
  Si  Si3  1  0.66664688  0.33333475  0.25000000  1
  Si  Si4  1  0.66664706  0.33332313  0.75000000  1
  Ni  Ni5  1  0.33328898  0.66667819  0.25000000  1
