# generated using pymatgen
data_Ca4Al6WO16
_symmetry_space_group_name_H-M   'P 1'
_cell_length_a   8.13566562
_cell_length_b   8.13566562
_cell_length_c   8.13566562
_cell_angle_alpha   69.68760936
_cell_angle_beta   72.19832967
_cell_angle_gamma   110.31239064
_symmetry_Int_Tables_number   1
_chemical_formula_structural   Ca4Al6WO16
_chemical_formula_sum   'Ca4 Al6 W1 O16'
_cell_volume   414.26831573
_cell_formula_units_Z   1
loop_
 _symmetry_equiv_pos_site_id
 _symmetry_equiv_pos_as_xyz
  1  'x, y, z'
loop_
 _atom_site_type_symbol
 _atom_site_label
 _atom_site_symmetry_multiplicity
 _atom_site_fract_x
 _atom_site_fract_y
 _atom_site_fract_z
 _atom_site_occupancy
  Ca  Ca0  1  0.55026519  0.53840965  0.48478247  1
  Ca  Ca1  1  0.48478247  0.03504766  0.97680788  1
  Ca  Ca2  1  0.97680788  0.46159035  0.98814446  1
  Ca  Ca3  1  0.98814446  0.96495234  0.55026519  1
  Al  Al4  1  0.25406263  0.75858521  0.48231540  1
  Al  Al5  1  0.75000000  0.50000000  0.75000000  1
  Al  Al6  1  0.50452258  0.26362198  0.25406263  1
  Al  Al7  1  0.25000000  0.50000000  0.25000000  1
  Al  Al8  1  0.75909940  0.24141479  0.50452258  1
  Al  Al9  1  0.48231540  0.73637802  0.75909940  1
  W  W10  1  -0.00000000  0.00000000  -0.00000000  1
  O  O11  1  0.69679413  0.37018536  0.62454597  1
  O  O12  1  0.40477897  0.40967620  0.31277551  1
  O  O13  1  0.38155561  0.68602137  0.60638953  1
  O  O14  1  0.31277551  0.71755447  0.27754829  1
  O  O15  1  0.62454597  0.32134009  0.00526867  1
  O  O16  1  0.60638953  0.98794514  0.70758910  1
  O  O17  1  0.00526867  0.62981464  0.67339124  1
  O  O18  1  0.27754829  0.59032380  0.00489724  1
  O  O19  1  0.70758910  0.31397863  0.30446576  1
  O  O20  1  0.00489724  0.28244553  0.40477897  1
  O  O21  1  0.67339124  0.67865991  0.69679413  1
  O  O22  1  0.30446576  0.01205486  0.38155561  1
  O  O23  1  0.27022478  0.15807837  0.88959161  1
  O  O24  1  0.88959161  0.15981639  0.95233002  1
  O  O25  1  0.95233002  0.84192163  0.88785359  1
  O  O26  1  0.88785359  0.84018361  0.27022478  1
