# generated using pymatgen
data_Ca3NdMn2O8
_symmetry_space_group_name_H-M   'P 1'
_cell_length_a   3.85801482
_cell_length_b   3.85801482
_cell_length_c   11.88157233
_cell_angle_alpha   90.00000000
_cell_angle_beta   90.00000000
_cell_angle_gamma   90.01556106
_symmetry_Int_Tables_number   1
_chemical_formula_structural   Ca3NdMn2O8
_chemical_formula_sum   'Ca3 Nd1 Mn2 O8'
_cell_volume   176.84862316
_cell_formula_units_Z   1
loop_
 _symmetry_equiv_pos_site_id
 _symmetry_equiv_pos_as_xyz
  1  'x, y, z'
loop_
 _atom_site_type_symbol
 _atom_site_label
 _atom_site_symmetry_multiplicity
 _atom_site_fract_x
 _atom_site_fract_y
 _atom_site_fract_z
 _atom_site_occupancy
  Ca  Ca0  1  0.50000000  0.50000000  0.85889063  1
  Ca  Ca1  1  0.50000000  0.50000000  0.13490245  1
  Ca  Ca2  1  -0.00000000  0.00000000  0.65011005  1
  Nd  Nd3  1  -0.00000000  0.00000000  0.35732456  1
  Mn  Mn4  1  -0.00000000  0.00000000  0.99788023  1
  Mn  Mn5  1  0.50000000  0.50000000  0.50555281  1
  O  O6  1  0.00000000  0.50000000  0.00126225  1
  O  O7  1  0.50000000  0.00000000  0.49547600  1
  O  O8  1  0.50000000  -0.00000000  0.00126225  1
  O  O9  1  -0.00000000  0.50000000  0.49547600  1
  O  O10  1  0.50000000  0.50000000  0.33247670  1
  O  O11  1  -0.00000000  0.00000000  0.83463608  1
  O  O12  1  -0.00000000  0.00000000  0.16830426  1
  O  O13  1  0.50000000  0.50000000  0.66644575  1
