# generated using pymatgen
data_CeThUS5
_symmetry_space_group_name_H-M   'P 1'
_cell_length_a   7.43497416
_cell_length_b   8.03452420
_cell_length_c   11.91177994
_cell_angle_alpha   90.00000000
_cell_angle_beta   90.00000000
_cell_angle_gamma   90.00000000
_symmetry_Int_Tables_number   1
_chemical_formula_structural   CeThUS5
_chemical_formula_sum   'Ce4 Th4 U4 S20'
_cell_volume   711.56780195
_cell_formula_units_Z   4
loop_
 _symmetry_equiv_pos_site_id
 _symmetry_equiv_pos_as_xyz
  1  'x, y, z'
loop_
 _atom_site_type_symbol
 _atom_site_label
 _atom_site_symmetry_multiplicity
 _atom_site_fract_x
 _atom_site_fract_y
 _atom_site_fract_z
 _atom_site_occupancy
  Ce  Ce0  1  0.96908681  0.99916057  0.17776421  1
  Ce  Ce1  1  0.03091319  0.49916057  0.82223579  1
  Ce  Ce2  1  0.46908681  0.49916057  0.32223579  1
  Ce  Ce3  1  0.53091319  0.99916057  0.67776421  1
  Th  Th4  1  0.52533926  0.50079550  0.67860779  1
  Th  Th5  1  0.47466074  0.00079550  0.32139221  1
  Th  Th6  1  0.02533926  0.00079550  0.82139221  1
  Th  Th7  1  0.97466074  0.50079550  0.17860779  1
  U  U8  1  0.42872673  0.74992028  0.00575452  1
  U  U9  1  0.07127327  0.74992028  0.50575452  1
  U  U10  1  0.57127327  0.24992028  0.99424548  1
  U  U11  1  0.92872673  0.24992028  0.49424548  1
  S  S12  1  0.04058977  0.75065818  0.00023657  1
  S  S13  1  0.45941023  0.75065818  0.50023657  1
  S  S14  1  0.95941023  0.25065818  0.99976343  1
  S  S15  1  0.54058977  0.25065818  0.49976343  1
  S  S16  1  0.66324866  0.54133482  0.90117491  1
  S  S17  1  0.83117117  0.95780566  0.40454646  1
  S  S18  1  0.33675134  0.04133482  0.09882509  1
  S  S19  1  0.16882883  0.45780566  0.59545354  1
  S  S20  1  0.33117117  0.45780566  0.09545354  1
  S  S21  1  0.16324866  0.04133482  0.59882509  1
  S  S22  1  0.66882883  0.95780566  0.90454646  1
  S  S23  1  0.83675134  0.54133482  0.40117491  1
  S  S24  1  0.30533933  0.75122974  0.78361471  1
  S  S25  1  0.19466067  0.75122974  0.28361471  1
  S  S26  1  0.69466067  0.25122974  0.21638529  1
  S  S27  1  0.80533933  0.25122974  0.71638529  1
  S  S28  1  0.66645122  0.74909526  0.18893596  1
  S  S29  1  0.83354878  0.74909526  0.68893596  1
  S  S30  1  0.33354878  0.24909526  0.81106404  1
  S  S31  1  0.16645122  0.24909526  0.31106404  1
