# generated using pymatgen
data_Ca(MnAl3)3
_symmetry_space_group_name_H-M   'P 1'
_cell_length_a   5.16889837
_cell_length_b   6.87151784
_cell_length_c   6.81010762
_cell_angle_alpha   98.51231570
_cell_angle_beta   113.17618961
_cell_angle_gamma   67.90703784
_symmetry_Int_Tables_number   1
_chemical_formula_structural   Ca(MnAl3)3
_chemical_formula_sum   'Ca1 Mn3 Al9'
_cell_volume   206.03543667
_cell_formula_units_Z   1
loop_
 _symmetry_equiv_pos_site_id
 _symmetry_equiv_pos_as_xyz
  1  'x, y, z'
loop_
 _atom_site_type_symbol
 _atom_site_label
 _atom_site_symmetry_multiplicity
 _atom_site_fract_x
 _atom_site_fract_y
 _atom_site_fract_z
 _atom_site_occupancy
  Ca  Ca0  1  -0.00000000  -0.00000000  -0.00000000  1
  Mn  Mn1  1  -0.00000000  0.00000000  0.50000000  1
  Mn  Mn2  1  0.50000000  0.50000000  -0.00000000  1
  Mn  Mn3  1  -0.00000000  0.50000000  -0.00000000  1
  Al  Al4  1  0.73859761  0.76742558  0.22078737  1
  Al  Al5  1  0.26140239  0.23257442  0.77921263  1
  Al  Al6  1  0.49397681  0.76742558  0.77921263  1
  Al  Al7  1  0.50602319  0.23257442  0.22078737  1
  Al  Al8  1  0.66503465  0.34908996  0.66543549  1
  Al  Al9  1  0.33496535  0.65091004  0.33456451  1
  Al  Al10  1  0.98587539  0.34908996  0.33456451  1
  Al  Al11  1  0.01412461  0.65091004  0.66543549  1
  Al  Al12  1  0.50000000  0.00000000  0.50000000  1
