# generated using pymatgen
data_BaSr2ScInO6
_symmetry_space_group_name_H-M   'P 1'
_cell_length_a   4.15868575
_cell_length_b   4.15868575
_cell_length_c   10.82990394
_cell_angle_alpha   78.93046520
_cell_angle_beta   78.93046520
_cell_angle_gamma   90.00000000
_symmetry_Int_Tables_number   1
_chemical_formula_structural   BaSr2ScInO6
_chemical_formula_sum   'Ba1 Sr2 Sc1 In1 O6'
_cell_volume   180.26277437
_cell_formula_units_Z   1
loop_
 _symmetry_equiv_pos_site_id
 _symmetry_equiv_pos_as_xyz
  1  'x, y, z'
loop_
 _atom_site_type_symbol
 _atom_site_label
 _atom_site_symmetry_multiplicity
 _atom_site_fract_x
 _atom_site_fract_y
 _atom_site_fract_z
 _atom_site_occupancy
  Ba  Ba0  1  0.68112337  0.68112337  0.63775326  1
  Sr  Sr1  1  0.50137062  0.50137062  0.99725876  1
  Sr  Sr2  1  0.31770005  0.31770005  0.36459990  1
  Sc  Sc3  1  0.09956661  0.09956661  0.80086679  1
  In  In4  1  0.90191380  0.90191380  0.19617239  1
  O  O5  1  0.58006796  0.08006796  0.83986407  1
  O  O6  1  0.08006796  0.58006796  0.83986407  1
  O  O7  1  0.42035359  0.92035359  0.15929282  1
  O  O8  1  0.92035359  0.42035359  0.15929282  1
  O  O9  1  0.19554479  0.19554479  0.60891042  1
  O  O10  1  0.80193765  0.80193765  0.39612470  1
