# generated using pymatgen
data_Ba6Nb9CoO30
_symmetry_space_group_name_H-M   'P 1'
_cell_length_a   4.05897142
_cell_length_b   12.79869879
_cell_length_c   12.79869879
_cell_angle_alpha   90.27221896
_cell_angle_beta   90.00000000
_cell_angle_gamma   90.00000000
_symmetry_Int_Tables_number   1
_chemical_formula_structural   Ba6Nb9CoO30
_chemical_formula_sum   'Ba6 Nb9 Co1 O30'
_cell_volume   664.87917210
_cell_formula_units_Z   1
loop_
 _symmetry_equiv_pos_site_id
 _symmetry_equiv_pos_as_xyz
  1  'x, y, z'
loop_
 _atom_site_type_symbol
 _atom_site_label
 _atom_site_symmetry_multiplicity
 _atom_site_fract_x
 _atom_site_fract_y
 _atom_site_fract_z
 _atom_site_occupancy
  Ba  Ba0  1  0.99756710  0.84335618  0.34335618  1
  Ba  Ba1  1  0.99756710  0.15664382  0.65664382  1
  Ba  Ba2  1  0.00519264  0.67562387  0.82437613  1
  Ba  Ba3  1  0.00519264  0.32437613  0.17562387  1
  Ba  Ba4  1  0.99494358  0.50000000  0.50000000  1
  Ba  Ba5  1  0.99494358  -0.00000000  -0.00000000  1
  Nb  Nb6  1  0.48755839  0.28103027  0.42748870  1
  Nb  Nb7  1  0.48755839  0.71896973  0.57251130  1
  Nb  Nb8  1  0.47381564  0.21272521  0.92440878  1
  Nb  Nb9  1  0.47381564  0.78727479  0.07559122  1
  Nb  Nb10  1  0.47381564  0.42440878  0.71272521  1
  Nb  Nb11  1  0.47381564  0.57559122  0.28727479  1
  Nb  Nb12  1  0.48755839  0.92748870  0.78103027  1
  Nb  Nb13  1  0.48755839  0.07251130  0.21896973  1
  Nb  Nb14  1  0.54879901  0.50000000  -0.00000000  1
  Co  Co15  1  0.50321227  -0.00000000  0.50000000  1
  O  O16  1  0.50029217  0.49416932  0.15527564  1
  O  O17  1  0.50029217  0.50583068  0.84472436  1
  O  O18  1  0.50346727  0.00538815  0.65706333  1
  O  O19  1  0.50346727  0.99461185  0.34293667  1
  O  O20  1  0.50346727  0.15706333  0.50538815  1
  O  O21  1  0.50346727  0.84293667  0.49461185  1
  O  O22  1  0.50029217  0.65527564  0.99416932  1
  O  O23  1  0.50029217  0.34472436  0.00583068  1
  O  O24  1  0.50853900  0.71824576  0.21824576  1
  O  O25  1  0.50853900  0.28175424  0.78175424  1
  O  O26  1  0.50824569  0.78100429  0.71899571  1
  O  O27  1  0.50824569  0.21899571  0.28100429  1
  O  O28  1  0.00764556  0.29473365  0.41794160  1
  O  O29  1  0.00764556  0.70526635  0.58205840  1
  O  O30  1  0.00731514  0.20498489  0.91919817  1
  O  O31  1  0.00731514  0.79501511  0.08080183  1
  O  O32  1  0.00731514  0.41919817  0.70498489  1
  O  O33  1  0.00731514  0.58080183  0.29501511  1
  O  O34  1  0.00764556  0.91794160  0.79473365  1
  O  O35  1  0.00764556  0.08205840  0.20526635  1
  O  O36  1  0.00201434  -0.00000000  0.50000000  1
  O  O37  1  0.00521247  0.50000000  -0.00000000  1
  O  O38  1  0.50704646  0.43501338  0.35702680  1
  O  O39  1  0.50704646  0.56498662  0.64297320  1
  O  O40  1  0.50690586  0.06585073  0.85984233  1
  O  O41  1  0.50690586  0.93414927  0.14015767  1
  O  O42  1  0.50690586  0.35984233  0.56585073  1
  O  O43  1  0.50690586  0.64015767  0.43414927  1
  O  O44  1  0.50704646  0.85702680  0.93501338  1
  O  O45  1  0.50704646  0.14297320  0.06498662  1
