# generated using pymatgen
data_BaLaEuZnO5
_symmetry_space_group_name_H-M   'P 1'
_cell_length_a   6.85030284
_cell_length_b   6.85030284
_cell_length_c   7.60034469
_cell_angle_alpha   62.95567689
_cell_angle_beta   62.95567689
_cell_angle_gamma   89.48861116
_symmetry_Int_Tables_number   1
_chemical_formula_structural   BaLaEuZnO5
_chemical_formula_sum   'Ba2 La2 Eu2 Zn2 O10'
_cell_volume   273.98807024
_cell_formula_units_Z   2
loop_
 _symmetry_equiv_pos_site_id
 _symmetry_equiv_pos_as_xyz
  1  'x, y, z'
loop_
 _atom_site_type_symbol
 _atom_site_label
 _atom_site_symmetry_multiplicity
 _atom_site_fract_x
 _atom_site_fract_y
 _atom_site_fract_z
 _atom_site_occupancy
  Ba  Ba0  1  0.25000000  0.25000000  0.50000000  1
  Ba  Ba1  1  0.75000000  0.75000000  0.50000000  1
  La  La2  1  0.67583741  0.17583741  0.00000000  1
  La  La3  1  0.32416259  0.82416259  0.00000000  1
  Eu  Eu4  1  0.82523022  0.67476978  0.00000000  1
  Eu  Eu5  1  0.17476978  0.32523022  0.00000000  1
  Zn  Zn6  1  0.75018861  0.25018861  0.49962278  1
  Zn  Zn7  1  0.24981139  0.74981139  0.50037722  1
  O  O8  1  0.51468370  0.72238898  0.26292732  1
  O  O9  1  0.22238898  0.01468370  0.26292732  1
  O  O10  1  0.72241450  0.22241450  0.26526272  1
  O  O11  1  0.01232279  0.51232279  0.26526272  1
  O  O12  1  0.48531630  0.27761102  0.73707268  1
  O  O13  1  0.77761102  0.98531630  0.73707268  1
  O  O14  1  0.27758550  0.77758550  0.73473728  1
  O  O15  1  0.98767721  0.48767721  0.73473728  1
  O  O16  1  0.50000000  0.50000000  0.00000000  1
  O  O17  1  -0.00000000  -0.00000000  0.00000000  1
