# generated using pymatgen
data_Ba4Y2Cu5PdO14
_symmetry_space_group_name_H-M   'P 1'
_cell_length_a   5.51586647
_cell_length_b   5.51586647
_cell_length_c   12.54879116
_cell_angle_alpha   77.02474575
_cell_angle_beta   77.02474575
_cell_angle_gamma   88.76069210
_symmetry_Int_Tables_number   1
_chemical_formula_structural   Ba4Y2Cu5PdO14
_chemical_formula_sum   'Ba4 Y2 Cu5 Pd1 O14'
_cell_volume   362.37992865
_cell_formula_units_Z   1
loop_
 _symmetry_equiv_pos_site_id
 _symmetry_equiv_pos_as_xyz
  1  'x, y, z'
loop_
 _atom_site_type_symbol
 _atom_site_label
 _atom_site_symmetry_multiplicity
 _atom_site_fract_x
 _atom_site_fract_y
 _atom_site_fract_z
 _atom_site_occupancy
  Ba  Ba0  1  0.40781435  0.90781435  0.18437129  1
  Ba  Ba1  1  0.90781435  0.40781435  0.18437129  1
  Ba  Ba2  1  0.09218565  0.59218565  0.81562871  1
  Ba  Ba3  1  0.59218565  0.09218565  0.81562871  1
  Y  Y4  1  0.25000000  0.75000000  0.50000000  1
  Y  Y5  1  0.75000000  0.25000000  0.50000000  1
  Cu  Cu6  1  0.32152731  0.32152731  0.35694539  1
  Cu  Cu7  1  0.82169561  0.82169561  0.35660878  1
  Cu  Cu8  1  0.17830439  0.17830439  0.64339122  1
  Cu  Cu9  1  0.67847269  0.67847269  0.64305461  1
  Cu  Cu10  1  -0.00000000  -0.00000000  -0.00000000  1
  Pd  Pd11  1  0.50000000  0.50000000  0.00000000  1
  O  O12  1  0.41521361  0.41521361  0.16957279  1
  O  O13  1  0.91988361  0.91988361  0.16023279  1
  O  O14  1  0.08011639  0.08011639  0.83976721  1
  O  O15  1  0.58478639  0.58478639  0.83042721  1
  O  O16  1  0.24032218  0.24032218  0.00000000  1
  O  O17  1  0.75967782  0.75967782  -0.00000000  1
  O  O18  1  0.56068972  0.05926994  0.38004034  1
  O  O19  1  0.05926994  0.56068972  0.38004034  1
  O  O20  1  0.43931028  0.94073006  0.61995966  1
  O  O21  1  0.94073006  0.43931028  0.61995966  1
  O  O22  1  0.56084723  0.56084723  0.37958155  1
  O  O23  1  0.05957122  0.05957122  0.37958155  1
  O  O24  1  0.43915277  0.43915277  0.62041845  1
  O  O25  1  0.94042878  0.94042878  0.62041845  1
