# generated using pymatgen
data_BaSrErCu3O7
_symmetry_space_group_name_H-M   'P 1'
_cell_length_a   3.78149369
_cell_length_b   3.89942680
_cell_length_c   11.66169070
_cell_angle_alpha   90.00000000
_cell_angle_beta   90.00000000
_cell_angle_gamma   90.00000000
_symmetry_Int_Tables_number   1
_chemical_formula_structural   BaSrErCu3O7
_chemical_formula_sum   'Ba1 Sr1 Er1 Cu3 O7'
_cell_volume   171.95930088
_cell_formula_units_Z   1
loop_
 _symmetry_equiv_pos_site_id
 _symmetry_equiv_pos_as_xyz
  1  'x, y, z'
loop_
 _atom_site_type_symbol
 _atom_site_label
 _atom_site_symmetry_multiplicity
 _atom_site_fract_x
 _atom_site_fract_y
 _atom_site_fract_z
 _atom_site_occupancy
  Ba  Ba0  1  0.50000000  0.50000000  0.17980848  1
  Sr  Sr1  1  0.50000000  0.50000000  0.82057691  1
  Er  Er2  1  0.50000000  0.50000000  0.50290246  1
  Cu  Cu3  1  0.00000000  -0.00000000  0.35530832  1
  Cu  Cu4  1  -0.00000000  0.00000000  0.65057655  1
  Cu  Cu5  1  0.00000000  -0.00000000  0.99649592  1
  O  O6  1  -0.00000000  -0.00000000  0.15769524  1
  O  O7  1  -0.00000000  -0.00000000  0.83512762  1
  O  O8  1  0.50000000  -0.00000000  0.38325412  1
  O  O9  1  0.50000000  -0.00000000  0.62168752  1
  O  O10  1  -0.00000000  0.50000000  0.38086509  1
  O  O11  1  -0.00000000  0.50000000  0.62552519  1
  O  O12  1  -0.00000000  0.50000000  0.99017658  1
