# generated using pymatgen
data_CsH6Rh(N3O4)2
_symmetry_space_group_name_H-M   'P 1'
_cell_length_a   10.38442425
_cell_length_b   10.70031248
_cell_length_c   11.35515608
_cell_angle_alpha   90.00000000
_cell_angle_beta   91.22744893
_cell_angle_gamma   90.00000000
_symmetry_Int_Tables_number   1
_chemical_formula_structural   CsH6Rh(N3O4)2
_chemical_formula_sum   'Cs4 H24 Rh4 N24 O32'
_cell_volume   1261.45663311
_cell_formula_units_Z   4
loop_
 _symmetry_equiv_pos_site_id
 _symmetry_equiv_pos_as_xyz
  1  'x, y, z'
loop_
 _atom_site_type_symbol
 _atom_site_label
 _atom_site_symmetry_multiplicity
 _atom_site_fract_x
 _atom_site_fract_y
 _atom_site_fract_z
 _atom_site_occupancy
  Cs  Cs0  1  0.23921900  0.37717035  0.38345883  1
  Cs  Cs1  1  0.73921900  0.12282965  0.88345883  1
  Cs  Cs2  1  0.76078100  0.62282965  0.61654117  1
  Cs  Cs3  1  0.26078100  0.87717035  0.11654117  1
  H  H4  1  0.10512110  0.31583438  0.76412271  1
  H  H5  1  0.60512110  0.18416562  0.26412271  1
  H  H6  1  0.89487890  0.68416562  0.23587729  1
  H  H7  1  0.39487890  0.81583438  0.73587729  1
  H  H8  1  0.13130095  0.46362007  0.80180755  1
  H  H9  1  0.63130095  0.03637993  0.30180755  1
  H  H10  1  0.86869905  0.53637993  0.19819245  1
  H  H11  1  0.36869905  0.96362007  0.69819245  1
  H  H12  1  0.03364280  0.37290987  0.88036356  1
  H  H13  1  0.53364280  0.12709013  0.38036356  1
  H  H14  1  0.96635720  0.62709013  0.11963644  1
  H  H15  1  0.46635720  0.87290987  0.61963644  1
  H  H16  1  0.48890923  0.41919024  0.89074571  1
  H  H17  1  0.98890923  0.08080976  0.39074571  1
  H  H18  1  0.51109077  0.58080976  0.10925429  1
  H  H19  1  0.01109077  0.91919024  0.60925429  1
  H  H20  1  0.42452868  0.33687573  0.77911018  1
  H  H21  1  0.92452868  0.16312427  0.27911018  1
  H  H22  1  0.57547132  0.66312427  0.22088982  1
  H  H23  1  0.07547132  0.83687573  0.72088982  1
  H  H24  1  0.37123044  0.47988534  0.80981315  1
  H  H25  1  0.87123044  0.02011466  0.30981315  1
  H  H26  1  0.62876956  0.52011466  0.19018685  1
  H  H27  1  0.12876956  0.97988534  0.69018685  1
  Rh  Rh28  1  0.26506955  0.31516368  0.95513900  1
  Rh  Rh29  1  0.76506955  0.18483632  0.45513900  1
  Rh  Rh30  1  0.73493045  0.68483632  0.04486100  1
  Rh  Rh31  1  0.23493045  0.81516368  0.54486100  1
  N  N32  1  0.24446930  0.48326409  0.04268180  1
  N  N33  1  0.74446930  0.01673591  0.54268180  1
  N  N34  1  0.75553070  0.51673591  0.95731820  1
  N  N35  1  0.25553070  0.98326409  0.45731820  1
  N  N36  1  0.12625083  0.23336117  0.05630903  1
  N  N37  1  0.62625083  0.26663883  0.55630903  1
  N  N38  1  0.87374917  0.76663883  0.94369097  1
  N  N39  1  0.37374917  0.73336117  0.44369097  1
  N  N40  1  0.28308156  0.15010774  0.85926651  1
  N  N41  1  0.78308156  0.34989226  0.35926651  1
  N  N42  1  0.71691844  0.84989226  0.14073349  1
  N  N43  1  0.21691844  0.65010774  0.64073349  1
  N  N44  1  0.40887985  0.26220027  0.06976108  1
  N  N45  1  0.90887985  0.23779973  0.56976108  1
  N  N46  1  0.59112015  0.73779973  0.93023892  1
  N  N47  1  0.09112015  0.76220027  0.43023892  1
  N  N48  1  0.11759571  0.37491613  0.83448978  1
  N  N49  1  0.61759571  0.12508387  0.33448978  1
  N  N50  1  0.88240429  0.62508387  0.16551022  1
  N  N51  1  0.38240429  0.87491613  0.66551022  1
  N  N52  1  0.40506489  0.39837667  0.84576705  1
  N  N53  1  0.90506489  0.10162333  0.34576705  1
  N  N54  1  0.59493511  0.60162333  0.15423295  1
  N  N55  1  0.09493511  0.89837667  0.65423295  1
  O  O56  1  0.31822583  0.57216762  0.01898166  1
  O  O57  1  0.81822583  0.92783238  0.51898166  1
  O  O58  1  0.68177417  0.42783238  0.98101834  1
  O  O59  1  0.18177417  0.07216762  0.48101834  1
  O  O60  1  0.15828143  0.49652106  0.11677749  1
  O  O61  1  0.65828143  0.00347894  0.61677749  1
  O  O62  1  0.84171857  0.50347894  0.88322251  1
  O  O63  1  0.34171857  0.99652106  0.38322251  1
  O  O64  1  0.15628577  0.18661104  0.15445693  1
  O  O65  1  0.65628577  0.31338896  0.65445693  1
  O  O66  1  0.84371423  0.81338896  0.84554307  1
  O  O67  1  0.34371423  0.68661104  0.34554307  1
  O  O68  1  0.01279147  0.22955306  0.01841931  1
  O  O69  1  0.51279147  0.27044694  0.51841931  1
  O  O70  1  0.98720853  0.77044694  0.98158069  1
  O  O71  1  0.48720853  0.72955306  0.48158069  1
  O  O72  1  0.22423770  0.05351794  0.88879589  1
  O  O73  1  0.72423770  0.44648206  0.38879589  1
  O  O74  1  0.77576230  0.94648206  0.11120411  1
  O  O75  1  0.27576230  0.55351794  0.61120411  1
  O  O76  1  0.35035244  0.14910117  0.76854444  1
  O  O77  1  0.85035244  0.35089883  0.26854444  1
  O  O78  1  0.64964756  0.85089883  0.23145556  1
  O  O79  1  0.14964756  0.64910117  0.73145556  1
  O  O80  1  0.43107839  0.32464533  0.16150685  1
  O  O81  1  0.93107839  0.17535467  0.66150685  1
  O  O82  1  0.56892161  0.67535467  0.83849315  1
  O  O83  1  0.06892161  0.82464533  0.33849315  1
  O  O84  1  0.47684265  0.16927048  0.04633188  1
  O  O85  1  0.97684265  0.33072952  0.54633188  1
  O  O86  1  0.52315735  0.83072952  0.95366812  1
  O  O87  1  0.02315735  0.66927048  0.45366812  1
