# generated using pymatgen
data_Ba2SrTm6O12
_symmetry_space_group_name_H-M   'P 1'
_cell_length_a   3.44193237
_cell_length_b   10.36330060
_cell_length_c   10.36334498
_cell_angle_alpha   119.99966292
_cell_angle_beta   89.99977656
_cell_angle_gamma   89.99993404
_symmetry_Int_Tables_number   1
_chemical_formula_structural   Ba2SrTm6O12
_chemical_formula_sum   'Ba2 Sr1 Tm6 O12'
_cell_volume   320.13450812
_cell_formula_units_Z   1
loop_
 _symmetry_equiv_pos_site_id
 _symmetry_equiv_pos_as_xyz
  1  'x, y, z'
loop_
 _atom_site_type_symbol
 _atom_site_label
 _atom_site_symmetry_multiplicity
 _atom_site_fract_x
 _atom_site_fract_y
 _atom_site_fract_z
 _atom_site_occupancy
  Ba  Ba0  1  0.50443082  0.00000228  0.00000062  1
  Ba  Ba1  1  0.74809310  0.66666774  0.33333322  1
  Sr  Sr2  1  0.25255077  0.33332973  0.66666850  1
  Tm  Tm3  1  0.75587353  0.34523246  0.99458345  1
  Tm  Tm4  1  0.75587176  0.00541741  0.35064873  1
  Tm  Tm5  1  0.75586535  0.64934583  0.65476287  1
  Tm  Tm6  1  0.24274133  0.65123137  0.99811602  1
  Tm  Tm7  1  0.24276058  0.00188582  0.65311628  1
  Tm  Tm8  1  0.24276922  0.34688490  0.34877298  1
  O  O9  1  0.74487968  0.88611364  0.69524125  1
  O  O10  1  0.74487882  0.30475939  0.19087391  1
  O  O11  1  0.74488788  0.80912857  0.11388170  1
  O  O12  1  0.25408408  0.11027197  0.29638988  1
  O  O13  1  0.25408140  0.70361296  0.81388083  1
  O  O14  1  0.25408088  0.18611803  0.88973138  1
  O  O15  1  0.74990698  0.12672001  0.60698999  1
  O  O16  1  0.74990752  0.39301070  0.51973100  1
  O  O17  1  0.74990681  0.48026826  0.87327850  1
  O  O18  1  0.25081006  0.89063013  0.40234639  1
  O  O19  1  0.25080693  0.59765083  0.48828162  1
  O  O20  1  0.25081249  0.51171796  0.10937089  1
