# generated using pymatgen
data_Ba4PrY(Cu3O7)2
_symmetry_space_group_name_H-M   'P 1'
_cell_length_a   3.90419952
_cell_length_b   3.90419952
_cell_length_c   23.91609798
_cell_angle_alpha   90.00000000
_cell_angle_beta   90.00000000
_cell_angle_gamma   90.00000000
_symmetry_Int_Tables_number   1
_chemical_formula_structural   Ba4PrY(Cu3O7)2
_chemical_formula_sum   'Ba4 Pr1 Y1 Cu6 O14'
_cell_volume   364.54767389
_cell_formula_units_Z   1
loop_
 _symmetry_equiv_pos_site_id
 _symmetry_equiv_pos_as_xyz
  1  'x, y, z'
loop_
 _atom_site_type_symbol
 _atom_site_label
 _atom_site_symmetry_multiplicity
 _atom_site_fract_x
 _atom_site_fract_y
 _atom_site_fract_z
 _atom_site_occupancy
  Ba  Ba0  1  0.50000000  0.50000000  0.40888296  1
  Ba  Ba1  1  0.50000000  0.50000000  0.91022811  1
  Ba  Ba2  1  0.50000000  0.50000000  0.09111704  1
  Ba  Ba3  1  0.50000000  0.50000000  0.58977189  1
  Pr  Pr4  1  0.50000000  0.50000000  0.75000000  1
  Y  Y5  1  0.50000000  0.50000000  0.25000000  1
  Cu  Cu6  1  -0.00000000  -0.00000000  0.32309695  1
  Cu  Cu7  1  0.00000000  0.00000000  0.82786233  1
  Cu  Cu8  1  -0.00000000  -0.00000000  0.17690305  1
  Cu  Cu9  1  0.00000000  0.00000000  0.67213767  1
  Cu  Cu10  1  0.00000000  0.00000000  0.00054044  1
  Cu  Cu11  1  -0.00000000  0.00000000  0.49945956  1
  O  O12  1  0.00000000  0.00000000  0.42093258  1
  O  O13  1  0.00000000  -0.00000000  0.92208386  1
  O  O14  1  0.00000000  -0.00000000  0.07906742  1
  O  O15  1  0.00000000  -0.00000000  0.57791614  1
  O  O16  1  -0.00000000  0.50000000  0.31108670  1
  O  O17  1  0.00000000  0.50000000  0.81425359  1
  O  O18  1  0.50000000  -0.00000000  0.30964402  1
  O  O19  1  0.50000000  0.00000000  0.81579458  1
  O  O20  1  -0.00000000  0.50000000  0.19035598  1
  O  O21  1  0.00000000  0.50000000  0.68420542  1
  O  O22  1  0.50000000  -0.00000000  0.18891330  1
  O  O23  1  0.50000000  0.00000000  0.68574641  1
  O  O24  1  0.00000000  0.50000000  0.00097893  1
  O  O25  1  0.50000000  -0.00000000  0.49902107  1
