# generated using pymatgen
data_Ba4PrY(Cu3O7)2
_symmetry_space_group_name_H-M   'P 1'
_cell_length_a   3.94763992
_cell_length_b   3.87809651
_cell_length_c   23.89001069
_cell_angle_alpha   90.00000000
_cell_angle_beta   90.00000000
_cell_angle_gamma   90.00000000
_symmetry_Int_Tables_number   1
_chemical_formula_structural   Ba4PrY(Cu3O7)2
_chemical_formula_sum   'Ba4 Pr1 Y1 Cu6 O14'
_cell_volume   365.74002383
_cell_formula_units_Z   1
loop_
 _symmetry_equiv_pos_site_id
 _symmetry_equiv_pos_as_xyz
  1  'x, y, z'
loop_
 _atom_site_type_symbol
 _atom_site_label
 _atom_site_symmetry_multiplicity
 _atom_site_fract_x
 _atom_site_fract_y
 _atom_site_fract_z
 _atom_site_occupancy
  Ba  Ba0  1  0.50000000  0.50000000  0.09084015  1
  Ba  Ba1  1  0.50000000  0.50000000  0.58934766  1
  Ba  Ba2  1  0.50000000  0.50000000  0.40915985  1
  Ba  Ba3  1  0.50000000  0.50000000  0.91065234  1
  Pr  Pr4  1  0.50000000  0.50000000  0.75000000  1
  Y  Y5  1  0.50000000  0.50000000  0.25000000  1
  Cu  Cu6  1  -0.00000000  0.00000000  0.17730928  1
  Cu  Cu7  1  0.00000000  0.00000000  0.67268380  1
  Cu  Cu8  1  0.00000000  -0.00000000  0.32269072  1
  Cu  Cu9  1  -0.00000000  -0.00000000  0.82731620  1
  Cu  Cu10  1  0.00000000  0.00000000  0.00054093  1
  Cu  Cu11  1  -0.00000000  -0.00000000  0.49945907  1
  O  O12  1  -0.00000000  0.50000000  0.19016842  1
  O  O13  1  0.00000000  0.50000000  0.68546999  1
  O  O14  1  0.00000000  0.50000000  0.30983158  1
  O  O15  1  0.00000000  0.50000000  0.81453001  1
  O  O16  1  0.50000000  0.00000000  0.18970509  1
  O  O17  1  0.50000000  0.00000000  0.68480079  1
  O  O18  1  0.50000000  0.00000000  0.31029491  1
  O  O19  1  0.50000000  0.00000000  0.81519921  1
  O  O20  1  -0.00000000  -0.00000000  0.07915702  1
  O  O21  1  -0.00000000  -0.00000000  0.57803751  1
  O  O22  1  0.00000000  -0.00000000  0.42084298  1
  O  O23  1  -0.00000000  0.00000000  0.92196249  1
  O  O24  1  0.50000000  -0.00000000  0.00095269  1
  O  O25  1  0.50000000  0.00000000  0.49904731  1
