# generated using pymatgen
data_CsPr2Ti2NbO10
_symmetry_space_group_name_H-M   'P 1'
_cell_length_a   3.88493513
_cell_length_b   3.88493513
_cell_length_c   15.73486661
_cell_angle_alpha   89.58127270
_cell_angle_beta   90.41872730
_cell_angle_gamma   90.14947931
_symmetry_Int_Tables_number   1
_chemical_formula_structural   CsPr2Ti2NbO10
_chemical_formula_sum   'Cs1 Pr2 Ti2 Nb1 O10'
_cell_volume   237.46849202
_cell_formula_units_Z   1
loop_
 _symmetry_equiv_pos_site_id
 _symmetry_equiv_pos_as_xyz
  1  'x, y, z'
loop_
 _atom_site_type_symbol
 _atom_site_label
 _atom_site_symmetry_multiplicity
 _atom_site_fract_x
 _atom_site_fract_y
 _atom_site_fract_z
 _atom_site_occupancy
  Cs  Cs0  1  0.49989956  0.50010044  0.51303793  1
  Pr  Pr1  1  0.51038634  0.48961366  0.84559057  1
  Pr  Pr2  1  0.50834693  0.49165307  0.12767807  1
  Ti  Ti3  1  0.99093043  0.00906957  0.99862720  1
  Ti  Ti4  1  0.00026861  0.99973139  0.71617984  1
  Nb  Nb5  1  0.99920422  0.00079578  0.27892411  1
  O  O6  1  0.98189430  0.01810570  0.87927020  1
  O  O7  1  0.97730398  0.02269602  0.12725220  1
  O  O8  1  0.49869538  0.99843471  0.75164759  1
  O  O9  1  0.00156529  0.50130462  0.75164759  1
  O  O10  1  0.49399622  0.00915721  0.24613069  1
  O  O11  1  0.99084279  0.50600378  0.24613069  1
  O  O12  1  0.99813400  0.00186600  0.60798680  1
  O  O13  1  0.00318351  0.99681649  0.39265987  1
  O  O14  1  0.47758211  0.03823367  0.00861833  1
  O  O15  1  0.96176633  0.52241789  0.00861833  1
