# generated using pymatgen
data_Ba8Sr2Yb5(Cu3O7)5
_symmetry_space_group_name_H-M   'P 1'
_cell_length_a   3.80625136
_cell_length_b   16.57154800
_cell_length_c   14.14121958
_cell_angle_alpha   77.44174986
_cell_angle_beta   90.00000000
_cell_angle_gamma   90.00000000
_symmetry_Int_Tables_number   1
_chemical_formula_structural   Ba8Sr2Yb5(Cu3O7)5
_chemical_formula_sum   'Ba8 Sr2 Yb5 Cu15 O35'
_cell_volume   870.62433752
_cell_formula_units_Z   1
loop_
 _symmetry_equiv_pos_site_id
 _symmetry_equiv_pos_as_xyz
  1  'x, y, z'
loop_
 _atom_site_type_symbol
 _atom_site_label
 _atom_site_symmetry_multiplicity
 _atom_site_fract_x
 _atom_site_fract_y
 _atom_site_fract_z
 _atom_site_occupancy
  Ba  Ba0  1  0.50000000  0.17572859  0.01400541  1
  Ba  Ba1  1  0.50000000  0.57564396  0.61254382  1
  Ba  Ba2  1  0.50000000  0.97490255  0.21286252  1
  Ba  Ba3  1  0.50000000  0.37557785  0.81290951  1
  Ba  Ba4  1  0.50000000  0.77579889  0.41344553  1
  Ba  Ba5  1  0.50000000  0.42598948  0.38614029  1
  Ba  Ba6  1  0.50000000  0.82466999  0.98762675  1
  Ba  Ba7  1  0.50000000  0.22363414  0.58809081  1
  Sr  Sr8  1  0.50000000  0.62343134  0.18463528  1
  Sr  Sr9  1  0.50000000  0.02245967  0.78457581  1
  Yb  Yb10  1  0.50000000  0.50068344  0.00090921  1
  Yb  Yb11  1  0.50000000  0.30040659  0.20016691  1
  Yb  Yb12  1  0.50000000  0.70023083  0.80032808  1
  Yb  Yb13  1  0.50000000  0.90053285  0.60087064  1
  Yb  Yb14  1  0.50000000  0.09991919  0.40036837  1
  Cu  Cu15  1  -0.00000000  0.34305095  0.01438431  1
  Cu  Cu16  1  -0.00000000  0.14287933  0.21437757  1
  Cu  Cu17  1  -0.00000000  0.54298720  0.81449131  1
  Cu  Cu18  1  0.00000000  0.74323050  0.61458887  1
  Cu  Cu19  1  0.00000000  0.94306534  0.41455792  1
  Cu  Cu20  1  0.00000000  0.45866018  0.18688929  1
  Cu  Cu21  1  -0.00000000  0.25728647  0.38602837  1
  Cu  Cu22  1  -0.00000000  0.65786372  0.98779332  1
  Cu  Cu23  1  -0.00000000  0.85854663  0.78721103  1
  Cu  Cu24  1  0.00000000  0.05765326  0.58767608  1
  Cu  Cu25  1  -0.00000000  0.19886012  0.79938061  1
  Cu  Cu26  1  0.00000000  0.99938691  0.99870258  1
  Cu  Cu27  1  -0.00000000  0.39979885  0.59953834  1
  Cu  Cu28  1  0.00000000  0.59987643  0.39838906  1
  Cu  Cu29  1  -0.00000000  0.79897492  0.19899695  1
  O  O30  1  0.50000000  0.35060031  0.02579584  1
  O  O31  1  0.50000000  0.15037254  0.22565663  1
  O  O32  1  0.50000000  0.55065939  0.82600774  1
  O  O33  1  0.50000000  0.75054195  0.62588393  1
  O  O34  1  0.50000000  0.95046707  0.42588116  1
  O  O35  1  0.50000000  0.45143769  0.17493448  1
  O  O36  1  0.50000000  0.24977611  0.37465996  1
  O  O37  1  0.50000000  0.64996344  0.97661089  1
  O  O38  1  0.50000000  0.85143422  0.77516209  1
  O  O39  1  0.50000000  0.04970673  0.57684689  1
  O  O40  1  0.00000000  0.26109010  0.89442551  1
  O  O41  1  0.00000000  0.06314840  0.09225186  1
  O  O42  1  -0.00000000  0.46240224  0.69399226  1
  O  O43  1  0.00000000  0.66326097  0.49234042  1
  O  O44  1  0.00000000  0.86136285  0.29424884  1
  O  O45  1  -0.00000000  0.54227092  0.29838813  1
  O  O46  1  0.00000000  0.33689768  0.50556094  1
  O  O47  1  0.00000000  0.73071892  0.10937649  1
  O  O48  1  -0.00000000  0.94176467  0.89849894  1
  O  O49  1  0.00000000  0.13015881  0.71078621  1
  O  O50  1  -0.00000000  0.29866494  0.69973417  1
  O  O51  1  0.00000000  0.09822201  0.89743287  1
  O  O52  1  0.00000000  0.50008288  0.49831286  1
  O  O53  1  0.00000000  0.69851754  0.29753166  1
  O  O54  1  0.00000000  0.89874616  0.09810566  1
  O  O55  1  0.00000000  0.24966719  0.12447230  1
  O  O56  1  0.00000000  0.64973632  0.72466930  1
  O  O57  1  0.00000000  0.04969950  0.32443497  1
  O  O58  1  0.00000000  0.45005466  0.92526136  1
  O  O59  1  0.00000000  0.85017040  0.52519989  1
  O  O60  1  -0.00000000  0.35096765  0.27554502  1
  O  O61  1  -0.00000000  0.75088817  0.87627903  1
  O  O62  1  0.00000000  0.15020402  0.47627709  1
  O  O63  1  0.00000000  0.55235751  0.07842544  1
  O  O64  1  0.00000000  0.95225588  0.67852458  1
