# generated using pymatgen
data_Ba10Pr2Y3(Cu3O7)5
_symmetry_space_group_name_H-M   'P 1'
_cell_length_a   3.88100102
_cell_length_b   3.94393948
_cell_length_c   59.08756599
_cell_angle_alpha   90.00000000
_cell_angle_beta   90.00000000
_cell_angle_gamma   90.00000000
_symmetry_Int_Tables_number   1
_chemical_formula_structural   Ba10Pr2Y3(Cu3O7)5
_chemical_formula_sum   'Ba10 Pr2 Y3 Cu15 O35'
_cell_volume   904.41987851
_cell_formula_units_Z   1
loop_
 _symmetry_equiv_pos_site_id
 _symmetry_equiv_pos_as_xyz
  1  'x, y, z'
loop_
 _atom_site_type_symbol
 _atom_site_label
 _atom_site_symmetry_multiplicity
 _atom_site_fract_x
 _atom_site_fract_y
 _atom_site_fract_z
 _atom_site_occupancy
  Ba  Ba0  1  0.50000000  0.50000000  0.16368047  1
  Ba  Ba1  1  0.50000000  0.50000000  0.36394268  1
  Ba  Ba2  1  0.50000000  0.50000000  0.56369829  1
  Ba  Ba3  1  0.50000000  0.50000000  0.76419216  1
  Ba  Ba4  1  0.50000000  0.50000000  0.96424066  1
  Ba  Ba5  1  0.50000000  0.50000000  0.03630171  1
  Ba  Ba6  1  0.50000000  0.50000000  0.23605732  1
  Ba  Ba7  1  0.50000000  0.50000000  0.43631953  1
  Ba  Ba8  1  0.50000000  0.50000000  0.63575934  1
  Ba  Ba9  1  0.50000000  0.50000000  0.83580784  1
  Pr  Pr10  1  0.50000000  0.50000000  0.69998974  1
  Pr  Pr11  1  0.50000000  0.50000000  0.90001026  1
  Y  Y12  1  0.50000000  0.50000000  0.10009363  1
  Y  Y13  1  0.50000000  0.50000000  0.30000000  1
  Y  Y14  1  0.50000000  0.50000000  0.49990637  1
  Cu  Cu15  1  0.00000000  -0.00000000  0.12959133  1
  Cu  Cu16  1  -0.00000000  -0.00000000  0.32964975  1
  Cu  Cu17  1  0.00000000  0.00000000  0.52958115  1
  Cu  Cu18  1  -0.00000000  -0.00000000  0.73108398  1
  Cu  Cu19  1  0.00000000  0.00000000  0.93107282  1
  Cu  Cu20  1  -0.00000000  -0.00000000  0.07041885  1
  Cu  Cu21  1  0.00000000  0.00000000  0.27035025  1
  Cu  Cu22  1  -0.00000000  0.00000000  0.47040867  1
  Cu  Cu23  1  -0.00000000  -0.00000000  0.66892718  1
  Cu  Cu24  1  0.00000000  0.00000000  0.86891602  1
  Cu  Cu25  1  -0.00000000  -0.00000000  0.00025014  1
  Cu  Cu26  1  0.00000000  0.00000000  0.20005754  1
  Cu  Cu27  1  -0.00000000  -0.00000000  0.39994246  1
  Cu  Cu28  1  0.00000000  -0.00000000  0.59974986  1
  Cu  Cu29  1  0.00000000  -0.00000000  0.80000000  1
  O  O30  1  -0.00000000  -0.00000000  0.16828686  1
  O  O31  1  0.00000000  -0.00000000  0.36824529  1
  O  O32  1  -0.00000000  0.00000000  0.56812124  1
  O  O33  1  -0.00000000  0.00000000  0.76847743  1
  O  O34  1  -0.00000000  -0.00000000  0.96863710  1
  O  O35  1  0.00000000  -0.00000000  0.03187876  1
  O  O36  1  0.00000000  -0.00000000  0.23175471  1
  O  O37  1  0.00000000  0.00000000  0.43171314  1
  O  O38  1  -0.00000000  0.00000000  0.63136290  1
  O  O39  1  -0.00000000  -0.00000000  0.83152257  1
  O  O40  1  -0.00000000  0.50000000  0.12441534  1
  O  O41  1  -0.00000000  0.50000000  0.32445346  1
  O  O42  1  0.00000000  0.50000000  0.52443375  1
  O  O43  1  -0.00000000  0.50000000  0.72624065  1
  O  O44  1  0.00000000  0.50000000  0.92626471  1
  O  O45  1  -0.00000000  0.50000000  0.07556625  1
  O  O46  1  -0.00000000  0.50000000  0.27554654  1
  O  O47  1  -0.00000000  0.50000000  0.47558466  1
  O  O48  1  0.00000000  0.50000000  0.67373529  1
  O  O49  1  0.00000000  0.50000000  0.87375935  1
  O  O50  1  -0.00000000  0.50000000  0.19998134  1
  O  O51  1  0.00000000  0.50000000  0.40001866  1
  O  O52  1  -0.00000000  0.50000000  0.59968373  1
  O  O53  1  -0.00000000  0.50000000  0.80000000  1
  O  O54  1  -0.00000000  0.50000000  0.00031627  1
  O  O55  1  0.50000000  -0.00000000  0.12423036  1
  O  O56  1  0.50000000  0.00000000  0.32426011  1
  O  O57  1  0.50000000  -0.00000000  0.52424902  1
  O  O58  1  0.50000000  -0.00000000  0.72605032  1
  O  O59  1  0.50000000  0.00000000  0.92607776  1
  O  O60  1  0.50000000  -0.00000000  0.07575098  1
  O  O61  1  0.50000000  0.00000000  0.27573989  1
  O  O62  1  0.50000000  -0.00000000  0.47576964  1
  O  O63  1  0.50000000  0.00000000  0.67392224  1
  O  O64  1  0.50000000  0.00000000  0.87394968  1
