# generated using pymatgen
data_Ag6HgGeSe6
_symmetry_space_group_name_H-M   'P 1'
_cell_length_a   7.81674339
_cell_length_b   11.06780498
_cell_length_c   8.27487616
_cell_angle_alpha   90.00000000
_cell_angle_beta   90.00000000
_cell_angle_gamma   90.00000000
_symmetry_Int_Tables_number   1
_chemical_formula_structural   Ag6HgGeSe6
_chemical_formula_sum   'Ag12 Hg2 Ge2 Se12'
_cell_volume   715.89422008
_cell_formula_units_Z   2
loop_
 _symmetry_equiv_pos_site_id
 _symmetry_equiv_pos_as_xyz
  1  'x, y, z'
loop_
 _atom_site_type_symbol
 _atom_site_label
 _atom_site_symmetry_multiplicity
 _atom_site_fract_x
 _atom_site_fract_y
 _atom_site_fract_z
 _atom_site_occupancy
  Ag  Ag0  1  0.40812262  0.52830755  0.50000000  1
  Ag  Ag1  1  0.59187738  0.02830755  -0.00000000  1
  Ag  Ag2  1  0.91260922  0.33462396  0.71781305  1
  Ag  Ag3  1  0.91260922  0.33462396  0.28218695  1
  Ag  Ag4  1  0.08739078  0.83462396  0.78218695  1
  Ag  Ag5  1  0.08739078  0.83462396  0.21781305  1
  Ag  Ag6  1  0.47137208  0.78589656  0.74330465  1
  Ag  Ag7  1  0.47137208  0.78589656  0.25669535  1
  Ag  Ag8  1  0.52862792  0.28589656  0.75669535  1
  Ag  Ag9  1  0.52862792  0.28589656  0.24330465  1
  Ag  Ag10  1  0.24313444  0.99282720  0.50000000  1
  Ag  Ag11  1  0.75686556  0.49282720  -0.00000000  1
  Hg  Hg12  1  0.95063663  0.64620969  0.50000000  1
  Hg  Hg13  1  0.04936337  0.14620969  -0.00000000  1
  Ge  Ge14  1  0.75305458  0.02713132  0.50000000  1
  Ge  Ge15  1  0.24694542  0.52713132  -0.00000000  1
  Se  Se16  1  0.73864101  0.47580038  0.50000000  1
  Se  Se17  1  0.26135899  0.97580038  -0.00000000  1
  Se  Se18  1  0.49956532  0.14631567  0.50000000  1
  Se  Se19  1  0.50043468  0.64631567  -0.00000000  1
  Se  Se20  1  0.24097258  0.40844760  0.75816848  1
  Se  Se21  1  0.24097258  0.40844760  0.24183152  1
  Se  Se22  1  0.75902742  0.90844760  0.74183152  1
  Se  Se23  1  0.75902742  0.90844760  0.25816848  1
  Se  Se24  1  0.99392606  0.15667006  0.50000000  1
  Se  Se25  1  0.00607394  0.65667006  -0.00000000  1
  Se  Se26  1  0.24557862  0.75710189  0.50000000  1
  Se  Se27  1  0.75442138  0.25710189  -0.00000000  1
