# generated using pymatgen
data_BH17C6NCl
_symmetry_space_group_name_H-M   'P 1'
_cell_length_a   6.64331318
_cell_length_b   7.52613333
_cell_length_c   11.43778103
_cell_angle_alpha   90.00000000
_cell_angle_beta   90.00000000
_cell_angle_gamma   113.64264396
_symmetry_Int_Tables_number   1
_chemical_formula_structural   BH17C6NCl
_chemical_formula_sum   'B2 H34 C12 N2 Cl2'
_cell_volume   523.87113312
_cell_formula_units_Z   2
loop_
 _symmetry_equiv_pos_site_id
 _symmetry_equiv_pos_as_xyz
  1  'x, y, z'
loop_
 _atom_site_type_symbol
 _atom_site_label
 _atom_site_symmetry_multiplicity
 _atom_site_fract_x
 _atom_site_fract_y
 _atom_site_fract_z
 _atom_site_occupancy
  B  B0  1  0.02173774  0.27185719  0.94395689  1
  B  B1  1  0.97826226  0.72814281  0.44395689  1
  H  H2  1  0.95203128  0.89169486  0.01451956  1
  H  H3  1  0.04796872  0.10830514  0.51451956  1
  H  H4  1  0.16246432  0.80866793  0.04238868  1
  H  H5  1  0.83753568  0.19133207  0.54238868  1
  H  H6  1  0.09013576  0.83392603  0.89632891  1
  H  H7  1  0.90986424  0.16607397  0.39632891  1
  H  H8  1  0.44772512  0.10382655  0.96475125  1
  H  H9  1  0.55227488  0.89617345  0.46475125  1
  H  H10  1  0.30080497  0.16065839  0.07801961  1
  H  H11  1  0.69919503  0.83934161  0.57801961  1
  H  H12  1  0.58622375  0.29582687  0.73544915  1
  H  H13  1  0.41377625  0.70417313  0.23544915  1
  H  H14  1  0.39373139  0.12350777  0.64130382  1
  H  H15  1  0.60626861  0.87649223  0.14130382  1
  H  H16  1  0.46263215  0.04525436  0.77471920  1
  H  H17  1  0.53736785  0.95474564  0.27471920  1
  H  H18  1  0.20629669  0.30524139  0.73609930  1
  H  H19  1  0.79370331  0.69475861  0.23609930  1
  H  H20  1  0.08872967  0.05777408  0.77673264  1
  H  H21  1  0.91127033  0.94222592  0.27673264  1
  H  H22  1  0.51474660  0.58280636  0.75845592  1
  H  H23  1  0.48525340  0.41719364  0.25845592  1
  H  H24  1  0.60150837  0.73795097  0.88096007  1
  H  H25  1  0.39849163  0.26204903  0.38096007  1
  H  H26  1  0.31781707  0.63211262  0.84345970  1
  H  H27  1  0.68218293  0.36788738  0.34345970  1
  H  H28  1  0.43312668  0.48338029  0.02080088  1
  H  H29  1  0.56687332  0.51661971  0.52080088  1
  H  H30  1  0.59635639  0.41126314  0.92431837  1
  H  H31  1  0.40364361  0.58873686  0.42431837  1
  H  H32  1  0.87203353  0.11654090  0.92616639  1
  H  H33  1  0.12796647  0.88345910  0.42616639  1
  H  H34  1  0.01088181  0.40191018  0.88606425  1
  H  H35  1  0.98911819  0.59808982  0.38606425  1
  C  C36  1  0.11135661  0.89872540  0.98399905  1
  C  C37  1  0.88864339  0.10127460  0.48399905  1
  C  C38  1  0.28749208  0.10364998  0.98868738  1
  C  C39  1  0.71250792  0.89635002  0.48868738  1
  C  C40  1  0.43282012  0.16434013  0.73324095  1
  C  C41  1  0.56717988  0.83565987  0.23324095  1
  C  C42  1  0.23634892  0.19237478  0.78460808  1
  C  C43  1  0.76365108  0.80762522  0.28460808  1
  C  C44  1  0.46859084  0.60621777  0.84754821  1
  C  C45  1  0.53140916  0.39378223  0.34754821  1
  C  C46  1  0.44811878  0.44181624  0.93029363  1
  C  C47  1  0.55188122  0.55818376  0.43029363  1
  N  N48  1  0.25149938  0.25188117  0.91161274  1
  N  N49  1  0.74850062  0.74811883  0.41161274  1
  Cl  Cl50  1  0.01776398  0.33462197  0.10398537  1
  Cl  Cl51  1  0.98223602  0.66537803  0.60398537  1
