# generated using pymatgen
data_Ba2Sr3Nb10O30
_symmetry_space_group_name_H-M   'P 1'
_cell_length_a   4.06464242
_cell_length_b   12.70100918
_cell_length_c   12.69938437
_cell_angle_alpha   89.86882036
_cell_angle_beta   90.05361479
_cell_angle_gamma   89.98344527
_symmetry_Int_Tables_number   1
_chemical_formula_structural   Ba2Sr3Nb10O30
_chemical_formula_sum   'Ba2 Sr3 Nb10 O30'
_cell_volume   655.60445478
_cell_formula_units_Z   1
loop_
 _symmetry_equiv_pos_site_id
 _symmetry_equiv_pos_as_xyz
  1  'x, y, z'
loop_
 _atom_site_type_symbol
 _atom_site_label
 _atom_site_symmetry_multiplicity
 _atom_site_fract_x
 _atom_site_fract_y
 _atom_site_fract_z
 _atom_site_occupancy
  Ba  Ba0  1  0.49943738  0.17297597  0.67049084  1
  Ba  Ba1  1  0.49888725  0.66829732  0.83233261  1
  Sr  Sr2  1  0.51313806  0.82938178  0.32658549  1
  Sr  Sr3  1  0.50165467  0.49888675  0.50086821  1
  Sr  Sr4  1  0.50140764  0.99914020  0.00135323  1
  Nb  Nb5  1  0.01721447  0.29008227  0.41891541  1
  Nb  Nb6  1  0.01144368  0.71185990  0.57499885  1
  Nb  Nb7  1  0.01441417  0.21259289  0.92747736  1
  Nb  Nb8  1  0.00977594  0.78792596  0.07973131  1
  Nb  Nb9  1  0.00890900  0.42342550  0.71253446  1
  Nb  Nb10  1  0.01495652  0.57520300  0.28882876  1
  Nb  Nb11  1  0.01029999  0.92438588  0.78941908  1
  Nb  Nb12  1  0.01772296  0.08020517  0.21076791  1
  Nb  Nb13  1  0.02074322  0.00036387  0.49643098  1
  Nb  Nb14  1  0.02913322  0.49723471  0.00396907  1
  O  O15  1  0.47757074  0.99885888  0.49729356  1
  O  O16  1  0.47845305  0.50719055  0.99323879  1
  O  O17  1  0.97325591  0.43881737  0.36804426  1
  O  O18  1  0.97019455  0.56573009  0.63834326  1
  O  O19  1  0.96957278  0.06403637  0.85789831  1
  O  O20  1  0.96894752  0.93339206  0.13528263  1
  O  O21  1  0.96976261  0.36110571  0.56771903  1
  O  O22  1  0.96844525  0.63833419  0.43760692  1
  O  O23  1  0.97103712  0.86126888  0.93435854  1
  O  O24  1  0.97239428  0.13120776  0.06138986  1
  O  O25  1  0.97205320  0.15658069  0.50480648  1
  O  O26  1  0.96788160  0.84205880  0.48917195  1
  O  O27  1  0.97222086  0.34464445  0.99646298  1
  O  O28  1  0.97326888  0.65893586  0.99452060  1
  O  O29  1  0.97395162  0.50719766  0.84224618  1
  O  O30  1  0.97159022  0.50626976  0.15642116  1
  O  O31  1  0.97221421  0.00361736  0.65370979  1
  O  O32  1  0.96813910  0.98850780  0.33920078  1
  O  O33  1  0.47419391  0.29927585  0.42915583  1
  O  O34  1  0.47466389  0.70264241  0.58048289  1
  O  O35  1  0.47420879  0.19719423  0.91560752  1
  O  O36  1  0.47543397  0.79663394  0.08185861  1
  O  O37  1  0.47536508  0.42077648  0.70267686  1
  O  O38  1  0.47432802  0.58718809  0.30233737  1
  O  O39  1  0.47506624  0.91949099  0.79794293  1
  O  O40  1  0.47406709  0.07062842  0.20121493  1
  O  O41  1  0.97496806  0.21133758  0.28815434  1
  O  O42  1  0.97520230  0.78024858  0.71913603  1
  O  O43  1  0.97677143  0.27888514  0.77936933  1
  O  O44  1  0.97573960  0.72758287  0.22804471  1
