# generated using pymatgen
data_Ba4LaEu7Zn4O20
_symmetry_space_group_name_H-M   'P 1'
_cell_length_a   5.85234987
_cell_length_b   7.32595230
_cell_length_c   12.62847742
_cell_angle_alpha   89.97985361
_cell_angle_beta   90.00000000
_cell_angle_gamma   90.00000000
_symmetry_Int_Tables_number   1
_chemical_formula_structural   Ba4LaEu7Zn4O20
_chemical_formula_sum   'Ba4 La1 Eu7 Zn4 O20'
_cell_volume   541.43376158
_cell_formula_units_Z   1
loop_
 _symmetry_equiv_pos_site_id
 _symmetry_equiv_pos_as_xyz
  1  'x, y, z'
loop_
 _atom_site_type_symbol
 _atom_site_label
 _atom_site_symmetry_multiplicity
 _atom_site_fract_x
 _atom_site_fract_y
 _atom_site_fract_z
 _atom_site_occupancy
  Ba  Ba0  1  0.25000000  0.57248839  0.39732923  1
  Ba  Ba1  1  0.25000000  0.92657726  0.89903086  1
  Ba  Ba2  1  0.75000000  0.43484650  0.60115986  1
  Ba  Ba3  1  0.75000000  0.07419790  0.10086540  1
  La  La4  1  0.25000000  0.10398928  0.57336131  1
  Eu  Eu5  1  0.25000000  0.38642626  0.79447040  1
  Eu  Eu6  1  0.25000000  0.11527062  0.28892333  1
  Eu  Eu7  1  0.75000000  0.61463411  0.20776045  1
  Eu  Eu8  1  0.75000000  0.88447490  0.71075228  1
  Eu  Eu9  1  0.25000000  0.39230001  0.07418003  1
  Eu  Eu10  1  0.75000000  0.89101561  0.42422435  1
  Eu  Eu11  1  0.75000000  0.60857359  0.92671020  1
  Zn  Zn12  1  0.25000000  0.80524740  0.14869800  1
  Zn  Zn13  1  0.25000000  0.69066426  0.64864125  1
  Zn  Zn14  1  0.75000000  0.19509786  0.85151292  1
  Zn  Zn15  1  0.75000000  0.30532315  0.35040753  1
  O  O16  1  0.25000000  0.43499412  0.59792919  1
  O  O17  1  0.25000000  0.06503118  0.09803681  1
  O  O18  1  0.75000000  0.56525125  0.40030132  1
  O  O19  1  0.75000000  0.93499237  0.90339275  1
  O  O20  1  0.99221098  0.33062007  0.93717678  1
  O  O21  1  0.50745687  0.16915692  0.43206647  1
  O  O22  1  0.49272715  0.67075311  0.06450095  1
  O  O23  1  0.00421423  0.82657263  0.56524513  1
  O  O24  1  0.00727285  0.67075311  0.06450095  1
  O  O25  1  0.49578577  0.82657263  0.56524513  1
  O  O26  1  0.50778902  0.33062007  0.93717678  1
  O  O27  1  0.99254313  0.16915692  0.43206647  1
  O  O28  1  0.50656594  0.14852320  0.72956152  1
  O  O29  1  0.99566193  0.35356995  0.22480887  1
  O  O30  1  0.00591431  0.85167436  0.27293428  1
  O  O31  1  0.49481362  0.64843174  0.77486226  1
  O  O32  1  0.49408569  0.85167436  0.27293428  1
  O  O33  1  0.00518638  0.64843174  0.77486226  1
  O  O34  1  0.99343406  0.14852320  0.72956152  1
  O  O35  1  0.50433807  0.35356995  0.22480887  1
