# generated using pymatgen
data_Ca3(InGa2)2
_symmetry_space_group_name_H-M   'P 1'
_cell_length_a   4.67975518
_cell_length_b   4.67719885
_cell_length_c   22.73108054
_cell_angle_alpha   90.00000000
_cell_angle_beta   89.96251171
_cell_angle_gamma   60.01806261
_symmetry_Int_Tables_number   1
_chemical_formula_structural   Ca3(InGa2)2
_chemical_formula_sum   'Ca6 In4 Ga8'
_cell_volume   430.96159928
_cell_formula_units_Z   2
loop_
 _symmetry_equiv_pos_site_id
 _symmetry_equiv_pos_as_xyz
  1  'x, y, z'
loop_
 _atom_site_type_symbol
 _atom_site_label
 _atom_site_symmetry_multiplicity
 _atom_site_fract_x
 _atom_site_fract_y
 _atom_site_fract_z
 _atom_site_occupancy
  Ca  Ca0  1  0.99905789  0.00047105  0.25539370  1
  Ca  Ca1  1  0.99928877  0.00035562  0.58714777  1
  Ca  Ca2  1  0.00012458  -0.00006229  0.91955591  1
  Ca  Ca3  1  0.99960222  0.00019889  0.07867358  1
  Ca  Ca4  1  0.99946358  0.00026821  0.41592437  1
  Ca  Ca5  1  0.00108715  0.99945643  0.74925464  1
  In  In6  1  0.66743041  0.66628480  0.18506807  1
  In  In7  1  0.66658447  0.66670776  0.51377992  1
  In  In8  1  0.66682127  0.66658936  0.84681260  1
  In  In9  1  0.33329515  0.33335242  0.14867448  1
  Ga  Ga10  1  0.33309645  0.33345178  0.48123016  1
  Ga  Ga11  1  0.33380431  0.33309785  0.81437606  1
  Ga  Ga12  1  0.33367175  0.33316412  0.01367754  1
  Ga  Ga13  1  0.33318572  0.33340714  0.34915031  1
  Ga  Ga14  1  0.33330214  0.33334893  0.68238252  1
  Ga  Ga15  1  0.66684270  0.66657865  0.32044880  1
  Ga  Ga16  1  0.66674441  0.66662780  0.65291856  1
  Ga  Ga17  1  0.66659702  0.66670149  0.98553101  1
