# generated using pymatgen
data_Sr3LaTaAl3O12
_symmetry_space_group_name_H-M   'P 1'
_cell_length_a   3.91820640
_cell_length_b   7.75651031
_cell_length_c   7.75694793
_cell_angle_alpha   89.77807130
_cell_angle_beta   90.00717548
_cell_angle_gamma   90.00501163
_symmetry_Int_Tables_number   1
_chemical_formula_structural   Sr3LaTaAl3O12
_chemical_formula_sum   'Sr3 La1 Ta1 Al3 O12'
_cell_volume   235.74435201
_cell_formula_units_Z   1
loop_
 _symmetry_equiv_pos_site_id
 _symmetry_equiv_pos_as_xyz
  1  'x, y, z'
loop_
 _atom_site_type_symbol
 _atom_site_label
 _atom_site_symmetry_multiplicity
 _atom_site_fract_x
 _atom_site_fract_y
 _atom_site_fract_z
 _atom_site_occupancy
  Sr  Sr0  1  0.50002641  0.26335623  0.26293782  1
  Sr  Sr1  1  0.50000389  0.26042982  0.73834984  1
  Sr  Sr2  1  0.49999807  0.73788369  0.26003662  1
  La  La3  1  0.49996470  0.73417122  0.73468479  1
  Ta  Ta4  1  -0.00000005  0.00223226  0.00222649  1
  Al  Al5  1  0.00000184  0.00182576  0.50022559  1
  Al  Al6  1  0.00000313  0.50023120  0.00190898  1
  Al  Al7  1  0.99998835  0.49700226  0.49692617  1
  O  O8  1  0.50000035  0.99455483  0.50436986  1
  O  O9  1  0.49999935  0.99693260  0.99692897  1
  O  O10  1  0.50001815  0.50463708  0.50464763  1
  O  O11  1  0.49999645  0.50441814  0.99451295  1
  O  O12  1  0.00000055  0.25486481  0.99846588  1
  O  O13  1  0.00000186  0.25015040  0.50109570  1
  O  O14  1  0.99999241  0.74597184  0.99467101  1
  O  O15  1  0.00000283  0.74919087  0.50786105  1
  O  O16  1  0.00000177  0.99846436  0.25480169  1
  O  O17  1  0.99999379  0.99467538  0.74601834  1
  O  O18  1  -0.00000071  0.50107643  0.25026052  1
  O  O19  1  0.00000687  0.50793082  0.74907010  1
