# generated using pymatgen
data_CoB10(H7C4)3
_symmetry_space_group_name_H-M   'P 1'
_cell_length_a   7.59497165
_cell_length_b   9.67542007
_cell_length_c   13.57569809
_cell_angle_alpha   102.93469274
_cell_angle_beta   98.26662336
_cell_angle_gamma   102.45791404
_symmetry_Int_Tables_number   1
_chemical_formula_structural   CoB10(H7C4)3
_chemical_formula_sum   'Co2 B20 H42 C24'
_cell_volume   929.86173376
_cell_formula_units_Z   2
loop_
 _symmetry_equiv_pos_site_id
 _symmetry_equiv_pos_as_xyz
  1  'x, y, z'
loop_
 _atom_site_type_symbol
 _atom_site_label
 _atom_site_symmetry_multiplicity
 _atom_site_fract_x
 _atom_site_fract_y
 _atom_site_fract_z
 _atom_site_occupancy
  Co  Co0  1  0.67318869  0.56237473  0.78921911  1
  Co  Co1  1  0.32681131  0.43762527  0.21078089  1
  B  B2  1  0.70176178  0.39150463  0.87158451  1
  B  B3  1  0.29823822  0.60849537  0.12841549  1
  B  B4  1  0.87282336  0.46409481  0.71658977  1
  B  B5  1  0.12717664  0.53590519  0.28341023  1
  B  B6  1  0.81278058  0.28416621  0.76237729  1
  B  B7  1  0.18721942  0.71583379  0.23762271  1
  B  B8  1  0.47469466  0.36577274  0.79661948  1
  B  B9  1  0.52530534  0.63422726  0.20338052  1
  B  B10  1  0.66172422  0.45332548  0.63011401  1
  B  B11  1  0.33827578  0.54667452  0.36988599  1
  B  B12  1  0.57830522  0.21691099  0.78648349  1
  B  B13  1  0.42169478  0.78308901  0.21351651  1
  B  B14  1  0.45399896  0.40757871  0.67368119  1
  B  B15  1  0.54600104  0.59242129  0.32631881  1
  B  B16  1  0.62207934  0.17006799  0.66238380  1
  B  B17  1  0.37792066  0.82993201  0.33761620  1
  B  B18  1  0.52560012  0.27436223  0.58630589  1
  B  B19  1  0.47439988  0.72563777  0.41369411  1
  B  B20  1  0.41594331  0.22239096  0.68330069  1
  B  B21  1  0.58405669  0.77760904  0.31669931  1
  H  H22  1  0.99801378  0.51481183  0.88398035  1
  H  H23  1  0.00198622  0.48518817  0.11601965  1
  H  H24  1  0.72070041  0.39848375  0.96205160  1
  H  H25  1  0.27929959  0.60151625  0.03794840  1
  H  H26  1  0.01328212  0.52244756  0.69607487  1
  H  H27  1  0.98671788  0.47755244  0.30392513  1
  H  H28  1  0.93537059  0.22705706  0.77682053  1
  H  H29  1  0.06462941  0.77294294  0.22317947  1
  H  H30  1  0.36249607  0.38002484  0.84964066  1
  H  H31  1  0.63750393  0.61997516  0.15035934  1
  H  H32  1  0.69378161  0.51904703  0.56714037  1
  H  H33  1  0.30621839  0.48095297  0.43285963  1
  H  H34  1  0.54855742  0.12413370  0.83188543  1
  H  H35  1  0.45144258  0.87586630  0.16811457  1
  H  H36  1  0.32538891  0.44970710  0.64228832  1
  H  H37  1  0.67461109  0.55029290  0.35771168  1
  H  H38  1  0.63186878  0.04867328  0.62462429  1
  H  H39  1  0.36813122  0.95132672  0.37537571  1
  H  H40  1  0.46179127  0.22349125  0.49642049  1
  H  H41  1  0.53820873  0.77650875  0.50357951  1
  H  H42  1  0.26657362  0.13824323  0.65802056  1
  H  H43  1  0.73342638  0.86175677  0.34197944  1
  H  H44  1  0.51457502  0.73590369  0.67925998  1
  H  H45  1  0.48542498  0.26409631  0.32074002  1
  H  H46  1  0.36623440  0.65756908  0.83441492  1
  H  H47  1  0.63376560  0.34243092  0.16558508  1
  H  H48  1  0.64318840  0.69227633  0.99491882  1
  H  H49  1  0.35681160  0.30772367  0.00508118  1
  H  H50  1  0.04704563  0.81414972  0.02820032  1
  H  H51  1  0.95295437  0.18585028  0.97179968  1
  H  H52  1  0.29213305  0.92029051  0.94336479  1
  H  H53  1  0.70786695  0.07970949  0.05663521  1
  H  H54  1  0.21930851  0.95073567  0.76709027  1
  H  H55  1  0.78069149  0.04926433  0.23290973  1
  H  H56  1  0.89636781  0.87044918  0.66661650  1
  H  H57  1  0.10363219  0.12955082  0.33338350  1
  H  H58  1  0.90326379  0.35007170  0.50738542  1
  H  H59  1  0.09673621  0.64992830  0.49261458  1
  H  H60  1  0.99426093  0.24217376  0.58111389  1
  H  H61  1  0.00573907  0.75782624  0.41888611  1
  H  H62  1  0.78573746  0.16156187  0.48721488  1
  H  H63  1  0.21426254  0.83843813  0.51278512  1
  C  C64  1  0.86752233  0.46216995  0.82984499  1
  C  C65  1  0.13247767  0.53783005  0.17015501  1
  C  C66  1  0.75374493  0.30629026  0.62599359  1
  C  C67  1  0.24625507  0.69370974  0.37400641  1
  C  C68  1  0.78735791  0.79050252  0.78930421  1
  C  C69  1  0.21264209  0.20949748  0.21069579  1
  C  C70  1  0.59060447  0.73632839  0.75346625  1
  C  C71  1  0.40939553  0.26367161  0.24653375  1
  C  C72  1  0.51228210  0.69656450  0.83660641  1
  C  C73  1  0.48771790  0.30343550  0.16339359  1
  C  C74  1  0.65855343  0.71376007  0.92093187  1
  C  C75  1  0.34144657  0.28623993  0.07906813  1
  C  C76  1  0.82968593  0.77545872  0.89353863  1
  C  C77  1  0.17031407  0.22454128  0.10646137  1
  C  C78  1  0.01452427  0.82141883  0.94892137  1
  C  C79  1  0.98547573  0.17858117  0.05107863  1
  C  C80  1  0.14969673  0.88171131  0.90150793  1
  C  C81  1  0.85030327  0.11828869  0.09849207  1
  C  C82  1  0.10785200  0.89868671  0.79954785  1
  C  C83  1  0.89214800  0.10131329  0.20045215  1
  C  C84  1  0.92964704  0.85367575  0.74320549  1
  C  C85  1  0.07035296  0.14632425  0.25679451  1
  C  C86  1  0.86623326  0.26208041  0.54549422  1
  C  C87  1  0.13376674  0.73791959  0.45450578  1
