# generated using pymatgen
data_BaLaSmCuO5
_symmetry_space_group_name_H-M   'P 1'
_cell_length_a   5.90117970
_cell_length_b   6.79314099
_cell_length_c   6.79314099
_cell_angle_alpha   90.49821552
_cell_angle_beta   90.00000000
_cell_angle_gamma   90.00000000
_symmetry_Int_Tables_number   1
_chemical_formula_structural   BaLaSmCuO5
_chemical_formula_sum   'Ba2 La2 Sm2 Cu2 O10'
_cell_volume   272.31005431
_cell_formula_units_Z   2
loop_
 _symmetry_equiv_pos_site_id
 _symmetry_equiv_pos_as_xyz
  1  'x, y, z'
loop_
 _atom_site_type_symbol
 _atom_site_label
 _atom_site_symmetry_multiplicity
 _atom_site_fract_x
 _atom_site_fract_y
 _atom_site_fract_z
 _atom_site_occupancy
  Ba  Ba0  1  0.00000000  0.50000000  0.50000000  1
  Ba  Ba1  1  -0.00000000  -0.00000000  -0.00000000  1
  La  La2  1  0.50000000  0.32510669  0.17489331  1
  La  La3  1  0.50000000  0.67489331  0.82510669  1
  Sm  Sm4  1  0.50000000  0.17389085  0.67389085  1
  Sm  Sm5  1  0.50000000  0.82610915  0.32610915  1
  Cu  Cu6  1  -0.00000000  -0.00000000  0.50000000  1
  Cu  Cu7  1  0.00000000  0.50000000  -0.00000000  1
  O  O8  1  0.50000000  0.50000000  0.50000000  1
  O  O9  1  0.50000000  -0.00000000  -0.00000000  1
  O  O10  1  0.24041704  0.35690386  0.85690386  1
  O  O11  1  0.24041704  0.64309614  0.14309614  1
  O  O12  1  0.24445895  0.13618140  0.36381860  1
  O  O13  1  0.24445895  0.86381860  0.63618140  1
  O  O14  1  0.75958296  0.64309614  0.14309614  1
  O  O15  1  0.75958296  0.35690386  0.85690386  1
  O  O16  1  0.75554105  0.86381860  0.63618140  1
  O  O17  1  0.75554105  0.13618140  0.36381860  1
