# generated using pymatgen
data_ErMnSi
_symmetry_space_group_name_H-M   'P 1'
_cell_length_a   4.05984383
_cell_length_b   6.89999181
_cell_length_c   7.57484646
_cell_angle_alpha   90.00000000
_cell_angle_beta   90.00000000
_cell_angle_gamma   90.00000000
_symmetry_Int_Tables_number   1
_chemical_formula_structural   ErMnSi
_chemical_formula_sum   'Er4 Mn4 Si4'
_cell_volume   212.19333442
_cell_formula_units_Z   4
loop_
 _symmetry_equiv_pos_site_id
 _symmetry_equiv_pos_as_xyz
  1  'x, y, z'
loop_
 _atom_site_type_symbol
 _atom_site_label
 _atom_site_symmetry_multiplicity
 _atom_site_fract_x
 _atom_site_fract_y
 _atom_site_fract_z
 _atom_site_occupancy
  Si  Si0  1  0.25000000  0.28642916  0.88860550  1
  Si  Si1  1  0.75000000  0.71357084  0.11139450  1
  Si  Si2  1  0.25000000  0.78642916  0.61139450  1
  Si  Si3  1  0.75000000  0.21357084  0.38860550  1
  Mn  Mn4  1  0.75000000  0.86057610  0.44096882  1
  Mn  Mn5  1  0.25000000  0.13942390  0.55903118  1
  Mn  Mn6  1  0.75000000  0.36057610  0.05903118  1
  Mn  Mn7  1  0.25000000  0.63942390  0.94096882  1
  Er  Er8  1  0.25000000  0.01211742  0.18595130  1
  Er  Er9  1  0.75000000  0.98788258  0.81404870  1
  Er  Er10  1  0.25000000  0.51211742  0.31404870  1
  Er  Er11  1  0.75000000  0.48788258  0.68595130  1
