# generated using pymatgen
data_ErVO4
_symmetry_space_group_name_H-M   'P 1'
_cell_length_a   5.05963009
_cell_length_b   5.05959226
_cell_length_c   6.64362176
_cell_angle_alpha   112.38138606
_cell_angle_beta   112.38066885
_cell_angle_gamma   90.00035943
_symmetry_Int_Tables_number   1
_chemical_formula_structural   ErVO4
_chemical_formula_sum   'Er2 V2 O8'
_cell_volume   143.31088971
_cell_formula_units_Z   2
loop_
 _symmetry_equiv_pos_site_id
 _symmetry_equiv_pos_as_xyz
  1  'x, y, z'
loop_
 _atom_site_type_symbol
 _atom_site_label
 _atom_site_symmetry_multiplicity
 _atom_site_fract_x
 _atom_site_fract_y
 _atom_site_fract_z
 _atom_site_occupancy
  O  O0  1  0.94351350  0.80060563  0.58752804  1
  O  O1  1  0.78693556  0.44352103  0.08752204  1
  O  O2  1  0.30059802  0.14396224  0.08751886  1
  O  O3  1  0.64396963  0.28695771  0.58753291  1
  O  O4  1  0.35603037  0.71304229  0.41246709  1
  O  O5  1  0.69940198  0.85603776  0.91248114  1
  O  O6  1  0.21306444  0.55647897  0.91247796  1
  O  O7  1  0.05648650  0.19939437  0.41247196  1
  V  V8  1  0.87498862  0.62501029  0.75000902  1
  V  V9  1  0.12501138  0.37498971  0.24999098  1
  Er  Er10  1  0.37498997  0.12500233  0.75000315  1
  Er  Er11  1  0.62501003  0.87499767  0.24999685  1
