# generated using pymatgen
data_Co2SiO4
_symmetry_space_group_name_H-M   'P 1'
_cell_length_a   5.82312715
_cell_length_b   7.73166615
_cell_length_c   7.73166616
_cell_angle_alpha   65.58038797
_cell_angle_beta   67.87821789
_cell_angle_gamma   67.87821789
_symmetry_Int_Tables_number   1
_chemical_formula_structural   Co2SiO4
_chemical_formula_sum   'Co8 Si4 O16'
_cell_volume   283.37897266
_cell_formula_units_Z   4
loop_
 _symmetry_equiv_pos_site_id
 _symmetry_equiv_pos_as_xyz
  1  'x, y, z'
loop_
 _atom_site_type_symbol
 _atom_site_label
 _atom_site_symmetry_multiplicity
 _atom_site_fract_x
 _atom_site_fract_y
 _atom_site_fract_z
 _atom_site_occupancy
  O  O0  1  0.64151260  0.61521971  0.63082639  1
  O  O1  1  0.88755870  0.38478029  0.36917361  1
  O  O2  1  0.85848740  0.86917361  0.88478029  1
  O  O3  1  0.61244130  0.13082639  0.11521971  1
  O  O4  1  0.35848740  0.38478029  0.36917361  1
  O  O5  1  0.11244130  0.61521971  0.63082639  1
  O  O6  1  0.14151260  0.13082639  0.11521971  1
  O  O7  1  0.38755870  0.86917361  0.88478029  1
  O  O8  1  0.48710134  0.25887531  0.76692202  1
  O  O9  1  0.51289866  0.74112469  0.23307798  1
  O  O10  1  0.01289866  0.73307798  0.24112469  1
  O  O11  1  0.98710134  0.26692202  0.75887531  1
  O  O12  1  0.25000000  0.96876788  0.53123212  1
  O  O13  1  0.75000000  0.03123212  0.46876788  1
  O  O14  1  0.25000000  0.46693322  0.03306678  1
  O  O15  1  0.75000000  0.53306678  0.96693322  1
  Si  Si16  1  0.62143542  0.76160256  0.99552660  1
  Si  Si17  1  0.37856458  0.23839744  0.00447340  1
  Si  Si18  1  0.87856458  0.50447340  0.73839744  1
  Si  Si19  1  0.12143542  0.49552660  0.26160256  1
  Co  Co20  1  0.87347212  0.12652788  0.62652788  1
  Co  Co21  1  0.62652788  0.87347212  0.37347212  1
  Co  Co22  1  0.12652788  0.87347212  0.37347212  1
  Co  Co23  1  0.37347212  0.12652788  0.62652788  1
  Co  Co24  1  0.75000000  0.27593925  0.22406075  1
  Co  Co25  1  0.25000000  0.72406075  0.77593925  1
  Co  Co26  1  0.50000000  0.50000000  0.50000000  1
  Co  Co27  1  0.00000000  0.00000000  0.00000000  1
