# generated using pymatgen
data_LiV2O4
_symmetry_space_group_name_H-M   'P 1'
_cell_length_a   5.92526569
_cell_length_b   5.92526569
_cell_length_c   5.92526569
_cell_angle_alpha   60.00000005
_cell_angle_beta   60.00000003
_cell_angle_gamma   60.00000004
_symmetry_Int_Tables_number   1
_chemical_formula_structural   LiV2O4
_chemical_formula_sum   'Li2 V4 O8'
_cell_volume   147.09858300
_cell_formula_units_Z   2
loop_
 _symmetry_equiv_pos_site_id
 _symmetry_equiv_pos_as_xyz
  1  'x, y, z'
loop_
 _atom_site_type_symbol
 _atom_site_label
 _atom_site_symmetry_multiplicity
 _atom_site_fract_x
 _atom_site_fract_y
 _atom_site_fract_z
 _atom_site_occupancy
  Li  Li0  1  0.87499930  0.87499983  0.87499998  1
  Li  Li1  1  0.12499914  0.12500057  0.12499935  1
  O  O2  1  0.26097669  0.26097717  0.26097615  1
  O  O3  1  0.26097669  0.26097717  0.71707033  1
  O  O4  1  0.73902371  0.73902323  0.73902390  1
  O  O5  1  0.73902371  0.73902323  0.28292801  1
  O  O6  1  0.28292912  0.73902323  0.73902325  1
  O  O7  1  0.26097622  0.71707119  0.26097561  1
  O  O8  1  0.71707128  0.26097717  0.26097509  1
  O  O9  1  0.73902418  0.28292921  0.73902273  1
  V  V10  1  0.49999995  0.00000000  0.49999934  1
  V  V11  1  0.99999926  0.50000020  0.49999958  1
  V  V12  1  0.49999922  0.50000020  0.00000040  1
  V  V13  1  0.49999922  0.50000020  0.50000052  1
