# generated using pymatgen
data_Ba(FeO2)2
_symmetry_space_group_name_H-M   'P 1'
_cell_length_a   5.50470346
_cell_length_b   5.50470346
_cell_length_c   9.24476133
_cell_angle_alpha   90.00000000
_cell_angle_beta   90.00000000
_cell_angle_gamma   119.99999998
_symmetry_Int_Tables_number   1
_chemical_formula_structural   Ba(FeO2)2
_chemical_formula_sum   'Ba2 Fe4 O8'
_cell_volume   242.60189690
_cell_formula_units_Z   2
loop_
 _symmetry_equiv_pos_site_id
 _symmetry_equiv_pos_as_xyz
  1  'x, y, z'
loop_
 _atom_site_type_symbol
 _atom_site_label
 _atom_site_symmetry_multiplicity
 _atom_site_fract_x
 _atom_site_fract_y
 _atom_site_fract_z
 _atom_site_occupancy
  O  O0  1  0.67221616  0.00000000  0.50000000  1
  O  O1  1  0.67221616  0.67221616  0.00000000  1
  O  O2  1  0.00000000  0.32778384  0.00000000  1
  O  O3  1  0.00000000  0.67221616  0.50000000  1
  O  O4  1  0.32778384  0.32778384  0.50000000  1
  O  O5  1  0.32778384  0.00000000  0.00000000  1
  O  O6  1  0.33333333  0.66666667  0.25000000  1
  O  O7  1  0.66666667  0.33333333  0.75000000  1
  Fe  Fe8  1  0.33333333  0.66666667  0.45227989  1
  Fe  Fe9  1  0.66666667  0.33333333  0.95227989  1
  Fe  Fe10  1  0.66666667  0.33333333  0.54772011  1
  Fe  Fe11  1  0.33333333  0.66666667  0.04772011  1
  Ba  Ba12  1  0.00000000  0.00000000  0.75000000  1
  Ba  Ba13  1  0.00000000  0.00000000  0.25000000  1
