# generated using pymatgen
data_LaVO4
_symmetry_space_group_name_H-M   'P 1'
_cell_length_a   6.80427543
_cell_length_b   7.13911105
_cell_length_c   7.35327238
_cell_angle_alpha   90.00000000
_cell_angle_beta   90.00000000
_cell_angle_gamma   105.30587349
_symmetry_Int_Tables_number   1
_chemical_formula_structural   LaVO4
_chemical_formula_sum   'La4 V4 O16'
_cell_volume   344.52645851
_cell_formula_units_Z   4
loop_
 _symmetry_equiv_pos_site_id
 _symmetry_equiv_pos_as_xyz
  1  'x, y, z'
loop_
 _atom_site_type_symbol
 _atom_site_label
 _atom_site_symmetry_multiplicity
 _atom_site_fract_x
 _atom_site_fract_y
 _atom_site_fract_z
 _atom_site_occupancy
  O  O0  1  0.22737567  0.61610523  0.28182901  1
  O  O1  1  0.27262433  0.88389477  0.78182901  1
  O  O2  1  0.77262433  0.38389477  0.71817099  1
  O  O3  1  0.72737567  0.11610523  0.21817099  1
  O  O4  1  0.32797949  0.98064453  0.39690462  1
  O  O5  1  0.17202051  0.51935547  0.89690462  1
  O  O6  1  0.67202051  0.01935547  0.60309538  1
  O  O7  1  0.82797949  0.48064453  0.10309538  1
  O  O8  1  0.42280274  0.24818973  0.99634621  1
  O  O9  1  0.07719726  0.25181027  0.49634621  1
  O  O10  1  0.57719726  0.75181027  0.00365379  1
  O  O11  1  0.92280274  0.74818973  0.50365379  1
  O  O12  1  0.50040240  0.38738584  0.34571324  1
  O  O13  1  0.99959760  0.11261416  0.84571324  1
  O  O14  1  0.49959760  0.61261416  0.65428676  1
  O  O15  1  0.00040240  0.88738584  0.15428676  1
  V  V16  1  0.11371292  0.80031397  0.33658259  1
  V  V17  1  0.38628708  0.69968603  0.83658259  1
  V  V18  1  0.88628708  0.19968603  0.66341741  1
  V  V19  1  0.61371292  0.30031397  0.16341741  1
  La  La20  1  0.59929632  0.77916502  0.34597304  1
  La  La21  1  0.90070368  0.72083498  0.84597304  1
  La  La22  1  0.40070368  0.22083498  0.65402696  1
  La  La23  1  0.09929632  0.27916502  0.15402696  1
