# generated using pymatgen
data_BaV6O11
_symmetry_space_group_name_H-M   'P 1'
_cell_length_a   5.93209727
_cell_length_b   5.93209728
_cell_length_c   13.57704326
_cell_angle_alpha   90.00000000
_cell_angle_beta   90.00000000
_cell_angle_gamma   120.00000001
_symmetry_Int_Tables_number   1
_chemical_formula_structural   BaV6O11
_chemical_formula_sum   'Ba2 V12 O22'
_cell_volume   413.76367570
_cell_formula_units_Z   2
loop_
 _symmetry_equiv_pos_site_id
 _symmetry_equiv_pos_as_xyz
  1  'x, y, z'
loop_
 _atom_site_type_symbol
 _atom_site_label
 _atom_site_symmetry_multiplicity
 _atom_site_fract_x
 _atom_site_fract_y
 _atom_site_fract_z
 _atom_site_occupancy
  O  O0  1  0.66666585  0.33333331  0.08713241  1
  O  O1  1  0.33333331  0.66666662  0.58713255  1
  O  O2  1  0.66666585  0.33333331  0.41890174  1
  O  O3  1  0.33333331  0.66666662  0.91890188  1
  O  O4  1  0.85186054  0.70372268  0.25306094  1
  O  O5  1  0.14813919  0.85186131  0.75306108  1
  O  O6  1  0.70372212  0.85186131  0.75306108  1
  O  O7  1  0.29627705  0.14813863  0.25306094  1
  O  O8  1  0.85186169  0.14813863  0.25306094  1
  O  O9  1  0.14813863  0.29627725  0.75306108  1
  O  O10  1  0.82562217  0.65124595  0.58018529  1
  O  O11  1  0.17437733  0.82562294  0.08018515  1
  O  O12  1  0.65124561  0.82562294  0.08018515  1
  O  O13  1  0.34875355  0.17437699  0.58018529  1
  O  O14  1  0.17446570  0.34893139  0.42578841  1
  O  O15  1  0.82553495  0.17446570  0.92578855  1
  O  O16  1  0.34893086  0.17446570  0.92578855  1
  O  O17  1  0.65106831  0.82553424  0.42578841  1
  O  O18  1  0.82562183  0.17437699  0.58018529  1
  O  O19  1  0.82553347  0.65106854  0.92578855  1
  O  O20  1  0.17437699  0.34875398  0.08018515  1
  O  O21  1  0.17446593  0.82553424  0.42578841  1
  V  V22  1  0.66666585  0.33333331  0.25329678  1
  V  V23  1  0.33333331  0.66666662  0.75329692  1
  V  V24  1  0.00000000  0.00000000  0.64889526  1
  V  V25  1  0.00000000  0.00000000  0.14889512  1
  V  V26  1  0.00000000  0.00000000  0.85720050  1
  V  V27  1  0.00000000  0.00000000  0.35720111  1
  V  V28  1  0.50008820  0.00017801  0.00297889  1
  V  V29  1  0.49991096  0.99982193  0.50297903  1
  V  V30  1  0.00017784  0.50008996  0.50297903  1
  V  V31  1  0.99982132  0.49990997  0.00297889  1
  V  V32  1  0.50008876  0.49990997  0.00297889  1
  V  V33  1  0.49991211  0.50008996  0.50297903  1
  Ba  Ba34  1  0.66666585  0.33333331  0.75283188  1
  Ba  Ba35  1  0.33333331  0.66666662  0.25283249  1
