# generated using pymatgen
data_Sr3Cr2O8
_symmetry_space_group_name_H-M   'P 1'
_cell_length_a   7.52366538
_cell_length_b   7.52366539
_cell_length_c   7.52366539
_cell_angle_alpha   44.20858812
_cell_angle_beta   44.20858807
_cell_angle_gamma   44.20858815
_symmetry_Int_Tables_number   1
_chemical_formula_structural   Sr3Cr2O8
_chemical_formula_sum   'Sr3 Cr2 O8'
_cell_volume   188.14730259
_cell_formula_units_Z   1
loop_
 _symmetry_equiv_pos_site_id
 _symmetry_equiv_pos_as_xyz
  1  'x, y, z'
loop_
 _atom_site_type_symbol
 _atom_site_label
 _atom_site_symmetry_multiplicity
 _atom_site_fract_x
 _atom_site_fract_y
 _atom_site_fract_z
 _atom_site_occupancy
  O  O0  1  0.26879978  0.26880004  0.76748641  1
  O  O1  1  0.26879946  0.76748674  0.26879910  1
  O  O2  1  0.76748525  0.26880004  0.26879977  1
  O  O3  1  0.23251427  0.73119978  0.73120039  1
  O  O4  1  0.73119974  0.73119978  0.23251508  1
  O  O5  1  0.32190963  0.32190821  0.32190977  1
  O  O6  1  0.73119917  0.23251518  0.73120018  1
  O  O7  1  0.67808989  0.67809161  0.67809171  1
  Cr  Cr8  1  0.59403289  0.59403140  0.59403281  1
  Cr  Cr9  1  0.40596662  0.40596842  0.40596735  1
  Sr  Sr10  1  0.79724727  0.79724521  0.79724590  1
  Sr  Sr11  1  0.20275416  0.20275461  0.20275288  1
  Sr  Sr12  1  0.00000000  0.00000000  0.00000000  1
