# generated using pymatgen
data_K4BaU3O12
_symmetry_space_group_name_H-M   'P 1'
_cell_length_a   7.71794498
_cell_length_b   7.71794499
_cell_length_c   7.71794498
_cell_angle_alpha   109.47122065
_cell_angle_beta   109.47122066
_cell_angle_gamma   109.47122064
_symmetry_Int_Tables_number   1
_chemical_formula_structural   K4BaU3O12
_chemical_formula_sum   'K4 Ba1 U3 O12'
_cell_volume   353.90210361
_cell_formula_units_Z   1
loop_
 _symmetry_equiv_pos_site_id
 _symmetry_equiv_pos_as_xyz
  1  'x, y, z'
loop_
 _atom_site_type_symbol
 _atom_site_label
 _atom_site_symmetry_multiplicity
 _atom_site_fract_x
 _atom_site_fract_y
 _atom_site_fract_z
 _atom_site_occupancy
  O  O0  1  0.50000000  0.25000000  0.75000000  1
  O  O1  1  0.25000000  0.75000000  0.50000000  1
  O  O2  1  0.75000000  0.25000000  0.50000000  1
  O  O3  1  0.25000000  0.50000000  0.75000000  1
  O  O4  1  0.75000000  0.50000000  0.25000000  1
  O  O5  1  0.50000000  0.75000000  0.25000000  1
  O  O6  1  0.00000000  0.71601420  0.71601420  1
  O  O7  1  0.28398580  0.28398580  0.00000000  1
  O  O8  1  0.00000000  0.28398580  0.28398580  1
  O  O9  1  0.28398580  0.00000000  0.28398580  1
  O  O10  1  0.71601420  1.00000000  0.71601420  1
  O  O11  1  0.71601420  0.71601420  1.00000000  1
  K  K12  1  0.00000000  0.00000000  0.50000000  1
  K  K13  1  0.00000000  0.50000000  0.00000000  1
  K  K14  1  0.50000000  0.00000000  0.00000000  1
  K  K15  1  0.50000000  0.50000000  0.50000000  1
  Ba  Ba16  1  0.00000000  0.00000000  0.00000000  1
  U  U17  1  0.50000000  0.50000000  0.00000000  1
  U  U18  1  0.50000000  0.00000000  0.50000000  1
  U  U19  1  0.00000000  0.50000000  0.50000000  1
