# generated using pymatgen
data_K9Co2S7
_symmetry_space_group_name_H-M   'P 1'
_cell_length_a   12.82423124
_cell_length_b   12.82423124
_cell_length_c   12.82423124
_cell_angle_alpha   90.00000000
_cell_angle_beta   90.00000000
_cell_angle_gamma   90.00000000
_symmetry_Int_Tables_number   1
_chemical_formula_structural   K9Co2S7
_chemical_formula_sum   'K36 Co8 S28'
_cell_volume   2109.08469999
_cell_formula_units_Z   4
loop_
 _symmetry_equiv_pos_site_id
 _symmetry_equiv_pos_as_xyz
  1  'x, y, z'
loop_
 _atom_site_type_symbol
 _atom_site_label
 _atom_site_symmetry_multiplicity
 _atom_site_fract_x
 _atom_site_fract_y
 _atom_site_fract_z
 _atom_site_occupancy
  K  K0  1  0.80620650  0.68567504  0.96921185  1
  K  K1  1  0.68567504  0.96921185  0.80620650  1
  K  K2  1  0.57953010  0.92046990  0.07953010  1
  K  K3  1  0.24945192  0.74945192  0.75054808  1
  K  K4  1  0.46921185  0.69379350  0.31432496  1
  K  K5  1  0.19379350  0.18567504  0.53078815  1
  K  K6  1  0.74945192  0.75054808  0.24945192  1
  K  K7  1  0.03021673  0.80626862  0.18554727  1
  K  K8  1  0.30620650  0.81432496  0.03078815  1
  K  K9  1  0.92008775  0.57991225  0.42008775  1
  K  K10  1  0.53021673  0.69373138  0.81445273  1
  K  K11  1  0.75054808  0.24945192  0.74945192  1
  K  K12  1  0.18567504  0.53078815  0.19379350  1
  K  K13  1  0.07953010  0.57953010  0.92046990  1
  K  K14  1  0.57991225  0.42008775  0.92008775  1
  K  K15  1  0.19373138  0.68554727  0.46978327  1
  K  K16  1  0.53078815  0.19379350  0.18567504  1
  K  K17  1  0.31445273  0.96978327  0.30626862  1
  K  K18  1  0.46978327  0.19373138  0.68554727  1
  K  K19  1  0.81432496  0.03078815  0.30620650  1
  K  K20  1  0.96978327  0.30626862  0.31445273  1
  K  K21  1  0.25054808  0.25054808  0.25054808  1
  K  K22  1  0.96921185  0.80620650  0.68567504  1
  K  K23  1  0.30626862  0.31445273  0.96978327  1
  K  K24  1  0.80626862  0.18554727  0.03021673  1
  K  K25  1  0.18554727  0.03021673  0.80626862  1
  K  K26  1  0.69379350  0.31432496  0.46921185  1
  K  K27  1  0.81445273  0.53021673  0.69373138  1
  K  K28  1  0.31432496  0.46921185  0.69379350  1
  K  K29  1  0.69373138  0.81445273  0.53021673  1
  K  K30  1  0.07991225  0.07991225  0.07991225  1
  K  K31  1  0.03078815  0.30620650  0.81432496  1
  K  K32  1  0.42008775  0.92008775  0.57991225  1
  K  K33  1  0.68554727  0.46978327  0.19373138  1
  K  K34  1  0.92046990  0.07953010  0.57953010  1
  K  K35  1  0.42046990  0.42046990  0.42046990  1
  Co  Co36  1  0.43574191  0.56425809  0.06425809  1
  Co  Co37  1  0.93574191  0.93574191  0.93574191  1
  Co  Co38  1  0.56425809  0.06425809  0.43574191  1
  Co  Co39  1  0.56428267  0.56428267  0.56428267  1
  Co  Co40  1  0.06428267  0.93571733  0.43571733  1
  Co  Co41  1  0.93571733  0.43571733  0.06428267  1
  Co  Co42  1  0.06425809  0.43574191  0.56425809  1
  Co  Co43  1  0.43571733  0.06428267  0.93571733  1
  S  S44  1  0.07540912  0.56981235  0.66898469  1
  S  S45  1  0.83101531  0.92459088  0.06981235  1
  S  S46  1  0.57013553  0.16859283  0.92455999  1
  S  S47  1  0.75033434  0.25033434  0.24966566  1
  S  S48  1  0.66898469  0.07540912  0.56981235  1
  S  S49  1  0.92455999  0.57013553  0.16859283  1
  S  S50  1  0.57540912  0.93018765  0.33101531  1
  S  S51  1  0.07013553  0.33140717  0.07544001  1
  S  S52  1  0.92459088  0.06981235  0.83101531  1
  S  S53  1  0.25033434  0.24966566  0.75033434  1
  S  S54  1  0.33101531  0.57540912  0.93018765  1
  S  S55  1  0.93018765  0.33101531  0.57540912  1
  S  S56  1  0.42455999  0.92986447  0.83140717  1
  S  S57  1  0.24966566  0.75033434  0.25033434  1
  S  S58  1  0.16898469  0.42459088  0.43018765  1
  S  S59  1  0.74966566  0.74966566  0.74966566  1
  S  S60  1  0.16859283  0.92455999  0.57013553  1
  S  S61  1  0.06981235  0.83101531  0.92459088  1
  S  S62  1  0.33140717  0.07544001  0.07013553  1
  S  S63  1  0.43018765  0.16898469  0.42459088  1
  S  S64  1  0.56981235  0.66898469  0.07540912  1
  S  S65  1  0.42459088  0.43018765  0.16898469  1
  S  S66  1  0.92986447  0.83140717  0.42455999  1
  S  S67  1  0.42986447  0.66859283  0.57544001  1
  S  S68  1  0.66859283  0.57544001  0.42986447  1
  S  S69  1  0.07544001  0.07013553  0.33140717  1
  S  S70  1  0.57544001  0.42986447  0.66859283  1
  S  S71  1  0.83140717  0.42455999  0.92986447  1
