# generated using pymatgen
data_NaV6O11
_symmetry_space_group_name_H-M   'P 1'
_cell_length_a   5.87122985
_cell_length_b   5.87122985
_cell_length_c   13.54413091
_cell_angle_alpha   90.00000000
_cell_angle_beta   90.00000000
_cell_angle_gamma   120.00000005
_symmetry_Int_Tables_number   1
_chemical_formula_structural   NaV6O11
_chemical_formula_sum   'Na2 V12 O22'
_cell_volume   404.33369977
_cell_formula_units_Z   2
loop_
 _symmetry_equiv_pos_site_id
 _symmetry_equiv_pos_as_xyz
  1  'x, y, z'
loop_
 _atom_site_type_symbol
 _atom_site_label
 _atom_site_symmetry_multiplicity
 _atom_site_fract_x
 _atom_site_fract_y
 _atom_site_fract_z
 _atom_site_occupancy
  O  O0  1  0.17524217  0.35048434  0.42423579  1
  O  O1  1  0.17524165  0.82475717  0.42423579  1
  O  O2  1  0.66666573  0.33333245  0.41679809  1
  O  O3  1  0.33333345  0.66666690  0.91679816  1
  O  O4  1  0.66666573  0.33333245  0.08284193  1
  O  O5  1  0.33333345  0.66666690  0.58284201  1
  O  O6  1  0.85234104  0.70468306  0.24970292  1
  O  O7  1  0.14765795  0.85234221  0.74970300  1
  O  O8  1  0.70468426  0.85234221  0.74970300  1
  O  O9  1  0.29531767  0.14765915  0.24970292  1
  O  O10  1  0.85234224  0.14765915  0.24970292  1
  O  O11  1  0.64951552  0.82475717  0.42423579  1
  O  O12  1  0.17335959  0.34671917  0.07348394  1
  O  O13  1  0.82664040  0.17335959  0.57348401  1
  O  O14  1  0.34671995  0.17335959  0.57348401  1
  O  O15  1  0.65327923  0.82663976  0.07348394  1
  O  O16  1  0.17336053  0.82663976  0.07348394  1
  O  O17  1  0.82663960  0.65328017  0.57348401  1
  O  O18  1  0.82475701  0.64951500  0.92423587  1
  O  O19  1  0.82475753  0.17524217  0.92423587  1
  O  O20  1  0.35048366  0.17524217  0.92423587  1
  O  O21  1  0.14765814  0.29531629  0.74970300  1
  Na  Na22  1  0.33333345  0.66666690  0.26947740  1
  Na  Na23  1  0.66666573  0.33333245  0.76947672  1
  V  V24  1  0.66666573  0.33333245  0.24791294  1
  V  V25  1  0.33333345  0.66666690  0.74791301  1
  V  V26  1  0.00000000  0.00000000  0.85123796  1
  V  V27  1  0.00000000  0.00000000  0.35123788  1
  V  V28  1  0.00000000  0.00000000  0.64839275  1
  V  V29  1  0.00000000  0.00000000  0.14839267  1
  V  V30  1  0.50039090  0.00078279  0.49996412  1
  V  V31  1  0.49960849  0.50039207  0.99996345  1
  V  V32  1  0.00078358  0.50039207  0.99996345  1
  V  V33  1  0.99921660  0.49960928  0.49996412  1
  V  V34  1  0.50039170  0.49960928  0.49996412  1
  V  V35  1  0.49960828  0.99921656  0.99996345  1
