# generated using pymatgen
data_InSe
_symmetry_space_group_name_H-M   'P 1'
_cell_length_a   4.14491478
_cell_length_b   5.23058815
_cell_length_c   11.08762667
_cell_angle_alpha   96.60447050
_cell_angle_beta   90.00000000
_cell_angle_gamma   90.00000000
_symmetry_Int_Tables_number   1
_chemical_formula_structural   InSe
_chemical_formula_sum   'In4 Se4'
_cell_volume   238.78830532
_cell_formula_units_Z   4
loop_
 _symmetry_equiv_pos_site_id
 _symmetry_equiv_pos_as_xyz
  1  'x, y, z'
loop_
 _atom_site_type_symbol
 _atom_site_label
 _atom_site_symmetry_multiplicity
 _atom_site_fract_x
 _atom_site_fract_y
 _atom_site_fract_z
 _atom_site_occupancy
  Se  Se0  1  0.50000000  0.49074134  0.16151161  1
  Se  Se1  1  0.50000000  0.50925866  0.83848839  1
  Se  Se2  1  0.00000000  0.00925866  0.33848839  1
  Se  Se3  1  0.00000000  0.99074134  0.66151161  1
  In  In4  1  0.50000000  0.33778777  0.38807079  1
  In  In5  1  0.50000000  0.66221223  0.61192921  1
  In  In6  1  0.00000000  0.16221223  0.11192921  1
  In  In7  1  0.00000000  0.83778777  0.88807079  1
