# generated using pymatgen
data_P2Pb3O8
_symmetry_space_group_name_H-M   'P 1'
_cell_length_a   7.56020909
_cell_length_b   7.56020909
_cell_length_c   7.56020909
_cell_angle_alpha   43.18359935
_cell_angle_beta   43.18359929
_cell_angle_gamma   43.18359933
_symmetry_Int_Tables_number   1
_chemical_formula_structural   P2Pb3O8
_chemical_formula_sum   'P2 Pb3 O8'
_cell_volume   183.49614548
_cell_formula_units_Z   1
loop_
 _symmetry_equiv_pos_site_id
 _symmetry_equiv_pos_as_xyz
  1  'x, y, z'
loop_
 _atom_site_type_symbol
 _atom_site_label
 _atom_site_symmetry_multiplicity
 _atom_site_fract_x
 _atom_site_fract_y
 _atom_site_fract_z
 _atom_site_occupancy
  O  O0  1  0.72374166  0.72374166  0.26547978  1
  O  O1  1  0.72374166  0.26547978  0.72374166  1
  O  O2  1  0.26547978  0.72374166  0.72374166  1
  O  O3  1  0.73452022  0.27625834  0.27625834  1
  O  O4  1  0.27625834  0.27625834  0.73452022  1
  O  O5  1  0.32789260  0.32789260  0.32789260  1
  O  O6  1  0.67210740  0.67210740  0.67210740  1
  O  O7  1  0.27625834  0.73452022  0.27625834  1
  P  P8  1  0.59666297  0.59666297  0.59666297  1
  P  P9  1  0.40333703  0.40333703  0.40333703  1
  Pb  Pb10  1  0.78663227  0.78663227  0.78663227  1
  Pb  Pb11  1  0.21336773  0.21336773  0.21336773  1
  Pb  Pb12  1  0.00000000  0.00000000  0.00000000  1
