# generated using pymatgen
data_Cd(InSe2)2
_symmetry_space_group_name_H-M   'P 1'
_cell_length_a   8.18582636
_cell_length_b   8.18582637
_cell_length_c   8.18582636
_cell_angle_alpha   60.00000002
_cell_angle_beta   60.00000000
_cell_angle_gamma   60.00000000
_symmetry_Int_Tables_number   1
_chemical_formula_structural   Cd(InSe2)2
_chemical_formula_sum   'Cd2 In4 Se8'
_cell_volume   387.85785085
_cell_formula_units_Z   2
loop_
 _symmetry_equiv_pos_site_id
 _symmetry_equiv_pos_as_xyz
  1  'x, y, z'
loop_
 _atom_site_type_symbol
 _atom_site_label
 _atom_site_symmetry_multiplicity
 _atom_site_fract_x
 _atom_site_fract_y
 _atom_site_fract_z
 _atom_site_occupancy
  Se  Se0  1  0.74048043  0.74048043  0.74048043  1
  Se  Se1  1  0.25951957  0.25951957  0.72144130  1
  Se  Se2  1  0.25951957  0.72144130  0.25951957  1
  Se  Se3  1  0.72144130  0.25951957  0.25951957  1
  Se  Se4  1  0.74048043  0.27855870  0.74048043  1
  Se  Se5  1  0.27855870  0.74048043  0.74048043  1
  Se  Se6  1  0.25951957  0.25951957  0.25951957  1
  Se  Se7  1  0.74048043  0.74048043  0.27855870  1
  Cd  Cd8  1  0.87500000  0.87500000  0.87500000  1
  Cd  Cd9  1  0.12500000  0.12500000  0.12500000  1
  In  In10  1  0.50000000  0.50000000  0.00000000  1
  In  In11  1  0.50000000  0.50000000  0.50000000  1
  In  In12  1  0.00000000  0.50000000  0.50000000  1
  In  In13  1  0.50000000  0.00000000  0.50000000  1
