# generated using pymatgen
data_Dy2Cu4Sn5
_symmetry_space_group_name_H-M   'P 1'
_cell_length_a   4.49598880
_cell_length_b   4.49598880
_cell_length_c   12.31181263
_cell_angle_alpha   100.52056596
_cell_angle_beta   100.52056596
_cell_angle_gamma   90.00000000
_symmetry_Int_Tables_number   1
_chemical_formula_structural   Dy2Cu4Sn5
_chemical_formula_sum   'Dy2 Cu4 Sn5'
_cell_volume   240.42986021
_cell_formula_units_Z   1
loop_
 _symmetry_equiv_pos_site_id
 _symmetry_equiv_pos_as_xyz
  1  'x, y, z'
loop_
 _atom_site_type_symbol
 _atom_site_label
 _atom_site_symmetry_multiplicity
 _atom_site_fract_x
 _atom_site_fract_y
 _atom_site_fract_z
 _atom_site_occupancy
  Dy  Dy0  1  0.00113009  0.00113009  0.00226018  1
  Dy  Dy1  1  0.67993992  0.67993992  0.35987984  1
  Cu  Cu2  1  0.09124520  0.59124520  0.18249039  1
  Cu  Cu3  1  0.59124520  0.09124520  0.18249039  1
  Cu  Cu4  1  0.12778540  0.12778540  0.25557080  1
  Cu  Cu5  1  0.22549897  0.22549897  0.45099794  1
  Sn  Sn6  1  0.28422122  0.78422122  0.56844244  1
  Sn  Sn7  1  0.78422122  0.28422122  0.56844244  1
  Sn  Sn8  1  0.40606163  0.90606163  0.81212325  1
  Sn  Sn9  1  0.90606163  0.40606163  0.81212325  1
  Sn  Sn10  1  0.52858953  0.52858953  0.05717907  1
