# generated using pymatgen
data_Rb2CuH4(Cl2O)2
_symmetry_space_group_name_H-M   'P 1'
_cell_length_a   7.79352466
_cell_length_b   7.79352466
_cell_length_c   8.08543560
_cell_angle_alpha   90.00000000
_cell_angle_beta   90.00000000
_cell_angle_gamma   90.00000000
_symmetry_Int_Tables_number   1
_chemical_formula_structural   Rb2CuH4(Cl2O)2
_chemical_formula_sum   'Rb4 Cu2 H8 Cl8 O4'
_cell_volume   491.10148819
_cell_formula_units_Z   2
loop_
 _symmetry_equiv_pos_site_id
 _symmetry_equiv_pos_as_xyz
  1  'x, y, z'
loop_
 _atom_site_type_symbol
 _atom_site_label
 _atom_site_symmetry_multiplicity
 _atom_site_fract_x
 _atom_site_fract_y
 _atom_site_fract_z
 _atom_site_occupancy
  H  H0  1  0.92678816  0.92678816  0.68294874  1
  H  H1  1  0.07321184  0.07321184  0.68294874  1
  H  H2  1  0.92678816  0.92678816  0.31705126  1
  H  H3  1  0.42678816  0.57321184  0.18294874  1
  H  H4  1  0.57321184  0.42678816  0.18294874  1
  H  H5  1  0.07321184  0.07321184  0.31705126  1
  H  H6  1  0.42678816  0.57321184  0.81705126  1
  H  H7  1  0.57321184  0.42678816  0.81705126  1
  O  O8  1  0.00000000  0.00000000  0.24437424  1
  O  O9  1  0.50000000  0.50000000  0.74437424  1
  O  O10  1  0.50000000  0.50000000  0.25562576  1
  O  O11  1  0.00000000  0.00000000  0.75562576  1
  Cl  Cl12  1  0.70803309  0.29196691  0.00000000  1
  Cl  Cl13  1  0.79381923  0.79381923  0.00000000  1
  Cl  Cl14  1  0.79196691  0.79196691  0.50000000  1
  Cl  Cl15  1  0.29381923  0.70618077  0.50000000  1
  Cl  Cl16  1  0.20618077  0.20618077  0.00000000  1
  Cl  Cl17  1  0.20803309  0.20803309  0.50000000  1
  Cl  Cl18  1  0.29196691  0.70803309  0.00000000  1
  Cl  Cl19  1  0.70618077  0.29381923  0.50000000  1
  Cu  Cu20  1  0.50000000  0.50000000  0.50000000  1
  Cu  Cu21  1  0.00000000  0.00000000  0.00000000  1
  Rb  Rb22  1  0.50000000  0.00000000  0.75000000  1
  Rb  Rb23  1  0.50000000  0.00000000  0.25000000  1
  Rb  Rb24  1  0.00000000  0.50000000  0.75000000  1
  Rb  Rb25  1  0.00000000  0.50000000  0.25000000  1
