# generated using pymatgen
data_NiSeO3
_symmetry_space_group_name_H-M   'P 1'
_cell_length_a   5.01392413
_cell_length_b   5.94957385
_cell_length_c   7.62682673
_cell_angle_alpha   90.00000000
_cell_angle_beta   90.00000000
_cell_angle_gamma   90.00000000
_symmetry_Int_Tables_number   1
_chemical_formula_structural   NiSeO3
_chemical_formula_sum   'Ni4 Se4 O12'
_cell_volume   227.51367082
_cell_formula_units_Z   4
loop_
 _symmetry_equiv_pos_site_id
 _symmetry_equiv_pos_as_xyz
  1  'x, y, z'
loop_
 _atom_site_type_symbol
 _atom_site_label
 _atom_site_symmetry_multiplicity
 _atom_site_fract_x
 _atom_site_fract_y
 _atom_site_fract_z
 _atom_site_occupancy
  O  O0  1  0.85887665  0.18304597  0.42496437  1
  O  O1  1  0.35887697  0.31695349  0.57503595  1
  O  O2  1  0.64112241  0.68304543  0.07503579  1
  O  O3  1  0.14112272  0.81695464  0.92496453  1
  O  O4  1  0.14112272  0.81695464  0.57503595  1
  O  O5  1  0.64112241  0.68304543  0.42496437  1
  O  O6  1  0.35887697  0.31695349  0.92496453  1
  O  O7  1  0.85887665  0.18304597  0.07503579  1
  O  O8  1  0.32486142  0.07338948  0.25000008  1
  O  O9  1  0.82486111  0.42660998  0.75000024  1
  O  O10  1  0.67513795  0.92660945  0.75000024  1
  O  O11  1  0.17513827  0.57338894  0.25000008  1
  Ni  Ni12  1  0.49999969  0.00000000  0.00000000  1
  Ni  Ni13  1  0.00000000  0.49999946  0.00000000  1
  Ni  Ni14  1  0.00000000  0.49999946  0.50000016  1
  Ni  Ni15  1  0.49999969  0.00000000  0.50000016  1
  Se  Se16  1  0.98149813  0.01967559  0.25000008  1
  Se  Se17  1  0.48149844  0.48032555  0.75000024  1
  Se  Se18  1  0.51850094  0.51967505  0.25000008  1
  Se  Se19  1  0.01850125  0.98032502  0.75000024  1
