# generated using pymatgen
data_Li2CuPCO7
_symmetry_space_group_name_H-M   'P 1'
_cell_length_a   5.01673833
_cell_length_b   6.28543187
_cell_length_c   8.45313114
_cell_angle_alpha   90.00000000
_cell_angle_beta   87.16090393
_cell_angle_gamma   90.00000000
_symmetry_Int_Tables_number   1
_chemical_formula_structural   Li2CuPCO7
_chemical_formula_sum   'Li4 Cu2 P2 C2 O14'
_cell_volume   266.22006585
_cell_formula_units_Z   2
loop_
 _symmetry_equiv_pos_site_id
 _symmetry_equiv_pos_as_xyz
  1  'x, y, z'
loop_
 _atom_site_type_symbol
 _atom_site_label
 _atom_site_symmetry_multiplicity
 _atom_site_fract_x
 _atom_site_fract_y
 _atom_site_fract_z
 _atom_site_occupancy
  Li  Li0  1  0.77684087  0.99608442  0.75568453  1
  Li  Li1  1  0.22315913  0.00391558  0.24431547  1
  Li  Li2  1  0.22315913  0.49608442  0.24431547  1
  Li  Li3  1  0.77684087  0.50391558  0.75568453  1
  C  C4  1  0.73290892  0.75000000  0.05523144  1
  C  C5  1  0.26709108  0.25000000  0.94476856  1
  O  O6  1  0.53124072  0.75000000  0.15941428  1
  O  O7  1  0.96592017  0.75000000  0.11625980  1
  O  O8  1  0.46875928  0.25000000  0.84058572  1
  O  O9  1  0.17465103  0.94252604  0.67553391  1
  O  O10  1  0.17465103  0.55747396  0.67553391  1
  O  O11  1  0.18592115  0.75000000  0.40805000  1
  O  O12  1  0.81407885  0.25000000  0.59195000  1
  O  O13  1  0.82534897  0.44252604  0.32446609  1
  O  O14  1  0.82534897  0.05747396  0.32446609  1
  O  O15  1  0.40312274  0.25000000  0.43328428  1
  O  O16  1  0.70377018  0.75000000  0.90756110  1
  O  O17  1  0.29622982  0.25000000  0.09243890  1
  O  O18  1  0.59687726  0.75000000  0.56671572  1
  O  O19  1  0.03407983  0.25000000  0.88374020  1
  P  P20  1  0.71493646  0.25000000  0.42089627  1
  P  P21  1  0.28506354  0.75000000  0.57910373  1
  Cu  Cu22  1  0.78927184  0.75000000  0.34918018  1
  Cu  Cu23  1  0.21072816  0.25000000  0.65081982  1
