# generated using pymatgen
data_Li3Sb2P5O18
_symmetry_space_group_name_H-M   'P 1'
_cell_length_a   9.78810526
_cell_length_b   11.03884428
_cell_length_c   6.57894191
_cell_angle_alpha   92.90230007
_cell_angle_beta   91.13824854
_cell_angle_gamma   95.77220495
_symmetry_Int_Tables_number   1
_chemical_formula_structural   Li3Sb2P5O18
_chemical_formula_sum   'Li6 Sb4 P10 O36'
_cell_volume   706.11624391
_cell_formula_units_Z   2
loop_
 _symmetry_equiv_pos_site_id
 _symmetry_equiv_pos_as_xyz
  1  'x, y, z'
loop_
 _atom_site_type_symbol
 _atom_site_label
 _atom_site_symmetry_multiplicity
 _atom_site_fract_x
 _atom_site_fract_y
 _atom_site_fract_z
 _atom_site_occupancy
  Li  Li0  1  0.18322680  0.69005894  0.09727133  1
  Li  Li1  1  0.36006372  0.83711039  0.34849427  1
  Li  Li2  1  0.63430813  0.16643703  0.64966346  1
  Li  Li3  1  0.82081483  0.33601016  0.88482174  1
  Li  Li4  1  0.88214431  0.64240901  0.19131294  1
  Li  Li5  1  0.98101544  0.12323904  0.97990189  1
  O  O6  1  0.00548941  0.68496374  0.97092940  1
  O  O7  1  0.08132635  0.90011937  0.64721848  1
  O  O8  1  0.03144715  0.31156146  0.42860403  1
  O  O9  1  0.07580436  0.50108070  0.75260491  1
  O  O10  1  0.05041980  0.14864417  0.67593181  1
  O  O11  1  0.16816800  0.75875995  0.36705879  1
  O  O12  1  0.16912749  0.45568900  0.21875198  1
  O  O13  1  0.17330184  0.05467603  1.00386056  1
  O  O14  1  0.25505831  0.22241317  0.26917470  1
  O  O15  1  0.33991602  0.80396667  0.02383382  1
  O  O16  1  0.38121746  0.88329023  0.66798038  1
  O  O17  1  0.28386677  0.00629132  0.33972447  1
  O  O18  1  0.33226415  0.36980529  0.91723376  1
  O  O19  1  0.35678915  0.42349545  0.54214313  1
  O  O20  1  0.43662871  0.55898427  0.21097902  1
  O  O21  1  0.47525834  0.68690229  0.76817793  1
  O  O22  1  0.42580854  0.11295463  0.06311554  1
  O  O23  1  0.45526652  0.23519510  0.66708174  1
  O  O24  1  0.54156315  0.76869313  0.33251379  1
  O  O25  1  0.57730847  0.89288417  0.93047780  1
  O  O26  1  0.52849103  0.31688994  0.23431320  1
  O  O27  1  0.56467350  0.44399375  0.79002871  1
  O  O28  1  0.64792632  0.58415796  0.45913285  1
  O  O29  1  0.71166083  0.98843062  0.63911069  1
  O  O30  1  0.67387573  0.63362959  0.09250495  1
  O  O31  1  0.62027447  0.11810754  0.32528814  1
  O  O32  1  0.66389971  0.20359150  0.97253439  1
  O  O33  1  0.75441349  0.77906186  0.75056819  1
  O  O34  1  0.82655506  0.97039548  0.98091565  1
  O  O35  1  0.82588473  0.53464713  0.78151480  1
  O  O36  1  0.82469594  0.23980562  0.62934038  1
  O  O37  1  0.92501284  0.82714080  0.34155476  1
  O  O38  1  0.92024758  0.48320391  0.25410116  1
  O  O39  1  0.97570403  0.68062509  0.58755097  1
  O  O40  1  0.91579569  0.09973467  0.34585661  1
  O  O41  1  0.97983043  0.29453049  0.05055657  1
  P  P42  1  0.04582094  0.79584624  0.47992589  1
  P  P43  1  0.01587041  0.38709094  0.22502266  1
  P  P44  1  0.28057744  0.09535314  0.17177034  1
  P  P45  1  0.43186640  0.81571338  0.84581712  1
  P  P46  1  0.42511200  0.36299965  0.72509458  1
  P  P47  1  0.57276356  0.64098782  0.27869785  1
  P  P48  1  0.57164936  0.18964391  0.14989071  1
  P  P49  1  0.72323288  0.90999292  0.82154197  1
  P  P50  1  0.98470827  0.59871127  0.78390427  1
  P  P51  1  0.94886497  0.19929944  0.52622015  1
  Sb  Sb52  1  0.23043411  0.04411498  0.67388122  1
  Sb  Sb53  1  0.34860808  0.39029107  0.23173899  1
  Sb  Sb54  1  0.65251237  0.61129818  0.76931855  1
  Sb  Sb55  1  0.76381315  0.95644145  0.31562451  1
