# generated using pymatgen
data_Bi(PO3)4
_symmetry_space_group_name_H-M   'P 1'
_cell_length_a   7.84562560
_cell_length_b   7.84562559
_cell_length_c   17.59611786
_cell_angle_alpha   90.00000000
_cell_angle_beta   90.00000000
_cell_angle_gamma   96.34514823
_symmetry_Int_Tables_number   1
_chemical_formula_structural   Bi(PO3)4
_chemical_formula_sum   'Bi4 P16 O48'
_cell_volume   1076.47371019
_cell_formula_units_Z   4
loop_
 _symmetry_equiv_pos_site_id
 _symmetry_equiv_pos_as_xyz
  1  'x, y, z'
loop_
 _atom_site_type_symbol
 _atom_site_label
 _atom_site_symmetry_multiplicity
 _atom_site_fract_x
 _atom_site_fract_y
 _atom_site_fract_z
 _atom_site_occupancy
  O  O0  1  0.92634142  0.10795392  0.40375869  1
  O  O1  1  0.93740658  0.36512290  0.52340338  1
  O  O2  1  0.89204608  0.07365858  0.59624131  1
  O  O3  1  0.89002371  0.34699267  0.80684663  1
  O  O4  1  0.07365858  0.89204608  0.90375869  1
  O  O5  1  0.06259342  0.63487710  0.02340338  1
  O  O6  1  0.10795392  0.92634142  0.09624131  1
  O  O7  1  0.10997629  0.65300733  0.30684663  1
  O  O8  1  0.10119364  0.63499610  0.16305571  1
  O  O9  1  0.13457427  0.68788618  0.77443157  1
  O  O10  1  0.18613016  0.61859363  0.45990947  1
  O  O11  1  0.16473355  0.26428202  0.61356491  1
  O  O12  1  0.21023351  0.46662765  0.90926769  1
  O  O13  1  0.25155893  0.26144486  0.02573733  1
  O  O14  1  0.31211382  0.86542573  0.22556843  1
  O  O15  1  0.24895562  0.30270331  0.31970416  1
  O  O16  1  0.26144486  0.25155893  0.47426267  1
  O  O17  1  0.86542573  0.31211382  0.27443157  1
  O  O18  1  0.26428202  0.16473355  0.88643509  1
  O  O19  1  0.36512290  0.93740658  0.97659662  1
  O  O20  1  0.36500390  0.89880636  0.83694429  1
  O  O21  1  0.30270331  0.24895562  0.18029584  1
  O  O22  1  0.35673794  0.55308880  0.23066195  1
  O  O23  1  0.38140637  0.81386984  0.54009053  1
  O  O24  1  0.37824264  0.49723375  0.56201186  1
  O  O25  1  0.44691120  0.64326206  0.76933805  1
  O  O26  1  0.50276625  0.62175736  0.43798814  1
  O  O27  1  0.53337235  0.78976649  0.09073231  1
  O  O28  1  0.46662765  0.21023351  0.59073231  1
  O  O29  1  0.49723375  0.37824264  0.93798814  1
  O  O30  1  0.55308880  0.35673794  0.26933805  1
  O  O31  1  0.62175736  0.50276625  0.06201186  1
  O  O32  1  0.61859363  0.18613016  0.04009053  1
  O  O33  1  0.64326206  0.44691120  0.73066195  1
  O  O34  1  0.69729669  0.75104438  0.68029584  1
  O  O35  1  0.63499610  0.10119364  0.33694429  1
  O  O36  1  0.63487710  0.06259342  0.47659662  1
  O  O37  1  0.73571798  0.83526645  0.38643509  1
  O  O38  1  0.65300733  0.10997629  0.19315337  1
  O  O39  1  0.73855514  0.74844107  0.97426267  1
  O  O40  1  0.75104438  0.69729669  0.81970416  1
  O  O41  1  0.68788618  0.13457427  0.72556843  1
  O  O42  1  0.74844107  0.73855514  0.52573733  1
  O  O43  1  0.78976649  0.53337235  0.40926769  1
  O  O44  1  0.83526645  0.73571798  0.11356491  1
  O  O45  1  0.81386984  0.38140637  0.95990947  1
  O  O46  1  0.89880636  0.36500390  0.66305571  1
  O  O47  1  0.34699267  0.89002371  0.69315337  1
  P  P48  1  0.68916048  0.21746468  0.26321602  1
  P  P49  1  0.73911561  0.03504109  0.40711329  1
  P  P50  1  0.78253532  0.31083952  0.73678398  1
  P  P51  1  0.70930954  0.67748362  0.44638569  1
  P  P52  1  0.03504109  0.73911561  0.09288671  1
  P  P53  1  0.21746468  0.68916048  0.23678398  1
  P  P54  1  0.26088439  0.96495891  0.90711329  1
  P  P55  1  0.31083952  0.78253532  0.76321602  1
  P  P56  1  0.29069046  0.32251638  0.94638569  1
  P  P57  1  0.35684613  0.64315387  0.50000000  1
  P  P58  1  0.96495891  0.26088439  0.59288671  1
  P  P59  1  0.35361508  0.35361508  0.25000000  1
  P  P60  1  0.64638492  0.64638492  0.75000000  1
  P  P61  1  0.67748362  0.70930954  0.05361431  1
  P  P62  1  0.64315387  0.35684613  0.00000000  1
  P  P63  1  0.32251638  0.29069046  0.55361431  1
  Bi  Bi64  1  0.96211436  0.60811621  0.89617013  1
  Bi  Bi65  1  0.60811621  0.96211436  0.60382987  1
  Bi  Bi66  1  0.39188379  0.03788564  0.10382987  1
  Bi  Bi67  1  0.03788564  0.39188379  0.39617013  1
