# generated using pymatgen
data_SbP2O7
_symmetry_space_group_name_H-M   'P 1'
_cell_length_a   5.05766473
_cell_length_b   8.51481412
_cell_length_c   7.21217368
_cell_angle_alpha   90.00000000
_cell_angle_beta   108.38385822
_cell_angle_gamma   90.00000000
_symmetry_Int_Tables_number   1
_chemical_formula_structural   SbP2O7
_chemical_formula_sum   'Sb2 P4 O14'
_cell_volume   294.74166629
_cell_formula_units_Z   2
loop_
 _symmetry_equiv_pos_site_id
 _symmetry_equiv_pos_as_xyz
  1  'x, y, z'
loop_
 _atom_site_type_symbol
 _atom_site_label
 _atom_site_symmetry_multiplicity
 _atom_site_fract_x
 _atom_site_fract_y
 _atom_site_fract_z
 _atom_site_occupancy
  O  O0  1  0.03972671  0.26416666  0.84854307  1
  O  O1  1  0.12702165  0.62862919  0.90313052  1
  O  O2  1  0.18672117  0.99617817  0.48615278  1
  O  O3  1  0.26939784  0.29583925  0.50776626  1
  O  O4  1  0.41373201  0.62668797  0.60824630  1
  O  O5  1  0.60554112  0.36931809  0.91720222  1
  O  O6  1  0.58940355  0.10313069  0.74627122  1
  O  O7  1  0.41059645  0.60313069  0.25372878  1
  O  O8  1  0.39445888  0.86931809  0.08279778  1
  O  O9  1  0.58626799  0.12668797  0.39175370  1
  O  O10  1  0.73060216  0.79583925  0.49223374  1
  O  O11  1  0.81327883  0.49617817  0.51384722  1
  O  O12  1  0.87297835  0.12862919  0.09686948  1
  O  O13  1  0.96027329  0.76416666  0.15145693  1
  P  P14  1  0.39837372  0.13065986  0.52282687  1
  P  P15  1  0.21969503  0.72370819  0.09290190  1
  P  P16  1  0.78030497  0.22370819  0.90709810  1
  P  P17  1  0.60162628  0.63065986  0.47717313  1
  Sb  Sb18  1  0.21141940  0.45007610  0.72239585  1
  Sb  Sb19  1  0.78858060  0.95007610  0.27760415  1
