# generated using pymatgen
data_Li(CuO2)2
_symmetry_space_group_name_H-M   'P 1'
_cell_length_a   5.86949206
_cell_length_b   5.86949219
_cell_length_c   5.86949163
_cell_angle_alpha   59.99999720
_cell_angle_beta   59.99999653
_cell_angle_gamma   60.00000180
_symmetry_Int_Tables_number   1
_chemical_formula_structural   Li(CuO2)2
_chemical_formula_sum   'Li2 Cu4 O8'
_cell_volume   142.98369747
_cell_formula_units_Z   2
loop_
 _symmetry_equiv_pos_site_id
 _symmetry_equiv_pos_as_xyz
  1  'x, y, z'
loop_
 _atom_site_type_symbol
 _atom_site_label
 _atom_site_symmetry_multiplicity
 _atom_site_fract_x
 _atom_site_fract_y
 _atom_site_fract_z
 _atom_site_occupancy
  Li  Li0  1  0.12500100  0.12500000  0.12500000  1
  Li  Li1  1  0.87500000  0.87499900  0.87500100  1
  O  O2  1  0.73685600  0.73685600  0.28943200  1
  O  O3  1  0.73685600  0.73685600  0.73685600  1
  O  O4  1  0.26314500  0.26314400  0.71056700  1
  O  O5  1  0.26314500  0.71056800  0.26314400  1
  O  O6  1  0.26314500  0.26314400  0.26314400  1
  O  O7  1  0.71056800  0.26314400  0.26314400  1
  O  O8  1  0.73685700  0.28943100  0.73685700  1
  O  O9  1  0.28943300  0.73685600  0.73685700  1
  Cu  Cu10  1  0.49999900  0.50000100  0.50000000  1
  Cu  Cu11  1  0.50000100  0.00000000  0.50000000  1
  Cu  Cu12  1  0.00000100  0.50000100  0.50000000  1
  Cu  Cu13  1  0.49999900  0.50000100  0.00000000  1
