# generated using pymatgen
data_Li3Sn2(PO4)3
_symmetry_space_group_name_H-M   'P 1'
_cell_length_a   8.77270531
_cell_length_b   13.16159627
_cell_length_c   8.90902626
_cell_angle_alpha   90.00000000
_cell_angle_beta   90.00000000
_cell_angle_gamma   91.57506221
_symmetry_Int_Tables_number   1
_chemical_formula_structural   Li3Sn2(PO4)3
_chemical_formula_sum   'Li12 Sn8 P12 O48'
_cell_volume   1028.27251092
_cell_formula_units_Z   4
loop_
 _symmetry_equiv_pos_site_id
 _symmetry_equiv_pos_as_xyz
  1  'x, y, z'
loop_
 _atom_site_type_symbol
 _atom_site_label
 _atom_site_symmetry_multiplicity
 _atom_site_fract_x
 _atom_site_fract_y
 _atom_site_fract_z
 _atom_site_occupancy
  Li  Li0  1  0.08607448  0.68933190  0.11023777  1
  Li  Li1  1  0.14552802  0.74612658  0.72556624  1
  Li  Li2  1  0.18608198  0.16331535  0.77674060  1
  Li  Li3  1  0.31391802  0.33668465  0.27674060  1
  Li  Li4  1  0.35447198  0.75387342  0.22556624  1
  Li  Li5  1  0.41392552  0.81066810  0.61023777  1
  Li  Li6  1  0.58607448  0.18933190  0.38976223  1
  Li  Li7  1  0.64552802  0.24612658  0.77443376  1
  Li  Li8  1  0.68608198  0.66331535  0.72325940  1
  Li  Li9  1  0.81391802  0.83668465  0.22325940  1
  Li  Li10  1  0.85447198  0.25387342  0.27443376  1
  Li  Li11  1  0.91392552  0.31066810  0.88976223  1
  O  O12  1  0.03637581  0.44142285  0.87207105  1
  O  O13  1  0.05072018  0.84882703  0.85014775  1
  O  O14  1  0.05428530  0.60802659  0.72055262  1
  O  O15  1  0.06993264  0.15853588  0.55901371  1
  O  O16  1  0.09072768  0.55166057  0.37265087  1
  O  O17  1  0.11675712  0.27375799  1.00447380  1
  O  O18  1  0.13222345  0.78979708  0.26639688  1
  O  O19  1  0.13838088  0.96933945  0.36740177  1
  O  O20  1  0.17298298  0.09338718  0.98662936  1
  O  O21  1  0.20331545  0.81883405  0.54044732  1
  O  O22  1  0.19779374  0.45052438  0.16132730  1
  O  O23  1  0.21856850  0.18572585  0.24263901  1
  O  O24  1  0.28143150  0.31427415  0.74263901  1
  O  O25  1  0.29668455  0.68116595  0.04044732  1
  O  O26  1  0.30220626  0.04947562  0.66132730  1
  O  O27  1  0.32701702  0.40661282  0.48662936  1
  O  O28  1  0.36161912  0.53066055  0.86740177  1
  O  O29  1  0.36777655  0.71020292  0.76639688  1
  O  O30  1  0.38324288  0.22624201  0.50447380  1
  O  O31  1  0.40927232  0.94833943  0.87265087  1
  O  O32  1  0.44571470  0.89197341  0.22055262  1
  O  O33  1  0.43006736  0.34146412  0.05901371  1
  O  O34  1  0.44927982  0.65117297  0.35014775  1
  O  O35  1  0.46362419  0.05857715  0.37207105  1
  O  O36  1  0.53637581  0.94142285  0.62792895  1
  O  O37  1  0.55072018  0.34882703  0.64985225  1
  O  O38  1  0.56993264  0.65853588  0.94098629  1
  O  O39  1  0.55428530  0.10802659  0.77944738  1
  O  O40  1  0.59072768  0.05166057  0.12734913  1
  O  O41  1  0.61675712  0.77375799  0.49552620  1
  O  O42  1  0.63222345  0.28979708  0.23360312  1
  O  O43  1  0.63838088  0.46933945  0.13259823  1
  O  O44  1  0.67298298  0.59338718  0.51337064  1
  O  O45  1  0.69779374  0.95052438  0.33867270  1
  O  O46  1  0.70331545  0.31883405  0.95955268  1
  O  O47  1  0.71856850  0.68572585  0.25736099  1
  O  O48  1  0.78143150  0.81427415  0.75736099  1
  O  O49  1  0.80220626  0.54947562  0.83867270  1
  O  O50  1  0.79668455  0.18116595  0.45955268  1
  O  O51  1  0.82701702  0.90661282  0.01337064  1
  O  O52  1  0.86161912  0.03066055  0.63259823  1
  O  O53  1  0.86777655  0.21020292  0.73360312  1
  O  O54  1  0.88324288  0.72624201  -0.00447380  1
  O  O55  1  0.90927232  0.44833943  0.62734913  1
  O  O56  1  0.93006736  0.84146412  0.44098629  1
  O  O57  1  0.94571470  0.39197341  0.27944738  1
  O  O58  1  0.94927982  0.15117297  0.14985225  1
  O  O59  1  0.96362419  0.55857715  0.12792895  1
  P  P60  1  0.04546975  0.48404829  0.23864674  1
  P  P61  1  0.10739963  0.85302716  0.40826343  1
  P  P62  1  0.11378195  0.17298984  0.09918172  1
  P  P63  1  0.39260037  0.64697284  0.90826343  1
  P  P64  1  0.38621805  0.32701016  0.59918172  1
  P  P65  1  0.45453025  0.01595171  0.73864674  1
  P  P66  1  0.54546975  0.98404829  0.26135326  1
  P  P67  1  0.61378195  0.67298984  0.40081828  1
  P  P68  1  0.60739963  0.35302716  0.09173657  1
  P  P69  1  0.88621805  0.82701016  0.90081828  1
  P  P70  1  0.89260037  0.14697284  0.59173657  1
  P  P71  1  0.95453025  0.51595171  0.76135326  1
  Sn  Sn72  1  0.22934479  0.92839411  0.02987486  1
  Sn  Sn73  1  0.25124738  0.40287646  0.94400427  1
  Sn  Sn74  1  0.24875262  0.09712354  0.44400427  1
  Sn  Sn75  1  0.27065521  0.57160589  0.52987486  1
  Sn  Sn76  1  0.72934479  0.42839411  0.47012514  1
  Sn  Sn77  1  0.75124738  0.90287646  0.55599573  1
  Sn  Sn78  1  0.74875262  0.59712354  0.05599573  1
  Sn  Sn79  1  0.77065521  0.07160589  0.97012514  1
