# generated using pymatgen
data_Sb(PO3)4
_symmetry_space_group_name_H-M   'P 1'
_cell_length_a   7.66967143
_cell_length_b   7.66967142
_cell_length_c   17.29320093
_cell_angle_alpha   90.00000000
_cell_angle_beta   90.00000000
_cell_angle_gamma   98.68363314
_symmetry_Int_Tables_number   1
_chemical_formula_structural   Sb(PO3)4
_chemical_formula_sum   'Sb4 P16 O48'
_cell_volume   1005.59211363
_cell_formula_units_Z   4
loop_
 _symmetry_equiv_pos_site_id
 _symmetry_equiv_pos_as_xyz
  1  'x, y, z'
loop_
 _atom_site_type_symbol
 _atom_site_label
 _atom_site_symmetry_multiplicity
 _atom_site_fract_x
 _atom_site_fract_y
 _atom_site_fract_z
 _atom_site_occupancy
  O  O0  1  0.06342240  0.87270518  0.90108367  1
  O  O1  1  0.05015071  0.64230891  0.02059134  1
  O  O2  1  0.12729482  0.93657760  0.09891633  1
  O  O3  1  0.09034615  0.63468092  0.16337578  1
  O  O4  1  0.11369032  0.64735765  0.30908388  1
  O  O5  1  0.12681903  0.68182781  0.77484371  1
  O  O6  1  0.19353531  0.60437457  0.45832129  1
  O  O7  1  0.16775846  0.23941239  0.61422409  1
  O  O8  1  0.19977760  0.48047083  0.90145107  1
  O  O9  1  0.22350138  0.28358009  0.02586588  1
  O  O10  1  0.31817219  0.87318097  0.22515629  1
  O  O11  1  0.23515462  0.30530943  0.31959337  1
  O  O12  1  0.23941239  0.16775846  0.88577591  1
  O  O13  1  0.35769109  0.94984929  0.97940866  1
  O  O14  1  0.35264235  0.88630968  0.69091612  1
  O  O15  1  0.28358009  0.22350138  0.47413412  1
  O  O16  1  0.36531908  0.90965385  0.83662422  1
  O  O17  1  0.30530943  0.23515462  0.18040663  1
  O  O18  1  0.35838043  0.55356446  0.22616495  1
  O  O19  1  0.39562543  0.80646469  0.54167871  1
  O  O20  1  0.38933099  0.48473908  0.56388283  1
  O  O21  1  0.44643554  0.64161957  0.77383505  1
  O  O22  1  0.51952917  0.80022240  0.09854893  1
  O  O23  1  0.51526092  0.61066901  0.43611717  1
  O  O24  1  0.48473908  0.38933099  0.93611717  1
  O  O25  1  0.48047083  0.19977760  0.59854893  1
  O  O26  1  0.55356446  0.35838043  0.27383505  1
  O  O27  1  0.61066901  0.51526092  0.06388283  1
  O  O28  1  0.60437457  0.19353531  0.04167871  1
  O  O29  1  0.64161957  0.44643554  0.72616495  1
  O  O30  1  0.69469057  0.76484538  0.68040663  1
  O  O31  1  0.63468092  0.09034615  0.33662422  1
  O  O32  1  0.71641991  0.77649862  0.97413412  1
  O  O33  1  0.64735765  0.11369032  0.19091612  1
  O  O34  1  0.64230891  0.05015071  0.47940866  1
  O  O35  1  0.76058761  0.83224154  0.38577591  1
  O  O36  1  0.76484538  0.69469057  0.81959337  1
  O  O37  1  0.68182781  0.12681903  0.72515629  1
  O  O38  1  0.77649862  0.71641991  0.52586588  1
  O  O39  1  0.80022240  0.51952917  0.40145107  1
  O  O40  1  0.83224154  0.76058761  0.11422409  1
  O  O41  1  0.80646469  0.39562543  0.95832129  1
  O  O42  1  0.87318097  0.31817219  0.27484371  1
  O  O43  1  0.88630968  0.35264235  0.80908388  1
  O  O44  1  0.90965385  0.36531908  0.66337578  1
  O  O45  1  0.87270518  0.06342240  0.59891633  1
  O  O46  1  0.94984929  0.35769109  0.52059134  1
  O  O47  1  0.93657760  0.12729482  0.40108367  1
  P  P48  1  0.03299641  0.74698286  0.09191691  1
  P  P49  1  0.21789666  0.68957143  0.23591321  1
  P  P50  1  0.25301714  0.96700359  0.90808309  1
  P  P51  1  0.31042857  0.78210334  0.76408679  1
  P  P52  1  0.27073044  0.33333173  0.94534633  1
  P  P53  1  0.36918082  0.63081918  0.50000000  1
  P  P54  1  0.33333173  0.27073044  0.55465367  1
  P  P55  1  0.35186685  0.35186685  0.25000000  1
  P  P56  1  0.64813315  0.64813315  0.75000000  1
  P  P57  1  0.66666827  0.72926956  0.05465367  1
  P  P58  1  0.63081918  0.36918082  0.00000000  1
  P  P59  1  0.72926956  0.66666827  0.44534633  1
  P  P60  1  0.68957143  0.21789666  0.26408679  1
  P  P61  1  0.74698286  0.03299641  0.40808309  1
  P  P62  1  0.78210334  0.31042857  0.73591321  1
  P  P63  1  0.96700359  0.25301714  0.59191691  1
  Sb  Sb64  1  0.03247333  0.40252729  0.38718325  1
  Sb  Sb65  1  0.40252729  0.03247333  0.11281675  1
  Sb  Sb66  1  0.59747271  0.96752667  0.61281675  1
  Sb  Sb67  1  0.96752667  0.59747271  0.88718325  1
