# generated using pymatgen
data_VAg(HO2)2
_symmetry_space_group_name_H-M   'P 1'
_cell_length_a   3.72731507
_cell_length_b   7.28236439
_cell_length_c   15.76622461
_cell_angle_alpha   90.00000000
_cell_angle_beta   90.00000000
_cell_angle_gamma   90.00000000
_symmetry_Int_Tables_number   1
_chemical_formula_structural   VAg(HO2)2
_chemical_formula_sum   'V4 Ag4 H8 O16'
_cell_volume   427.95314335
_cell_formula_units_Z   4
loop_
 _symmetry_equiv_pos_site_id
 _symmetry_equiv_pos_as_xyz
  1  'x, y, z'
loop_
 _atom_site_type_symbol
 _atom_site_label
 _atom_site_symmetry_multiplicity
 _atom_site_fract_x
 _atom_site_fract_y
 _atom_site_fract_z
 _atom_site_occupancy
  H  H0  1  0.95641133  0.63020290  0.23840025  1
  H  H1  1  0.45641198  0.36979771  0.76159993  1
  H  H2  1  0.54358943  0.13020328  0.26160016  1
  H  H3  1  0.04358737  0.86979734  0.73840002  1
  H  H4  1  0.04358737  0.36979771  0.76159993  1
  H  H5  1  0.54358943  0.63020290  0.23840025  1
  H  H6  1  0.45641198  0.86979734  0.73840002  1
  H  H7  1  0.95641133  0.13020328  0.26160016  1
  O  O8  1  0.24999967  0.35993497  0.45455709  1
  O  O9  1  0.24999967  0.85993596  0.04544268  1
  O  O10  1  0.74999902  0.64006427  0.54544308  1
  O  O11  1  0.74999902  0.14006465  0.95455750  1
  O  O12  1  0.24999967  0.91535760  0.52666687  1
  O  O13  1  0.74999902  0.08464165  0.47333268  1
  O  O14  1  0.24999967  0.41535797  0.97333308  1
  O  O15  1  0.74999902  0.58464264  0.02666710  1
  O  O16  1  0.24999967  0.33216828  0.72565508  1
  O  O17  1  0.74999902  0.42469032  0.84053987  1
  O  O18  1  0.24999967  0.07530931  0.34054010  1
  O  O19  1  0.74999902  0.92469131  0.65946008  1
  O  O20  1  0.74999902  0.16783134  0.22565467  1
  O  O21  1  0.24999967  0.83216790  0.77434487  1
  O  O22  1  0.74999902  0.66783097  0.27434510  1
  O  O23  1  0.24999967  0.57530893  0.15946031  1
  V  V24  1  0.74999902  0.37558901  0.94378736  1
  V  V25  1  0.24999967  0.62441160  0.05621282  1
  V  V26  1  0.74999902  0.87558863  0.55621259  1
  V  V27  1  0.24999967  0.12441061  0.44378695  1
  Ag  Ag28  1  0.24999967  0.93889291  0.90542904  1
  Ag  Ag29  1  0.74999902  0.06110633  0.09457113  1
  Ag  Ag30  1  0.24999967  0.43889329  0.59457091  1
  Ag  Ag31  1  0.74999902  0.56110596  0.40542864  1
