# generated using pymatgen
data_LiSbP2O7
_symmetry_space_group_name_H-M   'P 1'
_cell_length_a   6.81753397
_cell_length_b   6.80390349
_cell_length_c   6.85584522
_cell_angle_alpha   114.18082331
_cell_angle_beta   100.00805368
_cell_angle_gamma   83.92192946
_symmetry_Int_Tables_number   1
_chemical_formula_structural   LiSbP2O7
_chemical_formula_sum   'Li2 Sb2 P4 O14'
_cell_volume   285.48304642
_cell_formula_units_Z   2
loop_
 _symmetry_equiv_pos_site_id
 _symmetry_equiv_pos_as_xyz
  1  'x, y, z'
loop_
 _atom_site_type_symbol
 _atom_site_label
 _atom_site_symmetry_multiplicity
 _atom_site_fract_x
 _atom_site_fract_y
 _atom_site_fract_z
 _atom_site_occupancy
  Li  Li0  1  0.18572441  0.60907526  0.07484682  1
  Li  Li1  1  0.81427559  0.39092474  0.92515318  1
  O  O2  1  0.01121118  0.09003518  0.26136758  1
  O  O3  1  0.98878882  0.90996482  0.73863242  1
  O  O4  1  0.07127740  0.37892391  0.12776603  1
  O  O5  1  0.25507231  0.18861663  0.71754500  1
  O  O6  1  0.29090532  0.35106851  0.44945154  1
  O  O7  1  0.31812620  0.05574799  0.08662022  1
  O  O8  1  0.35500343  0.57271334  0.84370401  1
  O  O9  1  0.39806013  0.73988520  0.33565144  1
  O  O10  1  0.60193987  0.26011480  0.66434856  1
  O  O11  1  0.64499657  0.42728666  0.15629599  1
  O  O12  1  0.68187380  0.94425201  0.91337978  1
  O  O13  1  0.70909468  0.64893149  0.55054846  1
  O  O14  1  0.74492769  0.81138337  0.28245500  1
  O  O15  1  0.92872260  0.62107609  0.87223397  1
  P  P16  1  0.16189013  0.22115509  0.22189161  1
  P  P17  1  0.38753653  0.34115856  0.68358731  1
  P  P18  1  0.61246347  0.65884144  0.31641269  1
  P  P19  1  0.83810987  0.77884491  0.77810839  1
  Sb  Sb20  1  0.29859751  0.89005539  0.74232087  1
  Sb  Sb21  1  0.70140249  0.10994461  0.25767913  1
