# generated using pymatgen
data_B2H3
_symmetry_space_group_name_H-M   'P 1'
_cell_length_a   10.70078767
_cell_length_b   10.68163807
_cell_length_c   13.91547989
_cell_angle_alpha   90.00000000
_cell_angle_beta   90.00000000
_cell_angle_gamma   90.00000000
_symmetry_Int_Tables_number   1
_chemical_formula_structural   B2H3
_chemical_formula_sum   'B64 H96'
_cell_volume   1590.56636075
_cell_formula_units_Z   32
loop_
 _symmetry_equiv_pos_site_id
 _symmetry_equiv_pos_as_xyz
  1  'x, y, z'
loop_
 _atom_site_type_symbol
 _atom_site_label
 _atom_site_symmetry_multiplicity
 _atom_site_fract_x
 _atom_site_fract_y
 _atom_site_fract_z
 _atom_site_occupancy
  H  H0  1  0.88828964  0.23831759  0.12037609  1
  H  H1  1  0.38828964  0.26168241  0.87962391  1
  H  H2  1  0.11171036  0.73831759  0.37962391  1
  H  H3  1  0.61171036  0.76168241  0.62037609  1
  H  H4  1  0.11171036  0.76168241  0.87962391  1
  H  H5  1  0.61171036  0.73831759  0.12037609  1
  H  H6  1  0.88828964  0.26168241  0.62037609  1
  H  H7  1  0.38828964  0.23831759  0.37962391  1
  H  H8  1  0.04605697  0.22576543  0.29138971  1
  H  H9  1  0.54605697  0.27423457  0.70861029  1
  H  H10  1  0.95394303  0.72576543  0.20861029  1
  H  H11  1  0.45394303  0.77423457  0.79138971  1
  H  H12  1  0.95394303  0.77423457  0.70861029  1
  H  H13  1  0.45394303  0.72576543  0.29138971  1
  H  H14  1  0.04605697  0.27423457  0.79138971  1
  H  H15  1  0.54605697  0.22576543  0.20861029  1
  H  H16  1  0.01758548  0.11707130  0.14788501  1
  H  H17  1  0.51758548  0.38292870  0.85211499  1
  H  H18  1  0.98241452  0.61707130  0.35211499  1
  H  H19  1  0.48241452  0.88292870  0.64788501  1
  H  H20  1  0.98241452  0.88292870  0.85211499  1
  H  H21  1  0.48241452  0.61707130  0.14788501  1
  H  H22  1  0.01758548  0.38292870  0.64788501  1
  H  H23  1  0.51758548  0.11707130  0.35211499  1
  H  H24  1  0.95786740  0.37722845  0.19107460  1
  H  H25  1  0.45786740  0.12277155  0.80892540  1
  H  H26  1  0.04213260  0.87722845  0.30892540  1
  H  H27  1  0.54213260  0.62277155  0.69107460  1
  H  H28  1  0.04213260  0.62277155  0.80892540  1
  H  H29  1  0.54213260  0.87722845  0.19107460  1
  H  H30  1  0.95786740  0.12277155  0.69107460  1
  H  H31  1  0.45786740  0.37722845  0.30892540  1
  H  H32  1  0.87051806  0.40658150  0.05399625  1
  H  H33  1  0.37051806  0.09341850  0.94600375  1
  H  H34  1  0.12948194  0.90658150  0.44600375  1
  H  H35  1  0.62948194  0.59341850  0.55399625  1
  H  H36  1  0.12948194  0.59341850  0.94600375  1
  H  H37  1  0.62948194  0.90658150  0.05399625  1
  H  H38  1  0.87051806  0.09341850  0.55399625  1
  H  H39  1  0.12449990  0.38634608  0.34794917  1
  H  H40  1  0.37051806  0.40658150  0.44600375  1
  H  H41  1  0.43414966  0.37354922  0.99190138  1
  H  H42  1  0.06585034  0.62645078  0.49190138  1
  H  H43  1  0.56585034  0.87354922  0.50809862  1
  H  H44  1  0.06585034  0.87354922  0.99190138  1
  H  H45  1  0.56585034  0.62645078  0.00809862  1
  H  H46  1  0.93414966  0.37354922  0.50809862  1
  H  H47  1  0.43414966  0.12645078  0.49190138  1
  H  H48  1  0.18553061  0.07082436  0.08531326  1
  H  H49  1  0.68553061  0.42917564  0.91468674  1
  H  H50  1  0.81446939  0.57082436  0.41468674  1
  H  H51  1  0.31446939  0.92917564  0.58531326  1
  H  H52  1  0.81446939  0.92917564  0.91468674  1
  H  H53  1  0.31446939  0.57082436  0.08531326  1
  H  H54  1  0.18553061  0.42917564  0.58531326  1
  H  H55  1  0.68553061  0.07082436  0.41468674  1
  H  H56  1  0.19153919  0.09892271  0.29975830  1
  H  H57  1  0.69153919  0.40107729  0.70024170  1
  H  H58  1  0.80846081  0.59892271  0.20024170  1
  H  H59  1  0.30846081  0.90107729  0.79975830  1
  H  H60  1  0.80846081  0.90107729  0.70024170  1
  H  H61  1  0.30846081  0.59892271  0.29975830  1
  H  H62  1  0.19153919  0.40107729  0.79975830  1
  H  H63  1  0.69153919  0.09892271  0.20024170  1
  H  H64  1  0.80096588  0.32244384  0.34237437  1
  H  H65  1  0.30096588  0.17755616  0.65762563  1
  H  H66  1  0.19903412  0.82244384  0.15762563  1
  H  H67  1  0.69903412  0.67755616  0.84237437  1
  H  H68  1  0.19903412  0.67755616  0.65762563  1
  H  H69  1  0.69903412  0.82244384  0.34237437  1
  H  H70  1  0.80096588  0.17755616  0.84237437  1
  H  H71  1  0.30096588  0.32244384  0.15762563  1
  H  H72  1  0.64566313  0.33402241  0.50922262  1
  H  H73  1  0.14566313  0.16597759  0.49077738  1
  H  H74  1  0.35433687  0.83402241  0.99077738  1
  H  H75  1  0.85433687  0.66597759  0.00922262  1
  H  H76  1  0.35433687  0.66597759  0.49077738  1
  H  H77  1  0.85433687  0.83402241  0.50922262  1
  H  H78  1  0.64566313  0.16597759  0.00922262  1
  H  H79  1  0.14566313  0.33402241  0.99077738  1
  H  H80  1  0.58337082  0.51731416  0.34045135  1
  H  H81  1  0.08337082  0.98268584  0.65954865  1
  H  H82  1  0.41662918  0.01731416  0.15954865  1
  H  H83  1  0.91662918  0.48268584  0.84045135  1
  H  H84  1  0.41662918  0.48268584  0.65954865  1
  H  H85  1  0.91662918  0.01731416  0.34045135  1
  H  H86  1  0.58337082  0.98268584  0.84045135  1
  H  H87  1  0.08337082  0.51731416  0.15954865  1
  H  H88  1  0.62449990  0.38634608  0.15205083  1
  H  H89  1  0.12449990  0.11365392  0.84794917  1
  H  H90  1  0.37550010  0.88634608  0.34794917  1
  H  H91  1  0.87550010  0.61365392  0.65205083  1
  H  H92  1  0.37550010  0.61365392  0.84794917  1
  H  H93  1  0.87550010  0.88634608  0.15205083  1
  H  H94  1  0.62449990  0.11365392  0.65205083  1
  H  H95  1  0.93414966  0.12645078  0.00809862  1
  B  B96  1  0.94691577  0.34425136  0.09348746  1
  B  B97  1  0.44691577  0.15574864  0.90651254  1
  B  B98  1  0.05308423  0.84425136  0.40651254  1
  B  B99  1  0.55308423  0.65574864  0.59348746  1
  B  B100  1  0.05308423  0.65574864  0.90651254  1
  B  B101  1  0.55308423  0.84425136  0.09348746  1
  B  B102  1  0.94691577  0.15574864  0.59348746  1
  B  B103  1  0.44691577  0.34425136  0.40651254  1
  B  B104  1  0.98218305  0.18947186  0.06813470  1
  B  B105  1  0.48218305  0.31052814  0.93186530  1
  B  B106  1  0.01781695  0.68947186  0.43186530  1
  B  B107  1  0.51781695  0.81052814  0.56813470  1
  B  B108  1  0.01781695  0.81052814  0.93186530  1
  B  B109  1  0.51781695  0.68947186  0.06813470  1
  B  B110  1  0.98218305  0.31052814  0.56813470  1
  B  B111  1  0.48218305  0.18947186  0.43186530  1
  B  B112  1  0.12933917  0.15407253  0.12249832  1
  B  B113  1  0.62933917  0.34592747  0.87750168  1
  B  B114  1  0.87066083  0.65407253  0.37750168  1
  B  B115  1  0.37066083  0.84592747  0.62249832  1
  B  B116  1  0.87066083  0.84592747  0.87750168  1
  B  B117  1  0.37066083  0.65407253  0.12249832  1
  B  B118  1  0.12933917  0.34592747  0.62249832  1
  B  B119  1  0.62933917  0.15407253  0.37750168  1
  B  B120  1  0.15040592  0.18051944  0.25079252  1
  B  B121  1  0.65040592  0.31948056  0.74920748  1
  B  B122  1  0.84959408  0.68051944  0.24920748  1
  B  B123  1  0.34959408  0.81948056  0.75079252  1
  B  B124  1  0.84959408  0.81948056  0.74920748  1
  B  B125  1  0.34959408  0.68051944  0.25079252  1
  B  B126  1  0.15040592  0.31948056  0.75079252  1
  B  B127  1  0.65040592  0.18051944  0.24920748  1
  B  B128  1  0.11626791  0.32784809  0.27538250  1
  B  B129  1  0.61626791  0.17215191  0.72461750  1
  B  B130  1  0.88373209  0.82784809  0.22461750  1
  B  B131  1  0.38373209  0.67215191  0.77538250  1
  B  B132  1  0.88373209  0.67215191  0.72461750  1
  B  B133  1  0.38373209  0.82784809  0.27538250  1
  B  B134  1  0.11626791  0.17215191  0.77538250  1
  B  B135  1  0.61626791  0.32784809  0.22461750  1
  B  B136  1  0.07129557  0.40649843  0.16462886  1
  B  B137  1  0.57129557  0.09350157  0.83537114  1
  B  B138  1  0.92870443  0.90649843  0.33537114  1
  B  B139  1  0.42870443  0.59350157  0.66462886  1
  B  B140  1  0.92870443  0.59350157  0.83537114  1
  B  B141  1  0.42870443  0.90649843  0.16462886  1
  B  B142  1  0.07129557  0.09350157  0.66462886  1
  B  B143  1  0.57129557  0.40649843  0.33537114  1
  B  B144  1  0.09755167  0.30209665  0.06399467  1
  B  B145  1  0.59755167  0.19790335  0.93600533  1
  B  B146  1  0.90244833  0.80209665  0.43600533  1
  B  B147  1  0.40244833  0.69790335  0.56399467  1
  B  B148  1  0.90244833  0.69790335  0.93600533  1
  B  B149  1  0.40244833  0.80209665  0.06399467  1
  B  B150  1  0.09755167  0.19790335  0.56399467  1
  B  B151  1  0.59755167  0.30209665  0.43600533  1
  B  B152  1  0.19414798  0.29408478  0.17120526  1
  B  B153  1  0.69414798  0.20591522  0.82879474  1
  B  B154  1  0.80585202  0.79408478  0.32879474  1
  B  B155  1  0.30585202  0.70591522  0.67120526  1
  B  B156  1  0.80585202  0.70591522  0.82879474  1
  B  B157  1  0.30585202  0.79408478  0.17120526  1
  B  B158  1  0.19414798  0.20591522  0.67120526  1
  B  B159  1  0.69414798  0.29408478  0.32879474  1
