# generated using pymatgen
data_Li2Cu3(P2O7)2
_symmetry_space_group_name_H-M   'P 1'
_cell_length_a   7.24131267
_cell_length_b   8.04286327
_cell_length_c   9.29191512
_cell_angle_alpha   90.00000000
_cell_angle_beta   107.65664742
_cell_angle_gamma   90.00000000
_symmetry_Int_Tables_number   1
_chemical_formula_structural   Li2Cu3(P2O7)2
_chemical_formula_sum   'Li4 Cu6 P8 O28'
_cell_volume   515.67557312
_cell_formula_units_Z   2
loop_
 _symmetry_equiv_pos_site_id
 _symmetry_equiv_pos_as_xyz
  1  'x, y, z'
loop_
 _atom_site_type_symbol
 _atom_site_label
 _atom_site_symmetry_multiplicity
 _atom_site_fract_x
 _atom_site_fract_y
 _atom_site_fract_z
 _atom_site_occupancy
  Li  Li0  1  0.70206210  0.41099283  0.12687427  1
  Li  Li1  1  0.29793790  0.58900717  0.87312573  1
  Li  Li2  1  0.29793790  0.91099283  0.37312573  1
  Li  Li3  1  0.70206210  0.08900717  0.62687427  1
  Cu  Cu4  1  0.80801522  0.37765138  0.47987916  1
  Cu  Cu5  1  0.19198478  0.87765138  0.02012084  1
  Cu  Cu6  1  0.19198478  0.62234862  0.52012084  1
  Cu  Cu7  1  0.80801522  0.12234862  0.97987916  1
  Cu  Cu8  1  -0.00000000  -0.00000000  0.50000000  1
  Cu  Cu9  1  -0.00000000  0.50000000  0.00000000  1
  P  P10  1  0.59379904  0.46165667  0.71676520  1
  P  P11  1  0.89177749  0.78737556  0.19827125  1
  P  P12  1  0.59379904  0.03834333  0.21676520  1
  P  P13  1  0.40620096  0.53834333  0.28323480  1
  P  P14  1  0.10822251  0.21262444  0.80172875  1
  P  P15  1  0.10822251  0.28737556  0.30172875  1
  P  P16  1  0.89177749  0.71262444  0.69827125  1
  P  P17  1  0.40620096  0.96165667  0.78323480  1
  O  O18  1  0.31722232  0.35785500  0.30958291  1
  O  O19  1  0.69706722  0.40356132  0.87749366  1
  O  O20  1  0.98457946  0.91058007  0.11534019  1
  O  O21  1  0.68277768  0.85785500  0.19041709  1
  O  O22  1  0.00932487  0.71343900  0.86920962  1
  O  O23  1  0.38019567  0.99655112  0.19497479  1
  O  O24  1  0.38019567  0.50344888  0.69497479  1
  O  O25  1  0.14215553  0.11697215  0.37678690  1
  O  O26  1  0.61980433  0.00344888  0.80502521  1
  O  O27  1  0.01542054  0.41058007  0.38465981  1
  O  O28  1  0.62491848  0.34160046  0.59705471  1
  O  O29  1  0.37508152  0.84160046  0.90294529  1
  O  O30  1  0.61980433  0.49655112  0.30502521  1
  O  O31  1  0.99067513  0.28656100  0.13079038  1
  O  O32  1  0.30293278  0.90356132  0.62250634  1
  O  O33  1  0.14215553  0.38302785  0.87678690  1
  O  O34  1  0.31722232  0.14214500  0.80958291  1
  O  O35  1  0.69706722  0.09643868  0.37749366  1
  O  O36  1  0.98457946  0.58941993  0.61534019  1
  O  O37  1  0.00932487  0.78656100  0.36920962  1
  O  O38  1  0.99067513  0.21343900  0.63079038  1
  O  O39  1  0.01542054  0.08941993  0.88465981  1
  O  O40  1  0.62491848  0.15839954  0.09705471  1
  O  O41  1  0.68277768  0.64214500  0.69041709  1
  O  O42  1  0.37508152  0.65839954  0.40294529  1
  O  O43  1  0.85784447  0.88302785  0.62321310  1
  O  O44  1  0.30293278  0.59643868  0.12250634  1
  O  O45  1  0.85784447  0.61697215  0.12321310  1
