# generated using pymatgen
data_Sn2(PO3)5
_symmetry_space_group_name_H-M   'P 1'
_cell_length_a   12.65458963
_cell_length_b   9.35063527
_cell_length_c   5.47936070
_cell_angle_alpha   90.00000000
_cell_angle_beta   90.46915786
_cell_angle_gamma   90.00000000
_symmetry_Int_Tables_number   1
_chemical_formula_structural   Sn2(PO3)5
_chemical_formula_sum   'Sn4 P10 O30'
_cell_volume   648.34253482
_cell_formula_units_Z   2
loop_
 _symmetry_equiv_pos_site_id
 _symmetry_equiv_pos_as_xyz
  1  'x, y, z'
loop_
 _atom_site_type_symbol
 _atom_site_label
 _atom_site_symmetry_multiplicity
 _atom_site_fract_x
 _atom_site_fract_y
 _atom_site_fract_z
 _atom_site_occupancy
  O  O0  1  0.01412034  0.16727715  0.62748469  1
  O  O1  1  0.03013026  0.16854935  0.15499608  1
  O  O2  1  0.07488406  0.49415174  0.79281785  1
  O  O3  1  0.12284953  0.35495679  0.39997755  1
  O  O4  1  0.17357786  0.90543538  0.10245791  1
  O  O5  1  0.17472825  0.61159246  0.43475360  1
  O  O6  1  0.18548852  0.10203212  0.43088014  1
  O  O7  1  0.26265237  0.41212396  0.68820444  1
  O  O8  1  0.31725782  0.08728804  0.08302130  1
  O  O9  1  0.32822022  0.61028376  -0.02457770  1
  O  O10  1  0.32044387  0.90970199  0.43726830  1
  O  O11  1  0.35288101  0.34766860  0.08302221  1
  O  O12  1  0.45683656  0.45387933  0.73106223  1
  O  O13  1  0.49011581  0.17149037  0.91195138  1
  O  O14  1  0.45539881  0.19074492  0.37566148  1
  O  O15  1  0.53013026  0.83145065  0.65499608  1
  O  O16  1  0.51412034  0.83272285  0.12748469  1
  O  O17  1  0.57488406  0.50584826  0.29281785  1
  O  O18  1  0.62284953  0.64504321  0.89997755  1
  O  O19  1  0.67357786  0.09456462  0.60245791  1
  O  O20  1  0.67472825  0.38840754  0.93475360  1
  O  O21  1  0.68548852  0.89796788  0.93088014  1
  O  O22  1  0.76265237  0.58787604  0.18820444  1
  O  O23  1  0.81725782  0.91271196  0.58302130  1
  O  O24  1  0.82822022  0.38971624  0.47542230  1
  O  O25  1  0.82044387  0.09029801  0.93726830  1
  O  O26  1  0.85288101  0.65233140  0.58302221  1
  O  O27  1  0.95683656  0.54612067  0.23106223  1
  O  O28  1  0.95539881  0.80925508  0.87566148  1
  O  O29  1  0.99011581  0.82850963  0.41195138  1
  P  P30  1  0.07786520  0.19354633  0.40183488  1
  P  P31  1  0.15301680  0.47957974  0.58854156  1
  P  P32  1  0.24829623  0.98841617  0.26623292  1
  P  P33  1  0.35407044  0.46794935  0.87101008  1
  P  P34  1  0.41354308  0.19722323  0.11763026  1
  P  P35  1  0.57786520  0.80645367  0.90183488  1
  P  P36  1  0.65301680  0.52042026  0.08854156  1
  P  P37  1  0.74829623  0.01158383  0.76623292  1
  P  P38  1  0.85407044  0.53205065  0.37101008  1
  P  P39  1  0.91354308  0.80277677  0.61763026  1
  Sn  Sn40  1  0.07211187  0.71060780  0.13152888  1
  Sn  Sn41  1  0.42057437  0.71260667  0.39951616  1
  Sn  Sn42  1  0.57211187  0.28939220  0.63152888  1
  Sn  Sn43  1  0.92057437  0.28739333  0.89951616  1
