# generated using pymatgen
data_K3BiTe3
_symmetry_space_group_name_H-M   'P 1'
_cell_length_a   10.53869599
_cell_length_b   10.53869599
_cell_length_c   10.53869599
_cell_angle_alpha   90.00000000
_cell_angle_beta   90.00000000
_cell_angle_gamma   90.00000000
_symmetry_Int_Tables_number   1
_chemical_formula_structural   K3BiTe3
_chemical_formula_sum   'K12 Bi4 Te12'
_cell_volume   1170.47092409
_cell_formula_units_Z   4
loop_
 _symmetry_equiv_pos_site_id
 _symmetry_equiv_pos_as_xyz
  1  'x, y, z'
loop_
 _atom_site_type_symbol
 _atom_site_label
 _atom_site_symmetry_multiplicity
 _atom_site_fract_x
 _atom_site_fract_y
 _atom_site_fract_z
 _atom_site_occupancy
  K  K0  1  0.57494976  0.57494976  0.57494976  1
  K  K1  1  0.92505024  0.42505024  0.07494976  1
  K  K2  1  0.07494976  0.92505024  0.42505024  1
  K  K3  1  0.42505024  0.07494976  0.92505024  1
  K  K4  1  0.32595898  0.32595898  0.32595898  1
  K  K5  1  0.17404102  0.67404102  0.82595898  1
  K  K6  1  0.82595898  0.17404102  0.67404102  1
  K  K7  1  0.67404102  0.82595898  0.17404102  1
  K  K8  1  0.81733584  0.81733584  0.81733584  1
  K  K9  1  0.68266416  0.18266416  0.31733584  1
  K  K10  1  0.31733584  0.68266416  0.18266416  1
  K  K11  1  0.18266416  0.31733584  0.68266416  1
  Te  Te12  1  0.77287615  0.11728064  0.99999038  1
  Te  Te13  1  0.72712385  0.88271936  0.49999038  1
  Te  Te14  1  0.27287615  0.38271936  0.00000962  1
  Te  Te15  1  0.11728064  0.99999038  0.77287615  1
  Te  Te16  1  0.22712385  0.61728064  0.50000962  1
  Te  Te17  1  0.50000962  0.22712385  0.61728064  1
  Te  Te18  1  0.61728064  0.50000962  0.22712385  1
  Te  Te19  1  0.88271936  0.49999038  0.72712385  1
  Te  Te20  1  0.00000962  0.27287615  0.38271936  1
  Te  Te21  1  0.38271936  0.00000962  0.27287615  1
  Te  Te22  1  0.99999038  0.77287615  0.11728064  1
  Te  Te23  1  0.49999038  0.72712385  0.88271936  1
  Bi  Bi24  1  0.96499831  0.53500169  0.46499831  1
  Bi  Bi25  1  0.46499831  0.96499831  0.53500169  1
  Bi  Bi26  1  0.03500169  0.03500169  0.03500169  1
  Bi  Bi27  1  0.53500169  0.46499831  0.96499831  1
