# generated using pymatgen
data_Mg32Al36Ag13
_symmetry_space_group_name_H-M   'P 1'
_cell_length_a   12.58802287
_cell_length_b   12.58802287
_cell_length_c   12.58802287
_cell_angle_alpha   109.47122062
_cell_angle_beta   109.47122062
_cell_angle_gamma   109.47122066
_symmetry_Int_Tables_number   1
_chemical_formula_structural   Mg32Al36Ag13
_chemical_formula_sum   'Mg32 Al36 Ag13'
_cell_volume   1535.50303429
_cell_formula_units_Z   1
loop_
 _symmetry_equiv_pos_site_id
 _symmetry_equiv_pos_as_xyz
  1  'x, y, z'
loop_
 _atom_site_type_symbol
 _atom_site_label
 _atom_site_symmetry_multiplicity
 _atom_site_fract_x
 _atom_site_fract_y
 _atom_site_fract_z
 _atom_site_occupancy
  Mg  Mg0  1  0.62417865  0.00000000  0.00000000  1
  Mg  Mg1  1  0.50000000  0.90282683  0.40282683  1
  Mg  Mg2  1  0.09717317  0.59717317  0.50000000  1
  Mg  Mg3  1  0.59717317  0.50000000  0.09717317  1
  Mg  Mg4  1  0.90282683  0.40282683  0.50000000  1
  Mg  Mg5  1  0.40282683  0.50000000  0.90282683  1
  Mg  Mg6  1  0.50000000  0.09717317  0.59717317  1
  Mg  Mg7  1  0.50000000  0.69733168  0.19733168  1
  Mg  Mg8  1  0.30266832  0.80266832  0.50000000  1
  Mg  Mg9  1  0.80266832  0.50000000  0.30266832  1
  Mg  Mg10  1  0.69733168  0.19733168  0.50000000  1
  Mg  Mg11  1  0.19733168  0.50000000  0.69733168  1
  Mg  Mg12  1  0.50000000  0.30266832  0.80266832  1
  Mg  Mg13  1  0.37582135  0.37582135  0.37582135  1
  Mg  Mg14  1  0.00000000  0.62417865  0.00000000  1
  Mg  Mg15  1  0.00000000  0.00000000  0.62417865  1
  Mg  Mg16  1  0.57849371  0.88359912  0.69489460  1
  Mg  Mg17  1  0.62417865  0.62417865  0.62417865  1
  Mg  Mg18  1  0.00000000  0.37582135  0.00000000  1
  Mg  Mg19  1  0.00000000  0.00000000  0.37582135  1
  Mg  Mg20  1  0.37582135  0.00000000  0.00000000  1
  Mg  Mg21  1  0.18870452  0.88359912  0.30510540  1
  Mg  Mg22  1  0.81129548  0.11640088  0.69489460  1
  Mg  Mg23  1  0.11640088  0.30510540  0.42150629  1
  Mg  Mg24  1  0.30510540  0.42150629  0.11640088  1
  Mg  Mg25  1  0.69489460  0.57849371  0.88359912  1
  Mg  Mg26  1  0.88359912  0.30510540  0.18870452  1
  Mg  Mg27  1  0.69489460  0.81129548  0.11640088  1
  Mg  Mg28  1  0.88359912  0.69489460  0.57849371  1
  Mg  Mg29  1  0.30510540  0.18870452  0.88359912  1
  Mg  Mg30  1  0.11640088  0.69489460  0.81129548  1
  Mg  Mg31  1  0.42150629  0.11640088  0.30510540  1
  Al  Al32  1  0.59386840  0.24362859  0.02944761  1
  Al  Al33  1  0.21418098  0.56442078  0.97055239  1
  Al  Al34  1  0.78581902  0.75637141  0.35023981  1
  Al  Al35  1  0.43557922  0.64976019  0.40613160  1
  Al  Al36  1  0.64976019  0.40613160  0.43557922  1
  Al  Al37  1  0.02944761  0.59386840  0.24362859  1
  Al  Al38  1  0.56442078  0.97055239  0.21418098  1
  Al  Al39  1  0.35023981  0.78581902  0.75637141  1
  Al  Al40  1  0.24362859  0.02944761  0.59386840  1
  Al  Al41  1  0.97055239  0.21418098  0.56442078  1
  Al  Al42  1  0.75637141  0.35023981  0.78581902  1
  Al  Al43  1  0.40613160  0.43557922  0.64976019  1
  Al  Al44  1  0.40613160  0.75637141  0.97055239  1
  Al  Al45  1  0.94062123  0.84211931  0.09850193  1
  Al  Al46  1  0.05937877  0.15788069  0.90149807  1
  Al  Al47  1  0.15788069  0.09850193  0.25638262  1
  Al  Al48  1  0.09850193  0.25638262  0.15788069  1
  Al  Al49  1  0.90149807  0.74361738  0.84211931  1
  Al  Al50  1  0.84211931  0.09850193  0.94062123  1
  Al  Al51  1  0.90149807  0.05937877  0.15788069  1
  Al  Al52  1  0.84211931  0.90149807  0.74361738  1
  Al  Al53  1  0.09850193  0.94062123  0.84211931  1
  Al  Al54  1  0.15788069  0.90149807  0.05937877  1
  Al  Al55  1  0.25638262  0.15788069  0.09850193  1
  Al  Al56  1  0.74361738  0.84211931  0.90149807  1
  Al  Al57  1  0.59386840  0.56442078  0.35023981  1
  Al  Al58  1  0.24362859  0.64976019  0.21418098  1
  Al  Al59  1  0.02944761  0.78581902  0.43557922  1
  Al  Al60  1  0.78581902  0.43557922  0.02944761  1
  Al  Al61  1  0.64976019  0.21418098  0.24362859  1
  Al  Al62  1  0.43557922  0.02944761  0.78581902  1
  Al  Al63  1  0.97055239  0.40613160  0.75637141  1
  Al  Al64  1  0.35023981  0.59386840  0.56442078  1
  Al  Al65  1  0.56442078  0.35023981  0.59386840  1
  Al  Al66  1  0.21418098  0.24362859  0.64976019  1
  Al  Al67  1  0.75637141  0.97055239  0.40613160  1
  Ag  Ag68  1  0.50901261  0.68526553  0.82374708  1
  Ag  Ag69  1  0.86151844  0.68526553  0.17625292  1
  Ag  Ag70  1  0.13848156  0.31473447  0.82374708  1
  Ag  Ag71  1  0.31473447  0.17625292  0.49098739  1
  Ag  Ag72  1  0.17625292  0.49098739  0.31473447  1
  Ag  Ag73  1  0.82374708  0.50901261  0.68526553  1
  Ag  Ag74  1  0.68526553  0.17625292  0.86151844  1
  Ag  Ag75  1  0.82374708  0.13848156  0.31473447  1
  Ag  Ag76  1  0.68526553  0.82374708  0.50901261  1
  Ag  Ag77  1  0.17625292  0.86151844  0.68526553  1
  Ag  Ag78  1  0.31473447  0.82374708  0.13848156  1
  Ag  Ag79  1  0.49098739  0.31473447  0.17625292  1
  Ag  Ag80  1  0.00000000  0.00000000  0.00000000  1
