# generated using pymatgen
data_Li2CoP2O7
_symmetry_space_group_name_H-M   'P 1'
_cell_length_a   6.53104632
_cell_length_b   10.40544246
_cell_length_c   9.21860523
_cell_angle_alpha   66.15460011
_cell_angle_beta   106.60050089
_cell_angle_gamma   92.23999007
_symmetry_Int_Tables_number   1
_chemical_formula_structural   Li2CoP2O7
_chemical_formula_sum   'Li8 Co4 P8 O28'
_cell_volume   547.03169598
_cell_formula_units_Z   4
loop_
 _symmetry_equiv_pos_site_id
 _symmetry_equiv_pos_as_xyz
  1  'x, y, z'
loop_
 _atom_site_type_symbol
 _atom_site_label
 _atom_site_symmetry_multiplicity
 _atom_site_fract_x
 _atom_site_fract_y
 _atom_site_fract_z
 _atom_site_occupancy
  Li  Li0  1  0.35413679  0.62089543  0.92601625  1
  Li  Li1  1  0.04750033  0.48812436  0.20582495  1
  Li  Li2  1  0.16663963  0.96467039  0.48492544  1
  Li  Li3  1  0.59205805  0.02958758  0.50950793  1
  Li  Li4  1  0.17262204  0.86723242  0.11250721  1
  Li  Li5  1  0.64087911  0.37938083  0.07461633  1
  Li  Li6  1  0.93545393  0.49691421  0.82678090  1
  Li  Li7  1  0.87034287  0.10577419  0.89247056  1
  Co  Co8  1  0.62589588  0.74879641  0.48888726  1
  Co  Co9  1  0.36348755  0.26081585  0.50374048  1
  Co  Co10  1  0.28686052  0.22112587  0.89465073  1
  Co  Co11  1  0.71962427  0.78355271  0.09763261  1
  P  P12  1  0.87413018  0.30218920  0.54501962  1
  P  P13  1  0.31283077  0.94753539  0.80200743  1
  P  P14  1  0.56155510  0.53808294  0.29078791  1
  P  P15  1  0.08042901  0.20577830  0.18019289  1
  P  P16  1  0.69394455  0.05409525  0.18921134  1
  P  P17  1  0.92399271  0.80043388  0.80847645  1
  P  P18  1  0.43320639  0.46793282  0.70504110  1
  P  P19  1  0.11462057  0.70193225  0.44217500  1
  O  O20  1  0.69326023  0.20545371  0.52857357  1
  O  O21  1  0.61341914  0.96043562  0.33239735  1
  O  O22  1  0.28401876  0.18099401  0.32226600  1
  O  O23  1  0.02406072  0.71273668  0.26300646  1
  O  O24  1  0.44892044  0.80652037  0.91009120  1
  O  O25  1  0.08476729  0.90367969  0.70923962  1
  O  O26  1  0.96210316  0.35455817  0.09151022  1
  O  O27  1  0.73831180  0.98606109  0.08036176  1
  O  O28  1  0.90731319  0.86138870  0.93203145  1
  O  O29  1  0.97489453  0.27866898  0.72733347  1
  O  O30  1  0.23784530  0.54502232  0.54101849  1
  O  O31  1  0.54431214  0.69226514  0.27522125  1
  O  O32  1  0.36058582  0.46207866  0.31000546  1
  O  O33  1  0.56161396  0.19653225  0.08220699  1
  O  O34  1  0.10647022  0.14835124  0.05679319  1
  O  O35  1  0.38445441  0.04121824  0.65203844  1
  O  O36  1  0.92737699  0.09492867  0.28002982  1
  O  O37  1  0.75509283  0.46180187  0.45676373  1
  O  O38  1  0.36926646  0.46147579  0.85689903  1
  O  O39  1  0.28732472  0.80638970  0.45154835  1
  O  O40  1  0.71546280  0.82642190  0.67072856  1
  O  O41  1  0.95032061  0.70892826  0.52610437  1
  O  O42  1  0.63271452  0.54572294  0.68534798  1
  O  O43  1  0.03585752  0.65049262  0.89723668  1
  O  O44  1  0.44673417  0.31585762  0.71384712  1
  O  O45  1  0.26871861  0.01698299  0.90885862  1
  O  O46  1  0.03424479  0.30577559  0.45180210  1
  O  O47  1  0.62917659  0.53964688  0.14207533  1
