# generated using pymatgen
data_Si19Te8
_symmetry_space_group_name_H-M   'P 1'
_cell_length_a   10.55554925
_cell_length_b   10.55554924
_cell_length_c   10.55554925
_cell_angle_alpha   89.64445392
_cell_angle_beta   89.64445394
_cell_angle_gamma   89.64445391
_symmetry_Int_Tables_number   1
_chemical_formula_structural   Si19Te8
_chemical_formula_sum   'Si38 Te16'
_cell_volume   1176.02763216
_cell_formula_units_Z   2
loop_
 _symmetry_equiv_pos_site_id
 _symmetry_equiv_pos_as_xyz
  1  'x, y, z'
loop_
 _atom_site_type_symbol
 _atom_site_label
 _atom_site_symmetry_multiplicity
 _atom_site_fract_x
 _atom_site_fract_y
 _atom_site_fract_z
 _atom_site_occupancy
  Si  Si0  1  0.46984172  0.38170809  0.83147301  1
  Si  Si1  1  0.38170809  0.83147301  0.46984172  1
  Si  Si2  1  0.83147301  0.46984172  0.38170809  1
  Si  Si3  1  0.33147301  0.88170809  0.96984172  1
  Si  Si4  1  0.14337385  0.14337385  0.14337385  1
  Si  Si5  1  0.64337385  0.64337385  0.64337385  1
  Si  Si6  1  0.88170809  0.96984172  0.33147301  1
  Si  Si7  1  0.96984172  0.33147301  0.88170809  1
  Si  Si8  1  0.57357104  0.58202917  0.85013024  1
  Si  Si9  1  0.58202917  0.85013024  0.57357104  1
  Si  Si10  1  0.85013024  0.57357104  0.58202917  1
  Si  Si11  1  0.35013024  0.08202917  0.07357104  1
  Si  Si12  1  0.08202917  0.07357104  0.35013024  1
  Si  Si13  1  0.07357104  0.35013024  0.08202917  1
  Si  Si14  1  0.49640097  0.61126678  0.18209410  1
  Si  Si15  1  0.61126678  0.18209410  0.49640097  1
  Si  Si16  1  0.18209410  0.49640097  0.61126678  1
  Si  Si17  1  0.68209410  0.11126678  0.99640097  1
  Si  Si18  1  0.00794297  0.49697548  0.24197751  1
  Si  Si19  1  0.24197751  0.00794297  0.49697548  1
  Si  Si20  1  0.49697548  0.24197751  0.00794297  1
  Si  Si21  1  0.99697548  0.50794297  0.74197751  1
  Si  Si22  1  0.74197751  0.99697548  0.50794297  1
  Si  Si23  1  0.50794297  0.74197751  0.99697548  1
  Si  Si24  1  0.83474149  0.82567450  0.16929838  1
  Si  Si25  1  0.16929838  0.83474149  0.82567450  1
  Si  Si26  1  0.82567450  0.16929838  0.83474149  1
  Si  Si27  1  0.32567450  0.33474149  0.66929838  1
  Si  Si28  1  0.66929838  0.32567450  0.33474149  1
  Si  Si29  1  0.33474149  0.66929838  0.32567450  1
  Si  Si30  1  0.01977678  0.68078345  0.88610458  1
  Si  Si31  1  0.88610458  0.01977678  0.68078345  1
  Si  Si32  1  0.68078345  0.88610458  0.01977678  1
  Si  Si33  1  0.18078345  0.51977678  0.38610458  1
  Si  Si34  1  0.38610458  0.18078345  0.51977678  1
  Si  Si35  1  0.51977678  0.38610458  0.18078345  1
  Si  Si36  1  0.99640097  0.68209410  0.11126678  1
  Si  Si37  1  0.11126678  0.99640097  0.68209410  1
  Te  Te38  1  0.69082443  0.68344290  0.31744619  1
  Te  Te39  1  0.68344290  0.31744619  0.69082443  1
  Te  Te40  1  0.31744619  0.69082443  0.68344290  1
  Te  Te41  1  0.81744619  0.18344290  0.19082443  1
  Te  Te42  1  0.18344290  0.19082443  0.81744619  1
  Te  Te43  1  0.19082443  0.81744619  0.18344290  1
  Te  Te44  1  0.99479565  0.75340574  0.49067960  1
  Te  Te45  1  0.75340574  0.49067960  0.99479565  1
  Te  Te46  1  0.49067960  0.99479565  0.75340574  1
  Te  Te47  1  0.99067960  0.25340574  0.49479565  1
  Te  Te48  1  0.25340574  0.49479565  0.99067960  1
  Te  Te49  1  0.49479565  0.99067960  0.25340574  1
  Te  Te50  1  0.31215787  0.31215787  0.31215787  1
  Te  Te51  1  0.81215787  0.81215787  0.81215787  1
  Te  Te52  1  0.49995351  0.49995351  0.49995351  1
  Te  Te53  1  -0.00004649  -0.00004649  -0.00004649  1
