# generated using pymatgen
data_KTb3F12
_symmetry_space_group_name_H-M   'P 1'
_cell_length_a   6.89363784
_cell_length_b   6.89363783
_cell_length_c   6.89363784
_cell_angle_alpha   108.91369839
_cell_angle_beta   108.91369839
_cell_angle_gamma   110.59211331
_symmetry_Int_Tables_number   1
_chemical_formula_structural   KTb3F12
_chemical_formula_sum   'K1 Tb3 F12'
_cell_volume   252.11491705
_cell_formula_units_Z   1
loop_
 _symmetry_equiv_pos_site_id
 _symmetry_equiv_pos_as_xyz
  1  'x, y, z'
loop_
 _atom_site_type_symbol
 _atom_site_label
 _atom_site_symmetry_multiplicity
 _atom_site_fract_x
 _atom_site_fract_y
 _atom_site_fract_z
 _atom_site_occupancy
  F  F0  1  0.34441283  0.55443259  0.24715916  1
  F  F1  1  0.55443259  0.30727343  0.21001976  1
  F  F2  1  0.09725367  0.34441283  0.78998024  1
  F  F3  1  0.30727343  0.09725367  0.75284084  1
  F  F4  1  0.01335810  0.34171436  0.35507246  1
  F  F5  1  0.34171436  0.98664190  0.32835625  1
  F  F6  1  0.65828564  0.01335810  0.67164375  1
  F  F7  1  0.98664190  0.65828564  0.64492754  1
  F  F8  1  0.69272657  0.90274633  0.24715916  1
  F  F9  1  0.90274633  0.65558717  0.21001976  1
  F  F10  1  0.44556741  0.69272657  0.78998024  1
  F  F11  1  0.65558717  0.44556741  0.75284084  1
  K  K12  1  0.00000000  0.00000000  0.00000000  1
  Tb  Tb13  1  0.75000000  0.25000000  0.50000000  1
  Tb  Tb14  1  0.50000000  0.50000000  0.00000000  1
  Tb  Tb15  1  0.25000000  0.75000000  0.50000000  1
