# generated using pymatgen
data_LiCo(PO3)4
_symmetry_space_group_name_H-M   'P 1'
_cell_length_a   5.16628890
_cell_length_b   10.51698119
_cell_length_c   10.51698119
_cell_angle_alpha   71.18925342
_cell_angle_beta   98.69579628
_cell_angle_gamma   98.69579620
_symmetry_Int_Tables_number   1
_chemical_formula_structural   LiCo(PO3)4
_chemical_formula_sum   'Li2 Co2 P8 O24'
_cell_volume   531.47497314
_cell_formula_units_Z   2
loop_
 _symmetry_equiv_pos_site_id
 _symmetry_equiv_pos_as_xyz
  1  'x, y, z'
loop_
 _atom_site_type_symbol
 _atom_site_label
 _atom_site_symmetry_multiplicity
 _atom_site_fract_x
 _atom_site_fract_y
 _atom_site_fract_z
 _atom_site_occupancy
  Li  Li0  1  0.43718423  0.41258913  0.41258889  1
  Li  Li1  1  0.56281582  0.58741077  0.58741082  1
  O  O2  1  0.36959965  0.91608368  0.28953602  1
  O  O3  1  0.00071340  0.55520424  0.16528705  1
  O  O4  1  0.99928665  0.44479566  0.83471265  1
  O  O5  1  0.99928674  0.83471247  0.44479628  1
  O  O6  1  0.99999991  0.23526348  0.76473670  1
  O  O7  1  0.99999959  0.76473606  0.23526342  1
  O  O8  1  0.23639553  0.66358525  0.92413796  1
  O  O9  1  0.23639408  0.92413746  0.66358528  1
  O  O10  1  0.32480637  0.44231444  0.67294547  1
  O  O11  1  0.32480605  0.67294592  0.44231368  1
  O  O12  1  0.68864652  0.60361576  0.90272249  1
  O  O13  1  0.36959952  0.28953573  0.91608412  1
  O  O14  1  0.60120805  0.84917998  0.84917966  1
  O  O15  1  0.31135433  0.09727720  0.39638424  1
  O  O16  1  0.76360453  0.33641466  0.07586270  1
  O  O17  1  0.68864572  0.90272271  0.60361547  1
  O  O18  1  0.00071332  0.16528743  0.55520437  1
  O  O19  1  0.39879200  0.15081992  0.15082005  1
  O  O20  1  0.63040040  0.08391622  0.71046368  1
  O  O21  1  0.63039858  0.71046417  0.08391639  1
  O  O22  1  0.67519400  0.32705399  0.55768603  1
  O  O23  1  0.67519368  0.55768546  0.32705423  1
  O  O24  1  0.76360598  0.07586244  0.33641537  1
  O  O25  1  0.31135354  0.39638415  0.09727817  1
  P  P26  1  0.46751771  0.30475911  0.06155636  1
  P  P27  1  0.82701808  0.21147237  0.63184376  1
  P  P28  1  0.17298095  0.36815600  0.78852797  1
  P  P29  1  0.17298197  0.78852753  0.36815595  1
  P  P30  1  0.53248256  0.69524181  0.93844397  1
  P  P31  1  0.53248291  0.93844423  0.69524166  1
  P  P32  1  0.46751735  0.06155669  0.30475868  1
  P  P33  1  0.82701911  0.63184390  0.21147269  1
  Co  Co34  1  0.00000040  0.50000000  0.99999978  1
  Co  Co35  1  0.99999945  0.00000028  0.49999965  1
