# generated using pymatgen
data_Co3P3O11
_symmetry_space_group_name_H-M   'P 1'
_cell_length_a   9.69946282
_cell_length_b   9.61493149
_cell_length_c   10.02023560
_cell_angle_alpha   90.00000000
_cell_angle_beta   64.68432596
_cell_angle_gamma   90.00000000
_symmetry_Int_Tables_number   1
_chemical_formula_structural   Co3P3O11
_chemical_formula_sum   'Co12 P12 O44'
_cell_volume   844.74127852
_cell_formula_units_Z   4
loop_
 _symmetry_equiv_pos_site_id
 _symmetry_equiv_pos_as_xyz
  1  'x, y, z'
loop_
 _atom_site_type_symbol
 _atom_site_label
 _atom_site_symmetry_multiplicity
 _atom_site_fract_x
 _atom_site_fract_y
 _atom_site_fract_z
 _atom_site_occupancy
  O  O0  1  0.96245614  0.53848559  0.30596561  1
  O  O1  1  0.86012805  0.72738171  0.91592917  1
  O  O2  1  0.84492719  0.22163158  0.73487954  1
  O  O3  1  0.70210527  0.02742464  0.91902816  1
  O  O4  1  0.98838764  0.01326467  0.75296693  1
  O  O5  1  0.79276228  0.98220025  0.64991294  1
  O  O6  1  0.70723789  0.48220002  0.85008705  1
  O  O7  1  0.79789375  0.52742487  0.58097232  1
  O  O8  1  0.98114491  0.71788058  0.08982129  1
  O  O9  1  0.65507297  0.72163075  0.76512044  1
  O  O10  1  0.79091379  0.74560569  0.44413934  1
  O  O11  1  0.79666610  0.23534560  0.30425591  1
  O  O12  1  0.01161247  0.98673474  0.24703273  1
  O  O13  1  0.13987206  0.27261875  0.08407049  1
  O  O14  1  0.15507291  0.77836888  0.26512112  1
  O  O15  1  0.29789370  0.97257582  0.08097199  1
  O  O16  1  0.03754397  0.46151487  0.69403405  1
  O  O17  1  0.20723783  0.01780021  0.35008672  1
  O  O18  1  0.29276222  0.51779938  0.14991361  1
  O  O19  1  0.20210635  0.47257559  0.41902834  1
  O  O20  1  0.01885520  0.28211883  0.91017837  1
  O  O21  1  0.34492714  0.27836865  0.23487921  1
  O  O22  1  0.20908632  0.25439372  0.55586032  1
  O  O23  1  0.20333286  0.76465380  0.69574524  1
  O  O24  1  0.36012800  0.77261793  0.41592884  1
  O  O25  1  0.32318242  0.99534700  0.56411029  1
  O  O26  1  0.17251336  0.98170215  0.90662892  1
  O  O27  1  0.63987211  0.22738148  0.58407082  1
  O  O28  1  0.17681724  0.49534677  0.93588903  1
  O  O29  1  0.48838759  0.48673451  0.25296660  1
  O  O30  1  0.53754442  0.03848536  0.19403439  1
  O  O31  1  0.29666679  0.26465357  0.80425508  1
  O  O32  1  0.51885452  0.21788035  0.41017820  1
  O  O33  1  0.29091447  0.75439395  0.94413951  1
  O  O34  1  0.70908563  0.24560546  0.05586115  1
  O  O35  1  0.48114559  0.78211906  0.58982146  1
  O  O36  1  0.70333333  0.73534583  0.19574458  1
  O  O37  1  0.46245569  0.96151510  0.80596527  1
  O  O38  1  0.51161252  0.51326490  0.74703306  1
  O  O39  1  0.82318287  0.50465369  0.06411063  1
  O  O40  1  0.67251382  0.51829854  0.40662826  1
  O  O41  1  0.82748674  0.01829831  0.09337174  1
  O  O42  1  0.67681769  0.00465346  0.43588937  1
  O  O43  1  0.32748629  0.48170192  0.59337140  1
  P  P44  1  0.16506110  0.93519770  0.24317352  1
  P  P45  1  0.18887056  0.41527086  0.57469966  1
  P  P46  1  0.33493895  0.43519853  0.25682681  1
  P  P47  1  0.33781068  0.83546981  0.56300828  1
  P  P48  1  0.16219011  0.33546958  0.93699155  1
  P  P49  1  0.68887102  0.08472937  0.07469899  1
  P  P50  1  0.31112909  0.91527003  0.92530067  1
  P  P51  1  0.83781000  0.66453088  0.06300811  1
  P  P52  1  0.66218943  0.16453065  0.43699138  1
  P  P53  1  0.66506115  0.56480193  0.74317385  1
  P  P54  1  0.81112955  0.58472960  0.42530000  1
  P  P55  1  0.83493901  0.06480170  0.75682614  1
  Co  Co56  1  0.86105570  0.36819404  0.86426543  1
  Co  Co57  1  0.97099022  0.14443142  0.13925258  1
  Co  Co58  1  0.82116904  0.87491746  0.27174932  1
  Co  Co59  1  0.63894446  0.86819427  0.63573456  1
  Co  Co60  1  0.67883039  0.37491723  0.22825117  1
  Co  Co61  1  0.47099089  0.35556882  0.63925274  1
  Co  Co62  1  0.52900922  0.64443059  0.36074692  1
  Co  Co63  1  0.32116972  0.62508324  0.77174849  1
  Co  Co64  1  0.36105565  0.13180514  0.36426510  1
  Co  Co65  1  0.17883106  0.12508301  0.72825134  1
  Co  Co66  1  0.02900876  0.85556905  0.86074758  1
  Co  Co67  1  0.13894441  0.63180537  0.13573423  1
