# generated using pymatgen
data_LiFeP2O7
_symmetry_space_group_name_H-M   'P 1'
_cell_length_a   6.43766985
_cell_length_b   10.57363109
_cell_length_c   9.34027921
_cell_angle_alpha   65.31247147
_cell_angle_beta   107.06975864
_cell_angle_gamma   94.25287131
_symmetry_Int_Tables_number   1
_chemical_formula_structural   LiFeP2O7
_chemical_formula_sum   'Li4 Fe4 P8 O28'
_cell_volume   551.36960858
_cell_formula_units_Z   4
loop_
 _symmetry_equiv_pos_site_id
 _symmetry_equiv_pos_as_xyz
  1  'x, y, z'
loop_
 _atom_site_type_symbol
 _atom_site_label
 _atom_site_symmetry_multiplicity
 _atom_site_fract_x
 _atom_site_fract_y
 _atom_site_fract_z
 _atom_site_occupancy
  Li  Li0  1  0.06285499  0.95458467  0.05385207  1
  Li  Li1  1  0.65776542  0.40770748  0.05975556  1
  Li  Li2  1  0.96623585  0.48022882  0.84978197  1
  Li  Li3  1  0.56085582  0.02291675  0.51186875  1
  O  O4  1  0.45419441  0.82330588  0.91753797  1
  O  O5  1  0.94807759  0.72742488  0.51669660  1
  O  O6  1  0.93020142  0.09143492  0.27474782  1
  O  O7  1  0.95371831  0.34379456  0.07304054  1
  O  O8  1  0.01031352  0.64595390  0.87459812  1
  O  O9  1  0.08327252  0.90485876  0.71856445  1
  O  O10  1  0.04304438  0.27594281  0.47801456  1
  O  O11  1  0.01981531  0.72321843  0.26415114  1
  O  O12  1  0.26066129  0.03152585  0.89614566  1
  O  O13  1  0.20640626  0.54369614  0.54779307  1
  O  O14  1  0.36955827  0.42858281  0.86047587  1
  O  O15  1  0.61599045  0.54923822  0.66996386  1
  O  O16  1  0.31853235  0.78983978  0.46234078  1
  O  O17  1  0.13676589  0.14023115  0.07049236  1
  O  O18  1  0.39111870  0.05198433  0.65513895  1
  O  O19  1  0.75263304  0.95767188  0.10373236  1
  O  O20  1  0.28711604  0.19894884  0.31393880  1
  O  O21  1  0.38791232  0.45293616  0.33922782  1
  O  O22  1  0.99031545  0.28641551  0.73388998  1
  O  O23  1  0.70858686  0.83025191  0.66171561  1
  O  O24  1  0.57306123  0.68575496  0.29924323  1
  O  O25  1  0.60701540  0.95795884  0.33112129  1
  O  O26  1  0.89605841  0.83839143  0.93696281  1
  O  O27  1  0.68245422  0.21229517  0.53699694  1
  O  O28  1  0.56872998  0.17875513  0.06745286  1
  O  O29  1  0.64291802  0.55784991  0.15020818  1
  O  O30  1  0.79208575  0.45977679  0.46156204  1
  O  O31  1  0.42734817  0.31829729  0.69235743  1
  P  P32  1  0.41621526  0.46497651  0.69451065  1
  P  P33  1  0.58400548  0.53570620  0.30748977  1
  P  P34  1  0.92195794  0.79203848  0.80570771  1
  P  P35  1  0.70244177  0.04244774  0.18963943  1
  P  P36  1  0.11645828  0.70656598  0.44172769  1
  P  P37  1  0.31008702  0.95436704  0.79945059  1
  P  P38  1  0.08095356  0.20485913  0.17707413  1
  P  P39  1  0.88245416  0.29834989  0.55831878  1
  Fe  Fe40  1  0.72412626  0.76920535  0.09550468  1
  Fe  Fe41  1  0.63391851  0.75337539  0.49206041  1
  Fe  Fe42  1  0.35353622  0.25942826  0.49655122  1
  Fe  Fe43  1  0.28431611  0.21703199  0.89626169  1
