# generated using pymatgen
data_LiFeP2O7
_symmetry_space_group_name_H-M   'P 1'
_cell_length_a   9.18768463
_cell_length_b   8.37180458
_cell_length_c   6.70202633
_cell_angle_alpha   90.00000000
_cell_angle_beta   104.04530426
_cell_angle_gamma   90.00000000
_symmetry_Int_Tables_number   1
_chemical_formula_structural   LiFeP2O7
_chemical_formula_sum   'Li4 Fe4 P8 O28'
_cell_volume   500.09169929
_cell_formula_units_Z   4
loop_
 _symmetry_equiv_pos_site_id
 _symmetry_equiv_pos_as_xyz
  1  'x, y, z'
loop_
 _atom_site_type_symbol
 _atom_site_label
 _atom_site_symmetry_multiplicity
 _atom_site_fract_x
 _atom_site_fract_y
 _atom_site_fract_z
 _atom_site_occupancy
  Li  Li0  1  0.24898146  0.07694690  0.26434363  1
  Li  Li1  1  0.75101856  0.92305373  0.73565544  1
  Li  Li2  1  0.75101856  0.57694663  0.73565544  1
  Li  Li3  1  0.24898146  0.42305282  0.26434363  1
  O  O4  1  0.38020816  0.09962536  0.91638345  1
  O  O5  1  0.94821978  0.25000046  0.76167478  1
  O  O6  1  0.85550299  0.09636266  0.02069667  1
  O  O7  1  0.85550299  0.40363706  0.02069667  1
  O  O8  1  0.14449703  0.59636238  0.97930240  1
  O  O9  1  0.14449703  0.90363678  0.97930240  1
  O  O10  1  0.05178024  0.75000018  0.23832579  1
  O  O11  1  0.10834959  0.75000018  0.61268063  1
  O  O12  1  0.12134968  0.09959955  0.57930233  1
  O  O13  1  0.12134968  0.40040017  0.57930233  1
  O  O14  1  0.10604706  0.25000046  0.13149372  1
  O  O15  1  0.55887133  0.25000046  0.74339523  1
  O  O16  1  0.38020816  0.40037437  0.91638345  1
  O  O17  1  0.39194309  0.75000018  0.88460986  1
  O  O18  1  0.35280775  0.59618024  0.51831150  1
  O  O19  1  0.87864922  0.90040109  0.42069637  1
  O  O20  1  0.39644783  0.25000046  0.37658406  1
  O  O21  1  0.44112868  0.75000018  0.25660534  1
  O  O22  1  0.89165043  0.25000046  0.38731993  1
  O  O23  1  0.60355218  0.75000018  0.62341650  1
  O  O24  1  0.64719227  0.09617933  0.48168757  1
  O  O25  1  0.64719227  0.40382040  0.48168757  1
  O  O26  1  0.60805692  0.25000046  0.11539070  1
  O  O27  1  0.61979186  0.59962508  0.08361711  1
  O  O28  1  0.61979186  0.90037409  0.08361711  1
  O  O29  1  0.89395296  0.75000018  0.86850684  1
  O  O30  1  0.87864922  0.59959927  0.42069637  1
  O  O31  1  0.35280775  0.90382012  0.51831150  1
  P  P32  1  0.44322765  0.75000018  0.49867819  1
  P  P33  1  0.55677236  0.25000046  0.50132088  1
  P  P34  1  0.52628433  0.75000018  0.07739820  1
  P  P35  1  0.97206748  0.75000018  0.42286181  1
  P  P36  1  0.05328684  0.75000018  0.99687081  1
  P  P37  1  0.02793254  0.25000046  0.57713875  1
  P  P38  1  0.47371568  0.25000046  0.92260087  1
  P  P39  1  0.94671317  0.25000046  0.00312975  1
  Fe  Fe40  1  0.75023211  0.44045360  0.24907874  1
  Fe  Fe41  1  0.75023211  0.05954732  0.24907874  1
  Fe  Fe42  1  0.24976791  0.94045332  0.75092182  1
  Fe  Fe43  1  0.24976791  0.55954704  0.75092182  1
