# generated using pymatgen
data_Li3Fe3(PO4)4
_symmetry_space_group_name_H-M   'P 1'
_cell_length_a   6.40408026
_cell_length_b   10.10666926
_cell_length_c   10.61628808
_cell_angle_alpha   88.95794037
_cell_angle_beta   90.00000000
_cell_angle_gamma   71.52900644
_symmetry_Int_Tables_number   1
_chemical_formula_structural   Li3Fe3(PO4)4
_chemical_formula_sum   'Li6 Fe6 P8 O32'
_cell_volume   651.61001991
_cell_formula_units_Z   2
loop_
 _symmetry_equiv_pos_site_id
 _symmetry_equiv_pos_as_xyz
  1  'x, y, z'
loop_
 _atom_site_type_symbol
 _atom_site_label
 _atom_site_symmetry_multiplicity
 _atom_site_fract_x
 _atom_site_fract_y
 _atom_site_fract_z
 _atom_site_occupancy
  Li  Li0  1  0.41145241  1.00000000  0.25000000  1
  Li  Li1  1  0.93089141  0.85861558  0.46655443  1
  Li  Li2  1  0.58854759  0.00000000  0.75000000  1
  Li  Li3  1  0.21049301  0.85861558  0.96655443  1
  Li  Li4  1  0.06910859  0.14138442  0.53344557  1
  Li  Li5  1  0.78950699  0.14138442  0.03344557  1
  Fe  Fe6  1  0.63020592  0.69391193  0.74900815  1
  Fe  Fe7  1  0.67588215  0.69391193  0.24900815  1
  Fe  Fe8  1  0.50000000  0.50000000  0.50000000  1
  Fe  Fe9  1  0.36979408  0.30608807  0.25099185  1
  Fe  Fe10  1  0.32411785  0.30608807  0.75099185  1
  Fe  Fe11  1  0.00000000  0.50000000  0.00000000  1
  P  P12  1  0.17916572  0.60071903  0.74380979  1
  P  P13  1  0.41711603  0.83845218  0.49215642  1
  P  P14  1  0.77988575  0.39928097  0.75619021  1
  P  P15  1  0.58288397  0.16154782  0.50784358  1
  P  P16  1  0.74443179  0.83845218  0.99215642  1
  P  P17  1  0.82083428  0.39928097  0.25619021  1
  P  P18  1  0.25556821  0.16154782  0.00784358  1
  P  P19  1  0.22011425  0.60071903  0.24380979  1
  O  O20  1  0.31822250  0.69342364  0.77756234  1
  O  O21  1  0.65087476  0.29579221  0.50605154  1
  O  O22  1  0.17971332  0.03743016  0.04034724  1
  O  O23  1  0.94339116  0.69076398  0.71439674  1
  O  O24  1  0.57567644  0.82728453  0.88761043  1
  O  O25  1  0.05333303  0.29579221  0.00605154  1
  O  O26  1  0.69101564  0.51214274  0.64582218  1
  O  O27  1  0.40296097  0.17271547  0.61238957  1
  O  O28  1  0.20315838  0.48785726  0.85417782  1
  O  O29  1  0.05660884  0.30923602  0.28560326  1
  O  O30  1  0.27369784  0.49277138  0.63560305  1
  O  O31  1  0.78285552  0.03743016  0.54034724  1
  O  O32  1  0.76646921  0.50722862  0.86439695  1
  O  O33  1  0.94666697  0.70420779  0.99394846  1
  O  O34  1  0.63415514  0.30923602  0.78560326  1
  O  O35  1  0.82028668  0.96256984  0.95965276  1
  O  O36  1  0.59703903  0.82728453  0.38761043  1
  O  O37  1  0.68177750  0.30657636  0.22243766  1
  O  O38  1  0.21714448  0.96256984  0.45965276  1
  O  O39  1  0.47186973  0.15185618  0.37822547  1
  O  O40  1  0.36584486  0.69076398  0.21439674  1
  O  O41  1  0.23353079  0.49277138  0.13560305  1
  O  O42  1  0.37627309  0.15185618  0.87822547  1
  O  O43  1  0.72630216  0.50722862  0.36439695  1
  O  O44  1  0.98835387  0.69342364  0.27756234  1
  O  O45  1  0.62372691  0.84814382  0.12177453  1
  O  O46  1  0.79684162  0.51214274  0.14582218  1
  O  O47  1  0.52813027  0.84814382  0.62177453  1
  O  O48  1  0.34912524  0.70420779  0.49394846  1
  O  O49  1  0.01164613  0.30657636  0.72243766  1
  O  O50  1  0.30898436  0.48785726  0.35417782  1
  O  O51  1  0.42432356  0.17271547  0.11238957  1
