# generated using pymatgen
data_Li3Fe2(PO4)3
_symmetry_space_group_name_H-M   'P 1'
_cell_length_a   8.58436641
_cell_length_b   8.58442135
_cell_length_c   6.41500733
_cell_angle_alpha   73.43021604
_cell_angle_beta   106.56999074
_cell_angle_gamma   85.62136799
_symmetry_Int_Tables_number   1
_chemical_formula_structural   Li3Fe2(PO4)3
_chemical_formula_sum   'Li6 Fe4 P6 O24'
_cell_volume   427.84132438
_cell_formula_units_Z   2
loop_
 _symmetry_equiv_pos_site_id
 _symmetry_equiv_pos_as_xyz
  1  'x, y, z'
loop_
 _atom_site_type_symbol
 _atom_site_label
 _atom_site_symmetry_multiplicity
 _atom_site_fract_x
 _atom_site_fract_y
 _atom_site_fract_z
 _atom_site_occupancy
  Li  Li0  1  0.71001882  0.71001210  0.75000101  1
  Li  Li1  1  0.50000076  0.49999552  1.00000375  1
  Li  Li2  1  0.28998580  0.28998084  0.25000223  1
  Li  Li3  1  0.03749410  0.03748694  0.25000341  1
  Li  Li4  1  0.50000230  0.49999339  0.50000057  1
  Li  Li5  1  0.96251490  0.96250988  0.75000138  1
  O  O6  1  0.15744676  0.84677384  0.09747030  1
  O  O7  1  0.60619588  0.04495893  0.18299374  1
  O  O8  1  0.84677561  0.15745437  0.40252680  1
  O  O9  1  0.99514873  0.32804944  0.10483742  1
  O  O10  1  0.00485172  0.67195039  0.89516223  1
  O  O11  1  0.15322271  0.84255386  0.59746971  1
  O  O12  1  0.39380145  0.95504277  0.81700617  1
  O  O13  1  0.32804655  0.99514949  0.39515499  1
  O  O14  1  0.17728581  0.26924669  0.52954894  1
  O  O15  1  0.04495720  0.60619772  0.31700692  1
  O  O16  1  0.45795664  0.70882379  0.69700853  1
  O  O17  1  0.84255380  0.15322201  0.90253209  1
  O  O18  1  0.26924348  0.17729124  0.97044744  1
  O  O19  1  0.29117395  0.54204308  0.19700938  1
  O  O20  1  0.67194766  0.00485244  0.60485048  1
  O  O21  1  0.52979220  0.73467125  0.26243064  1
  O  O22  1  0.47021141  0.26532428  0.73757102  1
  O  O23  1  0.82271010  0.73075158  0.47044858  1
  O  O24  1  0.70882727  0.45795243  0.80299368  1
  O  O25  1  0.73075835  0.82270585  0.02955895  1
  O  O26  1  0.73466467  0.52979904  0.23756544  1
  O  O27  1  0.54204784  0.29116613  0.30299311  1
  O  O28  1  0.95504132  0.39380211  0.68299102  1
  O  O29  1  0.26532933  0.47020559  0.76243351  1
  P  P30  1  0.13239355  0.66159883  0.13046496  1
  P  P31  1  0.29214448  0.29214356  0.74999924  1
  P  P32  1  0.70785427  0.70785392  0.24999902  1
  P  P33  1  0.86760774  0.33840309  0.86953275  1
  P  P34  1  0.33839642  0.86761703  0.63045614  1
  P  P35  1  0.66158887  0.13240776  0.36953417  1
  Fe  Fe36  1  0.94214772  0.36996289  0.36867610  1
  Fe  Fe37  1  0.63006282  0.05785362  0.86872395  1
  Fe  Fe38  1  0.36994106  0.94214061  0.13128417  1
  Fe  Fe39  1  0.05785130  0.63004963  0.63130704  1
