# generated using pymatgen
data_Ni(PO3)3
_symmetry_space_group_name_H-M   'P 1'
_cell_length_a   6.26795761
_cell_length_b   6.26795762
_cell_length_c   6.26795761
_cell_angle_alpha   106.35552910
_cell_angle_beta   106.35552932
_cell_angle_gamma   106.35552920
_symmetry_Int_Tables_number   1
_chemical_formula_structural   Ni(PO3)3
_chemical_formula_sum   'Ni1 P3 O9'
_cell_volume   208.58067576
_cell_formula_units_Z   1
loop_
 _symmetry_equiv_pos_site_id
 _symmetry_equiv_pos_as_xyz
  1  'x, y, z'
loop_
 _atom_site_type_symbol
 _atom_site_label
 _atom_site_symmetry_multiplicity
 _atom_site_fract_x
 _atom_site_fract_y
 _atom_site_fract_z
 _atom_site_occupancy
  O  O0  1  0.35338571  0.07350700  0.06679209  1
  O  O1  1  0.29777542  0.89426433  0.62291668  1
  O  O2  1  0.06679285  0.35338616  0.07350675  1
  O  O3  1  0.07350744  0.06679283  0.35338552  1
  O  O4  1  0.65465763  0.91846749  0.95787120  1
  O  O5  1  0.95787212  0.65465789  0.91846683  1
  O  O6  1  0.89426393  0.62291485  0.29777499  1
  O  O7  1  0.91846578  0.95787113  0.65465764  1
  O  O8  1  0.62291586  0.29777421  0.89426464  1
  P  P9  1  0.48383903  0.04052537  0.89987286  1
  P  P10  1  0.04052447  0.89987164  0.48383955  1
  P  P11  1  0.89987303  0.48383970  0.04052624  1
  Ni  Ni12  1  0.00277474  0.00277551  0.00277430  1
