# generated using pymatgen
data_Li3Mn2(PO4)3
_symmetry_space_group_name_H-M   'P 1'
_cell_length_a   9.05940099
_cell_length_b   9.05940048
_cell_length_c   9.05940125
_cell_angle_alpha   55.95079992
_cell_angle_beta   55.95080207
_cell_angle_gamma   55.95079835
_symmetry_Int_Tables_number   1
_chemical_formula_structural   Li3Mn2(PO4)3
_chemical_formula_sum   'Li6 Mn4 P6 O24'
_cell_volume   476.42403060
_cell_formula_units_Z   2
loop_
 _symmetry_equiv_pos_site_id
 _symmetry_equiv_pos_as_xyz
  1  'x, y, z'
loop_
 _atom_site_type_symbol
 _atom_site_label
 _atom_site_symmetry_multiplicity
 _atom_site_fract_x
 _atom_site_fract_y
 _atom_site_fract_z
 _atom_site_occupancy
  Li  Li0  1  0.92170064  0.66243063  0.26445459  1
  Li  Li1  1  0.07829936  0.33756937  0.73554541  1
  Li  Li2  1  0.26445459  0.92170064  0.66243063  1
  Li  Li3  1  0.33756937  0.73554541  0.07829936  1
  Li  Li4  1  0.66243063  0.26445459  0.92170064  1
  Li  Li5  1  0.73554541  0.07829936  0.33756937  1
  Mn  Mn6  1  0.65343131  0.65343131  0.65343131  1
  Mn  Mn7  1  0.34656869  0.34656869  0.34656869  1
  Mn  Mn8  1  0.85381894  0.85381894  0.85381894  1
  Mn  Mn9  1  0.14618106  0.14618106  0.14618106  1
  P  P10  1  0.95644814  0.25254324  0.54143741  1
  P  P11  1  0.04355186  0.74745676  0.45856259  1
  P  P12  1  0.45856259  0.04355186  0.74745676  1
  P  P13  1  0.74745676  0.45856259  0.04355186  1
  P  P14  1  0.25254324  0.54143741  0.95644814  1
  P  P15  1  0.54143741  0.95644814  0.25254324  1
  O  O16  1  0.84748119  0.79084217  0.45841396  1
  O  O17  1  0.01165868  0.79857937  0.61055344  1
  O  O18  1  0.46791761  0.50472293  0.83285942  1
  O  O19  1  0.15251881  0.20915783  0.54158604  1
  O  O20  1  0.16714058  0.53208239  0.49527707  1
  O  O21  1  0.53208239  0.49527707  0.16714058  1
  O  O22  1  0.87193809  0.25323867  0.13696823  1
  O  O23  1  0.86303177  0.12806191  0.74676133  1
  O  O24  1  0.79084217  0.45841396  0.84748119  1
  O  O25  1  0.49527707  0.16714058  0.53208239  1
  O  O26  1  0.20142063  0.38944656  0.98834132  1
  O  O27  1  0.98834132  0.20142063  0.38944656  1
  O  O28  1  0.45841396  0.84748119  0.79084217  1
  O  O29  1  0.25323867  0.13696823  0.87193809  1
  O  O30  1  0.20915783  0.54158604  0.15251881  1
  O  O31  1  0.83285942  0.46791761  0.50472293  1
  O  O32  1  0.61055344  0.01165868  0.79857937  1
  O  O33  1  0.54158604  0.15251881  0.20915783  1
  O  O34  1  0.79857937  0.61055344  0.01165868  1
  O  O35  1  0.38944656  0.98834132  0.20142063  1
  O  O36  1  0.74676133  0.86303177  0.12806191  1
  O  O37  1  0.13696823  0.87193809  0.25323867  1
  O  O38  1  0.50472293  0.83285942  0.46791761  1
  O  O39  1  0.12806191  0.74676133  0.86303177  1
