# generated using pymatgen
data_LiFeP2O7
_symmetry_space_group_name_H-M   'P 1'
_cell_length_a   6.81214530
_cell_length_b   8.19294273
_cell_length_c   9.41498952
_cell_angle_alpha   90.00000000
_cell_angle_beta   107.55972615
_cell_angle_gamma   90.00000000
_symmetry_Int_Tables_number   1
_chemical_formula_structural   LiFeP2O7
_chemical_formula_sum   'Li4 Fe4 P8 O28'
_cell_volume   500.97974109
_cell_formula_units_Z   4
loop_
 _symmetry_equiv_pos_site_id
 _symmetry_equiv_pos_as_xyz
  1  'x, y, z'
loop_
 _atom_site_type_symbol
 _atom_site_label
 _atom_site_symmetry_multiplicity
 _atom_site_fract_x
 _atom_site_fract_y
 _atom_site_fract_z
 _atom_site_occupancy
  Li  Li0  1  0.22034023  0.89123772  0.54745317  1
  Li  Li1  1  0.77966057  0.10876166  0.45254628  1
  Li  Li2  1  0.77965956  0.39123864  0.95254668  1
  Li  Li3  1  0.22033968  0.60876195  0.04745348  1
  O  O4  1  0.39478657  0.08786758  0.63387893  1
  O  O5  1  0.92819029  0.67281298  0.39246799  1
  O  O6  1  0.85494271  0.93870884  0.15657850  1
  O  O7  1  0.90734663  0.58625951  0.12467283  1
  O  O8  1  0.09265261  0.41373987  0.87532733  1
  O  O9  1  0.14505807  0.06129175  0.84342200  1
  O  O10  1  0.07180895  0.32718761  0.60753216  1
  O  O11  1  0.22940785  0.60619736  0.71525388  1
  O  O12  1  0.09265360  0.08625921  0.37532798  1
  O  O13  1  0.14505754  0.43870855  0.34342125  1
  O  O14  1  0.07180995  0.17281268  0.10753282  1
  O  O15  1  0.39478602  0.41213271  0.13387924  1
  O  O16  1  0.51365736  0.23332341  0.89067739  1
  O  O17  1  0.22940884  0.89380353  0.21525454  1
  O  O18  1  0.52690713  0.92157179  0.86596418  1
  O  O19  1  0.90734717  0.91374016  0.62467252  1
  O  O20  1  0.48634242  0.73332370  0.60932245  1
  O  O21  1  0.60521475  0.58786666  0.86612126  1
  O  O22  1  0.77059139  0.39380324  0.28474627  1
  O  O23  1  0.51365836  0.26667689  0.39067805  1
  O  O24  1  0.52690814  0.57842788  0.36596378  1
  O  O25  1  0.47309211  0.07842881  0.13403597  1
  O  O26  1  0.77059194  0.10619706  0.78474596  1
  O  O27  1  0.48634190  0.76667719  0.10932170  1
  O  O28  1  0.60521423  0.91213301  0.36612052  1
  O  O29  1  0.92819083  0.82718791  0.89246768  1
  O  O30  1  0.85494171  0.56129083  0.65657785  1
  O  O31  1  0.47309264  0.42157149  0.63403672  1
  P  P32  1  0.53789945  0.08621731  0.79566017  1
  P  P33  1  0.46210132  0.91378328  0.20434033  1
  P  P34  1  0.53789893  0.41378298  0.29565942  1
  P  P35  1  0.94479144  0.96709213  0.78920393  1
  P  P36  1  0.05520834  0.46709184  0.71079591  1
  P  P37  1  0.05520781  0.03290724  0.21079516  1
  P  P38  1  0.46210187  0.58621761  0.70434002  1
  P  P39  1  0.94479090  0.53290754  0.28920425  1
  Fe  Fe40  1  0.71922015  0.77557324  0.00439865  1
  Fe  Fe41  1  0.71921915  0.72442643  0.50439799  1
  Fe  Fe42  1  0.28078009  0.27557294  0.49560216  1
  Fe  Fe43  1  0.28078063  0.22442614  0.99560185  1
