# generated using pymatgen
data_Li3Fe2(PO4)3
_symmetry_space_group_name_H-M   'P 1'
_cell_length_a   4.89004964
_cell_length_b   4.89005016
_cell_length_c   18.88889784
_cell_angle_alpha   89.75417896
_cell_angle_beta   89.75417893
_cell_angle_gamma   67.10173311
_symmetry_Int_Tables_number   1
_chemical_formula_structural   Li3Fe2(PO4)3
_chemical_formula_sum   'Li6 Fe4 P6 O24'
_cell_volume   416.08306677
_cell_formula_units_Z   2
loop_
 _symmetry_equiv_pos_site_id
 _symmetry_equiv_pos_as_xyz
  1  'x, y, z'
loop_
 _atom_site_type_symbol
 _atom_site_label
 _atom_site_symmetry_multiplicity
 _atom_site_fract_x
 _atom_site_fract_y
 _atom_site_fract_z
 _atom_site_occupancy
  Li  Li0  1  0.67305967  0.67305967  0.75290560  1
  Li  Li1  1  0.67253378  0.67253378  0.41994982  1
  Li  Li2  1  0.00036961  0.00036961  0.50070177  1
  Li  Li3  1  0.32694033  0.32694033  0.58042740  1
  Li  Li4  1  0.99963039  0.99963039  0.83263123  1
  Li  Li5  1  0.32746622  0.32746622  0.91338318  1
  Fe  Fe6  1  0.00093778  0.00093778  0.33478944  1
  Fe  Fe7  1  -0.00000000  -0.00000000  0.16666700  1
  Fe  Fe8  1  0.99906222  0.99906222  0.99854356  1
  Fe  Fe9  1  -0.00000000  -0.00000000  0.66666700  1
  P  P10  1  0.35131252  0.35131252  0.74841484  1
  P  P11  1  0.65144670  0.65144670  0.91829712  1
  P  P12  1  0.64868748  0.64868748  0.58491816  1
  P  P13  1  0.34855330  0.34855330  0.41503688  1
  P  P14  1  0.65174682  0.65174682  0.25011062  1
  P  P15  1  0.34825318  0.34825318  0.08322338  1
  O  O16  1  0.76262382  0.29974998  0.58923474  1
  O  O17  1  0.76332481  0.30174404  0.92347889  1
  O  O18  1  0.70025002  0.23737618  0.74409826  1
  O  O19  1  0.76629490  0.76629490  0.98270259  1
  O  O20  1  0.23370510  0.23370510  0.35063041  1
  O  O21  1  0.23667519  0.69825596  0.40985411  1
  O  O22  1  0.23638758  0.23638758  0.14841765  1
  O  O23  1  0.75995207  0.75995207  0.65169714  1
  O  O24  1  0.75448607  0.75448607  0.31877752  1
  O  O25  1  0.23737618  0.70025002  0.74409826  1
  O  O26  1  0.69825596  0.23667519  0.40985411  1
  O  O27  1  0.22441691  0.70001053  0.08408407  1
  O  O28  1  0.77558309  0.29998947  0.24924993  1
  O  O29  1  0.74845198  0.74845198  0.51730540  1
  O  O30  1  0.24551393  0.24551393  0.01455648  1
  O  O31  1  0.29998947  0.77558309  0.24924993  1
  O  O32  1  0.30174404  0.76332481  0.92347889  1
  O  O33  1  0.24004793  0.24004793  0.68163586  1
  O  O34  1  0.70001053  0.22441691  0.08408407  1
  O  O35  1  0.29974998  0.76262382  0.58923474  1
  O  O36  1  0.74608764  0.74608764  0.84921471  1
  O  O37  1  0.25154802  0.25154802  0.81602760  1
  O  O38  1  0.76361242  0.76361242  0.18491535  1
  O  O39  1  0.25391236  0.25391236  0.48411829  1
