# generated using pymatgen
data_Li3Cr2(PO4)3
_symmetry_space_group_name_H-M   'P 1'
_cell_length_a   8.47067464
_cell_length_b   8.73658946
_cell_length_c   12.26836536
_cell_angle_alpha   90.00000000
_cell_angle_beta   87.74822126
_cell_angle_gamma   90.00000000
_symmetry_Int_Tables_number   1
_chemical_formula_structural   Li3Cr2(PO4)3
_chemical_formula_sum   'Li12 Cr8 P12 O48'
_cell_volume   907.21692904
_cell_formula_units_Z   4
loop_
 _symmetry_equiv_pos_site_id
 _symmetry_equiv_pos_as_xyz
  1  'x, y, z'
loop_
 _atom_site_type_symbol
 _atom_site_label
 _atom_site_symmetry_multiplicity
 _atom_site_fract_x
 _atom_site_fract_y
 _atom_site_fract_z
 _atom_site_occupancy
  Li  Li0  1  0.71735343  0.19031973  0.94697440  1
  Li  Li1  1  0.28264658  0.80967958  0.05302602  1
  Li  Li2  1  0.49999949  0.49999966  0.99999973  1
  Li  Li3  1  0.00000000  0.00000000  0.00000000  1
  Li  Li4  1  0.00000026  0.10510383  0.25000024  1
  Li  Li5  1  0.49999975  0.40099451  0.24999997  1
  Li  Li6  1  0.99999959  0.89489663  0.74999994  1
  Li  Li7  1  0.71735291  0.80967958  0.44697392  1
  Li  Li8  1  0.50000001  0.49999966  0.50000021  1
  Li  Li9  1  0.50000026  0.59900481  0.74999964  1
  Li  Li10  1  0.28264709  0.19031973  0.55302569  1
  Li  Li11  1  0.00000051  0.00000000  0.49999966  1
  O  O12  1  0.25300521  0.58929943  0.99230630  1
  O  O13  1  0.37808986  0.80712736  0.31295676  1
  O  O14  1  0.34421328  0.32314105  0.08617424  1
  O  O15  1  0.62191083  0.80712736  0.18704315  1
  O  O16  1  0.42983680  0.60134742  0.16224810  1
  O  O17  1  0.06727913  0.90982013  0.33751268  1
  O  O18  1  0.01194630  0.41860123  0.10911882  1
  O  O19  1  0.12787951  0.70607819  0.18785440  1
  O  O20  1  0.87212050  0.29392228  0.81214521  1
  O  O21  1  0.98805371  0.58139808  0.89088161  1
  O  O22  1  0.93272088  0.09018033  0.66248692  1
  O  O23  1  0.57016321  0.39865305  0.83775151  1
  O  O24  1  0.37808918  0.19287196  0.81295646  1
  O  O25  1  0.65578673  0.67685941  0.91382619  1
  O  O26  1  0.62191016  0.19287196  0.68704367  1
  O  O27  1  0.74706212  0.94312399  0.98328924  1
  O  O28  1  0.06727846  0.09018033  0.83751320  1
  O  O29  1  0.25293789  0.05687533  0.01671036  1
  O  O30  1  0.74706279  0.05687533  0.48328955  1
  O  O31  1  0.74568720  0.59306480  0.70969966  1
  O  O32  1  0.47367760  0.89175698  0.90600378  1
  O  O33  1  0.73284045  0.90343502  0.78877703  1
  O  O34  1  0.42983613  0.39865305  0.66224780  1
  O  O35  1  0.98805319  0.41860123  0.39088112  1
  O  O36  1  0.25431332  0.59306480  0.79030043  1
  O  O37  1  0.85733686  0.81954634  0.59326389  1
  O  O38  1  0.12788003  0.29392228  0.68785488  1
  O  O39  1  0.73283994  0.09656544  0.28877737  1
  O  O40  1  0.47367826  0.10824348  0.40600327  1
  O  O41  1  0.74699531  0.58929943  0.50769379  1
  O  O42  1  0.65578740  0.32314105  0.41382567  1
  O  O43  1  0.14266367  0.81954634  0.90673620  1
  O  O44  1  0.85733635  0.18045298  0.09326423  1
  O  O45  1  0.34421261  0.67685941  0.58617393  1
  O  O46  1  0.25300469  0.41070103  0.49230582  1
  O  O47  1  0.52632174  0.89175698  0.59399634  1
  O  O48  1  0.26716007  0.90343502  0.71122306  1
  O  O49  1  0.87211998  0.70607819  0.31214554  1
  O  O50  1  0.14266315  0.18045298  0.40673572  1
  O  O51  1  0.74568669  0.40693566  0.20969918  1
  O  O52  1  0.93272156  0.90982013  0.16248723  1
  O  O53  1  0.57016388  0.60134742  0.33775181  1
  O  O54  1  0.26715956  0.09656544  0.21122258  1
  O  O55  1  0.52632242  0.10824348  0.09399664  1
  O  O56  1  0.25431281  0.40693566  0.29030077  1
  O  O57  1  0.25293722  0.94312399  0.51671088  1
  O  O58  1  0.74699480  0.41070103  0.00769412  1
  O  O59  1  0.01194681  0.58139808  0.60911848  1
  P  P60  1  0.15559802  0.64039753  0.89340933  1
  P  P61  1  0.99999959  0.20090055  0.74999994  1
  P  P62  1  0.65106044  0.14690505  0.39758727  1
  P  P63  1  0.34893957  0.85309427  0.60241316  1
  P  P64  1  0.84440199  0.35960179  0.10659028  1
  P  P65  1  0.15559751  0.35960179  0.39340966  1
  P  P66  1  0.34893905  0.14690505  0.10241268  1
  P  P67  1  0.49999975  0.71063556  0.24999997  1
  P  P68  1  0.50000026  0.28936375  0.74999964  1
  P  P69  1  0.65106096  0.85309427  0.89758693  1
  P  P70  1  0.84440250  0.64039753  0.60658994  1
  P  P71  1  0.00000026  0.79909991  0.25000024  1
  Cr  Cr72  1  0.71743299  0.00056347  0.14253248  1
  Cr  Cr73  1  0.28256769  0.00056347  0.35746744  1
  Cr  Cr74  1  0.21657423  0.50224087  0.14425692  1
  Cr  Cr75  1  0.78342526  0.50224087  0.35574303  1
  Cr  Cr76  1  0.21657475  0.49775959  0.64425658  1
  Cr  Cr77  1  0.78342577  0.49775959  0.85574269  1
  Cr  Cr78  1  0.71743231  0.99943699  0.64253217  1
  Cr  Cr79  1  0.28256702  0.99943699  0.85746795  1
