# generated using pymatgen
data_LiVP2O7
_symmetry_space_group_name_H-M   'P 1'
_cell_length_a   5.09441763
_cell_length_b   6.81442871
_cell_length_c   8.32681102
_cell_angle_alpha   68.65011229
_cell_angle_beta   87.52476066
_cell_angle_gamma   87.61419680
_symmetry_Int_Tables_number   1
_chemical_formula_structural   LiVP2O7
_chemical_formula_sum   'Li2 V2 P4 O14'
_cell_volume   268.87679880
_cell_formula_units_Z   2
loop_
 _symmetry_equiv_pos_site_id
 _symmetry_equiv_pos_as_xyz
  1  'x, y, z'
loop_
 _atom_site_type_symbol
 _atom_site_label
 _atom_site_symmetry_multiplicity
 _atom_site_fract_x
 _atom_site_fract_y
 _atom_site_fract_z
 _atom_site_occupancy
  Li  Li0  1  0.27780402  0.82210466  0.00092227  1
  Li  Li1  1  0.78949504  0.18462657  0.43264231  1
  O  O2  1  0.43979105  0.96902080  0.29300819  1
  O  O3  1  0.11641396  0.65898208  0.22402474  1
  O  O4  1  0.15197117  0.29703758  0.46982130  1
  O  O5  1  0.28565491  0.35228038  0.15948827  1
  O  O6  1  0.27044678  0.11799964  0.99054302  1
  O  O7  1  0.05672394  0.93292934  0.79063779  1
  O  O8  1  0.43948079  0.48137011  0.67957434  1
  O  O9  1  0.56967386  0.49625714  0.32717590  1
  O  O10  1  0.58755326  0.05422900  0.69698555  1
  O  O11  1  0.95211708  0.06708903  0.24642667  1
  O  O12  1  0.70729621  0.66235352  0.82474755  1
  O  O13  1  0.82621298  0.70663158  0.51767808  1
  O  O14  1  0.90712611  0.35734382  0.76492018  1
  O  O15  1  0.67909257  0.85353020  0.01737527  1
  P  P16  1  0.23548732  0.11391778  0.17368315  1
  P  P17  1  0.28158821  0.45573645  0.30692320  1
  P  P18  1  0.72058165  0.54529903  0.68720745  1
  P  P19  1  0.76299052  0.88990506  0.82982282  1
  V  V20  1  0.24145283  0.22207447  0.72856593  1
  V  V21  1  0.75784736  0.79329656  0.27172362  1
