# generated using pymatgen
data_Li2V(PO4)2
_symmetry_space_group_name_H-M   'P 1'
_cell_length_a   8.36719043
_cell_length_b   8.42418803
_cell_length_c   7.42681741
_cell_angle_alpha   90.17575535
_cell_angle_beta   89.97812744
_cell_angle_gamma   59.74730889
_symmetry_Int_Tables_number   1
_chemical_formula_structural   Li2V(PO4)2
_chemical_formula_sum   'Li6 V3 P6 O24'
_cell_volume   452.19575567
_cell_formula_units_Z   3
loop_
 _symmetry_equiv_pos_site_id
 _symmetry_equiv_pos_as_xyz
  1  'x, y, z'
loop_
 _atom_site_type_symbol
 _atom_site_label
 _atom_site_symmetry_multiplicity
 _atom_site_fract_x
 _atom_site_fract_y
 _atom_site_fract_z
 _atom_site_occupancy
  Li  Li0  1  0.30844545  0.03098448  0.63538013  1
  Li  Li1  1  0.03192032  0.65817972  0.63379493  1
  Li  Li2  1  0.34017790  0.69379338  0.36503290  1
  Li  Li3  1  0.65979035  0.30614796  0.63513336  1
  Li  Li4  1  0.96807658  0.34166450  0.36630287  1
  Li  Li5  1  0.69149956  0.96897758  0.36474962  1
  O  O6  1  0.40618651  0.48147414  0.75927632  1
  O  O7  1  0.23321607  0.13705564  0.39898994  1
  O  O8  1  0.11645911  0.40119374  0.76146549  1
  O  O9  1  0.27813390  0.18198385  0.07509681  1
  O  O10  1  0.17428238  0.54128029  0.06800206  1
  O  O11  1  0.13991591  0.62727055  0.39565599  1
  O  O12  1  0.47921321  0.11188996  0.76331578  1
  O  O13  1  0.14195844  0.79389896  0.83792295  1
  O  O14  1  0.06848071  0.13898733  0.83557166  1
  O  O15  1  0.21125264  0.93104759  0.16226318  1
  O  O16  1  0.53349264  0.29073440  0.07029781  1
  O  O17  1  0.62619026  0.23261019  0.39563929  1
  O  O18  1  0.37377314  0.76733430  0.60454352  1
  O  O19  1  0.93149069  0.86088586  0.16455812  1
  O  O20  1  0.78871344  0.06886254  0.83792846  1
  O  O21  1  0.59378896  0.51844522  0.24087169  1
  O  O22  1  0.85800683  0.20600752  0.16225792  1
  O  O23  1  0.52078228  0.88802143  0.23680853  1
  O  O24  1  0.86008551  0.37258245  0.60443994  1
  O  O25  1  0.82567316  0.45858542  0.93208492  1
  O  O26  1  0.72183465  0.81788814  0.92498450  1
  O  O27  1  0.88352506  0.59866805  0.23863173  1
  O  O28  1  0.76680468  0.86289011  0.60112128  1
  O  O29  1  0.46646686  0.70917006  0.92988633  1
  P  P30  1  0.31005179  0.03877336  0.22079195  1
  P  P31  1  0.03721334  0.65358479  0.21973425  1
  P  P32  1  0.35038293  0.68755510  0.77865330  1
  P  P33  1  0.64956405  0.31236775  0.22150794  1
  P  P34  1  0.68994983  0.96112723  0.77933623  1
  P  P35  1  0.96276871  0.34628219  0.78037233  1
  V  V36  1  0.99997098  -0.00003534  0.00010308  1
  V  V37  1  0.33303725  0.33202358  0.92589444  1
  V  V38  1  0.66694822  0.66784485  0.07421817  1
