# generated using pymatgen
data_LiV3(P3O10)2
_symmetry_space_group_name_H-M   'P 1'
_cell_length_a   8.43718970
_cell_length_b   8.43719037
_cell_length_c   12.35266592
_cell_angle_alpha   90.00000000
_cell_angle_beta   90.00000000
_cell_angle_gamma   74.98327159
_symmetry_Int_Tables_number   1
_chemical_formula_structural   LiV3(P3O10)2
_chemical_formula_sum   'Li2 V6 P12 O40'
_cell_volume   849.30981003
_cell_formula_units_Z   2
loop_
 _symmetry_equiv_pos_site_id
 _symmetry_equiv_pos_as_xyz
  1  'x, y, z'
loop_
 _atom_site_type_symbol
 _atom_site_label
 _atom_site_symmetry_multiplicity
 _atom_site_fract_x
 _atom_site_fract_y
 _atom_site_fract_z
 _atom_site_occupancy
  Li  Li0  1  0.58525057  0.41474943  -0.00000000  1
  Li  Li1  1  0.41474943  0.58525057  0.50000000  1
  V  V2  1  0.23733004  0.23733004  0.75000000  1
  V  V3  1  0.76266996  0.76266996  0.25000000  1
  V  V4  1  0.12964672  0.87035328  0.50000000  1
  V  V5  1  0.30116604  0.30116604  0.25000000  1
  V  V6  1  0.87035328  0.12964672  -0.00000000  1
  V  V7  1  0.69883396  0.69883396  0.75000000  1
  P  P8  1  0.30020551  0.81562873  0.71950686  1
  P  P9  1  0.37188358  0.91039218  0.18343110  1
  P  P10  1  0.91039218  0.37188358  0.31656890  1
  P  P11  1  0.69979449  0.18437127  0.21950686  1
  P  P12  1  0.62811642  0.08960782  0.68343110  1
  P  P13  1  0.18437127  0.69979449  0.28049314  1
  P  P14  1  0.85133574  0.73508589  0.98695517  1
  P  P15  1  0.73508589  0.85133574  0.51304483  1
  P  P16  1  0.26491411  0.14866426  0.01304483  1
  P  P17  1  0.14866426  0.26491411  0.48695517  1
  P  P18  1  0.08960782  0.62811642  0.81656890  1
  P  P19  1  0.81562873  0.30020551  0.78049314  1
  O  O20  1  0.27154803  0.32584350  0.41939926  1
  O  O21  1  0.47340980  0.22567318  0.69646423  1
  O  O22  1  0.34641252  0.05660932  0.25731872  1
  O  O23  1  0.73362002  0.27728503  0.89190598  1
  O  O24  1  0.78691428  0.15948799  0.69904765  1
  O  O25  1  0.14436349  0.31538593  0.60476516  1
  O  O26  1  0.96413146  0.35514546  0.44135697  1
  O  O27  1  0.64485454  0.03586854  0.55864303  1
  O  O28  1  0.72271497  0.26637998  0.10809402  1
  O  O29  1  0.26165283  0.99818949  0.70043569  1
  O  O30  1  0.31538593  0.14436349  0.89523484  1
  O  O31  1  0.84025996  0.91922868  0.96983478  1
  O  O32  1  0.94339068  0.65358748  0.74268128  1
  O  O33  1  0.73834717  0.00181051  0.20043569  1
  O  O34  1  0.15948799  0.78691428  0.80095235  1
  O  O35  1  0.45991826  0.72639826  0.77225602  1
  O  O36  1  0.05660932  0.34641252  0.24268128  1
  O  O37  1  0.00181051  0.73834717  0.29956431  1
  O  O38  1  0.27360174  0.54008174  0.22774398  1
  O  O39  1  0.84051201  0.21308572  0.30095235  1
  O  O40  1  0.68461407  0.85563651  0.39523484  1
  O  O41  1  0.72845197  0.67415650  0.91939926  1
  O  O42  1  0.15974004  0.08077132  0.46983478  1
  O  O43  1  0.54008174  0.27360174  0.27225602  1
  O  O44  1  0.03586854  0.64485454  0.94135697  1
  O  O45  1  0.21308572  0.84051201  0.19904765  1
  O  O46  1  0.72639826  0.45991826  0.72774398  1
  O  O47  1  0.27728503  0.73362002  0.60809402  1
  O  O48  1  0.65358748  0.94339068  0.75731872  1
  O  O49  1  0.22567318  0.47340980  0.80353577  1
  O  O50  1  0.08077132  0.15974004  0.03016522  1
  O  O51  1  0.85563651  0.68461407  0.10476516  1
  O  O52  1  0.26637998  0.72271497  0.39190598  1
  O  O53  1  0.77432682  0.52659020  0.30353577  1
  O  O54  1  0.67415650  0.72845197  0.58060074  1
  O  O55  1  0.32584350  0.27154803  0.08060074  1
  O  O56  1  0.35514546  0.96413146  0.05864303  1
  O  O57  1  0.91922868  0.84025996  0.53016522  1
  O  O58  1  0.52659020  0.77432682  0.19646423  1
  O  O59  1  0.99818949  0.26165283  0.79956431  1
