# generated using pymatgen
data_Ca(CeS2)2
_symmetry_space_group_name_H-M   'P 1'
_cell_length_a   7.41282279
_cell_length_b   7.41282247
_cell_length_c   7.41282244
_cell_angle_alpha   109.73849133
_cell_angle_beta   109.73849049
_cell_angle_gamma   108.93799673
_symmetry_Int_Tables_number   1
_chemical_formula_structural   Ca(CeS2)2
_chemical_formula_sum   'Ca2 Ce4 S8'
_cell_volume   313.54560676
_cell_formula_units_Z   2
loop_
 _symmetry_equiv_pos_site_id
 _symmetry_equiv_pos_as_xyz
  1  'x, y, z'
loop_
 _atom_site_type_symbol
 _atom_site_label
 _atom_site_symmetry_multiplicity
 _atom_site_fract_x
 _atom_site_fract_y
 _atom_site_fract_z
 _atom_site_occupancy
  Ca  Ca0  1  0.62500000  0.37500000  0.25000000  1
  Ca  Ca1  1  0.87500000  0.12500000  0.75000000  1
  Ce  Ce2  1  0.12180420  0.75000000  0.87180420  1
  Ce  Ce3  1  0.25000000  0.62180420  0.37180420  1
  Ce  Ce4  1  0.37819580  0.25000000  0.62819580  1
  Ce  Ce5  1  0.75000000  0.87819580  0.12819580  1
  S  S6  1  0.00282906  0.85694474  0.50229096  1
  S  S7  1  0.00053810  0.35465378  0.49770904  1
  S  S8  1  0.14305526  0.14534622  0.14588432  1
  S  S9  1  0.35694474  0.50282906  0.00229096  1
  S  S10  1  0.64534622  0.64305526  0.64588432  1
  S  S11  1  0.49717094  0.99946190  0.85411568  1
  S  S12  1  0.49946190  0.99717094  0.35411568  1
  S  S13  1  0.85465378  0.50053810  0.99770904  1
