# generated using pymatgen
data_Mg(FeO2)2
_symmetry_space_group_name_H-M   'P 1'
_cell_length_a   6.03800054
_cell_length_b   6.04021420
_cell_length_c   24.12836709
_cell_angle_alpha   59.95544875
_cell_angle_beta   60.04640195
_cell_angle_gamma   59.98787669
_symmetry_Int_Tables_number   1
_chemical_formula_structural   Mg(FeO2)2
_chemical_formula_sum   'Mg8 Fe16 O32'
_cell_volume   622.19159591
_cell_formula_units_Z   8
loop_
 _symmetry_equiv_pos_site_id
 _symmetry_equiv_pos_as_xyz
  1  'x, y, z'
loop_
 _atom_site_type_symbol
 _atom_site_label
 _atom_site_symmetry_multiplicity
 _atom_site_fract_x
 _atom_site_fract_y
 _atom_site_fract_z
 _atom_site_occupancy
  Mg  Mg0  1  0.13170939  0.12315378  0.03049576  1
  Mg  Mg1  1  0.00247248  0.49892389  0.12491993  1
  Mg  Mg2  1  0.13018143  0.12170802  0.28160063  1
  Mg  Mg3  1  0.00045196  0.49896685  0.37540358  1
  Mg  Mg4  1  0.00030684  0.50019571  0.62482544  1
  Mg  Mg5  1  0.50042890  0.50048508  0.49965024  1
  Mg  Mg6  1  0.00198746  0.50033278  0.87433674  1
  Mg  Mg7  1  0.50051230  0.50070033  0.74952176  1
  Fe  Fe8  1  0.49479142  0.49743175  0.12475638  1
  Fe  Fe9  1  0.49453405  0.49672864  0.25300217  1
  Fe  Fe10  1  0.49479142  0.00875132  0.12475638  1
  Fe  Fe11  1  0.12998429  0.11942645  0.53279070  1
  Fe  Fe12  1  0.49729477  0.49943219  0.37502887  1
  Fe  Fe13  1  0.86651590  0.87830318  0.21921943  1
  Fe  Fe14  1  0.13186526  0.12088895  0.78158921  1
  Fe  Fe15  1  0.49729477  0.00315755  0.37502887  1
  Fe  Fe16  1  0.50029248  0.50045399  0.62470013  1
  Fe  Fe17  1  0.86957512  0.88079376  0.46720934  1
  Fe  Fe18  1  0.50029248  0.00045299  0.62470013  1
  Fe  Fe19  1  0.49823013  0.00557977  0.87439675  1
  Fe  Fe20  1  0.49823013  0.49860310  0.87439675  1
  Fe  Fe21  1  0.86955079  0.88028271  0.71747095  1
  Fe  Fe22  1  0.49439073  0.49723819  0.00278322  1
  Fe  Fe23  1  0.86618216  0.87780729  0.96955082  1
  O  O24  1  0.26768177  0.25620875  0.06382719  1
  O  O25  1  0.26779215  0.25559415  0.18025489  1
  O  O26  1  0.26768177  0.72080071  0.06382719  1
  O  O27  1  0.72409546  0.25871380  0.06461923  1
  O  O28  1  0.26974059  0.74396275  0.18558348  1
  O  O29  1  0.26845137  0.25608685  0.31438904  1
  O  O30  1  0.73953208  0.27080708  0.18604747  1
  O  O31  1  0.25968324  0.25225611  0.43395114  1
  O  O32  1  0.26845137  0.71790563  0.31438904  1
  O  O33  1  0.73957124  0.74558471  0.06731483  1
  O  O34  1  0.72123156  0.25915652  0.31511385  1
  O  O35  1  0.73953208  0.74547094  0.18604747  1
  O  O36  1  0.25985494  0.24977440  0.56509312  1
  O  O37  1  0.26905325  0.74695041  0.43426148  1
  O  O38  1  0.74148668  0.26855301  0.43476268  1
  O  O39  1  0.26176683  0.25436681  0.68237489  1
  O  O40  1  0.25985494  0.72999820  0.56509312  1
  O  O41  1  0.74007597  0.74577929  0.31709136  1
  O  O42  1  0.72923946  0.25414863  0.56561582  1
  O  O43  1  0.74148668  0.75090959  0.43476268  1
  O  O44  1  0.26953019  0.74563290  0.68480100  1
  O  O45  1  0.25863782  0.24955148  0.81474473  1
  O  O46  1  0.74020682  0.26850170  0.68533795  1
  O  O47  1  0.27000140  0.25792373  0.92853778  1
  O  O48  1  0.25863782  0.73283178  0.81474473  1
  O  O49  1  0.73800582  0.74558756  0.56770477  1
  O  O50  1  0.73246976  0.25334317  0.81521097  1
  O  O51  1  0.74020682  0.74993967  0.68533795  1
  O  O52  1  0.27031740  0.74278843  0.93602644  1
  O  O53  1  0.73834668  0.27094828  0.93650832  1
  O  O54  1  0.73716268  0.74545291  0.81798287  1
  O  O55  1  0.73834668  0.74467177  0.93650832  1
