# generated using pymatgen
data_LiV2P3O10
_symmetry_space_group_name_H-M   'P 1'
_cell_length_a   4.68877693
_cell_length_b   8.74395388
_cell_length_c   9.19562804
_cell_angle_alpha   90.00000000
_cell_angle_beta   97.40370590
_cell_angle_gamma   90.00000000
_symmetry_Int_Tables_number   1
_chemical_formula_structural   LiV2P3O10
_chemical_formula_sum   'Li2 V4 P6 O20'
_cell_volume   373.86332231
_cell_formula_units_Z   2
loop_
 _symmetry_equiv_pos_site_id
 _symmetry_equiv_pos_as_xyz
  1  'x, y, z'
loop_
 _atom_site_type_symbol
 _atom_site_label
 _atom_site_symmetry_multiplicity
 _atom_site_fract_x
 _atom_site_fract_y
 _atom_site_fract_z
 _atom_site_occupancy
  Li  Li0  1  0.00000000  0.00000000  0.00000000  1
  Li  Li1  1  0.00000000  0.50000015  0.00000000  1
  O  O2  1  0.55041717  0.24999950  0.97203276  1
  O  O3  1  0.16047608  0.39730960  0.81521113  1
  O  O4  1  0.24473090  0.74999964  0.76831065  1
  O  O5  1  0.23609960  0.60262921  0.48373159  1
  O  O6  1  0.23609960  0.89737008  0.48373159  1
  O  O7  1  0.29525162  0.24999950  0.44903880  1
  O  O8  1  0.28637579  0.10321176  0.15288616  1
  O  O9  1  0.28637579  0.39678839  0.15288616  1
  O  O10  1  0.16047608  0.10269055  0.81521113  1
  O  O11  1  0.44157153  0.74999964  0.29009383  1
  O  O12  1  0.55842691  0.24999950  0.70990509  1
  O  O13  1  0.44958343  0.74999964  0.02796739  1
  O  O14  1  0.71362264  0.60321190  0.84711385  1
  O  O15  1  0.71362264  0.89678854  0.84711385  1
  O  O16  1  0.83952235  0.89730975  0.18478888  1
  O  O17  1  0.76390100  0.10262906  0.51626856  1
  O  O18  1  0.76390100  0.39737108  0.51626856  1
  O  O19  1  0.75526753  0.24999950  0.23168935  1
  O  O20  1  0.83952235  0.60269069  0.18478888  1
  O  O21  1  0.70474898  0.74999964  0.55096026  1
  P  P22  1  0.32961687  0.24999950  0.82268149  1
  P  P23  1  0.40390792  0.74999964  0.46267307  1
  P  P24  1  0.54190855  0.74999964  0.86108520  1
  P  P25  1  0.45808988  0.24999950  0.13891481  1
  P  P26  1  0.59609268  0.24999950  0.53732708  1
  P  P27  1  0.67038373  0.74999964  0.17731866  1
  V  V28  1  0.03166911  0.06921076  0.33439711  1
  V  V29  1  0.03166911  0.43078939  0.33439711  1
  V  V30  1  0.96833149  0.56921091  0.66560304  1
  V  V31  1  0.96833149  0.93078953  0.66560304  1
