# generated using pymatgen
data_Li3V2(PO4)3
_symmetry_space_group_name_H-M   'P 1'
_cell_length_a   8.56063916
_cell_length_b   8.77779810
_cell_length_c   12.37851045
_cell_angle_alpha   90.00000000
_cell_angle_beta   87.67076434
_cell_angle_gamma   90.00000000
_symmetry_Int_Tables_number   1
_chemical_formula_structural   Li3V2(PO4)3
_chemical_formula_sum   'Li12 V8 P12 O48'
_cell_volume   929.39685529
_cell_formula_units_Z   4
loop_
 _symmetry_equiv_pos_site_id
 _symmetry_equiv_pos_as_xyz
  1  'x, y, z'
loop_
 _atom_site_type_symbol
 _atom_site_label
 _atom_site_symmetry_multiplicity
 _atom_site_fract_x
 _atom_site_fract_y
 _atom_site_fract_z
 _atom_site_occupancy
  Li  Li0  1  0.74168312  0.19157485  0.93956310  1
  Li  Li1  1  0.50000002  0.60003270  0.75000038  1
  Li  Li2  1  0.25831694  0.19157485  0.56043685  1
  Li  Li3  1  0.99999952  0.00000000  0.49999987  1
  Li  Li4  1  0.50000028  0.49999984  0.49999964  1
  Li  Li5  1  0.74168242  0.80842482  0.43956326  1
  Li  Li6  1  0.00000046  0.89469167  0.74999977  1
  Li  Li7  1  0.50000051  0.39996697  0.24999970  1
  Li  Li8  1  0.99999976  0.10530800  0.24999993  1
  Li  Li9  1  0.00000000  0.00000000  0.00000000  1
  Li  Li10  1  0.49999957  0.49999984  0.99999980  1
  Li  Li11  1  0.25831742  0.80842482  0.06043698  1
  O  O12  1  0.87176746  0.29651191  0.80974585  1
  O  O13  1  0.99297774  0.57844071  0.88981093  1
  O  O14  1  0.93589037  0.09403811  0.66167587  1
  O  O15  1  0.56728194  0.40328469  0.83765793  1
  O  O16  1  0.37608479  0.19620662  0.80767886  1
  O  O17  1  0.66202762  0.68272717  0.91548127  1
  O  O18  1  0.62391526  0.19620662  0.69232190  1
  O  O19  1  0.74226719  0.94981908  0.98190166  1
  O  O20  1  0.06410969  0.09403811  0.83832408  1
  O  O21  1  0.25242476  0.59085810  0.99245257  1
  O  O22  1  0.74226650  0.05018173  0.48190101  1
  O  O23  1  0.74423198  0.59776553  0.70839484  1
  O  O24  1  0.48077335  0.89624169  0.89287437  1
  O  O25  1  0.74523163  0.90232477  0.78817857  1
  O  O26  1  0.99297704  0.42155897  0.38981109  1
  O  O27  1  0.43271812  0.40328469  0.66234202  1
  O  O28  1  0.25576808  0.59776553  0.79160511  1
  O  O29  1  0.85979883  0.81974514  0.59063076  1
  O  O30  1  0.12823260  0.29651191  0.69025410  1
  O  O31  1  0.74523211  0.09767491  0.28817870  1
  O  O32  1  0.48077383  0.10375913  0.39287450  1
  O  O33  1  0.74757412  0.59085810  0.50754741  1
  O  O34  1  0.14020123  0.81974514  0.90936919  1
  O  O35  1  0.66202810  0.31727250  0.41548140  1
  O  O36  1  0.33797126  0.68272717  0.58451871  1
  O  O37  1  0.85979931  0.18025568  0.09063089  1
  O  O38  1  0.25242525  0.40914158  0.49245189  1
  O  O39  1  0.51922671  0.89624169  0.60712558  1
  O  O40  1  0.25476725  0.90232477  0.71182141  1
  O  O41  1  0.87176675  0.70348776  0.30974601  1
  O  O42  1  0.14020052  0.18025568  0.40936935  1
  O  O43  1  0.74423127  0.40223415  0.20839500  1
  O  O44  1  0.56728242  0.59671498  0.33765806  1
  O  O45  1  0.00702232  0.57844071  0.61018902  1
  O  O46  1  0.25476772  0.09767491  0.21182154  1
  O  O47  1  0.51922600  0.10375913  0.10712574  1
  O  O48  1  0.25576856  0.40223415  0.29160524  1
  O  O49  1  0.25773286  0.94981908  0.51809910  1
  O  O50  1  0.74757459  0.40914158  0.00754754  1
  O  O51  1  0.93589085  0.90596271  0.16167600  1
  O  O52  1  0.25773335  0.05018173  0.01809842  1
  O  O53  1  0.37608409  0.80379305  0.30767821  1
  O  O54  1  0.33797174  0.31727250  0.08451884  1
  O  O55  1  0.62391575  0.80379305  0.19232122  1
  O  O56  1  0.43271742  0.59671498  0.16234137  1
  O  O57  1  0.06411017  0.90596271  0.33832421  1
  O  O58  1  0.00702281  0.42155897  0.11018834  1
  O  O59  1  0.12823309  0.70348776  0.19025342  1
  P  P60  1  0.50000002  0.29493891  0.75000038  1
  P  P61  1  0.65481473  0.85717670  0.89480848  1
  P  P62  1  0.84260830  0.64225805  0.60585474  1
  P  P63  1  0.15739176  0.64225805  0.89414521  1
  P  P64  1  0.00000046  0.20264375  0.74999977  1
  P  P65  1  0.65481522  0.14282412  0.39480780  1
  P  P66  1  0.34518415  0.85717670  0.60519150  1
  P  P67  1  0.84260878  0.35774162  0.10585487  1
  P  P68  1  0.15739105  0.35774162  0.39414538  1
  P  P69  1  0.34518463  0.14282412  0.10519163  1
  P  P70  1  0.50000051  0.70506191  0.24999970  1
  P  P71  1  0.99999976  0.79735593  0.24999993  1
  V  V72  1  0.28192304  0.00205473  0.85566276  1
  V  V73  1  0.78476016  0.50208119  0.85605354  1
  V  V74  1  0.71807703  0.00205473  0.64433719  1
  V  V75  1  0.21523991  0.50208119  0.64394641  1
  V  V76  1  0.78476063  0.49791962  0.35605368  1
  V  V77  1  0.28192351  0.99794494  0.35566289  1
  V  V78  1  0.21523920  0.49791962  0.14394657  1
  V  V79  1  0.71807632  0.99794494  0.14433735  1
