# generated using pymatgen
data_V(PO3)4
_symmetry_space_group_name_H-M   'P 1'
_cell_length_a   6.97109840
_cell_length_b   9.47807048
_cell_length_c   6.97109840
_cell_angle_alpha   88.15223441
_cell_angle_beta   71.72551571
_cell_angle_gamma   91.84776551
_symmetry_Int_Tables_number   1
_chemical_formula_structural   V(PO3)4
_chemical_formula_sum   'V2 P8 O24'
_cell_volume   436.70520710
_cell_formula_units_Z   2
loop_
 _symmetry_equiv_pos_site_id
 _symmetry_equiv_pos_as_xyz
  1  'x, y, z'
loop_
 _atom_site_type_symbol
 _atom_site_label
 _atom_site_symmetry_multiplicity
 _atom_site_fract_x
 _atom_site_fract_y
 _atom_site_fract_z
 _atom_site_occupancy
  O  O0  1  0.94451588  0.58866285  0.77422346  1
  O  O1  1  0.86744538  0.35313105  0.63422615  1
  O  O2  1  0.77520938  0.04598659  0.88835270  1
  O  O3  1  0.86577420  0.85313114  0.63255498  1
  O  O4  1  0.86646822  0.15168634  0.15948716  1
  O  O5  1  0.72577668  0.08866276  0.55548299  1
  O  O6  1  0.61164745  0.54598667  0.72479036  1
  O  O7  1  0.71940637  0.60869761  0.21874337  1
  O  O8  1  0.71874284  0.89130201  0.21940686  1
  O  O9  1  0.65948751  0.34831311  0.36646803  1
  O  O10  1  0.50453595  0.89870173  0.80083386  1
  O  O11  1  0.69916521  0.39870207  0.99546388  1
  O  O12  1  0.30083450  0.60129809  0.00453672  1
  O  O13  1  0.49546378  0.10129844  0.19916530  1
  O  O14  1  0.34051222  0.65168705  0.63353113  1
  O  O15  1  0.28125688  0.10869816  0.78059374  1
  O  O16  1  0.28059334  0.39130256  0.78125723  1
  O  O17  1  0.05548384  0.41133732  0.22577713  1
  O  O18  1  0.27422305  0.91133740  0.44451617  1
  O  O19  1  0.13353149  0.84831383  0.84051344  1
  O  O20  1  0.13422551  0.14686903  0.36744562  1
  O  O21  1  0.22479035  0.95401358  0.11164645  1
  O  O22  1  0.13255434  0.64686911  0.36577444  1
  O  O23  1  0.38835227  0.45401349  0.27521024  1
  P  P24  1  0.79106468  0.47183868  0.77587421  1
  P  P25  1  0.72412707  0.97183876  0.70893504  1
  P  P26  1  0.72131035  0.03375705  0.13240211  1
  P  P27  1  0.63240149  0.46624346  0.22131029  1
  P  P28  1  0.36759824  0.53375671  0.77868887  1
  P  P29  1  0.20893503  0.52816149  0.22412638  1
  P  P30  1  0.27587416  0.02816140  0.29106509  1
  P  P31  1  0.27868937  0.96624311  0.86759848  1
  V  V32  1  0.88909478  0.25000025  0.38909556  1
  V  V33  1  0.11090493  0.74999991  0.61090503  1
