# generated using pymatgen
data_Bi(PO3)4
_symmetry_space_group_name_H-M   'P 1'
_cell_length_a   7.28438986
_cell_length_b   8.61187498
_cell_length_c   8.02264849
_cell_angle_alpha   90.00000000
_cell_angle_beta   92.37491226
_cell_angle_gamma   90.00000000
_symmetry_Int_Tables_number   1
_chemical_formula_structural   Bi(PO3)4
_chemical_formula_sum   'Bi2 P8 O24'
_cell_volume   502.84654795
_cell_formula_units_Z   2
loop_
 _symmetry_equiv_pos_site_id
 _symmetry_equiv_pos_as_xyz
  1  'x, y, z'
loop_
 _atom_site_type_symbol
 _atom_site_label
 _atom_site_symmetry_multiplicity
 _atom_site_fract_x
 _atom_site_fract_y
 _atom_site_fract_z
 _atom_site_occupancy
  Bi  Bi0  1  0.74823850  0.75227584  0.74603079  1
  Bi  Bi1  1  0.25176150  0.25227584  0.25396921  1
  P  P2  1  0.89939195  0.33086818  0.89008311  1
  P  P3  1  0.56352325  0.12725648  0.90271392  1
  P  P4  1  0.00956833  0.60453189  0.39311577  1
  P  P5  1  0.43647675  0.62725648  0.09728608  1
  P  P6  1  0.62285250  0.50181767  0.40141921  1
  P  P7  1  0.10060805  0.83086818  0.10991689  1
  P  P8  1  0.37714750  0.00181767  0.59858079  1
  P  P9  1  0.99043167  0.10453189  0.60688423  1
  O  O10  1  0.99792400  0.71277987  0.22829153  1
  O  O11  1  0.60759683  0.55915741  0.57709450  1
  O  O12  1  0.82069885  0.00543788  0.61125326  1
  O  O13  1  0.68726923  0.27901395  0.88159291  1
  O  O14  1  0.56717157  0.64993099  0.95967299  1
  O  O15  1  0.32023489  0.48281992  0.07736391  1
  O  O16  1  0.39240317  0.05915741  0.42290550  1
  O  O17  1  0.01964604  0.80960632  0.93591881  1
  O  O18  1  0.31273077  0.77901395  0.11840709  1
  O  O19  1  0.09321712  0.99265849  0.17947460  1
  O  O20  1  0.83577482  0.49435430  0.35540892  1
  O  O21  1  0.54053353  0.34756204  0.35626140  1
  O  O22  1  0.00207600  0.21277987  0.77170847  1
  O  O23  1  0.67976511  0.98281992  0.92263609  1
  O  O24  1  0.43282843  0.14993099  0.04032701  1
  O  O25  1  0.45946647  0.84756204  0.64373860  1
  O  O26  1  0.01782678  0.20615614  0.45782209  1
  O  O27  1  0.98035396  0.30960632  0.06408119  1
  O  O28  1  0.98217322  0.70615614  0.54217791  1
  O  O29  1  0.54733915  0.63523064  0.27431718  1
  O  O30  1  0.90678288  0.49265849  0.82052540  1
  O  O31  1  0.16422518  0.99435430  0.64459108  1
  O  O32  1  0.17930115  0.50543788  0.38874674  1
  O  O33  1  0.45266085  0.13523064  0.72568282  1
