# generated using pymatgen
data_Mg(FeO2)2
_symmetry_space_group_name_H-M   'P 1'
_cell_length_a   6.02445132
_cell_length_b   6.03183610
_cell_length_c   18.05929670
_cell_angle_alpha   59.93567293
_cell_angle_beta   59.99314389
_cell_angle_gamma   59.95239063
_symmetry_Int_Tables_number   1
_chemical_formula_structural   Mg(FeO2)2
_chemical_formula_sum   'Mg6 Fe12 O24'
_cell_volume   463.62032289
_cell_formula_units_Z   6
loop_
 _symmetry_equiv_pos_site_id
 _symmetry_equiv_pos_as_xyz
  1  'x, y, z'
loop_
 _atom_site_type_symbol
 _atom_site_label
 _atom_site_symmetry_multiplicity
 _atom_site_fract_x
 _atom_site_fract_y
 _atom_site_fract_z
 _atom_site_occupancy
  Fe  Fe0  1  0.49715389  0.00296138  0.16694260  1
  Fe  Fe1  1  0.13062381  0.11762537  0.37804869  1
  Fe  Fe2  1  0.49472095  0.49640125  0.00416463  1
  Fe  Fe3  1  0.49712712  0.49908951  0.16693961  1
  Fe  Fe4  1  0.50032215  0.00034780  0.49964518  1
  Fe  Fe5  1  0.13326659  0.11997208  0.70891923  1
  Fe  Fe6  1  0.50032516  0.50039344  0.49964272  1
  Fe  Fe7  1  0.49818347  0.00517757  0.83260377  1
  Fe  Fe8  1  0.86837901  0.88184239  0.28932273  1
  Fe  Fe9  1  0.49818092  0.49883520  0.83259825  1
  Fe  Fe10  1  0.86829847  0.88102742  0.62320575  1
  Fe  Fe11  1  0.86558786  0.87913608  0.95872003  1
  Mg  Mg12  1  0.13266238  0.12153347  0.04141394  1
  Mg  Mg13  1  0.50004979  0.50055781  0.33294572  1
  Mg  Mg14  1  0.00045082  0.49867905  0.16740784  1
  Mg  Mg15  1  0.50030733  0.50063658  0.66613129  1
  Mg  Mg16  1  0.00025080  0.50017762  0.49979867  1
  Mg  Mg17  1  0.00196720  0.50036363  0.83242525  1
  O  O18  1  0.26852270  0.25524627  0.08625581  1
  O  O19  1  0.25945138  0.25162264  0.24575261  1
  O  O20  1  0.26848390  0.71748334  0.08625493  1
  O  O21  1  0.72285158  0.25822073  0.08691632  1
  O  O22  1  0.26078409  0.24997542  0.42015697  1
  O  O23  1  0.26803007  0.74790534  0.24537332  1
  O  O24  1  0.26225891  0.25432143  0.57635740  1
  O  O25  1  0.74053180  0.27026773  0.24592800  1
  O  O26  1  0.26076010  0.72881268  0.42016447  1
  O  O27  1  0.73983607  0.74591859  0.08945446  1
  O  O28  1  0.73046046  0.25390790  0.42059222  1
  O  O29  1  0.74050356  0.75143654  0.24593702  1
  O  O30  1  0.25941848  0.24961450  0.75293889  1
  O  O31  1  0.26858816  0.74641022  0.57951267  1
  O  O32  1  0.73962693  0.26998400  0.58002278  1
  O  O33  1  0.25937686  0.73213670  0.75294653  1
  O  O34  1  0.27008334  0.25733827  0.90508364  1
  O  O35  1  0.73836546  0.74639888  0.42295749  1
  O  O36  1  0.73397413  0.25284326  0.75343947  1
  O  O37  1  0.73960475  0.75027547  0.58003114  1
  O  O38  1  0.26891961  0.74282108  0.91514382  1
  O  O39  1  0.73744495  0.27181438  0.91545298  1
  O  O40  1  0.73684642  0.74609895  0.75698764  1
  O  O41  1  0.73741862  0.74438802  0.91546350  1
