# generated using pymatgen
data_Ag2WO4
_symmetry_space_group_name_H-M   'P 1'
_cell_length_a   5.98296269
_cell_length_b   10.95570579
_cell_length_c   12.62809382
_cell_angle_alpha   90.00000000
_cell_angle_beta   90.00000000
_cell_angle_gamma   90.00000000
_symmetry_Int_Tables_number   1
_chemical_formula_structural   Ag2WO4
_chemical_formula_sum   'Ag16 W8 O32'
_cell_volume   827.74097709
_cell_formula_units_Z   8
loop_
 _symmetry_equiv_pos_site_id
 _symmetry_equiv_pos_as_xyz
  1  'x, y, z'
loop_
 _atom_site_type_symbol
 _atom_site_label
 _atom_site_symmetry_multiplicity
 _atom_site_fract_x
 _atom_site_fract_y
 _atom_site_fract_z
 _atom_site_occupancy
  O  O0  1  0.35989138  0.31674650  0.88430312  1
  O  O1  1  0.64010962  0.68325450  0.88430312  1
  O  O2  1  0.14010962  0.81674550  0.38430312  1
  O  O3  1  0.85989038  0.18325350  0.38430312  1
  O  O4  1  0.36002775  0.31621227  0.10645214  1
  O  O5  1  0.63997325  0.68378773  0.10645214  1
  O  O6  1  0.13997225  0.81621227  0.60645214  1
  O  O7  1  0.86002675  0.18378773  0.60645214  1
  O  O8  1  0.34943340  0.08732386  0.99518323  1
  O  O9  1  0.65056760  0.91267614  0.99518323  1
  O  O10  1  0.15056660  0.58732386  0.49518323  1
  O  O11  1  0.84943240  0.41267614  0.49518323  1
  O  O12  1  0.77405580  0.35390224  0.99541244  1
  O  O13  1  0.22594320  0.64609676  0.99541244  1
  O  O14  1  0.72594420  0.85390324  0.49541344  1
  O  O15  1  0.27405580  0.14609776  0.49541344  1
  O  O16  1  0.31226871  0.08025266  0.76413455  1
  O  O17  1  0.68773029  0.91974734  0.76413455  1
  O  O18  1  0.18773029  0.58025266  0.26413455  1
  O  O19  1  0.81226971  0.41974734  0.26413455  1
  O  O20  1  0.31288289  0.08056148  0.22638232  1
  O  O21  1  0.68711811  0.91943952  0.22638232  1
  O  O22  1  0.18711711  0.58056148  0.72638332  1
  O  O23  1  0.81288189  0.41943952  0.72638332  1
  O  O24  1  0.19645050  0.36337048  0.60363212  1
  O  O25  1  0.80354850  0.63663052  0.60363212  1
  O  O26  1  0.30354950  0.86337048  0.10363212  1
  O  O27  1  0.69645150  0.13663052  0.10363212  1
  O  O28  1  0.69605629  0.13690003  0.88666788  1
  O  O29  1  0.80394371  0.63690003  0.38666888  1
  O  O30  1  0.30394471  0.86309997  0.88666788  1
  O  O31  1  0.19605629  0.36309897  0.38666888  1
  Ag  Ag32  1  0.00000000  0.50000000  0.99554568  1
  Ag  Ag33  1  0.49999900  0.00000000  0.49554568  1
  Ag  Ag34  1  0.49999900  0.50000000  0.80790589  1
  Ag  Ag35  1  0.00000000  0.00000000  0.30790589  1
  Ag  Ag36  1  0.49999900  0.50000000  0.18080246  1
  Ag  Ag37  1  0.00000000  0.00000000  0.68080246  1
  Ag  Ag38  1  0.49999900  0.50000000  0.49551145  1
  Ag  Ag39  1  0.00000000  0.00000000  0.99551145  1
  Ag  Ag40  1  0.51457154  0.25800349  0.32129358  1
  Ag  Ag41  1  0.48542646  0.74199651  0.32129358  1
  Ag  Ag42  1  0.98542846  0.75800349  0.82129358  1
  Ag  Ag43  1  0.01457254  0.24199751  0.82129358  1
  Ag  Ag44  1  0.98590338  0.75745569  0.16884463  1
  Ag  Ag45  1  0.51409662  0.25745469  0.66884463  1
  Ag  Ag46  1  0.01409662  0.24254531  0.16884463  1
  Ag  Ag47  1  0.48590238  0.74254531  0.66884463  1
  W  W48  1  0.00000000  0.50000000  0.63615327  1
  W  W49  1  0.49999900  0.00000000  0.13615327  1
  W  W50  1  0.00000000  0.50000000  0.35429115  1
  W  W51  1  0.49999900  0.00000000  0.85429115  1
  W  W52  1  0.02624438  0.24458005  0.49518904  1
  W  W53  1  0.97375462  0.75541995  0.49518904  1
  W  W54  1  0.47375562  0.74458105  0.99518904  1
  W  W55  1  0.52624538  0.25541995  0.99518904  1
