# generated using pymatgen
data_Li6Mn5(P2O7)4
_symmetry_space_group_name_H-M   'P 1'
_cell_length_a   13.33345691
_cell_length_b   9.28451889
_cell_length_c   10.64408976
_cell_angle_alpha   65.72446228
_cell_angle_beta   87.87460606
_cell_angle_gamma   73.08104465
_symmetry_Int_Tables_number   1
_chemical_formula_structural   Li6Mn5(P2O7)4
_chemical_formula_sum   'Li12 Mn10 P16 O56'
_cell_volume   1144.02081697
_cell_formula_units_Z   2
loop_
 _symmetry_equiv_pos_site_id
 _symmetry_equiv_pos_as_xyz
  1  'x, y, z'
loop_
 _atom_site_type_symbol
 _atom_site_label
 _atom_site_symmetry_multiplicity
 _atom_site_fract_x
 _atom_site_fract_y
 _atom_site_fract_z
 _atom_site_occupancy
  Li  Li0  1  0.17903900  0.06977207  0.87825648  1
  Li  Li1  1  0.09527473  0.86193891  0.61310909  1
  Li  Li2  1  0.25000000  0.50000000  0.50000000  1
  Li  Li3  1  0.40472527  0.13806009  0.38688991  1
  Li  Li4  1  0.32096000  0.93022893  0.12174352  1
  Li  Li5  1  0.53470930  0.85744673  0.00078669  1
  Li  Li6  1  0.68325685  0.08374616  0.87327161  1
  Li  Li7  1  0.56922694  0.89940478  0.59237538  1
  Li  Li8  1  0.75000000  0.50000000  0.50000000  1
  Li  Li9  1  0.93077306  0.10059422  0.40762462  1
  Li  Li10  1  0.81674315  0.91625384  0.12672939  1
  Li  Li11  1  0.96529070  0.14255427  0.99921231  1
  O  O12  1  0.53857826  0.28915088  0.60396990  1
  O  O13  1  0.96142174  0.71084812  0.39603110  1
  O  O14  1  0.98551154  0.47608927  0.79031556  1
  O  O15  1  0.86936172  0.90837685  0.50344606  1
  O  O16  1  0.98218256  0.27488823  0.24405324  1
  O  O17  1  0.82435724  0.84712103  0.97021333  1
  O  O18  1  0.95250160  0.06052638  0.62555396  1
  O  O19  1  0.84350718  0.49336832  0.29474148  1
  O  O20  1  0.86853682  0.53231122  0.04872603  1
  O  O21  1  0.80840127  0.65985906  0.53800167  1
  O  O22  1  0.01542159  0.06630448  0.84763573  1
  O  O23  1  0.04333982  0.27066267  0.60652667  1
  O  O24  1  0.01164793  0.55610879  0.17815638  1
  O  O25  1  0.13879339  0.06925358  0.50328395  1
  O  O26  1  0.00278596  0.73047623  0.81867048  1
  O  O27  1  0.18831074  0.14321078  0.02588294  1
  O  O28  1  0.04619918  0.93415017  0.35482284  1
  O  O29  1  0.12443471  0.45513079  0.95702368  1
  O  O30  1  0.22610061  0.08799280  0.70089901  1
  O  O31  1  0.19215347  0.32780696  0.46196353  1
  O  O32  1  0.14017240  0.59713184  0.69898270  1
  O  O33  1  0.22385574  0.27243792  0.18194280  1
  O  O34  1  0.14261134  0.67479126  0.31861787  1
  O  O35  1  0.18184452  0.68761494  0.03961505  1
  O  O36  1  0.31815648  0.31238406  0.96038595  1
  O  O37  1  0.35738866  0.32520874  0.68138213  1
  O  O38  1  0.27614326  0.72756208  0.81805820  1
  O  O39  1  0.35982760  0.40286816  0.30101730  1
  O  O40  1  0.30784653  0.67219304  0.53803747  1
  O  O41  1  0.27389939  0.91200720  0.29909999  1
  O  O42  1  0.37556529  0.54486921  0.04297732  1
  O  O43  1  0.45380082  0.06585083  0.64517616  1
  O  O44  1  0.31168926  0.85679022  0.97411706  1
  O  O45  1  0.49721404  0.26952477  0.18132952  1
  O  O46  1  0.51554799  0.09938879  0.85261937  1
  O  O47  1  0.36120661  0.93074642  0.49671505  1
  O  O48  1  0.48835207  0.44389121  0.82184362  1
  O  O49  1  0.98445301  0.90061021  0.14738063  1
  O  O50  1  0.45666018  0.72933833  0.39347233  1
  O  O51  1  0.51448846  0.52391173  0.20968344  1
  O  O52  1  0.63063828  0.09162415  0.49655294  1
  O  O53  1  0.48457841  0.93369652  0.15236327  1
  O  O54  1  0.51781744  0.72511177  0.75594676  1
  O  O55  1  0.67564276  0.15287997  0.02978667  1
  O  O56  1  0.54749940  0.93947362  0.37444704  1
  O  O57  1  0.72017164  0.09459925  0.69858706  1
  O  O58  1  0.63146218  0.46768878  0.95127397  1
  O  O59  1  0.69159873  0.34014094  0.46199933  1
  O  O60  1  0.65649282  0.50663068  0.70525852  1
  O  O61  1  0.72580579  0.28002572  0.18155093  1
  O  O62  1  0.63743565  0.69212340  0.31805925  1
  O  O63  1  0.67843803  0.71089747  0.03524829  1
  O  O64  1  0.82156197  0.28910253  0.96475171  1
  O  O65  1  0.86256435  0.30787660  0.68194075  1
  O  O66  1  0.77419521  0.71997428  0.81844807  1
  O  O67  1  0.77982936  0.90539975  0.30141294  1
  P  P68  1  0.84932380  0.79689213  0.43888158  1
  P  P69  1  0.92977637  0.46051785  0.20409135  1
  P  P70  1  0.96286964  0.17311281  0.69483569  1
  P  P71  1  0.78109711  0.70845180  0.96676345  1
  P  P72  1  0.71890289  0.29154820  0.03323755  1
  P  P73  1  0.53712936  0.82688719  0.30516431  1
  P  P74  1  0.57022363  0.53948115  0.79590865  1
  P  P75  1  0.65067620  0.20310787  0.56111842  1
  P  P76  1  0.44081835  0.43481116  0.19458667  1
  P  P77  1  0.34452916  0.81382974  0.43592565  1
  P  P78  1  0.05918265  0.56518784  0.80541333  1
  P  P79  1  0.15547084  0.18617026  0.56407335  1
  P  P80  1  0.03898107  0.80808337  0.29963375  1
  P  P81  1  0.46101793  0.19191663  0.70036725  1
  P  P82  1  0.28172548  0.71233491  0.96827080  1
  P  P83  1  0.21827452  0.28766509  0.03173020  1
  Mn  Mn84  1  0.13692790  0.10045651  0.29425203  1
  Mn  Mn85  1  0.01177856  0.79183190  0.99366411  1
  Mn  Mn86  1  0.18306907  0.48091307  0.24666532  1
  Mn  Mn87  1  0.31693093  0.51908793  0.75333468  1
  Mn  Mn88  1  0.48822144  0.20816910  0.00633589  1
  Mn  Mn89  1  0.36307210  0.89954249  0.70574697  1
  Mn  Mn90  1  0.64743374  0.09700813  0.30035431  1
  Mn  Mn91  1  0.67774859  0.50165212  0.24299840  1
  Mn  Mn92  1  0.82225141  0.49834788  0.75700160  1
  Mn  Mn93  1  0.85256626  0.90299187  0.69964569  1
