# generated using pymatgen
data_NaPrTiNbO6F
_symmetry_space_group_name_H-M   'P 1'
_cell_length_a   7.39266112
_cell_length_b   14.81844629
_cell_length_c   12.84289858
_cell_angle_alpha   29.92545411
_cell_angle_beta   54.85676356
_cell_angle_gamma   60.07391647
_symmetry_Int_Tables_number   1
_chemical_formula_structural   NaPrTiNbO6F
_chemical_formula_sum   'Na4 Pr4 Ti4 Nb4 O24 F4'
_cell_volume   573.92961073
_cell_formula_units_Z   4
loop_
 _symmetry_equiv_pos_site_id
 _symmetry_equiv_pos_as_xyz
  1  'x, y, z'
loop_
 _atom_site_type_symbol
 _atom_site_label
 _atom_site_symmetry_multiplicity
 _atom_site_fract_x
 _atom_site_fract_y
 _atom_site_fract_z
 _atom_site_occupancy
  F  F0  1  0.11394233  0.51102478  0.11399735  1
  F  F1  1  0.13600056  0.98900848  0.13595724  1
  F  F2  1  0.86398660  0.98897522  0.88600265  1
  F  F3  1  0.88593200  0.51099152  0.86404276  1
  Na  Na4  1  0.99998034  0.52401642  0.97599441  1
  Na  Na5  1  0.50000200  0.97598358  0.02400559  1
  Na  Na6  1  0.97617569  0.75000000  0.00000000  1
  Na  Na7  1  0.02383253  0.75000000  0.50000000  1
  Nb  Nb8  1  0.49321945  0.75000000  0.00000000  1
  Nb  Nb9  1  0.49999399  0.49253146  0.50750892  1
  Nb  Nb10  1  0.00007474  0.00746854  0.49249108  1
  Nb  Nb11  1  0.50690979  0.75000000  0.50000000  1
  O  O12  1  0.19010577  0.19706976  0.17091910  1
  O  O13  1  0.18040486  0.02231424  0.54870986  1
  O  O14  1  0.58317673  0.20818575  0.16680735  1
  O  O15  1  0.17090861  0.69189056  0.19011503  1
  O  O16  1  0.41683768  0.20822929  0.41676028  1
  O  O17  1  0.16681683  0.29177071  0.58323972  1
  O  O18  1  0.17757150  0.47768741  0.59330763  1
  O  O19  1  0.40666938  0.00138962  0.81962394  1
  O  O20  1  0.54869650  0.49861038  0.18037606  1
  O  O21  1  0.81956157  0.02231259  0.40669237  1
  O  O22  1  0.57391760  0.30293716  0.56504768  1
  O  O23  1  0.56279386  0.68783622  0.18717890  1
  O  O24  1  0.80988727  0.19706284  0.43495232  1
  O  O25  1  0.43720192  0.68783301  0.43715360  1
  O  O26  1  0.42608350  0.30293024  0.82908090  1
  O  O27  1  0.18717514  0.81216699  0.56284640  1
  O  O28  1  0.59335453  0.00139005  0.17757754  1
  O  O29  1  0.82245305  0.47768576  0.45129014  1
  O  O30  1  0.45128972  0.49860995  0.82242246  1
  O  O31  1  0.56504474  0.80812893  0.57388962  1
  O  O32  1  0.83316295  0.29181425  0.83319265  1
  O  O33  1  0.82908184  0.69187107  0.42611038  1
  O  O34  1  0.43491977  0.80810944  0.80988497  1
  O  O35  1  0.81282409  0.81216378  0.81282110  1
  Pr  Pr36  1  0.00006907  0.97628688  0.02364093  1
  Pr  Pr37  1  0.02382551  0.25000000  0.00000000  1
  Pr  Pr38  1  0.49992469  0.52371312  0.97635907  1
  Pr  Pr39  1  0.97604040  0.25000000  0.50000000  1
  Ti  Ti40  1  0.51483994  0.25000000  0.00000000  1
  Ti  Ti41  1  1.00007259  0.48587483  0.51408652  1
  Ti  Ti42  1  0.48524307  0.25000000  0.50000000  1
  Ti  Ti43  1  0.49999530  0.01412517  0.48591348  1
