# generated using pymatgen
data_Cd(GaO2)2
_symmetry_space_group_name_H-M   'P 1'
_cell_length_a   6.16964502
_cell_length_b   6.16964525
_cell_length_c   24.85018561
_cell_angle_alpha   60.22817083
_cell_angle_beta   60.22816955
_cell_angle_gamma   60.00000163
_symmetry_Int_Tables_number   1
_chemical_formula_structural   Cd(GaO2)2
_chemical_formula_sum   'Cd8 Ga16 O32'
_cell_volume   671.15716027
_cell_formula_units_Z   8
loop_
 _symmetry_equiv_pos_site_id
 _symmetry_equiv_pos_as_xyz
  1  'x, y, z'
loop_
 _atom_site_type_symbol
 _atom_site_label
 _atom_site_symmetry_multiplicity
 _atom_site_fract_x
 _atom_site_fract_y
 _atom_site_fract_z
 _atom_site_occupancy
  Cd  Cd0  1  0.24778581  0.24778581  0.06416064  1
  Cd  Cd1  1  0.24699852  0.24699852  0.31475111  1
  Cd  Cd2  1  0.00434466  0.00434466  0.49674150  1
  Cd  Cd3  1  0.62841558  0.62841558  0.02868832  1
  Cd  Cd4  1  0.24721301  0.24721301  0.56459025  1
  Cd  Cd5  1  0.99738609  0.99738609  0.75196043  1
  Cd  Cd6  1  0.62154593  0.62154593  0.28384055  1
  Cd  Cd7  1  0.25064561  0.25064561  0.81201579  1
  Ga  Ga8  1  0.00402432  0.00402432  0.99698176  1
  Ga  Ga9  1  0.00736277  0.00736277  0.24447792  1
  Ga  Ga10  1  0.13454548  0.62050450  0.15611138  1
  Ga  Ga11  1  0.62050450  0.13454548  0.15611138  1
  Ga  Ga12  1  0.12630336  0.61862298  0.40911267  1
  Ga  Ga13  1  0.62050450  0.62050450  0.15611138  1
  Ga  Ga14  1  0.61862298  0.12630336  0.40911267  1
  Ga  Ga15  1  0.12664778  0.62555671  0.65555970  1
  Ga  Ga16  1  0.61862298  0.61862298  0.40911267  1
  Ga  Ga17  1  0.62442355  0.62442355  0.53168234  1
  Ga  Ga18  1  0.62555671  0.12664778  0.65555970  1
  Ga  Ga19  1  0.13595245  0.62350192  0.90426093  1
  Ga  Ga20  1  0.62555671  0.62555671  0.65555970  1
  Ga  Ga21  1  0.62350192  0.13595245  0.90426093  1
  Ga  Ga22  1  0.62850381  0.62850381  0.77862214  1
  Ga  Ga23  1  0.62350192  0.62350192  0.90426093  1
  O  O24  1  0.37562404  0.37562404  0.10584555  1
  O  O25  1  0.38810529  0.38810529  0.20892103  1
  O  O26  1  0.37562404  0.82536973  0.10584555  1
  O  O27  1  0.82536973  0.37562404  0.10584555  1
  O  O28  1  0.36601740  0.36601740  0.36095429  1
  O  O29  1  0.39759528  0.88306734  0.20906751  1
  O  O30  1  0.88306734  0.39759528  0.20906751  1
  O  O31  1  0.38629384  0.38629384  0.46027962  1
  O  O32  1  0.87337125  0.87337125  0.09497157  1
  O  O33  1  0.36601740  0.82414803  0.36095429  1
  O  O34  1  0.82414804  0.36601740  0.36095429  1
  O  O35  1  0.88306734  0.88306734  0.20906751  1
  O  O36  1  0.39224263  0.39224263  0.59921451  1
  O  O37  1  0.43566196  0.85266289  0.46475307  1
  O  O38  1  0.39253275  0.39253275  0.70560043  1
  O  O39  1  0.39224263  0.81865670  0.59921451  1
  O  O40  1  0.85266289  0.43566196  0.46475307  1
  O  O41  1  0.87987030  0.87987030  0.34009728  1
  O  O42  1  0.81865670  0.39224263  0.59921451  1
  O  O43  1  0.85266289  0.85266289  0.46475307  1
  O  O44  1  0.42773561  0.85818513  0.71397353  1
  O  O45  1  0.39783996  0.39783996  0.84584509  1
  O  O46  1  0.85818513  0.42773561  0.71397353  1
  O  O47  1  0.39294974  0.39294974  0.95528770  1
  O  O48  1  0.85811118  0.85811118  0.60641661  1
  O  O49  1  0.39783996  0.82093972  0.84584509  1
  O  O50  1  0.82093972  0.39783996  0.84584509  1
  O  O51  1  0.85818513  0.85818513  0.71397353  1
  O  O52  1  0.38450815  0.89206957  0.95783818  1
  O  O53  1  0.89206957  0.38450815  0.95783818  1
  O  O54  1  0.85026158  0.85026158  0.86230381  1
  O  O55  1  0.89206957  0.89206957  0.95783818  1
