# generated using pymatgen
data_V6Cu11O26
_symmetry_space_group_name_H-M   'P 1'
_cell_length_a   8.18277312
_cell_length_b   8.32528171
_cell_length_c   8.30970695
_cell_angle_alpha   106.21731996
_cell_angle_beta   107.10399074
_cell_angle_gamma   91.59113325
_symmetry_Int_Tables_number   1
_chemical_formula_structural   V6Cu11O26
_chemical_formula_sum   'V6 Cu11 O26'
_cell_volume   515.78513488
_cell_formula_units_Z   1
loop_
 _symmetry_equiv_pos_site_id
 _symmetry_equiv_pos_as_xyz
  1  'x, y, z'
loop_
 _atom_site_type_symbol
 _atom_site_label
 _atom_site_symmetry_multiplicity
 _atom_site_fract_x
 _atom_site_fract_y
 _atom_site_fract_z
 _atom_site_occupancy
  O  O0  1  0.60802479  0.03663548  0.17819233  1
  O  O1  1  0.39197421  0.96336352  0.82180767  1
  O  O2  1  0.28289985  0.57224092  0.73557726  1
  O  O3  1  0.71710115  0.42775908  0.26442274  1
  O  O4  1  0.46655015  0.66603805  0.09251912  1
  O  O5  1  0.53345085  0.33396195  0.90747988  1
  O  O6  1  0.26568875  0.59652124  0.28055593  1
  O  O7  1  0.73431125  0.40347776  0.71944507  1
  O  O8  1  0.75880140  0.87676565  0.92753466  1
  O  O9  1  0.24119960  0.12323435  0.07246534  1
  O  O10  1  0.88698405  0.27808169  0.00526630  1
  O  O11  1  0.11301595  0.72191831  0.99473370  1
  O  O12  1  0.81587772  0.62377748  0.07092204  1
  O  O13  1  0.18412228  0.37622252  0.92907796  1
  O  O14  1  0.62792174  0.05492069  0.67716029  1
  O  O15  1  0.37207926  0.94507931  0.32284071  1
  O  O16  1  0.97341618  0.99606550  0.75230925  1
  O  O17  1  0.50225755  0.71368919  0.57369874  1
  O  O18  1  0.49774245  0.28631081  0.42630026  1
  O  O19  1  0.08659743  0.78760257  0.47521431  1
  O  O20  1  0.91340257  0.21239743  0.52478569  1
  O  O21  1  0.02658482  0.00393450  0.24769175  1
  O  O22  1  0.88396403  0.63250254  0.62998900  1
  O  O23  1  0.73388850  0.81393580  0.38741666  1
  O  O24  1  0.26611050  0.18606420  0.61258334  1
  O  O25  1  0.11603497  0.36749846  0.37001100  1
  V  V26  1  0.73503738  0.41437340  0.06303368  1
  V  V27  1  0.26496262  0.58562660  0.93696732  1
  V  V28  1  0.91914078  0.81024637  0.56093565  1
  V  V29  1  0.08085922  0.18975263  0.43906435  1
  V  V30  1  0.43356875  0.09294166  0.24398606  1
  V  V31  1  0.56643225  0.90705734  0.75601294  1
  Cu  Cu32  1  0.86820885  0.21110704  0.74386972  1
  Cu  Cu33  1  0.14484790  0.36988630  0.14666418  1
  Cu  Cu34  1  0.85515310  0.63011470  0.85333582  1
  Cu  Cu35  1  0.13179015  0.78889196  0.25613028  1
  Cu  Cu36  1  0.72277775  0.42211758  0.48867844  1
  Cu  Cu37  1  0.27722325  0.57788242  0.51132056  1
  Cu  Cu38  1  0.50128039  0.29207474  0.66205241  1
  Cu  Cu39  1  0.49871961  0.70792526  0.33794759  1
  Cu  Cu40  1  0.28180621  0.16353960  0.85658251  1
  Cu  Cu41  1  0.71819479  0.83646140  0.14341749  1
  Cu  Cu42  1  0.00000000  0.00000000  0.00000000  1
