# generated using pymatgen
data_NaV6O11
_symmetry_space_group_name_H-M   'P 1'
_cell_length_a   5.87278878
_cell_length_b   5.87278896
_cell_length_c   13.52697030
_cell_angle_alpha   90.00000000
_cell_angle_beta   90.00000000
_cell_angle_gamma   120.00000495
_symmetry_Int_Tables_number   1
_chemical_formula_structural   NaV6O11
_chemical_formula_sum   'Na2 V12 O22'
_cell_volume   404.03586926
_cell_formula_units_Z   2
loop_
 _symmetry_equiv_pos_site_id
 _symmetry_equiv_pos_as_xyz
  1  'x, y, z'
loop_
 _atom_site_type_symbol
 _atom_site_label
 _atom_site_symmetry_multiplicity
 _atom_site_fract_x
 _atom_site_fract_y
 _atom_site_fract_z
 _atom_site_occupancy
  O  O0  1  0.82563077  0.17436823  0.92530446  1
  O  O1  1  0.17436923  0.34873746  0.42530446  1
  O  O2  1  0.33333400  0.66666700  0.91698327  1
  O  O3  1  0.66666700  0.33333300  0.41698327  1
  O  O4  1  0.66666700  0.33333300  0.08301673  1
  O  O5  1  0.33333400  0.66666700  0.58301673  1
  O  O6  1  0.85249752  0.70499504  0.25000000  1
  O  O7  1  0.14750148  0.85249752  0.75000000  1
  O  O8  1  0.70499604  0.85249752  0.75000000  1
  O  O9  1  0.29500396  0.14750248  0.25000000  1
  O  O10  1  0.85249752  0.14750248  0.25000000  1
  O  O11  1  0.65126254  0.82563177  0.42530446  1
  O  O12  1  0.17436923  0.34873746  0.07469554  1
  O  O13  1  0.82563077  0.17436823  0.57469554  1
  O  O14  1  0.34873646  0.17436823  0.57469554  1
  O  O15  1  0.65126254  0.82563177  0.07469554  1
  O  O16  1  0.17436923  0.82563177  0.07469554  1
  O  O17  1  0.82563177  0.65126154  0.92530446  1
  O  O18  1  0.17436923  0.82563177  0.42530446  1
  O  O19  1  0.82563177  0.65126154  0.57469554  1
  O  O20  1  0.34873646  0.17436823  0.92530446  1
  O  O21  1  0.14750248  0.29500496  0.75000000  1
  Na  Na22  1  0.33333400  0.66666700  0.25000000  1
  Na  Na23  1  0.66666700  0.33333300  0.75000000  1
  V  V24  1  0.66666700  0.33333300  0.25000000  1
  V  V25  1  0.33333400  0.66666700  0.75000000  1
  V  V26  1  0.00000000  0.00000000  0.35143809  1
  V  V27  1  0.00000000  0.00000000  0.85143709  1
  V  V28  1  0.00000000  0.00000000  0.64856291  1
  V  V29  1  0.00000000  0.00000000  0.14856291  1
  V  V30  1  0.50000100  0.00000000  0.50000000  1
  V  V31  1  0.50000000  0.50000100  0.00000000  1
  V  V32  1  0.00000100  0.50000100  0.00000000  1
  V  V33  1  0.00000100  0.50000100  0.50000000  1
  V  V34  1  0.50000000  0.50000100  0.50000000  1
  V  V35  1  0.50000100  0.00000000  0.00000000  1
