# generated using pymatgen
data_Nd6F17
_symmetry_space_group_name_H-M   'P 1'
_cell_length_a   7.08277042
_cell_length_b   7.08277022
_cell_length_c   21.81109678
_cell_angle_alpha   90.00000000
_cell_angle_beta   90.00000000
_cell_angle_gamma   120.00000096
_symmetry_Int_Tables_number   1
_chemical_formula_structural   Nd6F17
_chemical_formula_sum   'Nd18 F51'
_cell_volume   947.57686677
_cell_formula_units_Z   3
loop_
 _symmetry_equiv_pos_site_id
 _symmetry_equiv_pos_as_xyz
  1  'x, y, z'
loop_
 _atom_site_type_symbol
 _atom_site_label
 _atom_site_symmetry_multiplicity
 _atom_site_fract_x
 _atom_site_fract_y
 _atom_site_fract_z
 _atom_site_occupancy
  F  F0  1  0.99480707  0.99887089  0.08155820  1
  F  F1  1  0.06025910  0.68949770  0.02587787  1
  F  F2  1  0.06024229  0.69249527  0.35945365  1
  F  F3  1  0.31174490  0.93714432  0.19459573  1
  F  F4  1  0.31062685  0.94053566  0.52672288  1
  F  F5  1  0.30946631  0.93782107  0.86082749  1
  F  F6  1  0.05946434  0.37009120  0.19338988  1
  F  F7  1  0.06217893  0.37164525  0.52749449  1
  F  F8  1  0.06285568  0.37460057  0.86126173  1
  F  F9  1  0.33631344  0.66939490  0.10355443  1
  F  F10  1  0.33308046  0.66368656  0.43688743  1
  F  F11  1  0.00406382  0.00519293  0.41489220  1
  F  F12  1  0.99872866  0.00215290  0.58340028  1
  F  F13  1  0.00112911  0.99593618  0.74822520  1
  F  F14  1  0.33060510  0.66691954  0.77022143  1
  F  F15  1  0.33283390  0.66703972  0.27313551  1
  F  F16  1  0.33420482  0.66716610  0.60646851  1
  F  F17  1  0.33296028  0.66579518  0.93980151  1
  F  F18  1  0.30750473  0.36774702  0.02612065  1
  F  F19  1  0.31050230  0.37076140  0.69254487  1
  F  F20  1  0.62923860  0.93974090  0.35921087  1
  F  F21  1  0.63225298  0.93975771  0.69278765  1
  F  F22  1  0.36778544  0.30892165  0.14002039  1
  F  F23  1  0.36806543  0.31212678  0.47123745  1
  F  F24  1  0.36671370  0.30955917  0.80658164  1
  F  F25  1  0.62835475  0.69053369  0.19416149  1
  F  F26  1  0.62539943  0.68825510  0.52792873  1
  F  F27  1  0.62990880  0.68937315  0.86005588  1
  F  F28  1  0.37109191  0.06938702  0.30758443  1
  F  F29  1  0.36233647  0.05319547  0.64009526  1
  F  F30  1  0.38082003  0.06163770  0.97395756  1
  F  F31  1  0.68081767  0.61917997  0.30729056  1
  F  F32  1  0.69829511  0.62890809  0.64091843  1
  F  F33  1  0.69085900  0.63766353  0.97342826  1
  F  F34  1  0.66586784  0.33290866  0.06140259  1
  F  F35  1  0.66704182  0.33413216  0.39473559  1
  F  F36  1  0.66709134  0.33295818  0.72806859  1
  F  F37  1  0.66731065  0.33224333  0.22795977  1
  F  F38  1  0.66493368  0.33268935  0.56129377  1
  F  F39  1  0.66775667  0.33506632  0.89462677  1
  F  F40  1  0.94406135  0.63193457  0.80457045  1
  F  F41  1  0.94284547  0.63328630  0.13991564  1
  F  F42  1  0.94113621  0.63221456  0.47335339  1
  F  F43  1  0.68787322  0.05593865  0.13790445  1
  F  F44  1  0.69044083  0.05715453  0.47324864  1
  F  F45  1  0.69107835  0.05886379  0.80668639  1
  F  F46  1  0.94680453  0.30914100  0.30676126  1
  F  F47  1  0.93836230  0.31918233  0.64062456  1
  F  F48  1  0.93061298  0.30170489  0.97425143  1
  F  F49  1  0.99784710  0.99657576  0.25006728  1
  F  F50  1  0.00342424  0.00127134  0.91673428  1
  Nd  Nd51  1  0.99864959  0.65501761  0.25021743  1
  Nd  Nd52  1  0.00235008  0.65768704  0.58409497  1
  Nd  Nd53  1  0.99980331  0.65657330  0.91659768  1
  Nd  Nd54  1  0.34047929  0.99968982  0.08404151  1
  Nd  Nd55  1  0.65676999  0.00019669  0.24993068  1
  Nd  Nd56  1  0.65636802  0.00135041  0.58355043  1
  Nd  Nd57  1  0.34231296  0.34466304  0.25076197  1
  Nd  Nd58  1  0.34342670  0.34323001  0.58326368  1
  Nd  Nd59  1  0.34498239  0.34363198  0.91688443  1
  Nd  Nd60  1  0.65580618  0.65626608  0.08383334  1
  Nd  Nd61  1  0.65921053  0.65952071  0.41737551  1
  Nd  Nd62  1  0.65659589  0.65572734  0.74977193  1
  Nd  Nd63  1  0.34427266  0.00086855  0.41643893  1
  Nd  Nd64  1  0.34373392  -0.00045990  0.75050034  1
  Nd  Nd65  1  0.65533696  0.99764992  0.91742897  1
  Nd  Nd66  1  0.99913145  0.34340411  0.08310493  1
  Nd  Nd67  1  1.00045990  0.34419382  0.41716734  1
  Nd  Nd68  1  0.00031018  0.34078947  0.75070851  1
