# generated using pymatgen
data_Nb9Co4Ge
_symmetry_space_group_name_H-M   'P 1'
_cell_length_a   5.06096074
_cell_length_b   9.67693765
_cell_length_c   9.67602964
_cell_angle_alpha   86.07760954
_cell_angle_beta   74.83655963
_cell_angle_gamma   74.84193339
_symmetry_Int_Tables_number   1
_chemical_formula_structural   Nb9Co4Ge
_chemical_formula_sum   'Nb18 Co8 Ge2'
_cell_volume   441.46777034
_cell_formula_units_Z   2
loop_
 _symmetry_equiv_pos_site_id
 _symmetry_equiv_pos_as_xyz
  1  'x, y, z'
loop_
 _atom_site_type_symbol
 _atom_site_label
 _atom_site_symmetry_multiplicity
 _atom_site_fract_x
 _atom_site_fract_y
 _atom_site_fract_z
 _atom_site_occupancy
  Nb  Nb0  1  0.79453558  0.77475798  0.63621003  1
  Nb  Nb1  1  0.16590807  0.92106117  0.74711605  1
  Nb  Nb2  1  0.33405719  0.25291814  0.07893094  1
  Nb  Nb3  1  0.58696781  0.07894292  0.74711638  1
  Nb  Nb4  1  0.41303219  0.92105708  0.25288362  1
  Nb  Nb5  1  0.43066337  0.36382865  0.77478320  1
  Nb  Nb6  1  0.66594281  0.74708186  0.92106906  1
  Nb  Nb7  1  0.91302519  0.25291749  0.92106652  1
  Nb  Nb8  1  0.93072989  0.77474969  0.36379878  1
  Nb  Nb9  1  0.20546442  0.22524202  0.36378997  1
  Nb  Nb10  1  0.83409193  0.07893883  0.25288395  1
  Nb  Nb11  1  0.70549557  0.36382118  0.22520682  1
  Nb  Nb12  1  0.56933663  0.63617135  0.22521680  1
  Nb  Nb13  1  0.24998130  0.49999908  0.49999986  1
  Nb  Nb14  1  0.06927011  0.22525031  0.63620122  1
  Nb  Nb15  1  0.75001870  0.50000092  0.50000014  1
  Nb  Nb16  1  0.08697481  0.74708251  0.07893348  1
  Nb  Nb17  1  0.29450443  0.63617882  0.77479318  1
  Co  Co18  1  0.86731400  0.50000246  0.76542675  1
  Co  Co19  1  0.63271702  0.23459834  0.49999720  1
  Co  Co20  1  0.50000000  0.50000000  0.00000000  1
  Co  Co21  1  0.36728298  0.76540166  0.50000280  1
  Co  Co22  1  0.13268600  0.49999754  0.23457325  1
  Co  Co23  1  0.00000000  0.50000000  0.00000000  1
  Co  Co24  1  0.00000000  0.00000000  0.50000000  1
  Co  Co25  1  0.50000000  0.00000000  0.50000000  1
  Ge  Ge26  1  0.25000271  0.99999692  0.99999688  1
  Ge  Ge27  1  0.74999729  0.00000308  0.00000312  1
