# generated using pymatgen
data_BaEr2CuO5
_symmetry_space_group_name_H-M   'P 1'
_cell_length_a   5.67193334
_cell_length_b   7.18346002
_cell_length_c   12.18342172
_cell_angle_alpha   90.00000000
_cell_angle_beta   90.00000000
_cell_angle_gamma   90.00000000
_symmetry_Int_Tables_number   1
_chemical_formula_structural   BaEr2CuO5
_chemical_formula_sum   'Ba4 Er8 Cu4 O20'
_cell_volume   496.40263068
_cell_formula_units_Z   4
loop_
 _symmetry_equiv_pos_site_id
 _symmetry_equiv_pos_as_xyz
  1  'x, y, z'
loop_
 _atom_site_type_symbol
 _atom_site_label
 _atom_site_symmetry_multiplicity
 _atom_site_fract_x
 _atom_site_fract_y
 _atom_site_fract_z
 _atom_site_occupancy
  Er  Er0  1  0.25000000  0.11130643  0.28674532  1
  Er  Er1  1  0.75000000  0.88869357  0.71325468  1
  Er  Er2  1  0.75000000  0.61130643  0.21325468  1
  Er  Er3  1  0.25000000  0.38869357  0.78674532  1
  Er  Er4  1  0.25000000  0.39590467  0.07369771  1
  Er  Er5  1  0.75000000  0.60409533  0.92630229  1
  Er  Er6  1  0.75000000  0.89590467  0.42630229  1
  Er  Er7  1  0.25000000  0.10409533  0.57369771  1
  Ba  Ba8  1  0.25000000  0.93305702  0.90353708  1
  Ba  Ba9  1  0.75000000  0.06694298  0.09646292  1
  Ba  Ba10  1  0.75000000  0.43305702  0.59646292  1
  Ba  Ba11  1  0.25000000  0.56694298  0.40353708  1
  Cu  Cu12  1  0.25000000  0.71997690  0.66090043  1
  Cu  Cu13  1  0.75000000  0.28002310  0.33909957  1
  Cu  Cu14  1  0.75000000  0.21997690  0.83909957  1
  Cu  Cu15  1  0.25000000  0.78002310  0.16090043  1
  O  O16  1  0.99589260  0.15895670  0.43146304  1
  O  O17  1  0.49589260  0.84104330  0.56853696  1
  O  O18  1  0.00410740  0.65895670  0.06853696  1
  O  O19  1  0.50410740  0.34104330  0.93146304  1
  O  O20  1  0.00410740  0.84104330  0.56853696  1
  O  O21  1  0.50410740  0.15895670  0.43146304  1
  O  O22  1  0.99589260  0.34104330  0.93146304  1
  O  O23  1  0.49589260  0.65895670  0.06853696  1
  O  O24  1  0.50288702  0.35466003  0.22775294  1
  O  O25  1  0.00288702  0.64533997  0.77224706  1
  O  O26  1  0.49711298  0.85466003  0.27224706  1
  O  O27  1  0.99711298  0.14533997  0.72775294  1
  O  O28  1  0.49711298  0.64533997  0.77224706  1
  O  O29  1  0.99711298  0.35466003  0.22775294  1
  O  O30  1  0.50288702  0.14533997  0.72775294  1
  O  O31  1  0.00288702  0.85466003  0.27224706  1
  O  O32  1  0.25000000  0.08477716  0.10022709  1
  O  O33  1  0.75000000  0.91522284  0.89977291  1
  O  O34  1  0.75000000  0.58477716  0.39977291  1
  O  O35  1  0.25000000  0.41522284  0.60022709  1
