# generated using pymatgen
data_ErCu(WO4)2
_symmetry_space_group_name_H-M   'P 1'
_cell_length_a   5.08166141
_cell_length_b   5.98453273
_cell_length_c   9.99109332
_cell_angle_alpha   89.99041806
_cell_angle_beta   92.81093900
_cell_angle_gamma   90.00726602
_symmetry_Int_Tables_number   1
_chemical_formula_structural   ErCu(WO4)2
_chemical_formula_sum   'Er2 Cu2 W4 O16'
_cell_volume   303.47723388
_cell_formula_units_Z   2
loop_
 _symmetry_equiv_pos_site_id
 _symmetry_equiv_pos_as_xyz
  1  'x, y, z'
loop_
 _atom_site_type_symbol
 _atom_site_label
 _atom_site_symmetry_multiplicity
 _atom_site_fract_x
 _atom_site_fract_y
 _atom_site_fract_z
 _atom_site_occupancy
  O  O0  1  0.40533976  0.36099048  0.13656179  1
  O  O1  1  0.09463267  0.36086662  0.36344294  1
  O  O2  1  0.59466024  0.63900952  0.86343821  1
  O  O3  1  0.90536733  0.63913338  0.63655606  1
  O  O4  1  0.44910148  0.91036963  0.61074625  1
  O  O5  1  0.05079156  0.91045651  0.88924818  1
  O  O6  1  0.55089752  0.08963037  0.38925275  1
  O  O7  1  0.94920844  0.08954349  0.11075182  1
  O  O8  1  0.89579745  0.63433430  0.11225007  1
  O  O9  1  0.60411649  0.63430109  0.38776164  1
  O  O10  1  0.10420155  0.36566670  0.88774993  1
  O  O11  1  0.39588351  0.36569991  0.61223936  1
  O  O12  1  0.43675096  0.88542756  0.09728058  1
  O  O13  1  0.56324904  0.11457244  0.90271842  1
  O  O14  1  0.06318360  0.88545539  0.40272413  1
  O  O15  1  0.93681540  0.11454461  0.59727587  1
  Cu  Cu16  1  0.25011173  0.71613084  0.75004461  1
  Cu  Cu17  1  0.74988827  0.28386916  0.24995539  1
  Er  Er18  1  0.74994946  0.33406432  0.74997427  1
  Er  Er19  1  0.25005254  0.66593368  0.25002573  1
  W  W20  1  0.24896919  0.16901527  0.01108482  1
  W  W21  1  0.75102981  0.83098473  0.98891518  1
  W  W22  1  0.25106733  0.16901418  0.48890034  1
  W  W23  1  0.74893267  0.83098582  0.51109966  1
