# generated using pymatgen
data_LiMnP2O7
_symmetry_space_group_name_H-M   'P 1'
_cell_length_a   12.58902135
_cell_length_b   5.19766166
_cell_length_c   8.39287305
_cell_angle_alpha   90.00000000
_cell_angle_beta   98.65680032
_cell_angle_gamma   90.00000000
_symmetry_Int_Tables_number   1
_chemical_formula_structural   LiMnP2O7
_chemical_formula_sum   'Li4 Mn4 P8 O28'
_cell_volume   542.91844677
_cell_formula_units_Z   4
loop_
 _symmetry_equiv_pos_site_id
 _symmetry_equiv_pos_as_xyz
  1  'x, y, z'
loop_
 _atom_site_type_symbol
 _atom_site_label
 _atom_site_symmetry_multiplicity
 _atom_site_fract_x
 _atom_site_fract_y
 _atom_site_fract_z
 _atom_site_occupancy
  Li  Li0  1  0.29279709  0.19468211  0.37693333  1
  Li  Li1  1  0.42036088  0.80236520  0.91771542  1
  Li  Li2  1  0.79279709  0.30531989  0.87693333  1
  Li  Li3  1  0.92036088  0.69763480  0.41771442  1
  O  O4  1  0.25841872  0.64733685  0.58769771  1
  O  O5  1  0.89167556  0.47744977  0.08009788  1
  O  O6  1  0.93299204  0.31881255  0.42133251  1
  O  O7  1  0.88019815  0.92842725  0.58002791  1
  O  O8  1  0.07055900  0.14165885  0.77717656  1
  O  O9  1  0.08304231  0.58912616  0.90845787  1
  O  O10  1  0.05969459  0.68744483  0.57408702  1
  O  O11  1  0.15946893  0.98482471  0.40257786  1
  O  O12  1  0.13217071  0.50512088  0.33852018  1
  O  O13  1  0.10073902  0.18382571  0.08239702  1
  O  O14  1  0.24444676  0.30049986  0.91605842  1
  O  O15  1  0.94496062  0.89925542  0.22143139  1
  O  O16  1  0.43299204  0.18118745  0.92133251  1
  O  O17  1  0.39167456  0.02255123  0.58009788  1
  O  O18  1  0.39755096  0.60708085  0.41060059  1
  O  O19  1  0.35198147  0.10904054  0.17588640  1
  O  O20  1  0.44495962  0.60074458  0.72143039  1
  O  O21  1  0.38019815  0.57157175  0.08002691  1
  O  O22  1  0.85198147  0.39095846  0.67588540  1
  O  O23  1  0.65946893  0.51517429  0.90257786  1
  O  O24  1  0.63217071  0.99487912  0.83852018  1
  O  O25  1  0.60073902  0.31617429  0.58239602  1
  O  O26  1  0.58304231  0.91087584  0.40845887  1
  O  O27  1  0.55969459  0.81255517  0.07408802  1
  O  O28  1  0.74444676  0.19950014  0.41605942  1
  O  O29  1  0.75841872  0.85266315  0.08769871  1
  O  O30  1  0.89755096  0.89291915  0.91060059  1
  O  O31  1  0.57055900  0.35834115  0.27717756  1
  P  P32  1  0.88088336  0.76726895  0.07118687  1
  P  P33  1  0.85634038  0.21351610  0.53543219  1
  P  P34  1  0.61640888  0.19641235  0.42006306  1
  P  P35  1  0.64851619  0.78323841  0.96929472  1
  P  P36  1  0.11640788  0.30358765  0.92006306  1
  P  P37  1  0.14851619  0.71676159  0.46929472  1
  P  P38  1  0.35633938  0.28648390  0.03543119  1
  P  P39  1  0.38088336  0.73273005  0.57118687  1
  Mn  Mn40  1  0.02769111  0.22923167  0.26369583  1
  Mn  Mn41  1  0.52769111  0.27076833  0.76369483  1
  Mn  Mn42  1  0.49042126  0.70726897  0.25426327  1
  Mn  Mn43  1  0.99042026  0.79273203  0.75426427  1
