# generated using pymatgen
data_Li3Fe(PO4)2
_symmetry_space_group_name_H-M   'P 1'
_cell_length_a   4.92173433
_cell_length_b   8.83142506
_cell_length_c   6.50265353
_cell_angle_alpha   90.00000000
_cell_angle_beta   94.32228747
_cell_angle_gamma   90.00000000
_symmetry_Int_Tables_number   1
_chemical_formula_structural   Li3Fe(PO4)2
_chemical_formula_sum   'Li6 Fe2 P4 O16'
_cell_volume   281.83999962
_cell_formula_units_Z   2
loop_
 _symmetry_equiv_pos_site_id
 _symmetry_equiv_pos_as_xyz
  1  'x, y, z'
loop_
 _atom_site_type_symbol
 _atom_site_label
 _atom_site_symmetry_multiplicity
 _atom_site_fract_x
 _atom_site_fract_y
 _atom_site_fract_z
 _atom_site_occupancy
  Li  Li0  1  0.01447139  0.13995018  0.69057518  1
  Li  Li1  1  0.98552761  0.86004982  0.30942582  1
  Li  Li2  1  0.51447239  0.36004982  0.19057518  1
  Li  Li3  1  0.00000000  0.50000000  0.00000000  1
  Li  Li4  1  0.48552761  0.63995118  0.80942382  1
  Li  Li5  1  0.50000100  0.00000000  0.50000000  1
  O  O6  1  0.21585866  0.35554069  0.69106805  1
  O  O7  1  0.92823068  0.64338947  0.75422933  1
  O  O8  1  0.07176932  0.35661053  0.24577167  1
  O  O9  1  0.15279961  0.09827533  0.41007319  1
  O  O10  1  0.34720139  0.59827433  0.08992781  1
  O  O11  1  0.16894644  0.13154947  0.02406286  1
  O  O12  1  0.78414134  0.64445931  0.30893295  1
  O  O13  1  0.33105456  0.63154947  0.47593814  1
  O  O14  1  0.84720039  0.90172467  0.58992781  1
  O  O15  1  0.42823168  0.85661053  0.25422833  1
  O  O16  1  0.57176732  0.14338847  0.74577167  1
  O  O17  1  0.65279761  0.40172567  0.91007319  1
  O  O18  1  0.66894444  0.36845153  0.52406186  1
  O  O19  1  0.71585966  0.14445931  0.19106705  1
  O  O20  1  0.83105356  0.86845053  0.97593814  1
  O  O21  1  0.28414034  0.85554069  0.80893295  1
  P  P22  1  0.47183921  0.68109558  0.27882941  1
  P  P23  1  0.52816279  0.31890442  0.72117059  1
  P  P24  1  0.02816179  0.18109558  0.22117159  1
  P  P25  1  0.97183821  0.81890442  0.77882941  1
  Fe  Fe26  1  0.50000000  0.00000000  0.00000000  1
  Fe  Fe27  1  0.99999900  0.50000000  0.50000000  1
