# generated using pymatgen
data_MnP2O7
_symmetry_space_group_name_H-M   'P 1'
_cell_length_a   5.05021769
_cell_length_b   8.21398463
_cell_length_c   13.11629453
_cell_angle_alpha   90.00000000
_cell_angle_beta   97.57223724
_cell_angle_gamma   90.00000000
_symmetry_Int_Tables_number   1
_chemical_formula_structural   MnP2O7
_chemical_formula_sum   'Mn4 P8 O28'
_cell_volume   539.35073330
_cell_formula_units_Z   4
loop_
 _symmetry_equiv_pos_site_id
 _symmetry_equiv_pos_as_xyz
  1  'x, y, z'
loop_
 _atom_site_type_symbol
 _atom_site_label
 _atom_site_symmetry_multiplicity
 _atom_site_fract_x
 _atom_site_fract_y
 _atom_site_fract_z
 _atom_site_occupancy
  Mn  Mn0  1  0.21204228  0.84277735  0.87278347  1
  Mn  Mn1  1  0.28795872  0.34277735  0.62721653  1
  Mn  Mn2  1  0.71204228  0.65722265  0.37278347  1
  Mn  Mn3  1  0.78795772  0.15722265  0.12721653  1
  O  O4  1  0.96178900  0.56923209  0.28432331  1
  O  O5  1  0.00347384  0.86724185  0.73589501  1
  O  O6  1  0.03955954  0.32577410  0.50217303  1
  O  O7  1  0.17726761  0.12695975  0.65887625  1
  O  O8  1  0.11180121  0.06123231  0.90463711  1
  O  O9  1  0.09126166  0.23640245  0.06660341  1
  O  O10  1  0.30843756  0.86369058  0.59136847  1
  O  O11  1  0.19156244  0.36369058  0.90863153  1
  O  O12  1  0.38819879  0.56123231  0.59536289  1
  O  O13  1  0.32273239  0.62695975  0.84112375  1
  O  O14  1  0.40873834  0.73640245  0.43339659  1
  O  O15  1  0.49652616  0.36724185  0.76410499  1
  O  O16  1  0.46044046  0.82577410  0.99782697  1
  O  O17  1  0.53821100  0.06923209  0.21567569  1
  O  O18  1  0.46178900  0.93076791  0.78432431  1
  O  O19  1  0.53955954  0.17422590  0.00217303  1
  O  O20  1  0.50347384  0.63275815  0.23589501  1
  O  O21  1  0.59126166  0.26359755  0.56660341  1
  O  O22  1  0.67726761  0.37304025  0.15887625  1
  O  O23  1  0.61180121  0.43876769  0.40463711  1
  O  O24  1  0.80843756  0.63630942  0.09136847  1
  O  O25  1  0.69156244  0.13630942  0.40863153  1
  O  O26  1  0.90873834  0.76359755  0.93339659  1
  O  O27  1  0.88819879  0.93876769  0.09536289  1
  O  O28  1  0.82273239  0.87304025  0.34112375  1
  O  O29  1  0.96044046  0.67422590  0.49782697  1
  O  O30  1  0.99652616  0.13275815  0.26410499  1
  O  O31  1  0.03821100  0.43076791  0.71567569  1
  P  P32  1  0.26223954  0.69768004  0.52501809  1
  P  P33  1  0.26197917  0.45332353  0.80834519  1
  P  P34  1  0.23802083  0.95332353  0.69165481  1
  P  P35  1  0.23776046  0.19768004  0.97498191  1
  P  P36  1  0.76223954  0.80231996  0.02501809  1
  P  P37  1  0.76197917  0.04667647  0.30834519  1
  P  P38  1  0.73802083  0.54667647  0.19165481  1
  P  P39  1  0.73776046  0.30231996  0.47498191  1
