# generated using pymatgen
data_K3Nb3Ge2O13
_symmetry_space_group_name_H-M   'P 1'
_cell_length_a   9.43365933
_cell_length_b   9.43365895
_cell_length_c   7.93414425
_cell_angle_alpha   90.00000000
_cell_angle_beta   90.00000000
_cell_angle_gamma   120.00000136
_symmetry_Int_Tables_number   1
_chemical_formula_structural   K3Nb3Ge2O13
_chemical_formula_sum   'K6 Nb6 Ge4 O26'
_cell_volume   611.49242025
_cell_formula_units_Z   2
loop_
 _symmetry_equiv_pos_site_id
 _symmetry_equiv_pos_as_xyz
  1  'x, y, z'
loop_
 _atom_site_type_symbol
 _atom_site_label
 _atom_site_symmetry_multiplicity
 _atom_site_fract_x
 _atom_site_fract_y
 _atom_site_fract_z
 _atom_site_occupancy
  K  K0  1  0.60020448  0.00000000  0.50000000  1
  K  K1  1  0.39979552  0.39979552  0.50000000  1
  K  K2  1  1.00000000  0.60020448  0.50000000  1
  K  K3  1  0.61490204  0.00000000  0.00000000  1
  K  K4  1  0.38509796  0.38509796  0.00000000  1
  K  K5  1  1.00000000  0.61490204  0.00000000  1
  Ge  Ge6  1  0.33333300  0.66666700  0.22282165  1
  Ge  Ge7  1  0.33333300  0.66666700  0.77717835  1
  Ge  Ge8  1  0.66666700  0.33333300  0.77717835  1
  Ge  Ge9  1  0.66666700  0.33333300  0.22282165  1
  Nb  Nb10  1  0.23228477  0.00000000  0.25129299  1
  Nb  Nb11  1  0.76771523  0.76771523  0.74870701  1
  Nb  Nb12  1  0.00000000  0.23228477  0.74870701  1
  Nb  Nb13  1  0.00000000  0.23228477  0.25129299  1
  Nb  Nb14  1  0.76771523  0.76771523  0.25129299  1
  Nb  Nb15  1  0.23228477  0.00000000  0.74870701  1
  O  O16  1  0.33333300  0.66666700  0.00000000  1
  O  O17  1  0.66666700  0.33333300  0.00000000  1
  O  O18  1  0.27063306  0.00000000  0.00000000  1
  O  O19  1  0.72936694  0.72936694  0.00000000  1
  O  O20  1  1.00000000  0.27063306  0.00000000  1
  O  O21  1  0.82819504  0.00000000  0.22781577  1
  O  O22  1  0.17180496  0.17180496  0.77218423  1
  O  O23  1  1.00000000  0.82819504  0.77218423  1
  O  O24  1  1.00000000  0.82819504  0.22781577  1
  O  O25  1  0.17180496  0.17180496  0.22781577  1
  O  O26  1  0.82819504  0.00000000  0.77218423  1
  O  O27  1  0.47486816  0.17754033  0.28746333  1
  O  O28  1  0.70267216  0.52513184  0.71253667  1
  O  O29  1  0.82245967  0.29732784  0.71253667  1
  O  O30  1  0.82245967  0.29732784  0.28746333  1
  O  O31  1  0.70267216  0.52513184  0.28746333  1
  O  O32  1  0.29732784  0.82245967  0.71253667  1
  O  O33  1  0.52513184  0.70267216  0.71253667  1
  O  O34  1  0.17754033  0.47486816  0.71253667  1
  O  O35  1  0.47486816  0.17754033  0.71253667  1
  O  O36  1  0.17754033  0.47486816  0.28746333  1
  O  O37  1  0.29732784  0.82245967  0.28746333  1
  O  O38  1  0.52513184  0.70267216  0.28746333  1
  O  O39  1  0.21299905  0.00000000  0.50000000  1
  O  O40  1  0.78700095  0.78700095  0.50000000  1
  O  O41  1  0.00000000  0.21299905  0.50000000  1
