# generated using pymatgen
data_Li3Cr2(PO4)3
_symmetry_space_group_name_H-M   'P 1'
_cell_length_a   10.15990250
_cell_length_b   10.15990205
_cell_length_c   10.15990262
_cell_angle_alpha   109.47121976
_cell_angle_beta   109.47121887
_cell_angle_gamma   109.47122048
_symmetry_Int_Tables_number   1
_chemical_formula_structural   Li3Cr2(PO4)3
_chemical_formula_sum   'Li12 Cr8 P12 O48'
_cell_volume   807.32189436
_cell_formula_units_Z   4
loop_
 _symmetry_equiv_pos_site_id
 _symmetry_equiv_pos_as_xyz
  1  'x, y, z'
loop_
 _atom_site_type_symbol
 _atom_site_label
 _atom_site_symmetry_multiplicity
 _atom_site_fract_x
 _atom_site_fract_y
 _atom_site_fract_z
 _atom_site_occupancy
  Cr  Cr0  1  0.50000000  0.00000000  0.00000000  1
  Cr  Cr1  1  0.00000000  0.00000000  0.00000000  1
  Cr  Cr2  1  0.50000000  0.50000000  0.00000000  1
  Cr  Cr3  1  0.50000000  0.00000000  0.50000000  1
  Cr  Cr4  1  0.00000000  0.50000000  0.00000000  1
  Cr  Cr5  1  0.00000000  0.00000000  0.50000000  1
  Cr  Cr6  1  0.50000000  0.50000000  0.50000000  1
  Cr  Cr7  1  0.00000000  0.50000000  0.50000000  1
  Li  Li8  1  0.75000000  0.12500000  0.37500000  1
  Li  Li9  1  0.37500000  0.12500000  0.25000000  1
  Li  Li10  1  0.87500000  0.62500000  0.25000000  1
  Li  Li11  1  0.25000000  0.37500000  0.12500000  1
  Li  Li12  1  0.62500000  0.25000000  0.87500000  1
  Li  Li13  1  0.37500000  0.75000000  0.12500000  1
  Li  Li14  1  0.12500000  0.25000000  0.37500000  1
  Li  Li15  1  0.87500000  0.75000000  0.62500000  1
  Li  Li16  1  0.75000000  0.62500000  0.87500000  1
  Li  Li17  1  0.12500000  0.37500000  0.75000000  1
  Li  Li18  1  0.62500000  0.87500000  0.75000000  1
  Li  Li19  1  0.25000000  0.87500000  0.62500000  1
  O  O20  1  0.88988515  0.00657208  0.29988749  1
  O  O21  1  0.88331107  0.38988515  0.08999765  1
  O  O22  1  0.91000235  0.29331541  0.29988749  1
  O  O23  1  0.99342792  0.70011251  0.11011485  1
  O  O24  1  0.91000235  0.11668893  0.61011485  1
  O  O25  1  0.58999765  0.20011251  0.20668459  1
  O  O26  1  0.61668893  0.41000235  0.11011485  1
  O  O27  1  0.20668459  0.11668893  0.00657208  1
  O  O28  1  0.70668459  0.70011251  0.08999765  1
  O  O29  1  0.88988515  0.38331107  0.58999765  1
  O  O30  1  0.61011485  0.20011251  0.49342792  1
  O  O31  1  0.79988749  0.50657208  0.38988515  1
  O  O32  1  0.11668893  0.00657208  0.20668459  1
  O  O33  1  0.70011251  0.08999765  0.70668459  1
  O  O34  1  0.49342792  0.38331107  0.29331541  1
  O  O35  1  0.49342792  0.61011485  0.20011251  1
  O  O36  1  0.00657208  0.20668459  0.11668893  1
  O  O37  1  0.41000235  0.11011485  0.61668893  1
  O  O38  1  0.79988749  0.79331541  0.41000235  1
  O  O39  1  0.70011251  0.11011485  0.99342792  1
  O  O40  1  0.38331107  0.29331541  0.49342792  1
  O  O41  1  0.61011485  0.91000235  0.11668893  1
  O  O42  1  0.70668459  0.50657208  0.61668893  1
  O  O43  1  0.79331541  0.41000235  0.79988749  1
  O  O44  1  0.20668459  0.58999765  0.20011251  1
  O  O45  1  0.29331541  0.49342792  0.38331107  1
  O  O46  1  0.38988515  0.08999765  0.88331107  1
  O  O47  1  0.29988749  0.88988515  0.00657208  1
  O  O48  1  0.61668893  0.70668459  0.50657208  1
  O  O49  1  0.20011251  0.20668459  0.58999765  1
  O  O50  1  0.58999765  0.88988515  0.38331107  1
  O  O51  1  0.50657208  0.38988515  0.79988749  1
  O  O52  1  0.99342792  0.79331541  0.88331107  1
  O  O53  1  0.50657208  0.61668893  0.70668459  1
  O  O54  1  0.29988749  0.91000235  0.29331541  1
  O  O55  1  0.88331107  0.99342792  0.79331541  1
  O  O56  1  0.20011251  0.49342792  0.61011485  1
  O  O57  1  0.11011485  0.61668893  0.41000235  1
  O  O58  1  0.38988515  0.79988749  0.50657208  1
  O  O59  1  0.29331541  0.29988749  0.91000235  1
  O  O60  1  0.79331541  0.88331107  0.99342792  1
  O  O61  1  0.38331107  0.58999765  0.88988515  1
  O  O62  1  0.08999765  0.88331107  0.38988515  1
  O  O63  1  0.41000235  0.79988749  0.79331541  1
  O  O64  1  0.00657208  0.29988749  0.88988515  1
  O  O65  1  0.08999765  0.70668459  0.70011251  1
  O  O66  1  0.11668893  0.61011485  0.91000235  1
  O  O67  1  0.11011485  0.99342792  0.70011251  1
  P  P68  1  0.87500000  0.25000000  0.12500000  1
  P  P69  1  0.62500000  0.37500000  0.25000000  1
  P  P70  1  0.87500000  0.12500000  0.75000000  1
  P  P71  1  0.75000000  0.87500000  0.12500000  1
  P  P72  1  0.75000000  0.37500000  0.62500000  1
  P  P73  1  0.62500000  0.75000000  0.37500000  1
  P  P74  1  0.37500000  0.25000000  0.62500000  1
  P  P75  1  0.25000000  0.62500000  0.37500000  1
  P  P76  1  0.25000000  0.12500000  0.87500000  1
  P  P77  1  0.12500000  0.87500000  0.25000000  1
  P  P78  1  0.37500000  0.62500000  0.75000000  1
  P  P79  1  0.12500000  0.75000000  0.87500000  1
