# generated using pymatgen
data_Er2CdSe4
_symmetry_space_group_name_H-M   'P 1'
_cell_length_a   8.31615297
_cell_length_b   8.31615302
_cell_length_c   49.83392715
_cell_angle_alpha   59.95817543
_cell_angle_beta   59.95817524
_cell_angle_gamma   60.00000163
_symmetry_Int_Tables_number   1
_chemical_formula_structural   Er2CdSe4
_chemical_formula_sum   'Er24 Cd12 Se48'
_cell_volume   2435.45561849
_cell_formula_units_Z   12
loop_
 _symmetry_equiv_pos_site_id
 _symmetry_equiv_pos_as_xyz
  1  'x, y, z'
loop_
 _atom_site_type_symbol
 _atom_site_label
 _atom_site_symmetry_multiplicity
 _atom_site_fract_x
 _atom_site_fract_y
 _atom_site_fract_z
 _atom_site_occupancy
  Cd  Cd0  1  0.24789004  0.24789004  0.04272198  1
  Cd  Cd1  1  0.24714273  0.24714273  0.20976164  1
  Cd  Cd2  1  0.62141617  0.62141617  0.02262491  1
  Cd  Cd3  1  0.24933924  0.24933924  0.37533038  1
  Cd  Cd4  1  0.62190192  0.62190192  0.18904904  1
  Cd  Cd5  1  0.00013547  0.00013547  0.49993226  1
  Cd  Cd6  1  0.24995623  0.24995623  0.54168889  1
  Cd  Cd7  1  0.00049049  0.00049049  0.33308775  1
  Cd  Cd8  1  0.00019329  0.00019329  0.83323636  1
  Cd  Cd9  1  0.25004443  0.25004443  0.70831078  1
  Cd  Cd10  1  0.25048165  0.25048165  0.87475918  1
  Cd  Cd11  1  0.00022146  0.00022146  0.66655627  1
  Er  Er12  1  0.00126238  0.00126238  0.99936881  1
  Er  Er13  1  0.13139197  0.62283835  0.10382222  1
  Er  Er14  1  0.62283835  0.13139197  0.10382222  1
  Er  Er15  1  0.62283835  0.62283835  0.10382222  1
  Er  Er16  1  0.12912031  0.62307537  0.27078782  1
  Er  Er17  1  0.62307537  0.12912031  0.27078782  1
  Er  Er18  1  0.00215557  0.00215557  0.16558922  1
  Er  Er19  1  0.12505823  0.62506899  0.43746730  1
  Er  Er20  1  0.62307537  0.62307537  0.27078782  1
  Er  Er21  1  0.62506899  0.12505823  0.43746730  1
  Er  Er22  1  0.62545997  0.62545997  0.35393701  1
  Er  Er23  1  0.62506899  0.62506899  0.43746730  1
  Er  Er24  1  0.12508936  0.62503248  0.60414128  1
  Er  Er25  1  0.62507693  0.62507693  0.52079454  1
  Er  Er26  1  0.62503248  0.12508936  0.60414128  1
  Er  Er27  1  0.62503248  0.62503248  0.60414128  1
  Er  Er28  1  0.12513673  0.62512738  0.77076775  1
  Er  Er29  1  0.62511341  0.62511341  0.68744330  1
  Er  Er30  1  0.62512738  0.12513673  0.77076775  1
  Er  Er31  1  0.62512738  0.62512738  0.77076775  1
  Er  Er32  1  0.12696876  0.62485272  0.93722097  1
  Er  Er33  1  0.62557250  0.62557250  0.85388075  1
  Er  Er34  1  0.62485272  0.12696876  0.93722097  1
  Er  Er35  1  0.62485272  0.62485272  0.93722097  1
  Se  Se36  1  0.38161789  0.38161789  0.06385882  1
  Se  Se37  1  0.38161789  0.85361129  0.06385882  1
  Se  Se38  1  0.38170701  0.38170701  0.14247949  1
  Se  Se39  1  0.85361129  0.38161789  0.06385882  1
  Se  Se40  1  0.40026522  0.86768512  0.14406042  1
  Se  Se41  1  0.38133066  0.38133066  0.23077990  1
  Se  Se42  1  0.86768512  0.40026522  0.14406042  1
  Se  Se43  1  0.86747295  0.86747295  0.06626353  1
  Se  Se44  1  0.38133066  0.85266130  0.23077990  1
  Se  Se45  1  0.38179943  0.38179943  0.30910029  1
  Se  Se46  1  0.86768512  0.86768512  0.14406042  1
  Se  Se47  1  0.85266130  0.38133066  0.23077990  1
  Se  Se48  1  0.38251168  0.38251168  0.39715868  1
  Se  Se49  1  0.39851196  0.86723299  0.31117034  1
  Se  Se50  1  0.86723299  0.39851196  0.31117034  1
  Se  Se51  1  0.86767002  0.86767002  0.23283199  1
  Se  Se52  1  0.38251168  0.85202256  0.39715868  1
  Se  Se53  1  0.38256727  0.38256727  0.47538336  1
  Se  Se54  1  0.86723299  0.86723299  0.31117034  1
  Se  Se55  1  0.85202256  0.38251168  0.39715868  1
  Se  Se56  1  0.39778030  0.86727135  0.47794650  1
  Se  Se57  1  0.38250350  0.38250350  0.56380837  1
  Se  Se58  1  0.86727135  0.39778030  0.47794650  1
  Se  Se59  1  0.86746902  0.86746902  0.39959849  1
  Se  Se60  1  0.38250350  0.85214280  0.56380837  1
  Se  Se61  1  0.38254920  0.38254920  0.64205840  1
  Se  Se62  1  0.86727135  0.86727135  0.47794650  1
  Se  Se63  1  0.85214280  0.38250350  0.56380837  1
  Se  Se64  1  0.39777487  0.86726833  0.64461441  1
  Se  Se65  1  0.38247028  0.38247028  0.73049380  1
  Se  Se66  1  0.86734982  0.86734982  0.56632509  1
  Se  Se67  1  0.38247028  0.85209863  0.73049380  1
  Se  Se68  1  0.86726833  0.39777487  0.64461441  1
  Se  Se69  1  0.38262979  0.38262979  0.80868510  1
  Se  Se70  1  0.86726833  0.86726833  0.64461441  1
  Se  Se71  1  0.85209863  0.38247028  0.73049380  1
  Se  Se72  1  0.39773100  0.86731591  0.81127286  1
  Se  Se73  1  0.38284146  0.38284146  0.89693888  1
  Se  Se74  1  0.86733700  0.86733700  0.73299850  1
  Se  Se75  1  0.86731591  0.39773100  0.81127286  1
  Se  Se76  1  0.38284146  0.85268182  0.89693888  1
  Se  Se77  1  0.38254371  0.38254371  0.97539515  1
  Se  Se78  1  0.86731591  0.86731591  0.81127286  1
  Se  Se79  1  0.85268182  0.38284146  0.89693888  1
  Se  Se80  1  0.39908586  0.86820969  0.97741613  1
  Se  Se81  1  0.86820969  0.39908586  0.97741613  1
  Se  Se82  1  0.86740964  0.86740964  0.89962818  1
  Se  Se83  1  0.86820969  0.86820969  0.97741613  1
