# generated using pymatgen
data_CrPO5
_symmetry_space_group_name_H-M   'P 1'
_cell_length_a   6.09121214
_cell_length_b   7.15650063
_cell_length_c   8.12881376
_cell_angle_alpha   89.99969639
_cell_angle_beta   90.00001739
_cell_angle_gamma   90.00004550
_symmetry_Int_Tables_number   1
_chemical_formula_structural   CrPO5
_chemical_formula_sum   'Cr4 P4 O20'
_cell_volume   354.34932710
_cell_formula_units_Z   4
loop_
 _symmetry_equiv_pos_site_id
 _symmetry_equiv_pos_as_xyz
  1  'x, y, z'
loop_
 _atom_site_type_symbol
 _atom_site_label
 _atom_site_symmetry_multiplicity
 _atom_site_fract_x
 _atom_site_fract_y
 _atom_site_fract_z
 _atom_site_occupancy
  Cr  Cr0  1  0.75000092  0.29240279  0.81436437  1
  Cr  Cr1  1  0.25000031  0.79241339  0.68565559  1
  Cr  Cr2  1  0.75000205  0.20761700  0.31441002  1
  Cr  Cr3  1  0.25000018  0.70762158  0.18559611  1
  P  P4  1  0.75000013  0.60442176  0.12229549  1
  P  P5  1  0.24999946  0.10442481  0.37770256  1
  P  P6  1  0.75000022  0.89557019  0.62231039  1
  P  P7  1  0.24999968  0.39556362  0.87769216  1
  O  O8  1  0.44954775  0.26119597  0.86549026  1
  O  O9  1  0.05045121  0.26119581  0.86549030  1
  O  O10  1  0.55043777  0.73878196  0.13444177  1
  O  O11  1  0.94956209  0.73878149  0.13444202  1
  O  O12  1  0.44956072  0.23878136  0.36555692  1
  O  O13  1  0.55045227  0.76119285  0.63450929  1
  O  O14  1  0.94954841  0.76119281  0.63450948  1
  O  O15  1  0.05043795  0.23878143  0.36555702  1
  O  O16  1  0.24999993  0.87707318  0.86444930  1
  O  O17  1  0.75000009  0.12294341  0.13558222  1
  O  O18  1  0.24999978  0.62294353  0.36441374  1
  O  O19  1  0.74999964  0.37707798  0.63553504  1
  O  O20  1  0.25000010  0.96643248  0.23202141  1
  O  O21  1  0.74999971  0.46643305  0.26797606  1
  O  O22  1  0.75000010  0.03355887  0.76799997  1
  O  O23  1  0.24999992  0.53355879  0.73199657  1
  O  O24  1  0.24999960  0.00328538  0.54473884  1
  O  O25  1  0.24999992  0.49673499  0.04467782  1
  O  O26  1  0.75000003  0.99673367  0.45532121  1
  O  O27  1  0.75000007  0.50328388  0.95526305  1
