# generated using pymatgen
data_CsTmP4(H2O3)6
_symmetry_space_group_name_H-M   'P 1'
_cell_length_a   7.60735857
_cell_length_b   7.60735793
_cell_length_c   15.15911644
_cell_angle_alpha   90.74073530
_cell_angle_beta   90.74073525
_cell_angle_gamma   109.92415881
_symmetry_Int_Tables_number   1
_chemical_formula_structural   CsTmP4(H2O3)6
_chemical_formula_sum   'Cs2 Tm2 P8 H24 O36'
_cell_volume   824.56731081
_cell_formula_units_Z   2
loop_
 _symmetry_equiv_pos_site_id
 _symmetry_equiv_pos_as_xyz
  1  'x, y, z'
loop_
 _atom_site_type_symbol
 _atom_site_label
 _atom_site_symmetry_multiplicity
 _atom_site_fract_x
 _atom_site_fract_y
 _atom_site_fract_z
 _atom_site_occupancy
  Tm  Tm0  1  0.89415580  0.10584420  0.75000000  1
  Tm  Tm1  1  0.10584420  0.89415580  0.25000000  1
  Cs  Cs2  1  0.53665766  0.46334234  0.75000000  1
  Cs  Cs3  1  0.46334234  0.53665766  0.25000000  1
  P  P4  1  0.21015358  0.03737063  0.58630521  1
  P  P5  1  0.96262937  0.78984642  0.91369479  1
  P  P6  1  0.78984642  0.96262937  0.41369479  1
  P  P7  1  0.03737063  0.21015358  0.08630521  1
  P  P8  1  0.24369270  0.16739192  0.92613529  1
  P  P9  1  0.83260808  0.75630730  0.57386471  1
  P  P10  1  0.75630730  0.83260808  0.07386471  1
  P  P11  1  0.16739192  0.24369270  0.42613529  1
  O  O12  1  0.14900478  0.94930308  0.95273764  1
  O  O13  1  0.05069692  0.85099522  0.54726236  1
  O  O14  1  0.85099522  0.05069692  0.04726236  1
  O  O15  1  0.94930308  0.14900478  0.45273764  1
  O  O16  1  0.27469595  0.16080639  0.49975530  1
  O  O17  1  0.83919361  0.72530405  0.00024470  1
  O  O18  1  0.72530405  0.83919361  0.50024470  1
  O  O19  1  0.16080639  0.27469595  0.99975530  1
  O  O20  1  0.13003554  0.13761723  0.65189951  1
  O  O21  1  0.86238277  0.86996446  0.84810049  1
  O  O22  1  0.86996446  0.86238277  0.34810049  1
  O  O23  1  0.13761723  0.13003554  0.15189951  1
  O  O24  1  0.37416490  0.98216077  0.61493824  1
  O  O25  1  0.01783923  0.62583510  0.88506176  1
  O  O26  1  0.62583510  0.01783923  0.38506176  1
  O  O27  1  0.98216077  0.37416490  0.11493824  1
  O  O28  1  0.80263496  0.83073060  0.66255758  1
  O  O29  1  0.16926940  0.19736504  0.83744242  1
  O  O30  1  0.19736504  0.16926940  0.33744242  1
  O  O31  1  0.83073060  0.80263496  0.16255758  1
  O  O32  1  0.45026165  0.22406816  0.94119329  1
  O  O33  1  0.77593184  0.54973835  0.55880671  1
  O  O34  1  0.54973835  0.77593184  0.05880671  1
  O  O35  1  0.22406816  0.45026165  0.44119329  1
  O  O36  1  0.73933323  0.19488378  0.63304249  1
  O  O37  1  0.80511623  0.26066677  0.86695751  1
  O  O38  1  0.26066677  0.80511622  0.36695751  1
  O  O39  1  0.19488377  0.73933323  0.13304249  1
  O  O40  1  0.40675877  0.70045110  0.88511458  1
  O  O41  1  0.29954890  0.59324123  0.61488542  1
  O  O42  1  0.59324123  0.29954890  0.11488542  1
  O  O43  1  0.70045110  0.40675877  0.38511458  1
  O  O44  1  0.56736925  0.97383023  0.77324311  1
  O  O45  1  0.02616977  0.43263075  0.72675689  1
  O  O46  1  0.43263075  0.02616977  0.22675689  1
  O  O47  1  0.97383023  0.56736925  0.27324311  1
  H  H48  1  0.61175628  0.12049444  0.61143329  1
  H  H49  1  0.87950556  0.38824372  0.88856671  1
  H  H50  1  0.38824372  0.87950556  0.38856671  1
  H  H51  1  0.12049444  0.61175628  0.11143329  1
  H  H52  1  0.67976925  0.22377444  0.89284520  1
  H  H53  1  0.77622556  0.32023075  0.60715480  1
  H  H54  1  0.32023075  0.77622556  0.10715480  1
  H  H55  1  0.22377444  0.67976925  0.39284520  1
  H  H56  1  0.45805172  0.72787072  0.94607062  1
  H  H57  1  0.27212928  0.54194828  0.55392938  1
  H  H58  1  0.54194828  0.27212928  0.05392938  1
  H  H59  1  0.72787072  0.45805172  0.44607062  1
  H  H60  1  0.32979776  0.72941596  0.60971778  1
  H  H61  1  0.27058404  0.67020224  0.89028222  1
  H  H62  1  0.67020224  0.27058404  0.39028222  1
  H  H63  1  0.72941596  0.32979776  0.10971778  1
  H  H64  1  0.50597094  0.87482949  0.81760366  1
  H  H65  1  0.12517051  0.49402906  0.68239634  1
  H  H66  1  0.49402906  0.12517051  0.18239634  1
  H  H67  1  0.87482949  0.50597094  0.31760366  1
  H  H68  1  0.47792322  0.96438655  0.72450704  1
  H  H69  1  0.03561345  0.52207678  0.77549296  1
  H  H70  1  0.52207678  0.03561345  0.27549296  1
  H  H71  1  0.96438655  0.47792322  0.22450704  1
