# generated using pymatgen
data_LiFeP2O7
_symmetry_space_group_name_H-M   'P 1'
_cell_length_a   5.08939489
_cell_length_b   6.79151440
_cell_length_c   8.29820317
_cell_angle_alpha   68.60743819
_cell_angle_beta   87.24102903
_cell_angle_gamma   87.35291563
_symmetry_Int_Tables_number   1
_chemical_formula_structural   LiFeP2O7
_chemical_formula_sum   'Li2 Fe2 P4 O14'
_cell_volume   266.62760850
_cell_formula_units_Z   2
loop_
 _symmetry_equiv_pos_site_id
 _symmetry_equiv_pos_as_xyz
  1  'x, y, z'
loop_
 _atom_site_type_symbol
 _atom_site_label
 _atom_site_symmetry_multiplicity
 _atom_site_fract_x
 _atom_site_fract_y
 _atom_site_fract_z
 _atom_site_occupancy
  Li  Li0  1  0.28005795  0.82165785  0.99693589  1
  Li  Li1  1  0.79040888  0.17924030  0.43958317  1
  O  O2  1  0.28816833  0.35150195  0.15934880  1
  O  O3  1  0.90416654  0.35543063  0.76195801  1
  O  O4  1  0.11530355  0.66014088  0.22235414  1
  O  O5  1  0.05965366  0.93314333  0.78891254  1
  O  O6  1  0.15273823  0.29764245  0.47106158  1
  O  O7  1  0.56984165  0.49727958  0.32746498  1
  O  O8  1  0.26787526  0.11872229  0.98783853  1
  O  O9  1  0.81534829  0.70875429  0.51686520  1
  O  O10  1  0.44246615  0.96700023  0.29105651  1
  O  O11  1  0.95459731  0.06424504  0.24802182  1
  O  O12  1  0.58844191  0.05387652  0.69601038  1
  O  O13  1  0.68042039  0.85678011  0.01758209  1
  O  O14  1  0.71075348  0.66047561  0.82787743  1
  O  O15  1  0.43561460  0.48055820  0.68572059  1
  P  P16  1  0.28188256  0.45645268  0.30675114  1
  P  P17  1  0.71825677  0.54553878  0.68824223  1
  P  P18  1  0.23671732  0.11343036  0.17246273  1
  P  P19  1  0.76576436  0.89090962  0.82964932  1
  Fe  Fe20  1  0.75686393  0.79333013  0.27019078  1
  Fe  Fe21  1  0.24095888  0.22686218  0.72789614  1
