# generated using pymatgen
data_K2Ni12As7
_symmetry_space_group_name_H-M   'P 1'
_cell_length_a   9.54225458
_cell_length_b   9.54225500
_cell_length_c   3.83057829
_cell_angle_alpha   90.00000000
_cell_angle_beta   90.00000000
_cell_angle_gamma   119.99999858
_symmetry_Int_Tables_number   1
_chemical_formula_structural   K2Ni12As7
_chemical_formula_sum   'K2 Ni12 As7'
_cell_volume   302.06262895
_cell_formula_units_Z   1
loop_
 _symmetry_equiv_pos_site_id
 _symmetry_equiv_pos_as_xyz
  1  'x, y, z'
loop_
 _atom_site_type_symbol
 _atom_site_label
 _atom_site_symmetry_multiplicity
 _atom_site_fract_x
 _atom_site_fract_y
 _atom_site_fract_z
 _atom_site_occupancy
  As  As0  1  0.00000000  0.00000000  0.00000000  1
  As  As1  1  0.40060497  0.11390240  0.00000000  1
  As  As2  1  0.71329743  0.59939503  0.00000000  1
  As  As3  1  0.88609760  0.28670257  0.00000000  1
  As  As4  1  0.60154705  0.89883012  0.50000000  1
  As  As5  1  0.29728307  0.39845295  0.50000000  1
  As  As6  1  0.10116988  0.70271693  0.50000000  1
  Ni  Ni7  1  0.37431806  0.95414937  0.50000000  1
  Ni  Ni8  1  0.57983131  0.62568194  0.50000000  1
  Ni  Ni9  1  0.04585063  0.42016869  0.50000000  1
  Ni  Ni10  1  0.20531319  0.11120111  0.50000000  1
  Ni  Ni11  1  0.90588792  0.79468681  0.50000000  1
  Ni  Ni12  1  0.88879889  0.09411208  0.50000000  1
  Ni  Ni13  1  0.14984301  0.87472664  0.00000000  1
  Ni  Ni14  1  0.72488363  0.85015699  0.00000000  1
  Ni  Ni15  1  0.12527336  0.27511637  0.00000000  1
  Ni  Ni16  1  0.61635200  0.05090098  0.00000000  1
  Ni  Ni17  1  0.43454898  0.38364800  0.00000000  1
  Ni  Ni18  1  0.94909902  0.56545102  0.00000000  1
  K  K19  1  0.66666700  0.33333300  0.50000000  1
  K  K20  1  0.33333300  0.66666700  0.00000000  1
