# generated using pymatgen
data_CuSb2ClO3
_symmetry_space_group_name_H-M   'P 1'
_cell_length_a   7.85329833
_cell_length_b   7.85329831
_cell_length_c   18.85966080
_cell_angle_alpha   89.97718023
_cell_angle_beta   89.97718024
_cell_angle_gamma   120.08547417
_symmetry_Int_Tables_number   1
_chemical_formula_structural   CuSb2ClO3
_chemical_formula_sum   'Cu8 Sb16 Cl8 O24'
_cell_volume   1006.45383946
_cell_formula_units_Z   8
loop_
 _symmetry_equiv_pos_site_id
 _symmetry_equiv_pos_as_xyz
  1  'x, y, z'
loop_
 _atom_site_type_symbol
 _atom_site_label
 _atom_site_symmetry_multiplicity
 _atom_site_fract_x
 _atom_site_fract_y
 _atom_site_fract_z
 _atom_site_occupancy
  Cu  Cu0  1  0.97972803  0.98607808  0.73165257  1
  Cu  Cu1  1  0.50889325  0.50192587  0.23167329  1
  Cu  Cu2  1  0.99758909  0.48839512  0.77655953  1
  Cu  Cu3  1  0.99002484  0.49662211  0.22199219  1
  Cu  Cu4  1  0.98607808  0.97972803  0.23165257  1
  Cu  Cu5  1  0.49662211  0.99002484  0.72199219  1
  Cu  Cu6  1  0.50192587  0.50889325  0.73167329  1
  Cu  Cu7  1  0.48839512  0.99758909  0.27655953  1
  Sb  Sb8  1  0.82224788  0.14140287  0.58224660  1
  Sb  Sb9  1  0.66861954  0.34849272  0.08242975  1
  Sb  Sb10  1  0.14140287  0.82224788  0.08224660  1
  Sb  Sb11  1  0.32832607  0.16084120  0.58021128  1
  Sb  Sb12  1  0.64257213  0.31994813  0.41902558  1
  Sb  Sb13  1  0.82434636  0.66547396  0.92178539  1
  Sb  Sb14  1  0.16084120  0.32832607  0.08021128  1
  Sb  Sb15  1  0.81966199  0.66905032  0.58357636  1
  Sb  Sb16  1  0.66547396  0.82434636  0.42178539  1
  Sb  Sb17  1  0.66905032  0.81966199  0.08357636  1
  Sb  Sb18  1  0.17227872  0.84828989  0.41900246  1
  Sb  Sb19  1  0.84828989  0.17227872  0.91900246  1
  Sb  Sb20  1  0.31607077  0.17394474  0.91929400  1
  Sb  Sb21  1  0.31994813  0.64257213  0.91902558  1
  Sb  Sb22  1  0.17394474  0.31607077  0.41929400  1
  Sb  Sb23  1  0.34849272  0.66861954  0.58242975  1
  Cl  Cl24  1  0.65744455  0.83143792  0.77213730  1
  Cl  Cl25  1  0.15874585  0.32930674  0.72834353  1
  Cl  Cl26  1  0.82519963  0.15883645  0.24729555  1
  Cl  Cl27  1  0.32850529  0.66174484  0.24788893  1
  Cl  Cl28  1  0.32930674  0.15874585  0.22834353  1
  Cl  Cl29  1  0.15883645  0.82519963  0.74729555  1
  Cl  Cl30  1  0.66174484  0.32850529  0.74788893  1
  Cl  Cl31  1  0.83143792  0.65744455  0.27213730  1
  O  O32  1  0.70162935  0.41144598  0.97869876  1
  O  O33  1  0.07817682  0.78869723  0.97865820  1
  O  O34  1  0.28986587  0.19983006  0.02515771  1
  O  O35  1  0.41144598  0.70162935  0.47869876  1
  O  O36  1  0.69719655  0.79143369  0.97900693  1
  O  O37  1  0.20466654  0.90629968  0.52389019  1
  O  O38  1  0.91363121  0.95125227  0.61188067  1
  O  O39  1  0.07885313  0.03499298  0.39431887  1
  O  O40  1  0.41255527  0.45536913  0.89404821  1
  O  O41  1  0.78869723  0.07817682  0.47865820  1
  O  O42  1  0.19983006  0.28986587  0.52515771  1
  O  O43  1  0.90629968  0.20466654  0.02389019  1
  O  O44  1  0.53811879  0.57663989  0.61222522  1
  O  O45  1  0.79143369  0.69719655  0.47900693  1
  O  O46  1  0.45536913  0.41255527  0.39404821  1
  O  O47  1  0.58287470  0.28562305  0.52376351  1
  O  O48  1  0.53939861  0.95114624  0.61244501  1
  O  O49  1  0.95125227  0.91363121  0.11188067  1
  O  O50  1  0.28562305  0.58287470  0.02376351  1
  O  O51  1  0.03641129  0.45544670  0.88805240  1
  O  O52  1  0.57663989  0.53811879  0.11222522  1
  O  O53  1  0.45544670  0.03641129  0.38805240  1
  O  O54  1  0.95114624  0.53939861  0.11244501  1
  O  O55  1  0.03499298  0.07885313  0.89431887  1
