# generated using pymatgen
data_NbCuO3F
_symmetry_space_group_name_H-M   'P 1'
_cell_length_a   3.84027248
_cell_length_b   6.79745664
_cell_length_c   6.65684445
_cell_angle_alpha   67.26306831
_cell_angle_beta   86.60225233
_cell_angle_gamma   80.38823182
_symmetry_Int_Tables_number   1
_chemical_formula_structural   NbCuO3F
_chemical_formula_sum   'Nb2 Cu2 O6 F2'
_cell_volume   158.01444153
_cell_formula_units_Z   2
loop_
 _symmetry_equiv_pos_site_id
 _symmetry_equiv_pos_as_xyz
  1  'x, y, z'
loop_
 _atom_site_type_symbol
 _atom_site_label
 _atom_site_symmetry_multiplicity
 _atom_site_fract_x
 _atom_site_fract_y
 _atom_site_fract_z
 _atom_site_occupancy
  F  F0  1  0.84010515  0.85328597  0.75456561  1
  O  O1  1  0.75328352  0.91737947  0.14473561  1
  Nb  Nb2  1  0.26827321  0.83745793  0.21724611  1
  O  O3  1  0.24674969  0.08260632  0.85517699  1
  F  F4  1  0.15999187  0.14672026  0.24535688  1
  O  O5  1  0.66821407  0.39362177  0.89143983  1
  O  O6  1  0.71254518  0.30816161  0.49195253  1
  Cu  Cu7  1  0.28882971  0.64721811  0.80449765  1
  O  O8  1  0.33178186  0.60630946  0.10856474  1
  O  O9  1  0.28745465  0.69182902  0.50804709  1
  Nb  Nb10  1  0.73171142  0.16252673  0.78272198  1
  Cu  Cu11  1  0.71105967  0.35288335  0.19569496  1
