# generated using pymatgen
data_Li2Ga2GeS6
_symmetry_space_group_name_H-M   'P 1'
_cell_length_a   6.88845897
_cell_length_b   7.06313350
_cell_length_c   12.02294302
_cell_angle_alpha   81.96989553
_cell_angle_beta   73.35318177
_cell_angle_gamma   60.81476465
_symmetry_Int_Tables_number   1
_chemical_formula_structural   Li2Ga2GeS6
_chemical_formula_sum   'Li4 Ga4 Ge2 S12'
_cell_volume   489.29868982
_cell_formula_units_Z   2
loop_
 _symmetry_equiv_pos_site_id
 _symmetry_equiv_pos_as_xyz
  1  'x, y, z'
loop_
 _atom_site_type_symbol
 _atom_site_label
 _atom_site_symmetry_multiplicity
 _atom_site_fract_x
 _atom_site_fract_y
 _atom_site_fract_z
 _atom_site_occupancy
  Li  Li0  1  0.01210609  0.66724286  0.09612933  1
  Li  Li1  1  0.77547828  0.33275714  0.90387067  1
  Li  Li2  1  0.85823541  0.16724286  0.40387067  1
  Li  Li3  1  0.42934895  0.83275714  0.59612933  1
  Ga  Ga4  1  0.44941803  0.73071294  0.26968951  1
  Ga  Ga5  1  0.44982048  0.26928706  0.73031049  1
  Ga  Ga6  1  0.46910754  0.23071294  0.23031049  1
  Ga  Ga7  1  0.93013097  0.76928706  0.76968951  1
  Ge  Ge8  1  0.15932069  0.50000000  0.50000000  1
  Ge  Ge9  1  0.40932069  0.00000000  0.00000000  1
  S  S10  1  0.09832125  0.39479002  0.35215492  1
  S  S11  1  0.20818872  0.80009202  0.45608144  1
  S  S12  1  0.24311127  0.10520998  0.85215492  1
  S  S13  1  0.41427016  0.30009202  0.04391856  1
  S  S14  1  0.84526619  0.60520998  0.64784508  1
  S  S15  1  0.68178383  0.87520214  0.26282831  1
  S  S16  1  0.46436218  0.19990798  0.54391856  1
  S  S17  1  0.20047616  0.89479002  0.14784508  1
  S  S18  1  0.75828074  0.69990798  0.95608144  1
  S  S19  1  0.69461213  0.37520214  0.23717169  1
  S  S20  1  0.81981427  0.12479786  0.73717169  1
  S  S21  1  0.30698596  0.62479786  0.76282831  1
