# generated using pymatgen
data_UTiNb2O10
_symmetry_space_group_name_H-M   'P 1'
_cell_length_a   7.30430713
_cell_length_b   7.28526174
_cell_length_c   9.38300348
_cell_angle_alpha   78.74802344
_cell_angle_beta   67.09335536
_cell_angle_gamma   59.91347987
_symmetry_Int_Tables_number   1
_chemical_formula_structural   UTiNb2O10
_chemical_formula_sum   'U2 Ti2 Nb4 O20'
_cell_volume   397.96343532
_cell_formula_units_Z   2
loop_
 _symmetry_equiv_pos_site_id
 _symmetry_equiv_pos_as_xyz
  1  'x, y, z'
loop_
 _atom_site_type_symbol
 _atom_site_label
 _atom_site_symmetry_multiplicity
 _atom_site_fract_x
 _atom_site_fract_y
 _atom_site_fract_z
 _atom_site_occupancy
  U  U0  1  0.87500000  0.25000000  0.25000000  1
  U  U1  1  0.12500000  0.75000000  0.75000000  1
  Ti  Ti2  1  0.37500000  0.25000000  0.25000000  1
  Ti  Ti3  1  0.62500000  0.75000000  0.75000000  1
  Nb  Nb4  1  0.59558204  0.25000000  0.80883591  1
  Nb  Nb5  1  0.84558204  0.75000000  0.30883591  1
  Nb  Nb6  1  0.15441796  0.25000000  0.69116409  1
  Nb  Nb7  1  0.40441796  0.75000000  0.19116409  1
  O  O8  1  0.92163576  0.15672848  0.75000000  1
  O  O9  1  0.67163576  0.65672848  0.25000000  1
  O  O10  1  0.67403717  0.04781815  0.25265637  1
  O  O11  1  0.02056231  0.75000000  0.95887538  1
  O  O12  1  0.52548832  0.54781815  0.75265637  1
  O  O13  1  0.92669353  0.54781815  0.74734363  1
  O  O14  1  0.32836424  0.34327152  0.75000000  1
  O  O15  1  0.07330647  0.45218185  0.25265637  1
  O  O16  1  0.07836424  0.84327152  0.25000000  1
  O  O17  1  0.72185532  0.95218185  0.75265637  1
  O  O18  1  0.47451168  0.45218185  0.24734363  1
  O  O19  1  0.49072051  0.25000000  0.01855898  1
  O  O20  1  0.25927949  0.25000000  0.48144102  1
  O  O21  1  0.77056231  0.25000000  0.45887538  1
  O  O22  1  0.22943769  0.75000000  0.54112462  1
  O  O23  1  0.50927949  0.75000000  0.98144102  1
  O  O24  1  0.97943769  0.25000000  0.04112462  1
  O  O25  1  0.74072051  0.75000000  0.51855898  1
  O  O26  1  0.27814468  0.04781815  0.24734363  1
  O  O27  1  0.32596283  0.95218185  0.74734363  1
