# generated using pymatgen
data_Cs2Mo15S19
_symmetry_space_group_name_H-M   'P 1'
_cell_length_a   19.80083310
_cell_length_b   19.80083279
_cell_length_c   19.80083363
_cell_angle_alpha   27.88622665
_cell_angle_beta   27.88622839
_cell_angle_gamma   27.88622610
_symmetry_Int_Tables_number   1
_chemical_formula_structural   Cs2Mo15S19
_chemical_formula_sum   'Cs4 Mo30 S38'
_cell_volume   1499.78321833
_cell_formula_units_Z   2
loop_
 _symmetry_equiv_pos_site_id
 _symmetry_equiv_pos_as_xyz
  1  'x, y, z'
loop_
 _atom_site_type_symbol
 _atom_site_label
 _atom_site_symmetry_multiplicity
 _atom_site_fract_x
 _atom_site_fract_y
 _atom_site_fract_z
 _atom_site_occupancy
  Cs  Cs0  1  0.88656259  0.88656259  0.88656259  1
  Cs  Cs1  1  0.61343741  0.61343741  0.61343741  1
  Cs  Cs2  1  0.38656259  0.38656259  0.38656259  1
  Cs  Cs3  1  0.11343741  0.11343741  0.11343741  1
  Mo  Mo4  1  0.45892783  0.28301336  0.13004753  1
  Mo  Mo5  1  0.63416429  0.49734625  0.30653572  1
  Mo  Mo6  1  0.36583571  0.50265375  0.69346428  1
  Mo  Mo7  1  0.63004753  0.78301336  0.95892783  1
  Mo  Mo8  1  0.13004753  0.45892783  0.28301336  1
  Mo  Mo9  1  0.54107217  0.71698664  0.86995247  1
  Mo  Mo10  1  0.58647104  0.91352896  0.75000000  1
  Mo  Mo11  1  0.00265375  0.86583571  0.19346428  1
  Mo  Mo12  1  0.91352896  0.75000000  0.58647104  1
  Mo  Mo13  1  0.21698664  0.04107217  0.36995247  1
  Mo  Mo14  1  0.25000000  0.41352896  0.08647104  1
  Mo  Mo15  1  0.50265375  0.69346428  0.36583571  1
  Mo  Mo16  1  0.36995247  0.21698664  0.04107217  1
  Mo  Mo17  1  0.30653572  0.63416429  0.49734625  1
  Mo  Mo18  1  0.78301336  0.95892783  0.63004753  1
  Mo  Mo19  1  0.75000000  0.58647104  0.91352896  1
  Mo  Mo20  1  0.69346428  0.36583571  0.50265375  1
  Mo  Mo21  1  0.95892783  0.63004753  0.78301336  1
  Mo  Mo22  1  0.28301336  0.13004753  0.45892783  1
  Mo  Mo23  1  0.80653572  0.99734625  0.13416429  1
  Mo  Mo24  1  0.41352896  0.08647104  0.25000000  1
  Mo  Mo25  1  0.71698664  0.86995247  0.54107217  1
  Mo  Mo26  1  0.49734625  0.30653572  0.63416429  1
  Mo  Mo27  1  0.13416429  0.80653572  0.99734625  1
  Mo  Mo28  1  0.86583571  0.19346428  0.00265375  1
  Mo  Mo29  1  0.08647104  0.25000000  0.41352896  1
  Mo  Mo30  1  0.99734625  0.13416429  0.80653572  1
  Mo  Mo31  1  0.19346428  0.00265375  0.86583571  1
  Mo  Mo32  1  0.04107217  0.36995247  0.21698664  1
  Mo  Mo33  1  0.86995247  0.54107217  0.71698664  1
  S  S34  1  0.45092244  0.75000000  0.04907756  1
  S  S35  1  0.51419876  0.92835945  0.19932733  1
  S  S36  1  0.42835945  0.01419876  0.69932733  1
  S  S37  1  0.70410229  0.29527078  0.95149872  1
  S  S38  1  0.20410229  0.45149872  0.79527078  1
  S  S39  1  0.92835945  0.19932733  0.51419876  1
  S  S40  1  0.82297729  0.82297729  0.82297729  1
  S  S41  1  0.79527078  0.20410229  0.45149872  1
  S  S42  1  0.95092244  0.54907756  0.25000000  1
  S  S43  1  0.69932733  0.42835945  0.01419876  1
  S  S44  1  0.54907756  0.25000000  0.95092244  1
  S  S45  1  0.98580124  0.30067267  0.57164055  1
  S  S46  1  0.32297729  0.32297729  0.32297729  1
  S  S47  1  0.94703631  0.94703631  0.94703631  1
  S  S48  1  0.44703631  0.44703631  0.44703631  1
  S  S49  1  0.20472922  0.79589771  0.54850128  1
  S  S50  1  0.57164055  0.98580124  0.30067267  1
  S  S51  1  0.19932733  0.51419876  0.92835945  1
  S  S52  1  0.04850128  0.29589771  0.70472922  1
  S  S53  1  0.70472922  0.04850128  0.29589771  1
  S  S54  1  0.05296369  0.05296369  0.05296369  1
  S  S55  1  0.55296369  0.55296369  0.55296369  1
  S  S56  1  0.04907756  0.45092244  0.75000000  1
  S  S57  1  0.95149872  0.70410229  0.29527078  1
  S  S58  1  0.79589771  0.54850128  0.20472922  1
  S  S59  1  0.48580124  0.07164055  0.80067267  1
  S  S60  1  0.80067267  0.48580124  0.07164055  1
  S  S61  1  0.29589771  0.70472922  0.04850128  1
  S  S62  1  0.75000000  0.04907756  0.45092244  1
  S  S63  1  0.07164055  0.80067267  0.48580124  1
  S  S64  1  0.17702271  0.17702271  0.17702271  1
  S  S65  1  0.54850128  0.20472922  0.79589771  1
  S  S66  1  0.30067267  0.57164055  0.98580124  1
  S  S67  1  0.67702271  0.67702271  0.67702271  1
  S  S68  1  0.01419876  0.69932733  0.42835945  1
  S  S69  1  0.45149872  0.79527078  0.20410229  1
  S  S70  1  0.25000000  0.95092244  0.54907756  1
  S  S71  1  0.29527078  0.95149872  0.70410229  1
