# generated using pymatgen
data_Sr2TmNbO6
_symmetry_space_group_name_H-M   'P 1'
_cell_length_a   5.90626427
_cell_length_b   5.93948991
_cell_length_c   8.35541035
_cell_angle_alpha   90.00000000
_cell_angle_beta   90.00000000
_cell_angle_gamma   90.00000000
_symmetry_Int_Tables_number   1
_chemical_formula_structural   Sr2TmNbO6
_chemical_formula_sum   'Sr4 Tm2 Nb2 O12'
_cell_volume   293.10944141
_cell_formula_units_Z   2
loop_
 _symmetry_equiv_pos_site_id
 _symmetry_equiv_pos_as_xyz
  1  'x, y, z'
loop_
 _atom_site_type_symbol
 _atom_site_label
 _atom_site_symmetry_multiplicity
 _atom_site_fract_x
 _atom_site_fract_y
 _atom_site_fract_z
 _atom_site_occupancy
  Sr  Sr0  1  0.50422030  0.98080155  0.74838083  1
  Sr  Sr1  1  0.00422030  0.51919845  0.24838083  1
  Sr  Sr2  1  0.00422030  0.48080155  0.75161917  1
  Sr  Sr3  1  0.50422030  0.01919845  0.25161917  1
  Tm  Tm4  1  0.00365344  0.00000000  0.50000000  1
  Tm  Tm5  1  0.50365344  0.50000000  0.00000000  1
  Nb  Nb6  1  0.00323888  0.00000000  0.00000000  1
  Nb  Nb7  1  0.50323888  0.50000000  0.50000000  1
  O  O8  1  0.27420823  0.24973223  0.50866073  1
  O  O9  1  0.48192065  0.51339778  0.73967995  1
  O  O10  1  0.77420823  0.25026777  0.00866073  1
  O  O11  1  0.48192065  0.48660222  0.26032005  1
  O  O12  1  0.77420823  0.74973223  0.99133927  1
  O  O13  1  0.27420823  0.75026777  0.49133927  1
  O  O14  1  0.25230467  0.23056948  0.99597435  1
  O  O15  1  0.75230467  0.73056948  0.50402565  1
  O  O16  1  0.98192065  0.01339778  0.76032005  1
  O  O17  1  0.25230467  0.76943052  0.00402565  1
  O  O18  1  0.75230467  0.26943052  0.49597435  1
  O  O19  1  0.98192065  0.98660222  0.23967995  1
