# generated using pymatgen
data_SrMo2(AsO6)2
_symmetry_space_group_name_H-M   'P 1'
_cell_length_a   6.68219947
_cell_length_b   7.03441865
_cell_length_c   10.68258768
_cell_angle_alpha   90.00000000
_cell_angle_beta   91.42417106
_cell_angle_gamma   90.00000000
_symmetry_Int_Tables_number   1
_chemical_formula_structural   SrMo2(AsO6)2
_chemical_formula_sum   'Sr2 Mo4 As4 O24'
_cell_volume   501.98407104
_cell_formula_units_Z   2
loop_
 _symmetry_equiv_pos_site_id
 _symmetry_equiv_pos_as_xyz
  1  'x, y, z'
loop_
 _atom_site_type_symbol
 _atom_site_label
 _atom_site_symmetry_multiplicity
 _atom_site_fract_x
 _atom_site_fract_y
 _atom_site_fract_z
 _atom_site_occupancy
  Sr  Sr0  1  0.50000000  0.00000000  0.50000000  1
  Sr  Sr1  1  0.50000000  0.50000000  0.00000000  1
  Mo  Mo2  1  0.24848599  0.04762234  0.83588666  1
  Mo  Mo3  1  0.75151401  0.54762234  0.66411334  1
  Mo  Mo4  1  0.75151401  0.95237766  0.16411334  1
  Mo  Mo5  1  0.24848599  0.45237766  0.33588666  1
  As  As6  1  0.25757508  0.04165402  0.15521697  1
  As  As7  1  0.74242492  0.54165402  0.34478303  1
  As  As8  1  0.74242492  0.95834598  0.84478303  1
  As  As9  1  0.25757508  0.45834598  0.65521697  1
  O  O10  1  0.27687840  0.18570623  0.02694585  1
  O  O11  1  0.72312160  0.68570623  0.47305415  1
  O  O12  1  0.72312160  0.81429377  0.97305415  1
  O  O13  1  0.27687840  0.31429377  0.52694585  1
  O  O14  1  0.45231208  0.87984025  0.16035482  1
  O  O15  1  0.54768792  0.37984025  0.33964518  1
  O  O16  1  0.54768792  0.12015975  0.83964518  1
  O  O17  1  0.45231208  0.62015975  0.66035482  1
  O  O18  1  0.03987587  0.90908606  0.13999236  1
  O  O19  1  0.96012413  0.40908606  0.36000764  1
  O  O20  1  0.96012413  0.09091394  0.86000764  1
  O  O21  1  0.03987587  0.59091394  0.63999236  1
  O  O22  1  0.25741849  0.14674760  0.30042825  1
  O  O23  1  0.74258151  0.64674760  0.19957175  1
  O  O24  1  0.74258151  0.85325240  0.69957175  1
  O  O25  1  0.25741849  0.35325240  0.80042825  1
  O  O26  1  0.28554197  0.82359501  0.90340516  1
  O  O27  1  0.71445803  0.32359501  0.59659484  1
  O  O28  1  0.71445803  0.17640499  0.09659484  1
  O  O29  1  0.28554197  0.67640499  0.40340516  1
  O  O30  1  0.24333520  0.99340660  0.67698092  1
  O  O31  1  0.75666480  0.49340660  0.82301908  1
  O  O32  1  0.75666480  0.00659340  0.32301908  1
  O  O33  1  0.24333520  0.50659340  0.17698092  1
