# generated using pymatgen
data_KGdPdO3
_symmetry_space_group_name_H-M   'P 1'
_cell_length_a   3.93953958
_cell_length_b   6.87325775
_cell_length_c   7.55011140
_cell_angle_alpha   103.73946824
_cell_angle_beta   90.00000000
_cell_angle_gamma   106.65359076
_symmetry_Int_Tables_number   1
_chemical_formula_structural   KGdPdO3
_chemical_formula_sum   'K2 Gd2 Pd2 O6'
_cell_volume   189.74873919
_cell_formula_units_Z   2
loop_
 _symmetry_equiv_pos_site_id
 _symmetry_equiv_pos_as_xyz
  1  'x, y, z'
loop_
 _atom_site_type_symbol
 _atom_site_label
 _atom_site_symmetry_multiplicity
 _atom_site_fract_x
 _atom_site_fract_y
 _atom_site_fract_z
 _atom_site_occupancy
  K  K0  1  0.35541788  0.71083577  0.43526968  1
  K  K1  1  0.64458212  0.28916423  0.56473032  1
  Gd  Gd2  1  0.34980780  0.69961559  0.92383158  1
  Gd  Gd3  1  0.65019220  0.30038441  0.07616842  1
  Pd  Pd4  1  0.00775580  0.01551159  0.77724192  1
  Pd  Pd5  1  0.99224420  0.98448841  0.22275808  1
  O  O6  1  0.17166964  0.34333929  0.87055865  1
  O  O7  1  0.15286814  0.30573628  0.26882803  1
  O  O8  1  0.50700647  0.01401293  0.81905846  1
  O  O9  1  0.82833036  0.65666071  0.12944135  1
  O  O10  1  0.49299353  0.98598707  0.18094154  1
  O  O11  1  0.84713186  0.69426372  0.73117197  1
