# generated using pymatgen
data_SrSiO3
_symmetry_space_group_name_H-M   'P 1'
_cell_length_a   6.15628423
_cell_length_b   7.54992539
_cell_length_c   12.24680528
_cell_angle_alpha   96.62018061
_cell_angle_beta   90.00000000
_cell_angle_gamma   90.00000000
_symmetry_Int_Tables_number   1
_chemical_formula_structural   SrSiO3
_chemical_formula_sum   'Sr8 Si8 O24'
_cell_volume   565.42975407
_cell_formula_units_Z   8
loop_
 _symmetry_equiv_pos_site_id
 _symmetry_equiv_pos_as_xyz
  1  'x, y, z'
loop_
 _atom_site_type_symbol
 _atom_site_label
 _atom_site_symmetry_multiplicity
 _atom_site_fract_x
 _atom_site_fract_y
 _atom_site_fract_z
 _atom_site_occupancy
  Sr  Sr0  1  0.40909398  0.58407386  0.84156628  1
  Sr  Sr1  1  0.09090602  0.08407386  0.34156628  1
  Sr  Sr2  1  0.60095841  0.91090331  0.12607408  1
  Sr  Sr3  1  0.89904159  0.41090331  0.62607408  1
  Sr  Sr4  1  0.90909398  0.91592614  0.65843372  1
  Sr  Sr5  1  0.59090602  0.41592614  0.15843372  1
  Sr  Sr6  1  0.39904159  0.08909669  0.87392592  1
  Sr  Sr7  1  0.10095841  0.58909669  0.37392592  1
  Si  Si8  1  0.14961524  0.66879317  0.11826413  1
  Si  Si9  1  0.91174750  0.74957946  0.90814623  1
  Si  Si10  1  0.35038476  0.16879317  0.61826413  1
  Si  Si11  1  0.64961524  0.83120683  0.38173587  1
  Si  Si12  1  0.58825250  0.24957946  0.40814623  1
  Si  Si13  1  0.41174750  0.75042054  0.59185377  1
  Si  Si14  1  0.08825250  0.25042054  0.09185377  1
  Si  Si15  1  0.85038476  0.33120683  0.88173587  1
  O  O16  1  0.55824168  0.22629156  0.54208935  1
  O  O17  1  0.05824168  0.27370844  0.95791065  1
  O  O18  1  0.32464409  0.15788948  0.09931501  1
  O  O19  1  0.41093927  0.96393158  0.65518899  1
  O  O20  1  0.91093927  0.53606842  0.84481101  1
  O  O21  1  0.94175832  0.72629156  0.04208935  1
  O  O22  1  0.17535591  0.65788948  0.59931501  1
  O  O23  1  0.67535591  0.84211052  0.90068499  1
  O  O24  1  0.83016813  0.20203313  0.76818675  1
  O  O25  1  0.08906073  0.46393158  0.15518899  1
  O  O26  1  0.62871439  0.34940587  0.95214269  1
  O  O27  1  0.87128561  0.84940587  0.45214269  1
  O  O28  1  0.61495106  0.66018044  0.64797988  1
  O  O29  1  0.16983187  0.79796687  0.23181325  1
  O  O30  1  0.11495106  0.83981956  0.85202012  1
  O  O31  1  0.82464409  0.34211052  0.40068499  1
  O  O32  1  0.58906073  0.03606842  0.34481101  1
  O  O33  1  0.66983187  0.70203313  0.26818675  1
  O  O34  1  0.88504894  0.16018044  0.14797988  1
  O  O35  1  0.44175832  0.77370844  0.45791065  1
  O  O36  1  0.37128561  0.65059413  0.04785731  1
  O  O37  1  0.12871439  0.15059413  0.54785731  1
  O  O38  1  0.33016813  0.29796687  0.73181325  1
  O  O39  1  0.38504894  0.33981956  0.35202012  1
