# generated using pymatgen
data_CaH2C2O5
_symmetry_space_group_name_H-M   'P 1'
_cell_length_a   6.38031248
_cell_length_b   10.04742566
_cell_length_c   14.78365414
_cell_angle_alpha   90.00000000
_cell_angle_beta   90.00000000
_cell_angle_gamma   107.40534445
_symmetry_Int_Tables_number   1
_chemical_formula_structural   CaH2C2O5
_chemical_formula_sum   'Ca8 H16 C16 O40'
_cell_volume   904.32307899
_cell_formula_units_Z   8
loop_
 _symmetry_equiv_pos_site_id
 _symmetry_equiv_pos_as_xyz
  1  'x, y, z'
loop_
 _atom_site_type_symbol
 _atom_site_label
 _atom_site_symmetry_multiplicity
 _atom_site_fract_x
 _atom_site_fract_y
 _atom_site_fract_z
 _atom_site_occupancy
  Ca  Ca0  1  0.55712897  0.56433875  0.87718326  1
  Ca  Ca1  1  0.59027081  0.55283853  0.37606129  1
  Ca  Ca2  1  0.94287103  0.93566125  0.37718326  1
  Ca  Ca3  1  0.05712897  0.06433875  0.62281674  1
  Ca  Ca4  1  0.09027081  0.05283853  0.12393871  1
  Ca  Ca5  1  0.44287103  0.43566125  0.12281674  1
  Ca  Ca6  1  0.40972919  0.44716147  0.62393871  1
  Ca  Ca7  1  0.90972919  0.94716147  0.87606129  1
  H  H8  1  0.95962825  0.43743552  0.37690210  1
  H  H9  1  0.93757129  0.45308351  0.86680235  1
  H  H10  1  0.22682639  0.71051834  0.62444635  1
  H  H11  1  0.43757129  0.95308351  0.63319765  1
  H  H12  1  0.45962825  0.93743552  0.12309790  1
  H  H13  1  0.77317361  0.28948166  0.37555365  1
  H  H14  1  0.54037175  0.06256448  0.87690210  1
  H  H15  1  0.29692283  0.90732069  0.72151291  1
  H  H16  1  0.79692283  0.40732069  0.77848709  1
  H  H17  1  0.06242871  0.54691649  0.13319765  1
  H  H18  1  0.70307717  0.09267931  0.27848709  1
  H  H19  1  0.04037175  0.56256448  0.62309790  1
  H  H20  1  0.27317361  0.78948166  0.12444635  1
  H  H21  1  0.20307717  0.59267931  0.22151291  1
  H  H22  1  0.56242871  0.04691649  0.36680235  1
  H  H23  1  0.72682639  0.21051834  0.87555365  1
  C  C24  1  0.66450816  0.18225918  0.12774893  1
  C  C25  1  0.25087408  0.24891659  0.42662671  1
  C  C26  1  0.16450816  0.68225918  0.37225107  1
  C  C27  1  0.33549184  0.81774082  0.87225107  1
  C  C28  1  0.86674955  0.31290891  0.11740120  1
  C  C29  1  0.83549184  0.31774082  0.62774893  1
  C  C30  1  0.74912592  0.75108341  0.57337329  1
  C  C31  1  0.36674955  0.81290891  0.38259880  1
  C  C32  1  0.73338088  0.75580338  0.67950750  1
  C  C33  1  0.75087408  0.74891659  0.07337329  1
  C  C34  1  0.76661912  0.74419662  0.17950750  1
  C  C35  1  0.26661912  0.24419662  0.32049250  1
  C  C36  1  0.23338088  0.25580338  0.82049250  1
  C  C37  1  0.63325045  0.18709109  0.61740120  1
  C  C38  1  0.24912592  0.25108341  0.92662671  1
  C  C39  1  0.13325045  0.68709109  0.88259880  1
  O  O40  1  0.35540579  0.36200944  0.46497967  1
  O  O41  1  0.19693008  0.61071436  0.60947711  1
  O  O42  1  0.82731466  0.42864650  0.10830911  1
  O  O43  1  0.21284918  0.60213197  0.15530105  1
  O  O44  1  0.05415409  0.29417325  0.12164486  1
  O  O45  1  0.13376222  0.13893510  0.46509001  1
  O  O46  1  0.20506520  0.56881082  0.35345762  1
  O  O47  1  0.44584591  0.20582675  0.62164486  1
  O  O48  1  0.94584591  0.70582675  0.87835514  1
  O  O49  1  0.78715082  0.39786803  0.84469895  1
  O  O50  1  0.64459421  0.63799056  0.53502033  1
  O  O51  1  0.11833224  0.14573276  0.78159985  1
  O  O52  1  0.88166776  0.85426724  0.21840015  1
  O  O53  1  0.67268534  0.07135350  0.60830911  1
  O  O54  1  0.29493480  0.93118918  0.85345762  1
  O  O55  1  0.61833224  0.64573276  0.71840015  1
  O  O56  1  0.86623778  0.86106490  0.53490999  1
  O  O57  1  0.85540579  0.86200944  0.03502033  1
  O  O58  1  0.80306992  0.38928564  0.39052289  1
  O  O59  1  0.36623778  0.36106490  0.96509001  1
  O  O60  1  0.30306992  0.88928564  0.10947711  1
  O  O61  1  0.79493480  0.43118918  0.64654238  1
  O  O62  1  0.66194044  0.63058381  0.21758400  1
  O  O63  1  0.14459421  0.13799056  0.96497967  1
  O  O64  1  0.47657619  0.19882093  0.12058720  1
  O  O65  1  0.17268534  0.57135350  0.89169089  1
  O  O66  1  0.52342381  0.80117907  0.87941280  1
  O  O67  1  0.63376222  0.63893510  0.03490999  1
  O  O68  1  0.97657619  0.69882093  0.37941280  1
  O  O69  1  0.69693008  0.11071436  0.89052289  1
  O  O70  1  0.02342381  0.30117907  0.62058720  1
  O  O71  1  0.38166776  0.35426724  0.28159985  1
  O  O72  1  0.55415409  0.79417325  0.37835514  1
  O  O73  1  0.28715082  0.89786803  0.65530105  1
  O  O74  1  0.83805956  0.86941619  0.71758400  1
  O  O75  1  0.70506520  0.06881082  0.14654238  1
  O  O76  1  0.33805956  0.36941619  0.78241600  1
  O  O77  1  0.71284918  0.10213197  0.34469895  1
  O  O78  1  0.16194044  0.13058381  0.28241600  1
  O  O79  1  0.32731466  0.92864650  0.39169089  1
