# generated using pymatgen
data_NaLiYb2F8
_symmetry_space_group_name_H-M   'P 1'
_cell_length_a   6.56990142
_cell_length_b   6.56990079
_cell_length_c   7.30869001
_cell_angle_alpha   90.11962050
_cell_angle_beta   89.88037952
_cell_angle_gamma   99.11943686
_symmetry_Int_Tables_number   1
_chemical_formula_structural   NaLiYb2F8
_chemical_formula_sum   'Na2 Li2 Yb4 F16'
_cell_volume   311.48070127
_cell_formula_units_Z   2
loop_
 _symmetry_equiv_pos_site_id
 _symmetry_equiv_pos_as_xyz
  1  'x, y, z'
loop_
 _atom_site_type_symbol
 _atom_site_label
 _atom_site_symmetry_multiplicity
 _atom_site_fract_x
 _atom_site_fract_y
 _atom_site_fract_z
 _atom_site_occupancy
  Yb  Yb0  1  0.43955190  0.06616674  0.74752072  1
  Yb  Yb1  1  0.56044810  0.93383326  0.25247928  1
  Yb  Yb2  1  0.06616674  0.43955190  0.75247928  1
  Yb  Yb3  1  0.93383326  0.56044810  0.24752072  1
  Na  Na4  1  0.33101378  0.33101378  0.25000000  1
  Na  Na5  1  0.66898622  0.66898622  0.75000000  1
  Li  Li6  1  0.00000000  0.00000000  0.00000000  1
  Li  Li7  1  0.00000000  0.00000000  0.50000000  1
  F  F8  1  0.41594581  0.41594581  0.75000000  1
  F  F9  1  0.58405419  0.58405419  0.25000000  1
  F  F10  1  0.33883590  0.06505490  0.04661546  1
  F  F11  1  0.66116410  0.93494510  0.95338454  1
  F  F12  1  0.72464020  0.30644123  0.74917187  1
  F  F13  1  0.69355877  0.27535980  0.24917187  1
  F  F14  1  0.06505490  0.33883590  0.45338454  1
  F  F15  1  0.93462694  0.66671143  0.95071871  1
  F  F16  1  0.27535980  0.69355877  0.25082813  1
  F  F17  1  0.93494510  0.66116410  0.54661546  1
  F  F18  1  0.33328857  0.06537306  0.45071871  1
  F  F19  1  0.91228295  0.91228295  0.25000000  1
  F  F20  1  0.66671143  0.93462694  0.54928129  1
  F  F21  1  0.30644123  0.72464020  0.75082813  1
  F  F22  1  0.06537306  0.33328857  0.04928129  1
  F  F23  1  0.08771705  0.08771705  0.75000000  1
