# generated using pymatgen
data_CaEu2(CuO3)2
_symmetry_space_group_name_H-M   'P 1'
_cell_length_a   6.30627276
_cell_length_b   6.24236543
_cell_length_c   8.29224727
_cell_angle_alpha   112.11072008
_cell_angle_beta   104.55401296
_cell_angle_gamma   90.00000787
_symmetry_Int_Tables_number   1
_chemical_formula_structural   CaEu2(CuO3)2
_chemical_formula_sum   'Ca2 Eu4 Cu4 O12'
_cell_volume   291.08917151
_cell_formula_units_Z   2
loop_
 _symmetry_equiv_pos_site_id
 _symmetry_equiv_pos_as_xyz
  1  'x, y, z'
loop_
 _atom_site_type_symbol
 _atom_site_label
 _atom_site_symmetry_multiplicity
 _atom_site_fract_x
 _atom_site_fract_y
 _atom_site_fract_z
 _atom_site_occupancy
  Ca  Ca0  1  0.75000000  0.94786486  0.00000000  1
  Ca  Ca1  1  0.25000000  0.05213514  1.00000000  1
  Eu  Eu2  1  0.77972628  0.99066196  0.60578750  1
  Eu  Eu3  1  0.22027372  0.00933804  0.39421250  1
  Eu  Eu4  1  0.72027372  0.38487446  0.39421250  1
  Eu  Eu5  1  0.27972628  0.61512554  0.60578750  1
  Cu  Cu6  1  0.99892337  0.48799964  0.16576648  1
  Cu  Cu7  1  0.00107663  0.51200036  0.83423352  1
  Cu  Cu8  1  0.49892337  0.67776684  0.16576648  1
  Cu  Cu9  1  0.50107663  0.32223316  0.83423352  1
  O  O10  1  0.48589479  0.69509394  0.40181130  1
  O  O11  1  0.02404961  0.72639860  0.07859683  1
  O  O12  1  0.51410521  0.30490606  0.59818870  1
  O  O13  1  0.47546959  0.99327460  0.76233921  1
  O  O14  1  0.52452941  0.00672540  0.23766079  1
  O  O15  1  0.02453041  0.23093439  0.23766079  1
  O  O16  1  0.97595039  0.27360140  0.92140317  1
  O  O17  1  0.47595039  0.64780277  0.92140317  1
  O  O18  1  0.97546959  0.76906561  0.76233921  1
  O  O19  1  0.52404961  0.35219723  0.07859683  1
  O  O20  1  0.01410521  0.29328364  0.59818870  1
  O  O21  1  0.98589479  0.70671636  0.40181130  1
