# generated using pymatgen
data_Sr2Cu(BO3)2
_symmetry_space_group_name_H-M   'P 1'
_cell_length_a   7.81744488
_cell_length_b   10.84098586
_cell_length_c   13.70343325
_cell_angle_alpha   90.00000000
_cell_angle_beta   90.00000000
_cell_angle_gamma   90.00000000
_symmetry_Int_Tables_number   1
_chemical_formula_structural   Sr2Cu(BO3)2
_chemical_formula_sum   'Sr16 Cu8 B16 O48'
_cell_volume   1161.34965270
_cell_formula_units_Z   8
loop_
 _symmetry_equiv_pos_site_id
 _symmetry_equiv_pos_as_xyz
  1  'x, y, z'
loop_
 _atom_site_type_symbol
 _atom_site_label
 _atom_site_symmetry_multiplicity
 _atom_site_fract_x
 _atom_site_fract_y
 _atom_site_fract_z
 _atom_site_occupancy
  Sr  Sr0  1  0.38564099  0.25000000  0.95480682  1
  Sr  Sr1  1  0.66421175  0.47655144  0.78347841  1
  Sr  Sr2  1  0.83578825  0.97655144  0.28347841  1
  Sr  Sr3  1  0.16421175  0.02344856  0.71652159  1
  Sr  Sr4  1  0.33578825  0.97655144  0.21652159  1
  Sr  Sr5  1  0.66421175  0.02344856  0.78347841  1
  Sr  Sr6  1  0.33578825  0.52344856  0.21652159  1
  Sr  Sr7  1  0.50000000  0.50000000  0.50000000  1
  Sr  Sr8  1  0.61435901  0.75000000  0.04519318  1
  Sr  Sr9  1  0.16421175  0.47655144  0.71652159  1
  Sr  Sr10  1  0.00000000  0.00000000  0.00000000  1
  Sr  Sr11  1  0.50000000  0.00000000  0.50000000  1
  Sr  Sr12  1  0.83578825  0.52344856  0.28347841  1
  Sr  Sr13  1  0.00000000  0.50000000  0.00000000  1
  Sr  Sr14  1  0.11435901  0.75000000  0.45480682  1
  Sr  Sr15  1  0.88564099  0.25000000  0.54519318  1
  Cu  Cu16  1  0.53145756  0.25000000  0.20000963  1
  Cu  Cu17  1  0.96854244  0.75000000  0.70000963  1
  Cu  Cu18  1  0.80718396  0.25000000  0.92996498  1
  Cu  Cu19  1  0.46854244  0.75000000  0.79999037  1
  Cu  Cu20  1  0.69281604  0.75000000  0.42996498  1
  Cu  Cu21  1  0.03145756  0.25000000  0.29999037  1
  Cu  Cu22  1  0.30718396  0.25000000  0.57003502  1
  Cu  Cu23  1  0.19281604  0.75000000  0.07003502  1
  B  B24  1  0.63167779  0.43708164  0.06762988  1
  B  B25  1  0.98416257  0.25000000  0.78847361  1
  B  B26  1  0.92848234  0.75000000  0.87164737  1
  B  B27  1  0.36832221  0.56291836  0.93237012  1
  B  B28  1  0.57151766  0.25000000  0.37164737  1
  B  B29  1  0.36832221  0.93708164  0.93237012  1
  B  B30  1  0.63167779  0.06291836  0.06762988  1
  B  B31  1  0.86832221  0.93708164  0.56762988  1
  B  B32  1  0.48416257  0.25000000  0.71152639  1
  B  B33  1  0.01583743  0.75000000  0.21152639  1
  B  B34  1  0.86832221  0.56291836  0.56762988  1
  B  B35  1  0.13167779  0.06291836  0.43237012  1
  B  B36  1  0.42848234  0.75000000  0.62835263  1
  B  B37  1  0.07151766  0.25000000  0.12835263  1
  B  B38  1  0.13167779  0.43708164  0.43237012  1
  B  B39  1  0.51583743  0.75000000  0.28847361  1
  O  O40  1  0.56183255  0.64068905  0.33544319  1
  O  O41  1  0.19896316  0.39892376  0.52201998  1
  O  O42  1  0.79689044  0.03581309  0.61457446  1
  O  O43  1  0.01301126  0.87600597  0.60389666  1
  O  O44  1  0.06896452  0.25000000  0.70192661  1
  O  O45  1  0.48698874  0.12399403  0.10389666  1
  O  O46  1  0.30103684  0.89892376  0.02201998  1
  O  O47  1  0.06183255  0.64068905  0.16455681  1
  O  O48  1  0.93103548  0.75000000  0.29807339  1
  O  O49  1  0.06205473  0.14103883  0.18466670  1
  O  O50  1  0.29689044  0.46418691  0.88542554  1
  O  O51  1  0.08621573  0.25000000  0.02995677  1
  O  O52  1  0.19896316  0.10107624  0.52201998  1
  O  O53  1  0.80103684  0.60107624  0.47798002  1
  O  O54  1  0.93816745  0.14068905  0.83544319  1
  O  O55  1  0.56205473  0.14103883  0.31533330  1
  O  O56  1  0.51301126  0.62399403  0.89610334  1
  O  O57  1  0.56896452  0.25000000  0.79807339  1
  O  O58  1  0.93816745  0.35931095  0.83544319  1
  O  O59  1  0.56183255  0.85931095  0.33544319  1
  O  O60  1  0.06183255  0.85931095  0.16455681  1
  O  O61  1  0.98698874  0.12399403  0.39610334  1
  O  O62  1  0.56205473  0.35896117  0.31533330  1
  O  O63  1  0.98698874  0.37600597  0.39610334  1
  O  O64  1  0.01301126  0.62399403  0.60389666  1
  O  O65  1  0.30103684  0.60107624  0.02201998  1
  O  O66  1  0.48698874  0.37600597  0.10389666  1
  O  O67  1  0.58621573  0.25000000  0.47004323  1
  O  O68  1  0.69896316  0.10107624  0.97798002  1
  O  O69  1  0.91378427  0.75000000  0.97004323  1
  O  O70  1  0.20310956  0.53581309  0.38542554  1
  O  O71  1  0.43816745  0.14068905  0.66455681  1
  O  O72  1  0.69896316  0.39892376  0.97798002  1
  O  O73  1  0.70310956  0.96418691  0.11457446  1
  O  O74  1  0.43816745  0.35931095  0.66455681  1
  O  O75  1  0.93794527  0.85896117  0.81533330  1
  O  O76  1  0.43103548  0.75000000  0.20192661  1
  O  O77  1  0.29689044  0.03581309  0.88542554  1
  O  O78  1  0.20310956  0.96418691  0.38542554  1
  O  O79  1  0.93794527  0.64103883  0.81533330  1
  O  O80  1  0.51301126  0.87600597  0.89610334  1
  O  O81  1  0.06205473  0.35896117  0.18466670  1
  O  O82  1  0.80103684  0.89892376  0.47798002  1
  O  O83  1  0.70310956  0.53581309  0.11457446  1
  O  O84  1  0.43794527  0.85896117  0.68466670  1
  O  O85  1  0.41378427  0.75000000  0.52995677  1
  O  O86  1  0.43794527  0.64103883  0.68466670  1
  O  O87  1  0.79689044  0.46418691  0.61457446  1
