# generated using pymatgen
data_CaH6C2O7
_symmetry_space_group_name_H-M   'P 1'
_cell_length_a   6.23017642
_cell_length_b   7.21848875
_cell_length_c   8.48109674
_cell_angle_alpha   75.04788162
_cell_angle_beta   69.90178890
_cell_angle_gamma   69.23114649
_symmetry_Int_Tables_number   1
_chemical_formula_structural   CaH6C2O7
_chemical_formula_sum   'Ca2 H12 C4 O14'
_cell_volume   330.86268644
_cell_formula_units_Z   2
loop_
 _symmetry_equiv_pos_site_id
 _symmetry_equiv_pos_as_xyz
  1  'x, y, z'
loop_
 _atom_site_type_symbol
 _atom_site_label
 _atom_site_symmetry_multiplicity
 _atom_site_fract_x
 _atom_site_fract_y
 _atom_site_fract_z
 _atom_site_occupancy
  Ca  Ca0  1  0.09982313  0.27184632  0.69406144  1
  Ca  Ca1  1  0.90017687  0.72815368  0.30593856  1
  H  H2  1  0.76033526  0.01255121  0.57496288  1
  H  H3  1  0.30764666  0.85503209  0.87284439  1
  H  H4  1  0.79723639  0.99571306  0.91818415  1
  H  H5  1  0.14603584  0.21760623  0.33896968  1
  H  H6  1  0.85396416  0.78239377  0.66103032  1
  H  H7  1  0.47755379  0.87720664  0.68627550  1
  H  H8  1  0.64246070  0.18797913  0.81962185  1
  H  H9  1  0.69235334  0.14496791  0.12715561  1
  H  H10  1  0.52244621  0.12279336  0.31372450  1
  H  H11  1  0.20276361  0.00428694  0.08181585  1
  H  H12  1  0.35753930  0.81202087  0.18037815  1
  H  H13  1  0.23966474  0.98744879  0.42503712  1
  C  C14  1  0.57972833  0.42708375  0.55718095  1
  C  C15  1  0.05643220  0.39933302  0.05199564  1
  C  C16  1  0.94356780  0.60066698  0.94800436  1
  C  C17  1  0.42027167  0.57291625  0.44281905  1
  O  O18  1  0.78828192  0.87313933  0.56543053  1
  O  O19  1  0.76400061  0.14447292  0.88323268  1
  O  O20  1  0.21171808  0.12686067  0.43456947  1
  O  O21  1  0.30755606  0.90815830  0.75355667  1
  O  O22  1  0.06133067  0.40912617  0.19781285  1
  O  O23  1  0.23451890  0.53414924  0.44974212  1
  O  O24  1  0.49082499  0.72169298  0.35053340  1
  O  O25  1  0.93866933  0.59087383  0.80218715  1
  O  O26  1  0.50917501  0.27830702  0.64946660  1
  O  O27  1  0.86639927  0.75597560  0.01729333  1
  O  O28  1  0.76548110  0.46585076  0.55025788  1
  O  O29  1  0.13360073  0.24402440  0.98270667  1
  O  O30  1  0.23599939  0.85552708  0.11676732  1
  O  O31  1  0.69244394  0.09184170  0.24644333  1
