# generated using pymatgen
data_RbPrP3HO10
_symmetry_space_group_name_H-M   'P 1'
_cell_length_a   7.19857554
_cell_length_b   7.98370857
_cell_length_c   9.07175364
_cell_angle_alpha   70.67290741
_cell_angle_beta   73.19278606
_cell_angle_gamma   82.67487444
_symmetry_Int_Tables_number   1
_chemical_formula_structural   RbPrP3HO10
_chemical_formula_sum   'Rb2 Pr2 P6 H2 O20'
_cell_volume   470.67597539
_cell_formula_units_Z   2
loop_
 _symmetry_equiv_pos_site_id
 _symmetry_equiv_pos_as_xyz
  1  'x, y, z'
loop_
 _atom_site_type_symbol
 _atom_site_label
 _atom_site_symmetry_multiplicity
 _atom_site_fract_x
 _atom_site_fract_y
 _atom_site_fract_z
 _atom_site_occupancy
  Rb  Rb0  1  0.26447761  0.33359138  0.96476170  1
  Rb  Rb1  1  0.73552239  0.66640862  0.03523830  1
  Pr  Pr2  1  0.72358246  0.63417086  0.51467814  1
  Pr  Pr3  1  0.27641754  0.36582914  0.48532186  1
  P  P4  1  0.82757057  0.32068494  0.35472119  1
  P  P5  1  0.82888925  0.22146818  0.81064717  1
  P  P6  1  0.17111075  0.77853182  0.18935283  1
  P  P7  1  0.35227761  0.96233297  0.35661229  1
  P  P8  1  0.17242943  0.67931506  0.64527881  1
  P  P9  1  0.64772239  0.03766703  0.64338771  1
  H  H10  1  0.33386070  0.90463372  0.92781522  1
  H  H11  1  0.66613930  0.09536628  0.07218478  1
  O  O12  1  0.79494437  0.12689986  0.99945077  1
  O  O13  1  0.95233078  0.37245516  0.44464357  1
  O  O14  1  0.45619321  0.13921643  0.67444780  1
  O  O15  1  0.36621460  0.56749449  0.61657679  1
  O  O16  1  0.64199200  0.83920975  0.67879437  1
  O  O17  1  0.77205457  0.11260143  0.45925875  1
  O  O18  1  0.22385302  0.93834357  0.24578304  1
  O  O19  1  0.08281515  0.67195804  0.81636162  1
  O  O20  1  0.22794543  0.88739857  0.54074125  1
  O  O21  1  0.54380679  0.86078357  0.32555220  1
  O  O22  1  0.77614698  0.06165643  0.75421696  1
  O  O23  1  0.35800800  0.16079025  0.32120563  1
  O  O24  1  0.95617814  0.75210105  0.25257321  1
  O  O25  1  0.91718485  0.32804196  0.18363838  1
  O  O26  1  0.30871929  0.61882444  0.22789966  1
  O  O27  1  0.69128071  0.38117556  0.77210034  1
  O  O28  1  0.04766922  0.62754484  0.55535643  1
  O  O29  1  0.63378540  0.43250551  0.38342321  1
  O  O30  1  0.04382186  0.24789895  0.74742679  1
  O  O31  1  0.20505563  0.87310014  0.00054923  1
