# generated using pymatgen
data_YbPrO3
_symmetry_space_group_name_H-M   'P 1'
_cell_length_a   6.10031450
_cell_length_b   5.81704545
_cell_length_c   8.55177137
_cell_angle_alpha   90.00000000
_cell_angle_beta   90.00000000
_cell_angle_gamma   90.00000000
_symmetry_Int_Tables_number   1
_chemical_formula_structural   YbPrO3
_chemical_formula_sum   'Yb4 Pr4 O12'
_cell_volume   303.46650583
_cell_formula_units_Z   4
loop_
 _symmetry_equiv_pos_site_id
 _symmetry_equiv_pos_as_xyz
  1  'x, y, z'
loop_
 _atom_site_type_symbol
 _atom_site_label
 _atom_site_symmetry_multiplicity
 _atom_site_fract_x
 _atom_site_fract_y
 _atom_site_fract_z
 _atom_site_occupancy
  Yb  Yb0  1  0.00000000  0.00000000  -0.00000000  1
  Yb  Yb1  1  0.50000000  0.50000000  -0.00000000  1
  Yb  Yb2  1  -0.00000000  -0.00000000  0.50000000  1
  Yb  Yb3  1  0.50000000  0.50000000  0.50000000  1
  Pr  Pr4  1  0.56597522  0.97313913  0.75000000  1
  Pr  Pr5  1  0.43402478  0.02686087  0.25000000  1
  Pr  Pr6  1  0.93402478  0.47313913  0.25000000  1
  Pr  Pr7  1  0.06597522  0.52686087  0.75000000  1
  O  O8  1  0.80515766  0.69518797  0.92290581  1
  O  O9  1  0.19484234  0.30481203  0.07709419  1
  O  O10  1  0.69484234  0.19518797  0.07709419  1
  O  O11  1  0.19484234  0.30481203  0.42290581  1
  O  O12  1  0.30515766  0.80481203  0.92290581  1
  O  O13  1  0.80515766  0.69518797  0.57709419  1
  O  O14  1  0.30515766  0.80481203  0.57709419  1
  O  O15  1  0.69484234  0.19518797  0.42290581  1
  O  O16  1  0.43222052  0.35538524  0.75000000  1
  O  O17  1  0.56777948  0.64461476  0.25000000  1
  O  O18  1  0.06777948  0.85538524  0.25000000  1
  O  O19  1  0.93222052  0.14461476  0.75000000  1
