# generated using pymatgen
data_KCSN
_symmetry_space_group_name_H-M   'P 1'
_cell_length_a   7.59600867
_cell_length_b   8.15713199
_cell_length_c   6.67945395
_cell_angle_alpha   90.00054594
_cell_angle_beta   89.99824363
_cell_angle_gamma   90.01971552
_symmetry_Int_Tables_number   1
_chemical_formula_structural   KCSN
_chemical_formula_sum   'K4 C4 S4 N4'
_cell_volume   413.86993204
_cell_formula_units_Z   4
loop_
 _symmetry_equiv_pos_site_id
 _symmetry_equiv_pos_as_xyz
  1  'x, y, z'
loop_
 _atom_site_type_symbol
 _atom_site_label
 _atom_site_symmetry_multiplicity
 _atom_site_fract_x
 _atom_site_fract_y
 _atom_site_fract_z
 _atom_site_occupancy
  K  K0  1  0.00661919  0.23522935  0.75001826  1
  K  K1  1  0.49339639  0.23463386  0.24999186  1
  K  K2  1  0.99324519  0.76417691  0.24999207  1
  K  K3  1  0.50669589  0.76549212  0.75001338  1
  C  C4  1  0.43703976  0.81302261  0.24999207  1
  C  C5  1  0.56242884  0.18750396  0.74999826  1
  C  C6  1  0.06240864  0.81345868  0.74999069  1
  C  C7  1  0.93814105  0.18651848  0.25000904  1
  S  S8  1  0.57118522  0.65538024  0.25001466  1
  S  S9  1  0.07159035  0.34397493  0.25002921  1
  S  S10  1  0.92830382  0.65575117  0.74999392  1
  S  S11  1  0.42858529  0.34453403  0.74998437  1
  N  N12  1  0.83967751  0.07312566  0.24999428  1
  N  N13  1  0.33857124  0.92622998  0.24997536  1
  N  N14  1  0.66109922  0.07431669  0.75000940  1
  N  N15  1  0.16101441  0.92665133  0.74999416  1
