# generated using pymatgen
data_Ti(AlCl4)2
_symmetry_space_group_name_H-M   'P 1'
_cell_length_a   6.05429468
_cell_length_b   7.83732701
_cell_length_c   14.22392092
_cell_angle_alpha   90.00000000
_cell_angle_beta   86.45507846
_cell_angle_gamma   90.00000000
_symmetry_Int_Tables_number   1
_chemical_formula_structural   Ti(AlCl4)2
_chemical_formula_sum   'Ti2 Al4 Cl16'
_cell_volume   673.62638554
_cell_formula_units_Z   2
loop_
 _symmetry_equiv_pos_site_id
 _symmetry_equiv_pos_as_xyz
  1  'x, y, z'
loop_
 _atom_site_type_symbol
 _atom_site_label
 _atom_site_symmetry_multiplicity
 _atom_site_fract_x
 _atom_site_fract_y
 _atom_site_fract_z
 _atom_site_occupancy
  Ti  Ti0  1  0.00000000  0.00000000  0.00000000  1
  Ti  Ti1  1  0.00000000  0.50000000  0.50000000  1
  Al  Al2  1  0.62174017  0.74940376  0.91089474  1
  Al  Al3  1  0.37825983  0.24940376  0.58910526  1
  Al  Al4  1  0.37825983  0.25059624  0.08910526  1
  Al  Al5  1  0.62174017  0.75059624  0.41089474  1
  Cl  Cl6  1  0.29250574  0.02764555  0.66623411  1
  Cl  Cl7  1  0.25325566  0.24656096  0.94768557  1
  Cl  Cl8  1  0.77586437  0.51732158  0.35343446  1
  Cl  Cl9  1  0.74051886  0.27422338  0.57992403  1
  Cl  Cl10  1  0.74674434  0.75343904  0.05231443  1
  Cl  Cl11  1  0.70749426  0.52764555  0.83376589  1
  Cl  Cl12  1  0.25948114  0.77422338  0.92007597  1
  Cl  Cl13  1  0.29250574  0.47235445  0.16623411  1
  Cl  Cl14  1  0.25948114  0.72577662  0.42007597  1
  Cl  Cl15  1  0.25325566  0.25343904  0.44768557  1
  Cl  Cl16  1  0.22413563  0.48267842  0.64656554  1
  Cl  Cl17  1  0.74051886  0.22577662  0.07992403  1
  Cl  Cl18  1  0.74674434  0.74656096  0.55231443  1
  Cl  Cl19  1  0.22413563  0.01732158  0.14656554  1
  Cl  Cl20  1  0.77586437  0.98267842  0.85343446  1
  Cl  Cl21  1  0.70749426  0.97235445  0.33376589  1
