# generated using pymatgen
data_Yb11Ge10
_symmetry_space_group_name_H-M   'P 1'
_cell_length_a   10.91949919
_cell_length_b   10.91949915
_cell_length_c   11.56731448
_cell_angle_alpha   118.16406996
_cell_angle_beta   118.16406984
_cell_angle_gamma   89.99999996
_symmetry_Int_Tables_number   1
_chemical_formula_structural   Yb11Ge10
_chemical_formula_sum   'Yb22 Ge20'
_cell_volume   1026.98381579
_cell_formula_units_Z   2
loop_
 _symmetry_equiv_pos_site_id
 _symmetry_equiv_pos_as_xyz
  1  'x, y, z'
loop_
 _atom_site_type_symbol
 _atom_site_label
 _atom_site_symmetry_multiplicity
 _atom_site_fract_x
 _atom_site_fract_y
 _atom_site_fract_z
 _atom_site_occupancy
  Yb  Yb0  1  0.32018120  0.67981880  1.00000000  1
  Yb  Yb1  1  0.42259042  0.10482976  0.20965952  1
  Yb  Yb2  1  0.21293090  0.89517024  0.79034048  1
  Yb  Yb3  1  0.32173129  0.07265295  0.64346258  1
  Yb  Yb4  1  0.67981880  0.32018120  0.00000000  1
  Yb  Yb5  1  0.15732933  0.15732933  0.31465865  1
  Yb  Yb6  1  0.42919037  0.67826871  0.35653742  1
  Yb  Yb7  1  0.32018120  0.32018120  1.00000000  1
  Yb  Yb8  1  0.57740958  0.89517024  0.79034048  1
  Yb  Yb9  1  0.84267067  0.84267067  0.68534135  1
  Yb  Yb10  1  0.67826871  0.92734705  0.35653742  1
  Yb  Yb11  1  0.78706910  0.10482976  0.20965952  1
  Yb  Yb12  1  0.67826871  0.42919037  0.35653742  1
  Yb  Yb13  1  0.89517024  0.21293090  0.79034048  1
  Yb  Yb14  1  0.57080963  0.32173129  0.64346258  1
  Yb  Yb15  1  0.89517024  0.57740958  0.79034048  1
  Yb  Yb16  1  0.67981880  0.67981880  0.00000000  1
  Yb  Yb17  1  0.32173129  0.57080963  0.64346258  1
  Yb  Yb18  1  0.92734705  0.67826871  0.35653742  1
  Yb  Yb19  1  0.10482976  0.42259042  0.20965952  1
  Yb  Yb20  1  0.10482976  0.78706910  0.20965952  1
  Yb  Yb21  1  0.07265295  0.32173129  0.64346258  1
  Ge  Ge22  1  0.50000000  0.11937356  0.00000000  1
  Ge  Ge23  1  0.88243723  0.11756277  1.00000000  1
  Ge  Ge24  1  0.11756277  0.88243723  0.00000000  1
  Ge  Ge25  1  0.60383958  0.01665202  0.62049160  1
  Ge  Ge26  1  0.98334798  0.98334798  0.37950840  1
  Ge  Ge27  1  0.01665202  0.60383958  0.62049160  1
  Ge  Ge28  1  0.11756277  0.11756277  0.00000000  1
  Ge  Ge29  1  0.41460328  0.41460328  0.82920656  1
  Ge  Ge30  1  0.98334798  0.39616042  0.37950840  1
  Ge  Ge31  1  0.88243723  0.88243723  1.00000000  1
  Ge  Ge32  1  0.50000000  0.88062644  1.00000000  1
  Ge  Ge33  1  0.39616042  0.39616042  0.37950840  1
  Ge  Ge34  1  0.39616042  0.98334798  0.37950840  1
  Ge  Ge35  1  0.01665202  0.01665202  0.62049160  1
  Ge  Ge36  1  0.11937356  0.50000000  0.00000000  1
  Ge  Ge37  1  0.58539672  0.58539672  0.17079344  1
  Ge  Ge38  1  0.75000000  0.25000000  0.50000000  1
  Ge  Ge39  1  0.60383958  0.60383958  0.62049160  1
  Ge  Ge40  1  0.25000000  0.75000000  0.50000000  1
  Ge  Ge41  1  0.88062644  0.50000000  1.00000000  1
