# generated using pymatgen
data_Ta5Si3
_symmetry_space_group_name_H-M   'P 1'
_cell_length_a   5.09529526
_cell_length_b   7.53353195
_cell_length_c   7.53353195
_cell_angle_alpha   83.43317499
_cell_angle_beta   70.23430967
_cell_angle_gamma   70.23430967
_symmetry_Int_Tables_number   1
_chemical_formula_structural   Ta5Si3
_chemical_formula_sum   'Ta10 Si6'
_cell_volume   256.10784892
_cell_formula_units_Z   2
loop_
 _symmetry_equiv_pos_site_id
 _symmetry_equiv_pos_as_xyz
  1  'x, y, z'
loop_
 _atom_site_type_symbol
 _atom_site_label
 _atom_site_symmetry_multiplicity
 _atom_site_fract_x
 _atom_site_fract_y
 _atom_site_fract_z
 _atom_site_occupancy
  Ta  Ta0  1  0.71965163  0.85552330  0.70517344  1
  Ta  Ta1  1  0.28034837  0.14447670  0.29482656  1
  Ta  Ta2  1  0.78034837  0.29482656  0.14447670  1
  Ta  Ta3  1  0.21965163  0.70517344  0.85552330  1
  Ta  Ta4  1  0.57517493  0.70517344  0.14447670  1
  Ta  Ta5  1  0.42482507  0.29482656  0.85552330  1
  Ta  Ta6  1  0.07517493  0.14447670  0.70517344  1
  Ta  Ta7  1  0.92482507  0.85552330  0.29482656  1
  Ta  Ta8  1  0.75000000  0.50000000  0.50000000  1
  Ta  Ta9  1  0.25000000  0.50000000  0.50000000  1
  Si  Si10  1  0.16552754  0.50000000  0.16894493  1
  Si  Si11  1  0.83447246  0.50000000  0.83105507  1
  Si  Si12  1  0.33447246  0.83105507  0.50000000  1
  Si  Si13  1  0.66552754  0.16894493  0.50000000  1
  Si  Si14  1  0.25000000  -0.00000000  0.00000000  1
  Si  Si15  1  0.75000000  -0.00000000  -0.00000000  1
