# generated using pymatgen
data_MgTa2(CuO4)2
_symmetry_space_group_name_H-M   'P 1'
_cell_length_a   6.65169810
_cell_length_b   8.60947647
_cell_length_c   12.28383683
_cell_angle_alpha   90.00000000
_cell_angle_beta   92.03638324
_cell_angle_gamma   90.00000000
_symmetry_Int_Tables_number   1
_chemical_formula_structural   MgTa2(CuO4)2
_chemical_formula_sum   'Mg4 Ta8 Cu8 O32'
_cell_volume   703.02206035
_cell_formula_units_Z   4
loop_
 _symmetry_equiv_pos_site_id
 _symmetry_equiv_pos_as_xyz
  1  'x, y, z'
loop_
 _atom_site_type_symbol
 _atom_site_label
 _atom_site_symmetry_multiplicity
 _atom_site_fract_x
 _atom_site_fract_y
 _atom_site_fract_z
 _atom_site_occupancy
  Mg  Mg0  1  0.11116746  0.16037006  0.05075680  1
  Mg  Mg1  1  0.88883254  0.83962994  0.94924320  1
  Mg  Mg2  1  0.88883254  0.66037006  0.44924320  1
  Mg  Mg3  1  0.11116746  0.33962994  0.55075680  1
  Ta  Ta4  1  0.09698419  0.45593619  0.84400220  1
  Ta  Ta5  1  0.09698419  0.04406381  0.34400220  1
  Ta  Ta6  1  0.61444919  0.08722139  0.13597239  1
  Ta  Ta7  1  0.90301581  0.95593619  0.65599780  1
  Ta  Ta8  1  0.38555081  0.91277861  0.86402761  1
  Ta  Ta9  1  0.38555081  0.58722139  0.36402761  1
  Ta  Ta10  1  0.61444919  0.41277861  0.63597239  1
  Ta  Ta11  1  0.90301581  0.54406381  0.15599780  1
  Cu  Cu12  1  0.76662311  0.18407317  0.87729783  1
  Cu  Cu13  1  0.37365602  0.06048605  0.62277184  1
  Cu  Cu14  1  0.62634398  0.93951395  0.37722816  1
  Cu  Cu15  1  0.23337689  0.81592683  0.12270217  1
  Cu  Cu16  1  0.76662311  0.31592683  0.37729783  1
  Cu  Cu17  1  0.37365602  0.43951395  0.12277184  1
  Cu  Cu18  1  0.23337689  0.68407317  0.62270217  1
  Cu  Cu19  1  0.62634398  0.56048605  0.87722816  1
  O  O20  1  0.03946744  0.24370694  0.40023990  1
  O  O21  1  0.65240393  0.01671489  0.60213260  1
  O  O22  1  0.18635890  0.57565616  0.47196400  1
  O  O23  1  0.81364110  0.07565616  0.02803600  1
  O  O24  1  0.03946744  0.25629306  0.90023990  1
  O  O25  1  0.96053256  0.75629306  0.59976010  1
  O  O26  1  0.08660784  0.11149241  0.61210735  1
  O  O27  1  0.50014068  0.89587306  0.13865498  1
  O  O28  1  0.50014068  0.60412694  0.63865498  1
  O  O29  1  0.29683480  0.87363773  0.71556299  1
  O  O30  1  0.70316520  0.37363773  0.78443701  1
  O  O31  1  0.49985932  0.10412694  0.86134502  1
  O  O32  1  0.91339216  0.88850759  0.38789265  1
  O  O33  1  0.88418007  0.54452094  0.30526912  1
  O  O34  1  0.41159261  0.28019901  0.58550261  1
  O  O35  1  0.41159261  0.21980099  0.08550261  1
  O  O36  1  0.11581993  0.04452094  0.19473088  1
  O  O37  1  0.49985932  0.39587306  0.36134502  1
  O  O38  1  0.11581993  0.45547906  0.69473088  1
  O  O39  1  0.81364110  0.42434384  0.52803600  1
  O  O40  1  0.65240393  0.48328511  0.10213260  1
  O  O41  1  0.70316520  0.12636227  0.28443701  1
  O  O42  1  0.96053256  0.74370694  0.09976010  1
  O  O43  1  0.08660784  0.38850759  0.11210735  1
  O  O44  1  0.18635890  0.92434384  0.97196400  1
  O  O45  1  0.58840739  0.78019901  0.91449739  1
  O  O46  1  0.34759607  0.98328511  0.39786740  1
  O  O47  1  0.34759607  0.51671489  0.89786740  1
  O  O48  1  0.91339216  0.61149241  0.88789265  1
  O  O49  1  0.58840739  0.71980099  0.41449739  1
  O  O50  1  0.29683480  0.62636227  0.21556299  1
  O  O51  1  0.88418007  0.95547906  0.80526912  1
