# generated using pymatgen
data_YbCeO3
_symmetry_space_group_name_H-M   'P 1'
_cell_length_a   5.93770304
_cell_length_b   5.74674863
_cell_length_c   8.45043807
_cell_angle_alpha   90.00000000
_cell_angle_beta   90.00000000
_cell_angle_gamma   90.00000000
_symmetry_Int_Tables_number   1
_chemical_formula_structural   YbCeO3
_chemical_formula_sum   'Yb4 Ce4 O12'
_cell_volume   288.34996159
_cell_formula_units_Z   4
loop_
 _symmetry_equiv_pos_site_id
 _symmetry_equiv_pos_as_xyz
  1  'x, y, z'
loop_
 _atom_site_type_symbol
 _atom_site_label
 _atom_site_symmetry_multiplicity
 _atom_site_fract_x
 _atom_site_fract_y
 _atom_site_fract_z
 _atom_site_occupancy
  Yb  Yb0  1  -0.00000000  0.00000000  -0.00000000  1
  Yb  Yb1  1  0.50000000  0.50000000  -0.00000000  1
  Yb  Yb2  1  0.00000000  0.00000000  0.50000000  1
  Yb  Yb3  1  0.50000000  0.50000000  0.50000000  1
  Ce  Ce4  1  0.54752165  0.98421909  0.75000000  1
  Ce  Ce5  1  0.45247835  0.01578091  0.25000000  1
  Ce  Ce6  1  0.95247835  0.48421909  0.25000000  1
  Ce  Ce7  1  0.04752165  0.51578091  0.75000000  1
  O  O8  1  0.82631151  0.67134907  0.91758140  1
  O  O9  1  0.17368849  0.32865093  0.08241860  1
  O  O10  1  0.67368849  0.17134907  0.08241860  1
  O  O11  1  0.17368849  0.32865093  0.41758140  1
  O  O12  1  0.32631151  0.82865093  0.91758140  1
  O  O13  1  0.82631151  0.67134907  0.58241860  1
  O  O14  1  0.32631151  0.82865093  0.58241860  1
  O  O15  1  0.67368849  0.17134907  0.41758140  1
  O  O16  1  0.40383747  0.34023008  0.75000000  1
  O  O17  1  0.59616253  0.65976992  0.25000000  1
  O  O18  1  0.09616253  0.84023008  0.25000000  1
  O  O19  1  0.90383747  0.15976992  0.75000000  1
