# generated using pymatgen
data_VHO3
_symmetry_space_group_name_H-M   'P 1'
_cell_length_a   5.04568854
_cell_length_b   8.69704856
_cell_length_c   7.87183598
_cell_angle_alpha   90.00000000
_cell_angle_beta   103.97230235
_cell_angle_gamma   90.00000000
_symmetry_Int_Tables_number   1
_chemical_formula_structural   VHO3
_chemical_formula_sum   'V6 H6 O18'
_cell_volume   335.21603156
_cell_formula_units_Z   6
loop_
 _symmetry_equiv_pos_site_id
 _symmetry_equiv_pos_as_xyz
  1  'x, y, z'
loop_
 _atom_site_type_symbol
 _atom_site_label
 _atom_site_symmetry_multiplicity
 _atom_site_fract_x
 _atom_site_fract_y
 _atom_site_fract_z
 _atom_site_occupancy
  V  V0  1  0.46883669  0.44223712  0.18598962  1
  V  V1  1  0.53116331  0.94223712  0.81401038  1
  V  V2  1  0.52975632  0.55074627  0.81500406  1
  V  V3  1  0.47024368  0.05074627  0.18499594  1
  V  V4  1  0.94268913  0.24684911  0.07813197  1
  V  V5  1  0.05731087  0.74684911  0.92186803  1
  H  H6  1  0.08698196  0.15452846  0.57829081  1
  H  H7  1  0.83041110  0.25299660  0.44038632  1
  H  H8  1  0.09824337  0.33714366  0.59234889  1
  H  H9  1  0.91301804  0.65452846  0.42170919  1
  H  H10  1  0.16958890  0.75299660  0.55961368  1
  H  H11  1  0.90175663  0.83714366  0.40765111  1
  O  O12  1  0.67684214  0.40647139  0.00349833  1
  O  O13  1  0.32315786  0.90647139  0.99650167  1
  O  O14  1  0.32266527  0.58720871  0.99691258  1
  O  O15  1  0.67733473  0.08720871  0.00308742  1
  O  O16  1  0.15233097  0.39505262  0.23348346  1
  O  O17  1  0.84766903  0.89505262  0.76651654  1
  O  O18  1  0.84535467  0.59709337  0.76708474  1
  O  O19  1  0.15464533  0.09709337  0.23291526  1
  O  O20  1  0.63443416  0.24694469  0.26397545  1
  O  O21  1  0.36556584  0.74694469  0.73602455  1
  O  O22  1  0.12014615  0.24657784  0.93117648  1
  O  O23  1  0.87985385  0.74657784  0.06882352  1
  O  O24  1  0.63607532  0.55183726  0.34463497  1
  O  O25  1  0.36392468  0.05183726  0.65536503  1
  O  O26  1  0.35937064  0.43975541  0.65846132  1
  O  O27  1  0.64062936  0.93975541  0.34153868  1
  O  O28  1  0.96463487  0.24774650  0.56356517  1
  O  O29  1  0.03536513  0.74774650  0.43643483  1
