# generated using pymatgen
data_YbH2
_symmetry_space_group_name_H-M   'P 1'
_cell_length_a   5.07578464
_cell_length_b   3.79032236
_cell_length_c   6.56602164
_cell_angle_alpha   90.00000000
_cell_angle_beta   90.00000000
_cell_angle_gamma   90.00000000
_symmetry_Int_Tables_number   1
_chemical_formula_structural   YbH2
_chemical_formula_sum   'Yb4 H8'
_cell_volume   126.32277119
_cell_formula_units_Z   4
loop_
 _symmetry_equiv_pos_site_id
 _symmetry_equiv_pos_as_xyz
  1  'x, y, z'
loop_
 _atom_site_type_symbol
 _atom_site_label
 _atom_site_symmetry_multiplicity
 _atom_site_fract_x
 _atom_site_fract_y
 _atom_site_fract_z
 _atom_site_occupancy
  Yb  Yb0  1  0.75027863  0.25000000  0.41766071  1
  Yb  Yb1  1  0.25027863  0.25000000  0.08233929  1
  Yb  Yb2  1  0.24972137  0.75000000  0.58233929  1
  Yb  Yb3  1  0.74972137  0.75000000  0.91766071  1
  H  H4  1  0.74577984  0.25000000  0.08384855  1
  H  H5  1  0.24577984  0.25000000  0.41615145  1
  H  H6  1  0.25422016  0.75000000  0.91615145  1
  H  H7  1  0.75422016  0.75000000  0.58384855  1
  H  H8  1  0.49967745  0.25000000  0.74721106  1
  H  H9  1  0.99967745  0.25000000  0.75278894  1
  H  H10  1  0.50032255  0.75000000  0.25278894  1
  H  H11  1  0.00032255  0.75000000  0.24721106  1
