# generated using pymatgen
data_BaYb2NiO5
_symmetry_space_group_name_H-M   'P 1'
_cell_length_a   5.63833265
_cell_length_b   6.99663555
_cell_length_c   12.13696692
_cell_angle_alpha   90.00000000
_cell_angle_beta   90.00000000
_cell_angle_gamma   90.00000000
_symmetry_Int_Tables_number   1
_chemical_formula_structural   BaYb2NiO5
_chemical_formula_sum   'Ba4 Yb8 Ni4 O20'
_cell_volume   478.79556109
_cell_formula_units_Z   4
loop_
 _symmetry_equiv_pos_site_id
 _symmetry_equiv_pos_as_xyz
  1  'x, y, z'
loop_
 _atom_site_type_symbol
 _atom_site_label
 _atom_site_symmetry_multiplicity
 _atom_site_fract_x
 _atom_site_fract_y
 _atom_site_fract_z
 _atom_site_occupancy
  O  O0  1  0.25000000  0.44315881  0.60609510  1
  O  O1  1  0.75000000  0.55684119  0.39390490  1
  O  O2  1  0.75000000  0.94315881  0.89390490  1
  O  O3  1  0.25000000  0.05684119  0.10609510  1
  O  O4  1  0.01408525  0.84715752  0.26662434  1
  O  O5  1  0.51408525  0.15284248  0.73337566  1
  O  O6  1  0.98591475  0.34715752  0.23337566  1
  O  O7  1  0.48591475  0.65284248  0.76662434  1
  O  O8  1  0.98591475  0.15284248  0.73337566  1
  O  O9  1  0.48591475  0.84715752  0.26662434  1
  O  O10  1  0.01408525  0.65284248  0.76662434  1
  O  O11  1  0.51408525  0.34715752  0.23337566  1
  O  O12  1  0.47926977  0.68391968  0.06331348  1
  O  O13  1  0.97926977  0.31608032  0.93668652  1
  O  O14  1  0.52073023  0.18391968  0.43668652  1
  O  O15  1  0.02073023  0.81608032  0.56331348  1
  O  O16  1  0.97926977  0.18391968  0.43668652  1
  O  O17  1  0.47926977  0.81608032  0.56331348  1
  O  O18  1  0.02073023  0.68391968  0.06331348  1
  O  O19  1  0.52073023  0.31608032  0.93668652  1
  Ni  Ni20  1  0.25000000  0.79629444  0.15713074  1
  Ni  Ni21  1  0.75000000  0.20370556  0.84286926  1
  Ni  Ni22  1  0.75000000  0.29629444  0.34286926  1
  Ni  Ni23  1  0.25000000  0.70370556  0.65713074  1
  Ba  Ba24  1  0.75000000  0.06948848  0.10160745  1
  Ba  Ba25  1  0.75000000  0.43051152  0.60160745  1
  Ba  Ba26  1  0.25000000  0.56948848  0.39839255  1
  Ba  Ba27  1  0.25000000  0.93051152  0.89839255  1
  Yb  Yb28  1  0.25000000  0.39267447  0.07608180  1
  Yb  Yb29  1  0.75000000  0.61528985  0.20314948  1
  Yb  Yb30  1  0.75000000  0.88471015  0.70314948  1
  Yb  Yb31  1  0.25000000  0.11528985  0.29685052  1
  Yb  Yb32  1  0.75000000  0.60732553  0.92391820  1
  Yb  Yb33  1  0.75000000  0.89267447  0.42391820  1
  Yb  Yb34  1  0.25000000  0.10732553  0.57608180  1
  Yb  Yb35  1  0.25000000  0.38471015  0.79685052  1
