# generated using pymatgen
data_Ce2SbS5Br
_symmetry_space_group_name_H-M   'P 1'
_cell_length_a   5.48691099
_cell_length_b   8.85921453
_cell_length_c   17.73000829
_cell_angle_alpha   90.00000000
_cell_angle_beta   90.00000000
_cell_angle_gamma   90.00000000
_symmetry_Int_Tables_number   1
_chemical_formula_structural   Ce2SbS5Br
_chemical_formula_sum   'Ce8 Sb4 S20 Br4'
_cell_volume   861.85076637
_cell_formula_units_Z   4
loop_
 _symmetry_equiv_pos_site_id
 _symmetry_equiv_pos_as_xyz
  1  'x, y, z'
loop_
 _atom_site_type_symbol
 _atom_site_label
 _atom_site_symmetry_multiplicity
 _atom_site_fract_x
 _atom_site_fract_y
 _atom_site_fract_z
 _atom_site_occupancy
  Ce  Ce0  1  0.25000000  0.27687879  0.52970561  1
  Ce  Ce1  1  0.75000000  0.22312121  0.02970561  1
  Ce  Ce2  1  0.75000000  0.72312121  0.47029439  1
  Ce  Ce3  1  0.25000000  0.34495181  0.79970689  1
  Ce  Ce4  1  0.75000000  0.15504819  0.29970689  1
  Ce  Ce5  1  0.25000000  0.84495181  0.70029311  1
  Ce  Ce6  1  0.25000000  0.77687879  0.97029439  1
  Ce  Ce7  1  0.75000000  0.65504819  0.20029311  1
  Sb  Sb8  1  0.75000000  0.01350614  0.82880235  1
  Sb  Sb9  1  0.75000000  0.51350614  0.67119765  1
  Sb  Sb10  1  0.25000000  0.48649386  0.32880235  1
  Sb  Sb11  1  0.25000000  0.98649386  0.17119765  1
  S  S12  1  0.05926504  0.15537331  0.67325833  1
  S  S13  1  0.55926504  0.84462669  0.32674167  1
  S  S14  1  0.55926504  0.34462669  0.17325833  1
  S  S15  1  0.75000000  0.47975750  0.34482901  1
  S  S16  1  0.75000000  0.97975750  0.15517099  1
  S  S17  1  0.25000000  0.52024250  0.65517099  1
  S  S18  1  0.75000000  0.42523912  0.54109430  1
  S  S19  1  0.05926504  0.65537331  0.82674167  1
  S  S20  1  0.25000000  0.57476088  0.45890570  1
  S  S21  1  0.25000000  0.02024250  0.84482901  1
  S  S22  1  0.75000000  0.28716992  0.85758249  1
  S  S23  1  0.75000000  0.92523912  0.95890570  1
  S  S24  1  0.44073496  0.65537331  0.82674167  1
  S  S25  1  0.25000000  0.21283008  0.35758249  1
  S  S26  1  0.75000000  0.78716992  0.64241751  1
  S  S27  1  0.25000000  0.71283008  0.14241751  1
  S  S28  1  0.44073496  0.15537331  0.67325833  1
  S  S29  1  0.94073496  0.34462669  0.17325833  1
  S  S30  1  0.25000000  0.07476088  0.04109430  1
  S  S31  1  0.94073496  0.84462669  0.32674167  1
  Br  Br32  1  0.25000000  0.90365894  0.52794257  1
  Br  Br33  1  0.25000000  0.40365894  0.97205743  1
  Br  Br34  1  0.75000000  0.09634106  0.47205743  1
  Br  Br35  1  0.75000000  0.59634106  0.02794257  1
