# generated using pymatgen
data_NaHCN2
_symmetry_space_group_name_H-M   'P 1'
_cell_length_a   3.57692491
_cell_length_b   10.49068049
_cell_length_c   6.51462822
_cell_angle_alpha   90.00000000
_cell_angle_beta   90.00000000
_cell_angle_gamma   90.00000000
_symmetry_Int_Tables_number   1
_chemical_formula_structural   NaHCN2
_chemical_formula_sum   'Na4 H4 C4 N8'
_cell_volume   244.45736122
_cell_formula_units_Z   4
loop_
 _symmetry_equiv_pos_site_id
 _symmetry_equiv_pos_as_xyz
  1  'x, y, z'
loop_
 _atom_site_type_symbol
 _atom_site_label
 _atom_site_symmetry_multiplicity
 _atom_site_fract_x
 _atom_site_fract_y
 _atom_site_fract_z
 _atom_site_occupancy
  Na  Na0  1  0.23799271  0.25000000  0.50000000  1
  Na  Na1  1  0.76200729  0.75000000  0.00000000  1
  Na  Na2  1  0.76200729  0.75000000  0.50000000  1
  Na  Na3  1  0.23799271  0.25000000  0.00000000  1
  H  H4  1  0.16067729  0.91651389  0.75000000  1
  H  H5  1  0.83932271  0.08348611  0.25000000  1
  H  H6  1  0.16067729  0.58348611  0.25000000  1
  H  H7  1  0.83932271  0.41651389  0.75000000  1
  C  C8  1  0.79101172  0.04660290  0.75000000  1
  C  C9  1  0.20898828  0.95339710  0.25000000  1
  C  C10  1  0.79101172  0.45339710  0.25000000  1
  C  C11  1  0.20898828  0.54660290  0.75000000  1
  N  N12  1  0.69619705  0.15663434  0.75000000  1
  N  N13  1  0.30380295  0.84336566  0.25000000  1
  N  N14  1  0.69619705  0.34336566  0.25000000  1
  N  N15  1  0.30380295  0.65663434  0.75000000  1
  N  N16  1  0.87575735  0.92815665  0.75000000  1
  N  N17  1  0.12424265  0.07184335  0.25000000  1
  N  N18  1  0.87575735  0.57184335  0.25000000  1
  N  N19  1  0.12424265  0.42815665  0.75000000  1
