# generated using pymatgen
data_H7NO6
_symmetry_space_group_name_H-M   'P 1'
_cell_length_a   10.17085087
_cell_length_b   14.57065025
_cell_length_c   3.80966809
_cell_angle_alpha   90.00000000
_cell_angle_beta   88.47219751
_cell_angle_gamma   90.00000000
_symmetry_Int_Tables_number   1
_chemical_formula_structural   H7NO6
_chemical_formula_sum   'H28 N4 O24'
_cell_volume   564.37652772
_cell_formula_units_Z   4
loop_
 _symmetry_equiv_pos_site_id
 _symmetry_equiv_pos_as_xyz
  1  'x, y, z'
loop_
 _atom_site_type_symbol
 _atom_site_label
 _atom_site_symmetry_multiplicity
 _atom_site_fract_x
 _atom_site_fract_y
 _atom_site_fract_z
 _atom_site_occupancy
  H  H0  1  0.71273780  0.62090969  0.93268836  1
  H  H1  1  0.78854167  0.68122704  0.20497779  1
  H  H2  1  0.68313045  0.28137617  0.67992002  1
  H  H3  1  0.78666108  0.34079302  0.45305587  1
  H  H4  1  0.31686955  0.78137617  0.82007998  1
  H  H5  1  0.21333892  0.84079302  0.04694413  1
  H  H6  1  0.28726220  0.12090969  0.56731164  1
  H  H7  1  0.21145833  0.18122704  0.29502221  1
  H  H8  1  0.75054827  0.89492292  0.07440367  1
  H  H9  1  0.64501163  0.97249763  0.09043825  1
  H  H10  1  0.78796583  0.00109559  0.68032582  1
  H  H11  1  0.89965840  0.00393735  0.36578998  1
  H  H12  1  0.91305947  0.09339455  0.69073891  1
  H  H13  1  0.10034160  0.50393735  0.13421002  1
  H  H14  1  0.08694053  0.59339455  0.80926109  1
  H  H15  1  0.24945173  0.39492292  0.42559633  1
  H  H16  1  0.21203417  0.50109559  0.81967418  1
  H  H17  1  0.35498837  0.47249763  0.40956175  1
  H  H18  1  0.51054312  0.82157010  0.48021730  1
  H  H19  1  0.40096421  0.89945023  0.58553494  1
  H  H20  1  0.39680366  0.86349066  0.18372677  1
  H  H21  1  0.96511700  0.19539480  0.95733986  1
  H  H22  1  0.07796415  0.14012973  0.70491765  1
  H  H23  1  0.03488300  0.69539480  0.54266014  1
  H  H24  1  0.92203585  0.64012973  0.79508235  1
  H  H25  1  0.48945688  0.32157010  0.01978270  1
  H  H26  1  0.59903579  0.39945023  0.91446506  1
  H  H27  1  0.60319634  0.36349066  0.31627323  1
  N  N28  1  0.98450665  0.84828372  0.26348482  1
  N  N29  1  0.50467090  0.17281366  0.82169680  1
  N  N30  1  0.49532910  0.67281366  0.67830320  1
  N  N31  1  0.01549335  0.34828372  0.23651518  1
  O  O32  1  0.86891426  0.82268099  0.34454936  1
  O  O33  1  0.62762816  0.18216393  0.85454978  1
  O  O34  1  0.37237184  0.68216393  0.64545022  1
  O  O35  1  0.13108574  0.32268099  0.15545064  1
  O  O36  1  0.08126362  0.79270523  0.30234332  1
  O  O37  1  0.42711147  0.24220215  0.88119112  1
  O  O38  1  0.57288853  0.74220215  0.61880888  1
  O  O39  1  0.91873638  0.29270523  0.19765668  1
  O  O40  1  0.00814738  0.92739140  0.14451934  1
  O  O41  1  0.45548881  0.09838888  0.73172700  1
  O  O42  1  0.54451119  0.59838888  0.76827300  1
  O  O43  1  0.99185262  0.42739140  0.35548066  1
  O  O44  1  0.79869154  0.62976592  0.04302072  1
  O  O45  1  0.69850718  0.34381649  0.57517916  1
  O  O46  1  0.30149282  0.84381649  0.92482084  1
  O  O47  1  0.20130846  0.12976592  0.45697928  1
  O  O48  1  0.69757466  0.93542528  0.92611774  1
  O  O49  1  0.84172294  0.04320386  0.51827967  1
  O  O50  1  0.15827706  0.54320386  0.98172033  1
  O  O51  1  0.30242534  0.43542528  0.57388226  1
  O  O52  1  0.46188961  0.88262119  0.38754631  1
  O  O53  1  0.99173791  0.13574978  0.84989085  1
  O  O54  1  0.00826209  0.63574978  0.65010915  1
  O  O55  1  0.53811039  0.38262119  0.11245369  1
