# generated using pymatgen
data_Sr(H8O5)2
_symmetry_space_group_name_H-M   'P 1'
_cell_length_a   6.44184774
_cell_length_b   6.44184774
_cell_length_c   11.47879117
_cell_angle_alpha   89.71842277
_cell_angle_beta   90.28157723
_cell_angle_gamma   86.59559842
_symmetry_Int_Tables_number   1
_chemical_formula_structural   Sr(H8O5)2
_chemical_formula_sum   'Sr2 H32 O20'
_cell_volume   475.48719436
_cell_formula_units_Z   2
loop_
 _symmetry_equiv_pos_site_id
 _symmetry_equiv_pos_as_xyz
  1  'x, y, z'
loop_
 _atom_site_type_symbol
 _atom_site_label
 _atom_site_symmetry_multiplicity
 _atom_site_fract_x
 _atom_site_fract_y
 _atom_site_fract_z
 _atom_site_occupancy
  Sr  Sr0  1  0.99845082  -0.00003029  0.24133516  1
  Sr  Sr1  1  0.00003029  0.00154918  0.74133516  1
  H  H2  1  0.27121261  0.38752728  0.35289880  1
  H  H3  1  0.14177940  0.30832167  0.46001936  1
  H  H4  1  0.71776504  0.61153877  0.35414704  1
  H  H5  1  0.95632501  0.56308849  0.36950271  1
  H  H6  1  0.63051815  0.02170808  0.39213972  1
  H  H7  1  0.61102490  0.27248727  0.35738230  1
  H  H8  1  0.38993230  0.96069999  0.34258052  1
  H  H9  1  0.39152357  0.70935697  0.35170949  1
  H  H10  1  0.72751273  0.38897510  0.85738230  1
  H  H11  1  0.97829192  0.36948185  0.89213972  1
  H  H12  1  0.03930001  0.61006770  0.84258052  1
  H  H13  1  0.29064303  0.60847643  0.85170949  1
  H  H14  1  0.43691151  0.04367499  0.86950271  1
  H  H15  1  0.38846123  0.28223496  0.85414704  1
  H  H16  1  0.61247272  0.72878739  0.85289880  1
  H  H17  1  0.69167833  0.85822060  0.96001936  1
  H  H18  1  0.85637406  0.68849699  0.54882228  1
  H  H19  1  0.72493369  0.60428821  0.65499238  1
  H  H20  1  0.28263611  0.37059592  0.64097276  1
  H  H21  1  0.04665077  0.44750958  0.62475319  1
  H  H22  1  0.38223622  0.71729766  0.64675857  1
  H  H23  1  0.31090595  0.86002133  0.53867024  1
  H  H24  1  0.62098239  0.28080706  0.65026482  1
  H  H25  1  0.70534732  0.15690504  0.53953622  1
  H  H26  1  0.28270234  0.61776378  0.14675857  1
  H  H27  1  0.13997867  0.68909405  0.03867024  1
  H  H28  1  0.71919294  0.37901761  0.15026482  1
  H  H29  1  0.84309496  0.29465268  0.03953622  1
  H  H30  1  0.55249042  0.95334923  0.12475319  1
  H  H31  1  0.62940408  0.71736389  0.14097276  1
  H  H32  1  0.31150301  0.14362594  0.04882228  1
  H  H33  1  0.39571179  0.27506631  0.15499238  1
  O  O34  1  0.49808386  0.48958097  0.32012219  1
  O  O35  1  0.51041903  0.50191614  0.82012219  1
  O  O36  1  0.51220715  0.50199625  0.68954489  1
  O  O37  1  0.49800375  0.48779285  0.18954489  1
  O  O38  1  0.13620769  0.32357516  0.37351980  1
  O  O39  1  0.84950292  0.67975407  0.37770440  1
  O  O40  1  0.70825313  0.14554945  0.38185476  1
  O  O41  1  0.31614168  0.84819592  0.37763146  1
  O  O42  1  0.85445055  0.29174687  0.88185476  1
  O  O43  1  0.15180408  0.68385832  0.87763146  1
  O  O44  1  0.32024593  0.15049708  0.87770440  1
  O  O45  1  0.67642484  0.86379231  0.87351980  1
  O  O46  1  0.86620132  0.66041088  0.63367034  1
  O  O47  1  0.14398769  0.32062098  0.61831087  1
  O  O48  1  0.29293936  0.84511697  0.62355576  1
  O  O49  1  0.69752183  0.14628530  0.62518195  1
  O  O50  1  0.15488303  0.70706064  0.12355576  1
  O  O51  1  0.85371470  0.30247817  0.12518195  1
  O  O52  1  0.67937902  0.85601231  0.11831087  1
  O  O53  1  0.33958912  0.13379868  0.13367034  1
