# generated using pymatgen
data_Sr2CuCO5
_symmetry_space_group_name_H-M   'P 1'
_cell_length_a   7.86885198
_cell_length_b   7.86885197
_cell_length_c   9.45830825
_cell_angle_alpha   114.58077330
_cell_angle_beta   114.58077329
_cell_angle_gamma   90.00000002
_symmetry_Int_Tables_number   1
_chemical_formula_structural   Sr2CuCO5
_chemical_formula_sum   'Sr8 Cu4 C4 O20'
_cell_volume   473.58871983
_cell_formula_units_Z   4
loop_
 _symmetry_equiv_pos_site_id
 _symmetry_equiv_pos_as_xyz
  1  'x, y, z'
loop_
 _atom_site_type_symbol
 _atom_site_label
 _atom_site_symmetry_multiplicity
 _atom_site_fract_x
 _atom_site_fract_y
 _atom_site_fract_z
 _atom_site_occupancy
  C  C0  1  0.48641145  0.49947198  0.49942115  1
  C  C1  1  0.01300970  0.99994916  0.49942115  1
  C  C2  1  0.50052802  0.98699030  0.50057885  1
  C  C3  1  0.00005084  0.51358855  0.50057885  1
  O  O4  1  0.83292999  0.51597081  0.49863987  1
  O  O5  1  0.01733094  0.16707001  0.50136013  1
  O  O6  1  0.48402919  0.33429012  0.50136013  1
  O  O7  1  0.66570988  0.98266906  0.49863987  1
  O  O8  1  0.00984313  0.43898247  0.35423660  1
  O  O9  1  0.08474587  0.99015687  0.64576340  1
  O  O10  1  0.56101753  0.65560653  0.64576340  1
  O  O11  1  0.34439347  0.91525413  0.35423660  1
  O  O12  1  0.93670460  0.84624553  0.35100445  1
  O  O13  1  0.41429985  0.50475892  0.35100445  1
  O  O14  1  0.15375447  0.58570015  0.64899555  1
  O  O15  1  0.49524108  0.06329540  0.64899555  1
  O  O16  1  0.26241246  0.01142635  0.02270893  1
  O  O17  1  0.98871743  0.73758754  0.97729107  1
  O  O18  1  0.98857365  0.23970354  0.97729107  1
  O  O19  1  0.76029646  0.01128257  0.02270893  1
  O  O20  1  0.74013688  0.48930321  0.97823600  1
  O  O21  1  0.51106721  0.25986312  0.02176400  1
  O  O22  1  0.51069679  0.76190089  0.02176400  1
  O  O23  1  0.23809911  0.48893279  0.97823600  1
  Cu  Cu24  1  0.74998209  0.75005103  0.00004921  1
  Cu  Cu25  1  0.75000182  0.25001791  0.99995079  1
  Cu  Cu26  1  0.24994897  0.74993288  0.99995079  1
  Cu  Cu27  1  0.25006712  0.24999818  0.00004921  1
  Sr  Sr28  1  0.62104800  0.12104800  0.24209600  1
  Sr  Sr29  1  0.87895200  0.37895200  0.75790400  1
  Sr  Sr30  1  0.39836657  0.89836657  0.79673314  1
  Sr  Sr31  1  0.10163343  0.60163343  0.20326686  1
  Sr  Sr32  1  0.61432035  0.61432035  0.22864070  1
  Sr  Sr33  1  0.38567965  0.38567965  0.77135930  1
  Sr  Sr34  1  0.88552533  0.88552533  0.77105066  1
  Sr  Sr35  1  0.11447467  0.11447467  0.22894934  1
