# generated using pymatgen
data_Tm(HO)3
_symmetry_space_group_name_H-M   'P 1'
_cell_length_a   6.33405578
_cell_length_b   6.26879767
_cell_length_c   3.43215948
_cell_angle_alpha   90.00000000
_cell_angle_beta   90.00000000
_cell_angle_gamma   117.55476959
_symmetry_Int_Tables_number   1
_chemical_formula_structural   Tm(HO)3
_chemical_formula_sum   'Tm2 H6 O6'
_cell_volume   120.82203775
_cell_formula_units_Z   2
loop_
 _symmetry_equiv_pos_site_id
 _symmetry_equiv_pos_as_xyz
  1  'x, y, z'
loop_
 _atom_site_type_symbol
 _atom_site_label
 _atom_site_symmetry_multiplicity
 _atom_site_fract_x
 _atom_site_fract_y
 _atom_site_fract_z
 _atom_site_occupancy
  Tm  Tm0  1  0.32244609  0.65554166  0.25000000  1
  Tm  Tm1  1  0.67755391  0.34445834  0.75000000  1
  H  H2  1  0.85774828  0.72811938  0.25000000  1
  H  H3  1  0.86390742  0.13626620  0.25000000  1
  H  H4  1  0.31140413  0.13941802  0.25000000  1
  H  H5  1  0.14225172  0.27188062  0.75000000  1
  H  H6  1  0.13609258  0.86373380  0.75000000  1
  H  H7  1  0.68859587  0.86058198  0.75000000  1
  O  O8  1  0.91284795  0.60636877  0.25000000  1
  O  O9  1  0.69566875  0.09398254  0.25000000  1
  O  O10  1  0.41031375  0.31423644  0.25000000  1
  O  O11  1  0.08715205  0.39363123  0.75000000  1
  O  O12  1  0.30433125  0.90601746  0.75000000  1
  O  O13  1  0.58968625  0.68576356  0.75000000  1
