# generated using pymatgen
data_Ce2Fe17
_symmetry_space_group_name_H-M   'P 1'
_cell_length_a   6.41940492
_cell_length_b   6.41940492
_cell_length_c   6.41940514
_cell_angle_alpha   81.96668736
_cell_angle_beta   81.96668736
_cell_angle_gamma   81.96668980
_symmetry_Int_Tables_number   1
_chemical_formula_structural   Ce2Fe17
_chemical_formula_sum   'Ce2 Fe17'
_cell_volume   257.41233203
_cell_formula_units_Z   1
loop_
 _symmetry_equiv_pos_site_id
 _symmetry_equiv_pos_as_xyz
  1  'x, y, z'
loop_
 _atom_site_type_symbol
 _atom_site_label
 _atom_site_symmetry_multiplicity
 _atom_site_fract_x
 _atom_site_fract_y
 _atom_site_fract_z
 _atom_site_occupancy
  Ce  Ce0  1  0.65736548  0.65736548  0.65736548  1
  Ce  Ce1  1  0.34263452  0.34263452  0.34263452  1
  Fe  Fe2  1  0.90420524  0.90420524  0.90420524  1
  Fe  Fe3  1  0.09579476  0.09579476  0.09579476  1
  Fe  Fe4  1  -0.00000000  -0.00000000  0.50000000  1
  Fe  Fe5  1  -0.00000000  0.50000000  0.00000000  1
  Fe  Fe6  1  0.50000000  -0.00000000  0.00000000  1
  Fe  Fe7  1  0.29436288  0.70563712  0.00000000  1
  Fe  Fe8  1  0.70563712  1.00000000  0.29436288  1
  Fe  Fe9  1  0.00000000  0.29436288  0.70563712  1
  Fe  Fe10  1  0.29436288  0.00000000  0.70563712  1
  Fe  Fe11  1  1.00000000  0.70563712  0.29436288  1
  Fe  Fe12  1  0.70563712  0.29436288  0.00000000  1
  Fe  Fe13  1  0.84386848  0.34311491  0.34311491  1
  Fe  Fe14  1  0.34311491  0.34311491  0.84386848  1
  Fe  Fe15  1  0.34311491  0.84386848  0.34311491  1
  Fe  Fe16  1  0.15613152  0.65688509  0.65688509  1
  Fe  Fe17  1  0.65688509  0.65688509  0.15613152  1
  Fe  Fe18  1  0.65688509  0.15613152  0.65688509  1
