# generated using pymatgen
data_Li(YbGe)4
_symmetry_space_group_name_H-M   'P 1'
_cell_length_a   7.26589552
_cell_length_b   7.84973605
_cell_length_c   15.26172922
_cell_angle_alpha   90.00000816
_cell_angle_beta   90.00230208
_cell_angle_gamma   90.00002027
_symmetry_Int_Tables_number   1
_chemical_formula_structural   Li(YbGe)4
_chemical_formula_sum   'Li4 Yb16 Ge16'
_cell_volume   870.45825044
_cell_formula_units_Z   4
loop_
 _symmetry_equiv_pos_site_id
 _symmetry_equiv_pos_as_xyz
  1  'x, y, z'
loop_
 _atom_site_type_symbol
 _atom_site_label
 _atom_site_symmetry_multiplicity
 _atom_site_fract_x
 _atom_site_fract_y
 _atom_site_fract_z
 _atom_site_occupancy
  Yb  Yb0  1  0.82810838  0.32134398  0.37173977  1
  Yb  Yb1  1  0.98592566  0.81684868  0.40188980  1
  Yb  Yb2  1  0.01407851  0.18315348  0.59811030  1
  Yb  Yb3  1  0.67188541  0.82133296  0.87171078  1
  Yb  Yb4  1  0.48592571  0.68315081  0.40189000  1
  Yb  Yb5  1  0.51406484  0.31686448  0.90186589  1
  Yb  Yb6  1  0.32810471  0.17865635  0.12828882  1
  Yb  Yb7  1  0.17188192  0.67866616  0.62826119  1
  Yb  Yb8  1  0.51407823  0.31684684  0.59811039  1
  Yb  Yb9  1  0.48593994  0.68313374  0.09813348  1
  Yb  Yb10  1  0.82810533  0.32134382  0.12828869  1
  Yb  Yb11  1  0.32810779  0.17865637  0.37173963  1
  Yb  Yb12  1  0.17188547  0.67866724  0.87171080  1
  Yb  Yb13  1  0.67188181  0.82133386  0.62826115  1
  Yb  Yb14  1  0.01406473  0.18313570  0.90186560  1
  Yb  Yb15  1  0.98593998  0.81686637  0.09813334  1
  Li  Li16  1  0.15809130  0.52125566  0.25001304  1
  Li  Li17  1  0.84190425  0.47874682  0.74998698  1
  Li  Li18  1  0.34190529  0.02125281  0.74998682  1
  Li  Li19  1  0.65809165  0.97874388  0.25001295  1
  Ge  Ge20  1  0.72859782  0.13285775  0.74998897  1
  Ge  Ge21  1  0.34344654  0.96907438  0.53388638  1
  Ge  Ge22  1  0.84344628  0.53092578  0.53388635  1
  Ge  Ge23  1  0.15653542  0.46909448  0.03386538  1
  Ge  Ge24  1  0.77138748  0.63283891  0.25001099  1
  Ge  Ge25  1  0.02157704  0.08352923  0.25001571  1
  Ge  Ge26  1  0.65653540  0.03090548  0.03386540  1
  Ge  Ge27  1  0.27138750  0.86716106  0.25001108  1
  Ge  Ge28  1  0.65655431  0.03092916  0.46611663  1
  Ge  Ge29  1  0.97844694  0.91644811  0.74998528  1
  Ge  Ge30  1  0.47844731  0.58355213  0.74998519  1
  Ge  Ge31  1  0.22859789  0.36714214  0.74998912  1
  Ge  Ge32  1  0.52157705  0.41647067  0.25001565  1
  Ge  Ge33  1  0.84346836  0.53090070  0.96613092  1
  Ge  Ge34  1  0.34346849  0.96909930  0.96613099  1
  Ge  Ge35  1  0.15655525  0.46907070  0.46611655  1
