# generated using pymatgen
data_LiSbP2O7
_symmetry_space_group_name_H-M   'P 1'
_cell_length_a   5.13265461
_cell_length_b   8.55102742
_cell_length_c   12.38290694
_cell_angle_alpha   90.00000000
_cell_angle_beta   90.56139363
_cell_angle_gamma   90.00000000
_symmetry_Int_Tables_number   1
_chemical_formula_structural   LiSbP2O7
_chemical_formula_sum   'Li4 Sb4 P8 O28'
_cell_volume   543.45313842
_cell_formula_units_Z   4
loop_
 _symmetry_equiv_pos_site_id
 _symmetry_equiv_pos_as_xyz
  1  'x, y, z'
loop_
 _atom_site_type_symbol
 _atom_site_label
 _atom_site_symmetry_multiplicity
 _atom_site_fract_x
 _atom_site_fract_y
 _atom_site_fract_z
 _atom_site_occupancy
  Li  Li0  1  0.84871120  0.34936289  0.10332542  1
  Li  Li1  1  0.15128980  0.65063711  0.89667458  1
  Li  Li2  1  0.65128880  0.84936289  0.39667458  1
  Li  Li3  1  0.34871120  0.15063711  0.60332542  1
  Sb  Sb4  1  0.68448966  0.79555369  0.71413969  1
  Sb  Sb5  1  0.81551034  0.29555369  0.78586031  1
  Sb  Sb6  1  0.18448966  0.70444631  0.21413969  1
  Sb  Sb7  1  0.31551034  0.20444631  0.28586031  1
  P  P8  1  0.32338499  0.28999357  0.98078400  1
  P  P9  1  0.67661501  0.71000643  0.01921600  1
  P  P10  1  0.82338499  0.21000643  0.48078400  1
  P  P11  1  0.27296055  0.03675698  0.83780930  1
  P  P12  1  0.77296055  0.46324302  0.33780930  1
  P  P13  1  0.72703945  0.96324302  0.16219070  1
  P  P14  1  0.22703945  0.53675698  0.66219070  1
  P  P15  1  0.17661501  0.78999357  0.51921600  1
  O  O16  1  0.97447877  0.37610153  0.27019188  1
  O  O17  1  0.76942579  0.68620048  0.90482642  1
  O  O18  1  0.11400701  0.17594303  0.46080921  1
  O  O19  1  0.71597081  0.89805142  0.04105054  1
  O  O20  1  0.23057421  0.31379952  0.09517358  1
  O  O21  1  0.73057421  0.18620048  0.59517358  1
  O  O22  1  0.99200270  0.07813650  0.79570873  1
  O  O23  1  0.64429452  0.12485960  0.39734378  1
  O  O24  1  0.49200270  0.42186350  0.29570873  1
  O  O25  1  0.14429452  0.37514040  0.89734378  1
  O  O26  1  0.18426285  0.36178052  0.66018891  1
  O  O27  1  0.02552123  0.62389847  0.72980812  1
  O  O28  1  0.81573715  0.63821948  0.33981109  1
  O  O29  1  0.21597081  0.60194858  0.54105054  1
  O  O30  1  0.85570548  0.62485960  0.10265622  1
  O  O31  1  0.88599299  0.82405697  0.53919079  1
  O  O32  1  0.61400701  0.32405697  0.96080921  1
  O  O33  1  0.00799730  0.92186350  0.20429127  1
  O  O34  1  0.26942579  0.81379952  0.40482642  1
  O  O35  1  0.35570548  0.87514040  0.60265622  1
  O  O36  1  0.78402919  0.39805142  0.45894946  1
  O  O37  1  0.50799730  0.57813650  0.70429127  1
  O  O38  1  0.38599299  0.67594303  0.03919079  1
  O  O39  1  0.47447877  0.12389847  0.77019188  1
  O  O40  1  0.31573715  0.86178052  0.83981109  1
  O  O41  1  0.52552123  0.87610153  0.22980812  1
  O  O42  1  0.28402919  0.10194858  0.95894946  1
  O  O43  1  0.68426285  0.13821948  0.16018891  1
