# generated using pymatgen
data_NaSbMoO5
_symmetry_space_group_name_H-M   'P 1'
_cell_length_a   5.73584354
_cell_length_b   8.69752022
_cell_length_c   11.20099791
_cell_angle_alpha   90.00000000
_cell_angle_beta   90.00000000
_cell_angle_gamma   102.69282094
_symmetry_Int_Tables_number   1
_chemical_formula_structural   NaSbMoO5
_chemical_formula_sum   'Na4 Sb4 Mo4 O20'
_cell_volume   545.13538343
_cell_formula_units_Z   4
loop_
 _symmetry_equiv_pos_site_id
 _symmetry_equiv_pos_as_xyz
  1  'x, y, z'
loop_
 _atom_site_type_symbol
 _atom_site_label
 _atom_site_symmetry_multiplicity
 _atom_site_fract_x
 _atom_site_fract_y
 _atom_site_fract_z
 _atom_site_occupancy
  Na  Na0  1  0.53319351  0.58463713  0.64005438  1
  Na  Na1  1  0.03319351  0.58463713  0.85994562  1
  Na  Na2  1  0.96680649  0.41536287  0.14005438  1
  Na  Na3  1  0.46680649  0.41536287  0.35994562  1
  Sb  Sb4  1  0.81974602  0.94982888  0.83587296  1
  Sb  Sb5  1  0.18025398  0.05017112  0.16412704  1
  Sb  Sb6  1  0.68025398  0.05017112  0.33587296  1
  Sb  Sb7  1  0.31974602  0.94982888  0.66412704  1
  Mo  Mo8  1  0.94200414  0.29676682  0.59186259  1
  Mo  Mo9  1  0.44200414  0.29676682  0.90813741  1
  Mo  Mo10  1  0.05799586  0.70323318  0.40813741  1
  Mo  Mo11  1  0.55799586  0.70323318  0.09186259  1
  O  O12  1  0.25127620  0.25073944  0.04199033  1
  O  O13  1  0.65942260  0.56357144  0.18135544  1
  O  O14  1  0.75127620  0.25073944  0.45800967  1
  O  O15  1  0.25911438  0.62835665  0.04652351  1
  O  O16  1  0.42461777  0.11245421  0.82709095  1
  O  O17  1  0.92461777  0.11245421  0.67290905  1
  O  O18  1  0.24088562  0.37164335  0.54652351  1
  O  O19  1  0.75911438  0.62835665  0.45347649  1
  O  O20  1  0.45085839  0.16646474  0.26301036  1
  O  O21  1  0.24872380  0.74926056  0.54199033  1
  O  O22  1  0.84057740  0.43642856  0.68135544  1
  O  O23  1  0.04914161  0.83353526  0.76301036  1
  O  O24  1  0.15942260  0.56357144  0.31864456  1
  O  O25  1  0.07538223  0.88754579  0.32709095  1
  O  O26  1  0.54914161  0.83353526  0.73698964  1
  O  O27  1  0.74088562  0.37164335  0.95347649  1
  O  O28  1  0.57538223  0.88754579  0.17290905  1
  O  O29  1  0.74872380  0.74926056  0.95800967  1
  O  O30  1  0.95085839  0.16646474  0.23698964  1
  O  O31  1  0.34057740  0.43642856  0.81864456  1
