# generated using pymatgen
data_Sr4Fe6O13
_symmetry_space_group_name_H-M   'P 1'
_cell_length_a   5.46047291
_cell_length_b   11.14360869
_cell_length_c   11.71885115
_cell_angle_alpha   118.38849564
_cell_angle_beta   103.47094376
_cell_angle_gamma   89.99917813
_symmetry_Int_Tables_number   1
_chemical_formula_structural   Sr4Fe6O13
_chemical_formula_sum   'Sr8 Fe12 O26'
_cell_volume   604.94053801
_cell_formula_units_Z   2
loop_
 _symmetry_equiv_pos_site_id
 _symmetry_equiv_pos_as_xyz
  1  'x, y, z'
loop_
 _atom_site_type_symbol
 _atom_site_label
 _atom_site_symmetry_multiplicity
 _atom_site_fract_x
 _atom_site_fract_y
 _atom_site_fract_z
 _atom_site_occupancy
  Sr  Sr0  1  0.35328726  0.71643460  0.68884092  1
  Sr  Sr1  1  0.66445644  0.28353710  0.31115300  1
  Sr  Sr2  1  0.85327429  0.97240008  0.68884586  1
  Sr  Sr3  1  0.16446141  0.02757404  0.31116982  1
  Sr  Sr4  1  0.16513684  0.53567386  0.32648684  1
  Sr  Sr5  1  0.83860894  0.46429502  0.67349035  1
  Sr  Sr6  1  0.66512162  0.79083445  0.32649752  1
  Sr  Sr7  1  0.33858738  0.20915535  0.67348731  1
  Fe  Fe8  1  0.11016629  0.16306399  0.06832709  1
  Fe  Fe9  1  0.04190119  0.83695911  0.93168575  1
  Fe  Fe10  1  0.61019400  0.90524575  0.06830736  1
  Fe  Fe11  1  0.54188576  0.09476994  0.93170234  1
  Fe  Fe12  1  0.46357563  0.55560096  0.90363366  1
  Fe  Fe13  1  0.55992853  0.44438458  0.09633756  1
  Fe  Fe14  1  0.96358646  0.34802932  0.90363330  1
  Fe  Fe15  1  0.05997613  0.65200498  0.09635922  1
  Fe  Fe16  1  0.25468772  0.37508553  0.50372104  1
  Fe  Fe17  1  0.75092826  0.62489115  0.49627134  1
  Fe  Fe18  1  0.75461005  0.12862485  0.50374539  1
  Fe  Fe19  1  0.25092801  0.87135647  0.49626228  1
  O  O20  1  0.12887063  0.25861383  0.25164619  1
  O  O21  1  0.87724649  0.74145170  0.74835299  1
  O  O22  1  0.62887829  0.99300981  0.25162055  1
  O  O23  1  0.37724099  0.00693823  0.74837352  1
  O  O24  1  0.34298884  0.46975734  0.71115706  1
  O  O25  1  0.63182800  0.53023968  0.28884998  1
  O  O26  1  0.84292840  0.24145064  0.71121233  1
  O  O27  1  0.13179138  0.75857427  0.28879617  1
  O  O28  1  0.49761940  0.24286659  0.48094726  1
  O  O29  1  0.01662254  0.75709621  0.51902153  1
  O  O30  1  0.99764811  0.23812045  0.48098435  1
  O  O31  1  0.51667436  0.76183250  0.51899960  1
  O  O32  1  0.50398148  0.50321142  0.50465984  1
  O  O33  1  -0.00070604  0.49679951  0.49533359  1
  O  O34  1  0.00395027  0.00144291  0.50468989  1
  O  O35  1  0.49922483  0.99850796  0.49532925  1
  O  O36  1  0.44461026  0.25866136  0.07237561  1
  O  O37  1  0.37222335  0.74134642  0.92762805  1
  O  O38  1  0.94463251  0.81372115  0.07234236  1
  O  O39  1  0.87223954  0.18632702  0.92767313  1
  O  O40  1  0.92307086  0.47007078  0.09269838  1
  O  O41  1  0.83039001  0.53000769  0.90731273  1
  O  O42  1  0.42309501  0.62266245  0.09266696  1
  O  O43  1  0.33037894  0.37733301  0.90734706  1
  O  O44  1  0.30063460  0.00001509  0.00000899  1
  O  O45  1  0.80063476  0.00002085  0.00001468  1
