# generated using pymatgen
data_GaFe3
_symmetry_space_group_name_H-M   'P 1'
_cell_length_a   4.08941428
_cell_length_b   4.08956890
_cell_length_c   4.08907275
_cell_angle_alpha   59.99553075
_cell_angle_beta   60.00800595
_cell_angle_gamma   59.99448154
_symmetry_Int_Tables_number   1
_chemical_formula_structural   GaFe3
_chemical_formula_sum   'Ga1 Fe3'
_cell_volume   48.35506363
_cell_formula_units_Z   1
loop_
 _symmetry_equiv_pos_site_id
 _symmetry_equiv_pos_as_xyz
  1  'x, y, z'
loop_
 _atom_site_type_symbol
 _atom_site_label
 _atom_site_symmetry_multiplicity
 _atom_site_fract_x
 _atom_site_fract_y
 _atom_site_fract_z
 _atom_site_occupancy
  Ga  Ga0  1  0.00000083  0.99996469  0.00003140  1
  Fe  Fe1  1  0.49997032  0.50002457  0.50000717  1
  Fe  Fe2  1  0.75004877  0.75005611  0.74999649  1
  Fe  Fe3  1  0.24998008  0.24995463  0.24996494  1
