# generated using pymatgen
data_Na2UI6
_symmetry_space_group_name_H-M   'P 1'
_cell_length_a   9.13890740
_cell_length_b   9.18623847
_cell_length_c   34.76501940
_cell_angle_alpha   51.45269539
_cell_angle_beta   53.27952008
_cell_angle_gamma   54.11757606
_symmetry_Int_Tables_number   1
_chemical_formula_structural   Na2UI6
_chemical_formula_sum   'Na8 U4 I24'
_cell_volume   1720.25363091
_cell_formula_units_Z   4
loop_
 _symmetry_equiv_pos_site_id
 _symmetry_equiv_pos_as_xyz
  1  'x, y, z'
loop_
 _atom_site_type_symbol
 _atom_site_label
 _atom_site_symmetry_multiplicity
 _atom_site_fract_x
 _atom_site_fract_y
 _atom_site_fract_z
 _atom_site_occupancy
  Na  Na0  1  0.49639745  0.49812937  0.12450811  1
  Na  Na1  1  0.68115083  0.67514954  0.17132335  1
  Na  Na2  1  0.49624894  0.49658571  0.37497201  1
  Na  Na3  1  0.68022578  0.67449567  0.42168849  1
  Na  Na4  1  0.49483953  0.50100876  0.62364765  1
  Na  Na5  1  0.31730890  0.32677307  0.83036663  1
  Na  Na6  1  0.68298364  0.67928085  0.67028201  1
  Na  Na7  1  0.67811679  0.66962167  0.92141728  1
  U  U8  1  0.99512488  0.00228316  0.00045209  1
  U  U9  1  0.00110473  0.00248196  0.24859551  1
  U  U10  1  0.00089741  0.00241078  0.49885232  1
  U  U11  1  0.00871765  0.99698414  0.74886545  1
  I  I12  1  0.09105151  0.37165356  0.19151014  1
  I  I13  1  0.36329576  0.77517750  0.02338815  1
  I  I14  1  0.76668948  0.08635424  0.09838360  1
  I  I15  1  0.24761662  0.90193159  0.15332370  1
  I  I16  1  0.64129706  0.23894713  0.22427780  1
  I  I17  1  0.09036968  0.37242380  0.44149158  1
  I  I18  1  0.89653868  0.63460337  0.06093398  1
  I  I19  1  0.36346999  0.77606389  0.27325572  1
  I  I20  1  0.76659226  0.08525817  0.34781782  1
  I  I21  1  0.24708988  0.90311640  0.40373316  1
  I  I22  1  0.64133846  0.24082790  0.47387429  1
  I  I23  1  0.09119539  0.37170256  0.69175790  1
  I  I24  1  0.89571878  0.63810643  0.31050078  1
  I  I25  1  0.36360688  0.77544878  0.52333464  1
  I  I26  1  0.76706384  0.08627933  0.59725109  1
  I  I27  1  0.24752038  0.90428557  0.65281648  1
  I  I28  1  0.63152396  0.24262535  0.72474757  1
  I  I29  1  0.09111901  0.37148835  0.94060621  1
  I  I30  1  0.89715391  0.63679816  0.56063871  1
  I  I31  1  0.36654447  0.75968669  0.77500098  1
  I  I32  1  0.75823956  0.08358843  0.84671663  1
  I  I33  1  0.24297561  0.91065545  0.90332639  1
  I  I34  1  0.64555263  0.23244632  0.97553117  1
  I  I35  1  0.90831967  0.63032635  0.80956063  1
