# generated using pymatgen
data_Li(Mo3S4)2
_symmetry_space_group_name_H-M   'P 1'
_cell_length_a   6.53171573
_cell_length_b   13.06016433
_cell_length_c   9.05160911
_cell_angle_alpha   46.29847564
_cell_angle_beta   93.63809279
_cell_angle_gamma   92.21136146
_symmetry_Int_Tables_number   1
_chemical_formula_structural   Li(Mo3S4)2
_chemical_formula_sum   'Li2 Mo12 S16'
_cell_volume   557.08519910
_cell_formula_units_Z   2
loop_
 _symmetry_equiv_pos_site_id
 _symmetry_equiv_pos_as_xyz
  1  'x, y, z'
loop_
 _atom_site_type_symbol
 _atom_site_label
 _atom_site_symmetry_multiplicity
 _atom_site_fract_x
 _atom_site_fract_y
 _atom_site_fract_z
 _atom_site_occupancy
  Li  Li0  1  0.09994718  0.51317393  0.93355951  1
  Li  Li1  1  0.90005282  0.98682607  0.06644049  1
  Mo  Mo2  1  0.21616742  0.92816515  0.55118111  1
  Mo  Mo3  1  0.21718117  0.42691988  0.55060832  1
  Mo  Mo4  1  0.40449569  0.66709902  0.21509754  1
  Mo  Mo5  1  0.45321388  0.59333161  0.59016194  1
  Mo  Mo6  1  0.40483576  0.16501459  0.21970733  1
  Mo  Mo7  1  0.45005716  0.09424784  0.59489276  1
  Mo  Mo8  1  0.54678612  0.90666839  0.40983806  1
  Mo  Mo9  1  0.59550431  0.83290098  0.78490246  1
  Mo  Mo10  1  0.54994284  0.40575216  0.40510724  1
  Mo  Mo11  1  0.59516424  0.33498541  0.78029267  1
  Mo  Mo12  1  0.78383258  0.57183485  0.44881889  1
  Mo  Mo13  1  0.78281883  0.07308012  0.44939168  1
  S  S14  1  0.13383514  0.67052629  0.38578801  1
  S  S15  1  0.13139948  0.17246706  0.38471988  1
  S  S16  1  0.27306907  0.87389153  0.86595881  1
  S  S17  1  0.21508911  0.50034754  0.21823186  1
  S  S18  1  0.26932951  0.37387141  0.86691826  1
  S  S19  1  0.21507702  0.00071055  0.21981414  1
  S  S20  1  0.38647009  0.69956987  0.73224620  1
  S  S21  1  0.38954722  0.20270405  0.72789228  1
  S  S22  1  0.61352991  0.80043013  0.26775380  1
  S  S23  1  0.61045278  0.29729595  0.27210772  1
  S  S24  1  0.78491089  0.99965246  0.78176814  1
  S  S25  1  0.72693093  0.62610847  0.13404119  1
  S  S26  1  0.78492298  0.49928945  0.78018586  1
  S  S27  1  0.73067049  0.12612859  0.13308174  1
  S  S28  1  0.86616486  0.82947371  0.61421199  1
  S  S29  1  0.86860052  0.32753294  0.61528012  1
