# generated using pymatgen
data_Ce3B2(ClO2)3
_symmetry_space_group_name_H-M   'P 1'
_cell_length_a   9.22250446
_cell_length_b   9.22250487
_cell_length_c   5.85296493
_cell_angle_alpha   90.00000000
_cell_angle_beta   90.00000000
_cell_angle_gamma   119.99999858
_symmetry_Int_Tables_number   1
_chemical_formula_structural   Ce3B2(ClO2)3
_chemical_formula_sum   'Ce6 B4 Cl6 O12'
_cell_volume   431.12611125
_cell_formula_units_Z   2
loop_
 _symmetry_equiv_pos_site_id
 _symmetry_equiv_pos_as_xyz
  1  'x, y, z'
loop_
 _atom_site_type_symbol
 _atom_site_label
 _atom_site_symmetry_multiplicity
 _atom_site_fract_x
 _atom_site_fract_y
 _atom_site_fract_z
 _atom_site_occupancy
  Ce  Ce0  1  0.33657775  0.38641513  0.75000000  1
  Ce  Ce1  1  0.04983739  0.66342225  0.75000000  1
  Ce  Ce2  1  0.66342225  0.61358487  0.25000000  1
  Ce  Ce3  1  0.38641513  0.04983739  0.25000000  1
  Ce  Ce4  1  0.61358487  0.95016261  0.75000000  1
  Ce  Ce5  1  0.95016261  0.33657775  0.25000000  1
  B  B6  1  0.66666700  0.33333300  0.51339361  1
  B  B7  1  0.66666700  0.33333300  0.98660639  1
  B  B8  1  0.33333300  0.66666700  0.01339361  1
  B  B9  1  0.33333300  0.66666700  0.48660639  1
  Cl  Cl10  1  0.03689164  0.79778010  0.25000000  1
  Cl  Cl11  1  0.23911154  0.03689164  0.75000000  1
  Cl  Cl12  1  0.76088846  0.96310836  0.25000000  1
  Cl  Cl13  1  0.96310836  0.20221990  0.75000000  1
  Cl  Cl14  1  0.79778010  0.76088846  0.75000000  1
  Cl  Cl15  1  0.20221990  0.23911154  0.25000000  1
  O  O16  1  0.17083621  0.53654828  0.50085861  1
  O  O17  1  0.82916379  0.46345172  0.00085861  1
  O  O18  1  0.36571207  0.82916379  0.50085861  1
  O  O19  1  0.53654828  0.36571207  0.00085861  1
  O  O20  1  0.63428793  0.17083621  0.00085861  1
  O  O21  1  0.46345172  0.63428793  0.99914139  1
  O  O22  1  0.46345172  0.63428793  0.50085861  1
  O  O23  1  0.53654828  0.36571207  0.49914139  1
  O  O24  1  0.36571207  0.82916379  0.99914139  1
  O  O25  1  0.63428793  0.17083621  0.49914139  1
  O  O26  1  0.17083621  0.53654828  0.99914139  1
  O  O27  1  0.82916379  0.46345172  0.49914139  1
