# generated using pymatgen
data_Ca2YbF7
_symmetry_space_group_name_H-M   'P 1'
_cell_length_a   8.87600810
_cell_length_b   8.91202622
_cell_length_c   10.21967557
_cell_angle_alpha   116.09844507
_cell_angle_beta   116.12147525
_cell_angle_gamma   89.61890433
_symmetry_Int_Tables_number   1
_chemical_formula_structural   Ca2YbF7
_chemical_formula_sum   'Ca10 Yb5 F35'
_cell_volume   634.05494384
_cell_formula_units_Z   5
loop_
 _symmetry_equiv_pos_site_id
 _symmetry_equiv_pos_as_xyz
  1  'x, y, z'
loop_
 _atom_site_type_symbol
 _atom_site_label
 _atom_site_symmetry_multiplicity
 _atom_site_fract_x
 _atom_site_fract_y
 _atom_site_fract_z
 _atom_site_occupancy
  Yb  Yb0  1  0.18915252  0.18905345  0.37918559  1
  Yb  Yb1  1  0.10241584  0.31769256  0.00130984  1
  Yb  Yb2  1  0.31088542  0.90071226  0.00055733  1
  Yb  Yb3  1  0.81206413  0.81076850  0.62092882  1
  Yb  Yb4  1  0.89803957  0.68359323  0.99890559  1
  Ca  Ca5  1  0.02060305  0.47361393  0.68301958  1
  Ca  Ca6  1  0.20966494  0.02017214  0.68504894  1
  Ca  Ca7  1  0.47156133  0.66258381  0.68118391  1
  Ca  Ca8  1  0.33814742  0.78843079  0.31785385  1
  Ca  Ca9  1  0.66332231  0.20934504  0.68212031  1
  Ca  Ca10  1  0.52866040  0.34024234  0.31766645  1
  Ca  Ca11  1  0.49882637  0.49837230  0.99979265  1
  Ca  Ca12  1  0.79048293  0.98161678  0.31626378  1
  Ca  Ca13  1  0.68727933  0.09937466  0.99924166  1
  Ca  Ca14  1  0.97918709  0.52620987  0.31707554  1
  F  F15  1  0.08537782  0.78732344  0.73992880  1
  F  F16  1  0.06603440  0.17079327  0.53725338  1
  F  F17  1  0.21328458  0.34795151  0.84219104  1
  F  F18  1  0.17363444  0.46953430  0.53895621  1
  F  F19  1  0.04300566  0.91603235  0.25515408  1
  F  F20  1  0.34775015  0.63025845  0.84450569  1
  F  F21  1  0.00899046  0.99620244  0.00107287  1
  F  F22  1  0.08461468  0.58575183  0.16925622  1
  F  F23  1  0.25142673  0.74749058  0.49936091  1
  F  F24  1  0.41440599  0.91374386  0.83077249  1
  F  F25  1  0.21874767  0.34211316  0.26100864  1
  F  F26  1  0.36220978  0.06554011  0.53628835  1
  F  F27  1  0.49195448  0.21537657  0.83675388  1
  F  F28  1  0.14706511  0.70749117  0.99611500  1
  F  F29  1  0.34172861  0.03836584  0.26227963  1
  F  F30  1  0.46966779  0.36450638  0.54033870  1
  F  F31  1  0.62911765  0.49703149  0.84362689  1
  F  F32  1  0.28739621  0.14771845  0.99699862  1
  F  F33  1  0.37030594  0.50349395  0.15617882  1
  F  F34  1  0.53182765  0.63614422  0.46180061  1
  F  F35  1  0.65554351  0.95821241  0.73410231  1
  F  F36  1  0.50173245  0.78358358  0.15638822  1
  F  F37  1  0.63788048  0.93187521  0.45829275  1
  F  F38  1  0.78302263  0.65923702  0.74112302  1
  F  F39  1  0.57930286  0.08341219  0.17028769  1
  F  F40  1  0.74876300  0.25311448  0.50064761  1
  F  F41  1  0.91612438  0.41559855  0.83096174  1
  F  F42  1  0.65059505  0.37396519  0.15959828  1
  F  F43  1  0.95502562  0.08416564  0.74268871  1
  F  F44  1  0.83272026  0.53390898  0.46705811  1
  F  F45  1  0.78545054  0.65201008  0.15675535  1
  F  F46  1  0.71073831  0.84901761  0.00320002  1
  F  F47  1  0.93332911  0.82701154  0.46055586  1
  F  F48  1  0.91667602  0.21548459  0.26455473  1
  F  F49  1  0.85425730  0.29475792  0.00379094  1
