# generated using pymatgen
data_LaCu3(RuO3)4
_symmetry_space_group_name_H-M   'P 1'
_cell_length_a   6.53571750
_cell_length_b   6.53466733
_cell_length_c   6.52984167
_cell_angle_alpha   109.44018632
_cell_angle_beta   109.44743583
_cell_angle_gamma   109.48427495
_symmetry_Int_Tables_number   1
_chemical_formula_structural   LaCu3(RuO3)4
_chemical_formula_sum   'La1 Cu3 Ru4 O12'
_cell_volume   214.79348681
_cell_formula_units_Z   1
loop_
 _symmetry_equiv_pos_site_id
 _symmetry_equiv_pos_as_xyz
  1  'x, y, z'
loop_
 _atom_site_type_symbol
 _atom_site_label
 _atom_site_symmetry_multiplicity
 _atom_site_fract_x
 _atom_site_fract_y
 _atom_site_fract_z
 _atom_site_occupancy
  La  La0  1  -0.00000389  0.00000267  0.99999899  1
  Cu  Cu1  1  0.49999975  0.00000035  0.50000000  1
  Cu  Cu2  1  0.49999942  0.49999971  0.00000014  1
  Cu  Cu3  1  0.00000020  0.49999997  0.50000049  1
  Ru  Ru4  1  0.00000042  0.99999979  0.49999977  1
  Ru  Ru5  1  0.49999881  -0.00000005  0.00000052  1
  Ru  Ru6  1  0.50000107  0.50000016  0.50000016  1
  Ru  Ru7  1  0.00000119  0.50000195  0.00000033  1
  O  O8  1  0.30634709  0.17294238  0.47886833  1
  O  O9  1  0.82706747  0.52109711  0.69385538  1
  O  O10  1  0.52106144  0.69389807  0.82707574  1
  O  O11  1  0.47893910  0.30610244  0.17292569  1
  O  O12  1  0.17293212  0.47889927  0.30614274  1
  O  O13  1  0.30614495  0.82723712  0.13332114  1
  O  O14  1  0.69365307  0.82705800  0.52113078  1
  O  O15  1  0.86653851  0.69372850  0.17256161  1
  O  O16  1  0.69385869  0.17276327  0.86668022  1
  O  O17  1  0.82711215  0.13340974  0.30594505  1
  O  O18  1  0.13346121  0.30627091  0.82743818  1
  O  O19  1  0.17288722  0.86658867  0.69405476  1
