# generated using pymatgen
data_CaNd2Ti2ZnO9
_symmetry_space_group_name_H-M   'P 1'
_cell_length_a   5.47500160
_cell_length_b   5.72259790
_cell_length_c   23.33079533
_cell_angle_alpha   90.01893440
_cell_angle_beta   89.80182732
_cell_angle_gamma   90.29670358
_symmetry_Int_Tables_number   1
_chemical_formula_structural   CaNd2Ti2ZnO9
_chemical_formula_sum   'Ca4 Nd8 Ti8 Zn4 O36'
_cell_volume   730.96836767
_cell_formula_units_Z   4
loop_
 _symmetry_equiv_pos_site_id
 _symmetry_equiv_pos_as_xyz
  1  'x, y, z'
loop_
 _atom_site_type_symbol
 _atom_site_label
 _atom_site_symmetry_multiplicity
 _atom_site_fract_x
 _atom_site_fract_y
 _atom_site_fract_z
 _atom_site_occupancy
  Ca  Ca0  1  0.49167312  0.44892085  0.58824765  1
  Ca  Ca1  1  0.49219112  0.44914323  0.91981924  1
  Ca  Ca2  1  -0.00439751  0.06093821  0.41345384  1
  Ca  Ca3  1  0.99038667  0.05893056  0.74475415  1
  Nd  Nd4  1  0.01899543  0.93677621  0.25201921  1
  Nd  Nd5  1  0.01616020  0.92821604  0.58657139  1
  Nd  Nd6  1  0.01346077  0.92934143  0.91754754  1
  Nd  Nd7  1  0.48243644  0.43949182  0.25062779  1
  Nd  Nd8  1  0.51554534  0.56188463  0.08230341  1
  Nd  Nd9  1  0.51734957  0.56243837  0.41608681  1
  Nd  Nd10  1  0.51618920  0.56372775  0.74709285  1
  Nd  Nd11  1  0.98047622  0.06117282  0.08204172  1
  Ti  Ti12  1  0.99827671  0.49993609  0.16667274  1
  Ti  Ti13  1  0.02952158  0.48116118  0.50287419  1
  Ti  Ti14  1  0.02865944  0.48114080  0.83463403  1
  Ti  Ti15  1  0.49032647  0.00439886  -0.00029955  1
  Ti  Ti16  1  0.52528884  0.01273375  0.49854733  1
  Ti  Ti17  1  0.51049650  0.00331505  0.33397290  1
  Ti  Ti18  1  0.52470845  0.01368399  0.83102945  1
  Ti  Ti19  1  0.49898608  0.00797244  0.66681171  1
  Zn  Zn20  1  0.00107419  0.49491974  0.99759112  1
  Zn  Zn21  1  0.00196913  0.49404518  0.33502916  1
  Zn  Zn22  1  0.00225768  0.48958623  0.66607327  1
  Zn  Zn23  1  0.49881853  0.00004802  0.16679214  1
  O  O24  1  0.09591549  0.46991653  0.08595296  1
  O  O25  1  0.09039025  0.47140592  0.42215585  1
  O  O26  1  0.08828665  0.47177275  0.75395928  1
  O  O27  1  0.18565452  0.21045497  0.18475921  1
  O  O28  1  0.20134396  0.20271744  0.51820728  1
  O  O29  1  0.20056481  0.20275139  0.84994416  1
  O  O30  1  0.21028610  0.18928282  0.31833700  1
  O  O31  1  0.20287629  0.18417146  0.65241208  1
  O  O32  1  0.20085149  0.18527115  0.98454564  1
  O  O33  1  0.31237338  0.71020819  0.31879271  1
  O  O34  1  0.29213364  0.69760076  0.51676261  1
  O  O35  1  0.30541858  0.71394531  0.65175551  1
  O  O36  1  0.29070973  0.69238642  0.18337126  1
  O  O37  1  0.29102760  0.69793021  0.84827462  1
  O  O38  1  0.30701009  0.71471822  0.98153587  1
  O  O39  1  0.40271979  0.97122974  0.07961329  1
  O  O40  1  0.40770587  0.97557145  0.41999376  1
  O  O41  1  0.40688933  0.97734945  0.75133875  1
  O  O42  1  0.58613674  0.02935919  0.58219413  1
  O  O43  1  0.59793573  0.02926169  0.25390260  1
  O  O44  1  0.58632690  0.03223649  0.91352802  1
  O  O45  1  0.68634823  0.28896185  0.01610054  1
  O  O46  1  0.70438302  0.30965073  0.15014759  1
  O  O47  1  0.69898327  0.29191501  0.48374931  1
  O  O48  1  0.68236856  0.29455392  0.34995388  1
  O  O49  1  0.69827206  0.29222324  0.81523850  1
  O  O50  1  0.68075489  0.29196629  0.68143731  1
  O  O51  1  0.78791069  0.81155840  0.01333439  1
  O  O52  1  0.78860173  0.81183189  0.35095141  1
  O  O53  1  0.78226790  0.81133119  0.68108369  1
  O  O54  1  0.80906324  0.78821137  0.14843703  1
  O  O55  1  0.78656337  0.80707711  0.48465635  1
  O  O56  1  0.78484418  0.80696370  0.81642125  1
  O  O57  1  0.90224528  0.53068252  0.24753842  1
  O  O58  1  0.90235498  0.52453906  0.57872369  1
  O  O59  1  0.90163147  0.52506894  0.91059596  1
