# generated using pymatgen
data_Mg(Mo3S4)2
_symmetry_space_group_name_H-M   'P 1'
_cell_length_a   6.55963644
_cell_length_b   6.54420511
_cell_length_c   13.10336530
_cell_angle_alpha   93.14621390
_cell_angle_beta   93.59407421
_cell_angle_gamma   93.56664424
_symmetry_Int_Tables_number   1
_chemical_formula_structural   Mg(Mo3S4)2
_chemical_formula_sum   'Mg2 Mo12 S16'
_cell_volume   559.32592794
_cell_formula_units_Z   2
loop_
 _symmetry_equiv_pos_site_id
 _symmetry_equiv_pos_as_xyz
  1  'x, y, z'
loop_
 _atom_site_type_symbol
 _atom_site_label
 _atom_site_symmetry_multiplicity
 _atom_site_fract_x
 _atom_site_fract_y
 _atom_site_fract_z
 _atom_site_occupancy
  Mg  Mg0  1  0.07244668  0.89323461  0.01692134  1
  Mg  Mg1  1  0.89275664  0.03499806  0.53560340  1
  Mo  Mo2  1  0.21805268  0.40710661  0.77393824  1
  Mo  Mo3  1  0.22031222  0.40767503  0.27350241  1
  Mo  Mo4  1  0.40867566  0.54708601  0.60981543  1
  Mo  Mo5  1  0.45162365  0.77562656  0.79478967  1
  Mo  Mo6  1  0.41073345  0.54615821  0.11183278  1
  Mo  Mo7  1  0.45030546  0.78364127  0.29627075  1
  Mo  Mo8  1  0.54503469  0.22333039  0.70636258  1
  Mo  Mo9  1  0.59063139  0.45034010  0.88912170  1
  Mo  Mo10  1  0.54999188  0.21551823  0.20352452  1
  Mo  Mo11  1  0.59104434  0.45238462  0.38882215  1
  Mo  Mo12  1  0.78074863  0.59008773  0.72589592  1
  Mo  Mo13  1  0.77830211  0.58896796  0.22635002  1
  S  S14  1  0.13453310  0.72481968  0.68783453  1
  S  S15  1  0.13092212  0.73032464  0.18953985  1
  S  S16  1  0.27164880  0.61925200  0.93299795  1
  S  S17  1  0.21541197  0.21457408  0.60768307  1
  S  S18  1  0.27472599  0.61989815  0.43189013  1
  S  S19  1  0.21501480  0.21574081  0.10724760  1
  S  S20  1  0.37541626  0.13199643  0.86406647  1
  S  S21  1  0.38087874  0.13451111  0.36100184  1
  S  S22  1  0.61970379  0.86639615  0.63559156  1
  S  S23  1  0.61985491  0.86498754  0.13810278  1
  S  S24  1  0.78481623  0.78491462  0.89113934  1
  S  S25  1  0.72930514  0.37957825  0.56597040  1
  S  S26  1  0.78493087  0.78493737  0.39174739  1
  S  S27  1  0.72564355  0.37838726  0.06723588  1
  S  S28  1  0.86445350  0.27517533  0.81119656  1
  S  S29  1  0.86708075  0.27135118  0.31100376  1
