# generated using pymatgen
data_Cr(InS2)2
_symmetry_space_group_name_H-M   'P 1'
_cell_length_a   7.60074213
_cell_length_b   7.60074200
_cell_length_c   7.49690662
_cell_angle_alpha   60.45089421
_cell_angle_beta   60.45089479
_cell_angle_gamma   61.37480410
_symmetry_Int_Tables_number   1
_chemical_formula_structural   Cr(InS2)2
_chemical_formula_sum   'Cr2 In4 S8'
_cell_volume   311.44234969
_cell_formula_units_Z   2
loop_
 _symmetry_equiv_pos_site_id
 _symmetry_equiv_pos_as_xyz
  1  'x, y, z'
loop_
 _atom_site_type_symbol
 _atom_site_label
 _atom_site_symmetry_multiplicity
 _atom_site_fract_x
 _atom_site_fract_y
 _atom_site_fract_z
 _atom_site_occupancy
  Cr  Cr0  1  0.62500000  0.62500000  0.12500000  1
  Cr  Cr1  1  0.62500000  0.62500000  0.62500000  1
  In  In2  1  0.00899479  0.00899479  0.99100521  1
  In  In3  1  0.24100521  0.24100521  0.25899479  1
  In  In4  1  0.12500000  0.62500000  0.62500000  1
  In  In5  1  0.62500000  0.12500000  0.62500000  1
  S  S6  1  0.39660392  0.39660392  0.36536455  1
  S  S7  1  0.39660392  0.39660392  0.84142761  1
  S  S8  1  0.41198570  0.82913923  0.37943754  1
  S  S9  1  0.82913923  0.41198570  0.37943754  1
  S  S10  1  0.42086077  0.83801430  0.87056246  1
  S  S11  1  0.83801430  0.42086077  0.87056246  1
  S  S12  1  0.85339608  0.85339608  0.40857239  1
  S  S13  1  0.85339608  0.85339608  0.88463545  1
