# generated using pymatgen
data_Sr11Ru10O33
_symmetry_space_group_name_H-M   'P 1'
_cell_length_a   44.07375826
_cell_length_b   16.50610377
_cell_length_c   8.94671310
_cell_angle_alpha   29.62038303
_cell_angle_beta   26.40885424
_cell_angle_gamma   13.89925612
_symmetry_Int_Tables_number   1
_chemical_formula_structural   Sr11Ru10O33
_chemical_formula_sum   'Sr11 Ru10 O33'
_cell_volume   695.38912188
_cell_formula_units_Z   1
loop_
 _symmetry_equiv_pos_site_id
 _symmetry_equiv_pos_as_xyz
  1  'x, y, z'
loop_
 _atom_site_type_symbol
 _atom_site_label
 _atom_site_symmetry_multiplicity
 _atom_site_fract_x
 _atom_site_fract_y
 _atom_site_fract_z
 _atom_site_occupancy
  Sr  Sr0  1  0.04295507  0.52908869  0.47037212  1
  Sr  Sr1  1  0.12734220  0.53174709  0.47166338  1
  Sr  Sr2  1  0.21192742  0.53262896  0.53326500  1
  Sr  Sr3  1  0.30032153  0.52676055  0.52956528  1
  Sr  Sr4  1  0.40895676  0.50094451  0.49703301  1
  Sr  Sr5  1  0.50000000  0.50000000  0.50000000  1
  Sr  Sr6  1  0.59104324  0.49905549  0.50296699  1
  Sr  Sr7  1  0.69967847  0.47323945  0.47043472  1
  Sr  Sr8  1  0.78807258  0.46737104  0.46673500  1
  Sr  Sr9  1  0.87265780  0.46825291  0.52833662  1
  Sr  Sr10  1  0.95704493  0.47091131  0.52962788  1
  Ru  Ru11  1  0.09075093  0.00272402  0.99594476  1
  Ru  Ru12  1  0.18280099  -0.00243400  0.00107481  1
  Ru  Ru13  1  0.27133969  0.00544701  0.99666633  1
  Ru  Ru14  1  0.36652527  -0.00356297  -0.00650492  1
  Ru  Ru15  1  0.45204926  0.00533172  0.00463888  1
  Ru  Ru16  1  0.54795074  -0.00533172  -0.00463888  1
  Ru  Ru17  1  0.63347473  0.00356297  0.00650492  1
  Ru  Ru18  1  0.72866031  0.99455299  0.00333367  1
  Ru  Ru19  1  0.81719901  0.00243400  -0.00107481  1
  Ru  Ru20  1  0.90924907  -0.00272402  0.00405524  1
  O  O21  1  0.04954166  0.99603051  -0.00158236  1
  O  O22  1  0.14059367  0.99526263  0.99527640  1
  O  O23  1  0.09566844  0.00029586  0.47512605  1
  O  O24  1  0.00000000  0.50000000  0.00000000  1
  O  O25  1  0.22758183  0.00373648  0.99338922  1
  O  O26  1  0.18258604  0.00131306  0.49866680  1
  O  O27  1  0.08788872  0.50675245  0.00016161  1
  O  O28  1  0.32053713  0.99656375  0.99650778  1
  O  O29  1  0.19332293  0.47084565  0.99609802  1
  O  O30  1  0.27916962  0.99248406  0.48128308  1
  O  O31  1  0.41293534  0.99107556  0.99755154  1
  O  O32  1  0.36466534  0.99719209  0.50036122  1
  O  O33  1  0.27248236  0.50357794  -0.00151156  1
  O  O34  1  0.50000000  0.00000000  0.00000000  1
  O  O35  1  0.45870157  0.99277350  0.49008795  1
  O  O36  1  0.36687771  0.49809803  0.98987235  1
  O  O37  1  0.58706466  0.00892444  0.00244846  1
  O  O38  1  0.54129843  0.00722650  0.50991205  1
  O  O39  1  0.44887313  0.51587550  0.00123897  1
  O  O40  1  0.67946287  0.00343625  0.00349222  1
  O  O41  1  0.63533466  0.00280791  0.49963878  1
  O  O42  1  0.55112687  0.48412450  0.99876103  1
  O  O43  1  0.77241817  0.99626352  0.00661078  1
  O  O44  1  0.72083038  0.00751594  0.51871692  1
  O  O45  1  0.63312229  0.50190197  0.01012765  1
  O  O46  1  0.85940633  0.00473737  0.00472360  1
  O  O47  1  0.81741396  0.99868694  0.50133320  1
  O  O48  1  0.72751764  0.49642206  0.00151156  1
  O  O49  1  0.95045834  0.00396949  0.00158236  1
  O  O50  1  0.90433156  0.99970414  0.52487395  1
  O  O51  1  0.80667707  0.52915435  0.00390198  1
  O  O52  1  0.00000000  0.00000000  0.50000000  1
  O  O53  1  0.91211128  0.49324755  0.99983839  1
