# generated using pymatgen
data_Ba3LiTi5(SbO7)3
_symmetry_space_group_name_H-M   'P 1'
_cell_length_a   9.18925851
_cell_length_b   9.20400265
_cell_length_c   11.77548095
_cell_angle_alpha   89.99975173
_cell_angle_beta   89.87488146
_cell_angle_gamma   119.98445058
_symmetry_Int_Tables_number   1
_chemical_formula_structural   Ba3LiTi5(SbO7)3
_chemical_formula_sum   'Ba6 Li2 Ti10 Sb6 O42'
_cell_volume   862.64703406
_cell_formula_units_Z   2
loop_
 _symmetry_equiv_pos_site_id
 _symmetry_equiv_pos_as_xyz
  1  'x, y, z'
loop_
 _atom_site_type_symbol
 _atom_site_label
 _atom_site_symmetry_multiplicity
 _atom_site_fract_x
 _atom_site_fract_y
 _atom_site_fract_z
 _atom_site_occupancy
  Ba  Ba0  1  0.00129270  0.39985576  0.75220509  1
  Ba  Ba1  1  0.39608556  0.40265553  0.24539048  1
  Ba  Ba2  1  0.59397133  0.59532850  0.75529420  1
  Ba  Ba3  1  0.40159232  0.99919873  0.74700079  1
  Ba  Ba4  1  0.59502200  0.99770350  0.25247813  1
  Ba  Ba5  1  0.00020289  0.59952555  0.24822728  1
  Li  Li6  1  0.99520936  0.00191922  0.25874774  1
  Li  Li7  1  0.00478551  0.99815156  0.75541781  1
  Ti  Ti8  1  0.00838138  0.74754517  0.59375379  1
  Ti  Ti9  1  0.33493889  0.67058168  0.99834323  1
  Ti  Ti10  1  0.25760332  0.26158423  0.58682029  1
  Ti  Ti11  1  0.25420612  0.26043313  0.90310081  1
  Ti  Ti12  1  0.26026809  0.00848562  0.41257543  1
  Ti  Ti13  1  0.73747951  0.73852449  0.09294841  1
  Ti  Ti14  1  0.00346163  0.73832454  0.90611993  1
  Ti  Ti15  1  0.75188073  0.01053311  0.59271356  1
  Ti  Ti16  1  0.00767350  0.26267902  0.09639401  1
  Ti  Ti17  1  0.00604686  0.26396209  0.41128864  1
  Sb  Sb18  1  0.33567787  0.67231074  0.49870752  1
  Sb  Sb19  1  0.24353729  0.99712965  0.08481326  1
  Sb  Sb20  1  0.75072707  0.75146312  0.41721846  1
  Sb  Sb21  1  0.66893574  0.33643386  0.50149494  1
  Sb  Sb22  1  0.66518571  0.33055398  0.00083129  1
  Sb  Sb23  1  0.75132741  0.99672941  0.91678525  1
  O  O24  1  0.00101933  0.79187919  0.74906710  1
  O  O25  1  0.20399909  0.99575708  0.91745491  1
  O  O26  1  0.16719111  0.68073225  0.90002396  1
  O  O27  1  0.17109540  0.68116582  0.60603392  1
  O  O28  1  0.30761569  0.83026463  0.39699709  1
  O  O29  1  0.32103605  0.82938161  0.09939968  1
  O  O30  1  0.99078714  0.19660668  0.92947329  1
  O  O31  1  0.99913282  0.21386679  0.56880089  1
  O  O32  1  0.17213216  0.48186083  0.10080709  1
  O  O33  1  0.17020879  0.49049968  0.39633566  1
  O  O34  1  0.30360384  0.47773039  0.89708198  1
  O  O35  1  0.32482671  0.49147376  0.59904969  1
  O  O36  1  0.20603644  0.19895160  0.07040992  1
  O  O37  1  0.21222429  0.21042247  0.42901573  1
  O  O38  1  0.51078007  0.82588619  0.89395448  1
  O  O39  1  0.51985388  0.84574073  0.59320063  1
  O  O40  1  0.20412632  0.20765144  0.74611797  1
  O  O41  1  0.51516513  0.67602551  0.09243093  1
  O  O42  1  0.51069319  0.68510980  0.38857223  1
  O  O43  1  0.20583637  0.99303699  0.56929311  1
  O  O44  1  0.20012185  0.99812807  0.25076715  1
  O  O45  1  0.48442682  0.31704044  0.60281880  1
  O  O46  1  0.48258851  0.31670677  0.90110819  1
  O  O47  1  0.79444701  0.78892625  0.25028542  1
  O  O48  1  0.48863445  0.16572816  0.40024065  1
  O  O49  1  0.48761777  0.16676057  0.10835436  1
  O  O50  1  0.79376682  0.79854167  0.92748325  1
  O  O51  1  0.78670904  0.79276595  0.58340762  1
  O  O52  1  0.67219187  0.50773423  0.39380721  1
  O  O53  1  0.68857123  0.51321179  0.10400641  1
  O  O54  1  0.83490135  0.51973189  0.59978320  1
  O  O55  1  0.82756906  0.51281457  0.89696954  1
  O  O56  1  0.00638584  0.79360020  0.06993099  1
  O  O57  1  0.98743501  0.78865774  0.42910441  1
  O  O58  1  0.67618163  0.16545219  0.89400634  1
  O  O59  1  0.68741050  0.17501896  0.60545279  1
  O  O60  1  0.83193581  0.31310761  0.10064132  1
  O  O61  1  0.83179844  0.31549012  0.39794303  1
  O  O62  1  0.80107244  0.00765454  0.74955281  1
  O  O63  1  0.78823813  0.99204450  0.08341836  1
  O  O64  1  0.79872022  0.99421374  0.42669664  1
  O  O65  1  0.00641958  0.21101439  0.25203091  1
