# generated using pymatgen
data_Bi2O3
_symmetry_space_group_name_H-M   'P 1'
_cell_length_a   9.04747655
_cell_length_b   8.99506877
_cell_length_c   45.08186733
_cell_angle_alpha   109.31991521
_cell_angle_beta   109.48818424
_cell_angle_gamma   109.44262787
_symmetry_Int_Tables_number   1
_chemical_formula_structural   Bi2O3
_chemical_formula_sum   'Bi64 O96'
_cell_volume   2829.96743375
_cell_formula_units_Z   32
loop_
 _symmetry_equiv_pos_site_id
 _symmetry_equiv_pos_as_xyz
  1  'x, y, z'
loop_
 _atom_site_type_symbol
 _atom_site_label
 _atom_site_symmetry_multiplicity
 _atom_site_fract_x
 _atom_site_fract_y
 _atom_site_fract_z
 _atom_site_occupancy
  Bi  Bi0  1  0.16445387  0.86919461  0.93935385  1
  Bi  Bi1  1  0.15045607  0.32856360  0.96014581  1
  Bi  Bi2  1  0.19696583  0.52481943  0.87179483  1
  Bi  Bi3  1  0.30723282  0.80421830  0.82860608  1
  Bi  Bi4  1  0.15647362  0.85107479  0.73346780  1
  Bi  Bi5  1  0.53698794  0.71086335  0.96830359  1
  Bi  Bi6  1  0.00326908  0.02899411  0.80034119  1
  Bi  Bi7  1  0.32797256  0.18577321  0.89664051  1
  Bi  Bi8  1  0.15030489  0.31335537  0.75993890  1
  Bi  Bi9  1  0.19092674  0.50027708  0.66616910  1
  Bi  Bi10  1  0.70764609  0.83751497  0.90434740  1
  Bi  Bi11  1  0.49983206  0.34153419  0.83952095  1
  Bi  Bi12  1  0.30734020  0.81166783  0.62764075  1
  Bi  Bi13  1  0.16926467  0.86768987  0.53606827  1
  Bi  Bi14  1  0.64697482  0.15722973  0.96802853  1
  Bi  Bi15  1  0.51265299  0.70639398  0.76857784  1
  Bi  Bi16  1  0.32454809  0.18350519  0.69673126  1
  Bi  Bi17  1  0.82768562  0.52053366  0.94067175  1
  Bi  Bi18  1  0.13978828  0.31143825  0.56244615  1
  Bi  Bi19  1  0.86948459  0.67154170  0.83365861  1
  Bi  Bi20  1  0.69249839  0.83534462  0.69970121  1
  Bi  Bi21  1  0.19833594  0.51392698  0.47051160  1
  Bi  Bi22  1  0.49914731  0.32991438  0.63756689  1
  Bi  Bi23  1  0.30069593  0.80506128  0.42788506  1
  Bi  Bi24  1  0.15586506  0.85065209  0.33321911  1
  Bi  Bi25  1  0.80050698  0.14333073  0.86343337  1
  Bi  Bi26  1  0.64629291  0.16408151  0.76989128  1
  Bi  Bi27  1  0.50824750  0.68828189  0.56733153  1
  Bi  Bi28  1  0.00189447  0.02717674  0.40028612  1
  Bi  Bi29  1  0.83628758  0.50537919  0.74048773  1
  Bi  Bi30  1  0.33468967  0.19039708  0.49987584  1
  Bi  Bi31  1  0.15037492  0.31372204  0.35999297  1
  Bi  Bi32  1  0.86040273  0.67398238  0.63398833  1
  Bi  Bi33  1  0.19141005  0.50063758  0.26621818  1
  Bi  Bi34  1  0.69369819  0.83373272  0.50093434  1
  Bi  Bi35  1  0.30601860  0.81122993  0.22742076  1
  Bi  Bi36  1  0.49979404  0.33815435  0.43894250  1
  Bi  Bi37  1  0.16615761  0.86819661  0.13518667  1
  Bi  Bi38  1  0.80930223  0.14249765  0.66108068  1
  Bi  Bi39  1  0.51143657  0.70544307  0.36844513  1
  Bi  Bi40  1  0.67457625  0.17005343  0.57224004  1
  Bi  Bi41  1  0.99823536  0.00031617  0.19980759  1
  Bi  Bi42  1  0.32438208  0.18316512  0.29671998  1
  Bi  Bi43  1  0.13545435  0.30892917  0.16175126  1
  Bi  Bi44  1  0.83398476  0.51002572  0.53911741  1
  Bi  Bi45  1  0.86556929  0.66934108  0.43276739  1
  Bi  Bi46  1  0.20460063  0.51374169  0.06982772  1
  Bi  Bi47  1  0.69188638  0.83471327  0.29971034  1
  Bi  Bi48  1  0.49780859  0.32833767  0.23734656  1
  Bi  Bi49  1  0.29351466  0.80936955  0.02477034  1
  Bi  Bi50  1  0.80620140  0.14403245  0.46265783  1
  Bi  Bi51  1  0.64601107  0.16269496  0.36952357  1
  Bi  Bi52  1  0.50594748  0.68834526  0.16714802  1
  Bi  Bi53  1  0.99865747  0.00158331  0.59982072  1
  Bi  Bi54  1  0.34586784  0.19461256  0.10242355  1
  Bi  Bi55  1  0.83420092  0.50438774  0.33977939  1
  Bi  Bi56  1  0.85926830  0.67367634  0.23400137  1
  Bi  Bi57  1  0.68637091  0.82448476  0.09760724  1
  Bi  Bi58  1  0.46417604  0.30524927  0.03475442  1
  Bi  Bi59  1  0.81029547  0.14295350  0.26155527  1
  Bi  Bi60  1  0.67999266  0.16779040  0.17279528  1
  Bi  Bi61  1  0.83542767  0.51643112  0.13888854  1
  Bi  Bi62  1  0.84905231  0.64708849  0.03370118  1
  Bi  Bi63  1  0.79925306  0.15280899  0.06224210  1
  O  O64  1  0.00623375  0.00412406  0.92684773  1
  O  O65  1  0.25967003  0.63209035  0.97540885  1
  O  O66  1  0.11890719  0.74939423  0.87675780  1
  O  O67  1  0.99993348  0.60770441  0.80014478  1
  O  O68  1  0.00204351  0.00112789  0.72628440  1
  O  O69  1  0.38622674  0.74786316  0.92616911  1
  O  O70  1  0.01155409  0.99001665  0.84476411  1
  O  O71  1  0.00339774  0.00208883  0.65043488  1
  O  O72  1  0.24704434  0.35776661  0.92374582  1
  O  O73  1  0.37950573  0.11538608  0.95197685  1
  O  O74  1  0.26717277  0.63680127  0.77725620  1
  O  O75  1  0.35174087  0.61639509  0.84910708  1
  O  O76  1  0.11170287  0.75023691  0.67594754  1
  O  O77  1  0.36428458  0.36683133  0.87330526  1
  O  O78  1  0.99977362  0.63617830  0.60008193  1
  O  O79  1  0.99799134  0.99883402  0.52635627  1
  O  O80  1  0.21788690  0.98601756  0.79904646  1
  O  O81  1  0.63151653  0.88446914  0.85305976  1
  O  O82  1  0.37694073  0.73881147  0.72496610  1
  O  O83  1  0.72775744  0.73022080  0.94637985  1
  O  O84  1  0.00009628  0.25402198  0.59987325  1
  O  O85  1  0.61594010  0.37051423  0.94758933  1
  O  O86  1  0.24834658  0.35820186  0.72477120  1
  O  O87  1  0.61926947  0.24635399  0.87232245  1
  O  O88  1  0.37179084  0.10946736  0.75084753  1
  O  O89  1  0.26584084  0.63517454  0.57737334  1
  O  O90  1  0.73802396  0.61962962  0.87600210  1
  O  O91  1  0.36551794  0.63092833  0.65042834  1
  O  O92  1  0.11653334  0.74902190  0.47576481  1
  O  O93  1  0.36687240  0.36659674  0.67343732  1
  O  O94  1  0.99958018  0.60771641  0.39954655  1
  O  O95  1  0.00221498  0.00161912  0.32629064  1
  O  O96  1  0.24935331  0.00030949  0.59921547  1
  O  O97  1  0.63872052  0.88736361  0.65296481  1
  O  O98  1  0.75236943  0.37742164  0.82207637  1
  O  O99  1  0.37787481  0.73495889  0.52512486  1
  O  O100  1  0.78114832  0.76958370  0.75693091  1
  O  O101  1  0.00111725  0.98428283  0.44362092  1
  O  O102  1  0.88616258  0.26629443  0.92762787  1
  O  O103  1  0.61707840  0.36880615  0.74663061  1
  O  O104  1  0.24897754  0.36217529  0.52453694  1
  O  O105  1  0.62774255  0.00467246  0.80047503  1
  O  O106  1  0.62449732  0.24605432  0.67209904  1
  O  O107  1  0.26686895  0.63752101  0.37718340  1
  O  O108  1  0.37903204  0.11466532  0.54991524  1
  O  O109  1  0.73849577  0.62453316  0.67520248  1
  O  O110  1  0.35371157  0.61827846  0.44885588  1
  O  O111  1  0.11123700  0.74993657  0.27573535  1
  O  O112  1  0.36915694  0.36976710  0.47354467  1
  O  O113  1  0.99727243  0.63552336  0.19953496  1
  O  O114  1  0.99934906  0.00126707  0.12553833  1
  O  O115  1  0.21530458  0.98157034  0.39869691  1
  O  O116  1  0.63704293  0.88563745  0.45273932  1
  O  O117  1  0.37676183  0.73873080  0.32485072  1
  O  O118  1  0.74787816  0.37689274  0.62264017  1
  O  O119  1  0.74760636  0.74750645  0.54973778  1
  O  O120  1  0.99845287  0.25381108  0.19985026  1
  O  O121  1  0.00365635  0.00166349  0.25050446  1
  O  O122  1  0.62232025  0.37332112  0.54682685  1
  O  O123  1  0.88991017  0.26417609  0.72838523  1
  O  O124  1  0.24811043  0.35792369  0.32474392  1
  O  O125  1  0.63519227  0.99662216  0.59965016  1
  O  O126  1  0.62423725  0.24684653  0.47190033  1
  O  O127  1  0.37184575  0.10945936  0.35089800  1
  O  O128  1  0.26472635  0.63696537  0.17712486  1
  O  O129  1  0.73259729  0.61948310  0.47429976  1
  O  O130  1  0.36576186  0.63084432  0.25044951  1
  O  O131  1  0.11135164  0.74962774  0.07595741  1
  O  O132  1  0.36718824  0.36677837  0.27351563  1
  O  O133  1  0.99682489  0.62284528  0.00012730  1
  O  O134  1  0.25079644  0.00266872  0.19997403  1
  O  O135  1  0.75444104  0.37522419  0.42189433  1
  O  O136  1  0.63796883  0.88788585  0.25302738  1
  O  O137  1  0.37665092  0.73371853  0.12480935  1
  O  O138  1  0.77971415  0.76875229  0.35643435  1
  O  O139  1  0.61740253  0.36881246  0.34663307  1
  O  O140  1  0.88650080  0.26524248  0.52690652  1
  O  O141  1  0.24788165  0.35875064  0.12441730  1
  O  O142  1  0.62663180  0.00362963  0.40004844  1
  O  O143  1  0.62524499  0.24675395  0.27223045  1
  O  O144  1  0.38125700  0.11505942  0.14958937  1
  O  O145  1  0.73865131  0.62460369  0.27513248  1
  O  O146  1  0.36549884  0.62583181  0.05021270  1
  O  O147  1  0.36798207  0.36558950  0.07407187  1
  O  O148  1  0.26929473  0.00011643  0.00060533  1
  O  O149  1  0.74717489  0.37638778  0.22234335  1
  O  O150  1  0.64873926  0.88961694  0.05243275  1
  O  O151  1  0.74826631  0.74343371  0.15041281  1
  O  O152  1  0.62168950  0.37204659  0.14606633  1
  O  O153  1  0.88999507  0.26408830  0.32819868  1
  O  O154  1  0.63628863  0.99663249  0.19977298  1
  O  O155  1  0.62002977  0.24566316  0.07171170  1
  O  O156  1  0.73565103  0.61636426  0.07269860  1
  O  O157  1  0.76031843  0.37080637  0.02162883  1
  O  O158  1  0.88582430  0.26920194  0.12644696  1
  O  O159  1  0.63780689  0.00693623  0.99989109  1
