# generated using pymatgen
data_Ca22H51Rh11
_symmetry_space_group_name_H-M   'P 1'
_cell_length_a   5.07750502
_cell_length_b   5.14127307
_cell_length_c   56.04889563
_cell_angle_alpha   60.62259171
_cell_angle_beta   60.75848981
_cell_angle_gamma   59.77125982
_symmetry_Int_Tables_number   1
_chemical_formula_structural   Ca22H51Rh11
_chemical_formula_sum   'Ca22 H51 Rh11'
_cell_volume   1043.41063599
_cell_formula_units_Z   1
loop_
 _symmetry_equiv_pos_site_id
 _symmetry_equiv_pos_as_xyz
  1  'x, y, z'
loop_
 _atom_site_type_symbol
 _atom_site_label
 _atom_site_symmetry_multiplicity
 _atom_site_fract_x
 _atom_site_fract_y
 _atom_site_fract_z
 _atom_site_occupancy
  Ca  Ca0  1  0.24813821  0.24718880  0.02290528  1
  Ca  Ca1  1  0.24918219  0.24943382  0.11375507  1
  Ca  Ca2  1  0.24895702  0.24951471  0.20470327  1
  Ca  Ca3  1  0.74974376  0.74836578  0.06822738  1
  Ca  Ca4  1  0.74948015  0.74911400  0.15918342  1
  Ca  Ca5  1  0.24904830  0.24986619  0.29564514  1
  Ca  Ca6  1  0.74925719  0.74891952  0.25013985  1
  Ca  Ca7  1  0.25427211  0.25502808  0.38566121  1
  Ca  Ca8  1  0.25175917  0.25322033  0.47677799  1
  Ca  Ca9  1  0.74986118  0.75062233  0.34087100  1
  Ca  Ca10  1  0.25176807  0.25295697  0.56761078  1
  Ca  Ca11  1  0.75309830  0.75442895  0.43135297  1
  Ca  Ca12  1  0.75244724  0.75167977  0.52220172  1
  Ca  Ca13  1  0.25249564  0.25365079  0.65760338  1
  Ca  Ca14  1  0.75251539  0.75179552  0.61287644  1
  Ca  Ca15  1  0.24557177  0.24707023  0.75161982  1
  Ca  Ca16  1  0.75321054  0.75138822  0.70320369  1
  Ca  Ca17  1  0.24768669  0.24837154  0.84171811  1
  Ca  Ca18  1  0.24571250  0.24705195  0.93248332  1
  Ca  Ca19  1  0.74696853  0.74592010  0.79709488  1
  Ca  Ca20  1  0.74797471  0.74699653  0.88705197  1
  Ca  Ca21  1  0.74929616  0.74410673  0.97757641  1
  H  H22  1  0.24273045  0.76718359  0.06968813  1
  H  H23  1  0.77577683  0.23319211  0.02113115  1
  H  H24  1  0.76374443  0.25049536  0.06817116  1
  H  H25  1  0.76420789  0.74748168  0.02300151  1
  H  H26  1  0.24348691  0.76702855  0.16056707  1
  H  H27  1  0.77600499  0.23469760  0.11213492  1
  H  H28  1  0.76385978  0.25053089  0.15906374  1
  H  H29  1  0.76336663  0.75066098  0.11358522  1
  H  H30  1  0.77637077  0.23449050  0.20301200  1
  H  H31  1  0.24396230  0.76655403  0.25141315  1
  H  H32  1  0.76403503  0.25094085  0.24991826  1
  H  H33  1  0.76351687  0.75091989  0.20448223  1
  H  H34  1  0.24244649  0.76913783  0.34237048  1
  H  H35  1  0.77700898  0.23406630  0.29387609  1
  H  H36  1  0.76521966  0.25247731  0.34073464  1
  H  H37  1  0.76384595  0.75053405  0.29538468  1
  H  H38  1  0.23816840  0.77546011  0.43286061  1
  H  H39  1  0.77698906  0.23388216  0.38514065  1
  H  H40  1  0.24279216  0.77134832  0.47541913  1
  H  H41  1  0.77075414  0.24063106  0.43300126  1
  H  H42  1  0.76235874  0.74772143  0.38673600  1
  H  H43  1  0.23910133  0.77521098  0.52371020  1
  H  H44  1  0.77285986  0.24028299  0.47532782  1
  H  H45  1  0.24311333  0.77141170  0.56624233  1
  H  H46  1  0.77314087  0.24007119  0.52363160  1
  H  H47  1  0.74582075  0.74604435  0.47774546  1
  H  H48  1  0.23890044  0.77481097  0.61462457  1
  H  H49  1  0.77317724  0.24064112  0.56607499  1
  H  H50  1  0.23477778  0.23345819  0.70625486  1
  H  H51  1  0.24213360  0.77047224  0.65730673  1
  H  H52  1  0.77283718  0.23980263  0.61454260  1
  H  H53  1  0.74516924  0.74586375  0.56863999  1
  H  H54  1  0.77213036  0.23957208  0.65714177  1
  H  H55  1  0.23504068  0.76092078  0.70614003  1
  H  H56  1  0.24114449  0.76280453  0.74860930  1
  H  H57  1  0.75839169  0.23630546  0.70601169  1
  H  H58  1  0.74498631  0.74573782  0.65984902  1
  H  H59  1  0.76414458  0.23855322  0.74848510  1
  H  H60  1  0.24364860  0.77348443  0.79594553  1
  H  H61  1  0.24209267  0.77382878  0.83872807  1
  H  H62  1  0.77140164  0.24452735  0.79588409  1
  H  H63  1  0.76632846  0.76747654  0.74804302  1
  H  H64  1  0.77569821  0.23952214  0.83854917  1
  H  H65  1  0.24207540  0.77242411  0.88698331  1
  H  H66  1  0.24118243  0.77355478  0.92957291  1
  H  H67  1  0.77175137  0.24293354  0.88687941  1
  H  H68  1  0.74950153  0.75006727  0.84066822  1
  H  H69  1  0.77594553  0.23830306  0.92930728  1
  H  H70  1  0.24433466  0.76742127  0.97856762  1
  H  H71  1  0.76774783  0.25236879  0.97678789  1
  H  H72  1  0.74945362  0.75045452  0.93154279  1
  Rh  Rh73  1  0.98603650  0.99785758  0.99999465  1
  Rh  Rh74  1  0.98663608  0.99805877  0.09101001  1
  Rh  Rh75  1  0.98614559  0.99903400  0.18193734  1
  Rh  Rh76  1  0.98557031  0.99851201  0.36397764  1
  Rh  Rh77  1  0.99076868  0.99004191  0.45579513  1
  Rh  Rh78  1  0.98587116  0.99963528  0.27286432  1
  Rh  Rh79  1  0.98986067  0.98989740  0.63741707  1
  Rh  Rh80  1  -0.00024693  -0.00029500  0.72735977  1
  Rh  Rh81  1  0.99384864  0.99409079  0.81826852  1
  Rh  Rh82  1  0.99069620  0.99026516  0.54643282  1
  Rh  Rh83  1  0.99269010  0.99344607  0.90928119  1
