# generated using pymatgen
data_Nb2O5
_symmetry_space_group_name_H-M   'P 1'
_cell_length_a   3.86188530
_cell_length_b   14.71565954
_cell_length_c   15.43637828
_cell_angle_alpha   73.14961818
_cell_angle_beta   82.81454817
_cell_angle_gamma   82.44630057
_symmetry_Int_Tables_number   1
_chemical_formula_structural   Nb2O5
_chemical_formula_sum   'Nb16 O40'
_cell_volume   828.79687990
_cell_formula_units_Z   8
loop_
 _symmetry_equiv_pos_site_id
 _symmetry_equiv_pos_as_xyz
  1  'x, y, z'
loop_
 _atom_site_type_symbol
 _atom_site_label
 _atom_site_symmetry_multiplicity
 _atom_site_fract_x
 _atom_site_fract_y
 _atom_site_fract_z
 _atom_site_occupancy
  Nb  Nb0  1  0.07743726  0.75292608  0.09642839  1
  Nb  Nb1  1  0.20606971  0.48812712  0.09755698  1
  Nb  Nb2  1  0.06190036  0.97699656  0.89880273  1
  Nb  Nb3  1  -0.00011536  0.67103630  0.37112163  1
  Nb  Nb4  1  0.03582869  0.32791029  0.62891815  1
  Nb  Nb5  1  0.92543728  0.24648682  0.90312405  1
  Nb  Nb6  1  0.87673174  0.59100203  0.63190159  1
  Nb  Nb7  1  0.15709147  0.06008807  0.62858552  1
  Nb  Nb8  1  0.79458955  0.51165248  0.90182444  1
  Nb  Nb9  1  0.93945619  0.02199556  0.10093599  1
  Nb  Nb10  1  0.84153956  0.93902515  0.37098212  1
  Nb  Nb11  1  0.65882837  0.78338798  0.89957371  1
  Nb  Nb12  1  0.24669931  0.13786057  0.36560584  1
  Nb  Nb13  1  0.75124509  0.86137603  0.63385258  1
  Nb  Nb14  1  0.12675315  0.40783876  0.36807138  1
  Nb  Nb15  1  0.34289991  0.21640195  0.09960603  1
  O  O16  1  0.59031760  0.76747535  0.05506722  1
  O  O17  1  0.71592632  0.65592931  0.91005471  1
  O  O18  1  0.79409418  0.90793089  0.50141560  1
  O  O19  1  0.76862819  0.10255552  0.35802774  1
  O  O20  1  0.57393587  0.93949015  0.91276832  1
  O  O21  1  0.16116004  0.45109058  0.22038331  1
  O  O22  1  0.30720763  0.16571943  0.22232505  1
  O  O23  1  0.13065553  0.81378436  0.92580721  1
  O  O24  1  0.89753933  0.98203812  0.22354604  1
  O  O25  1  0.97436067  0.27063505  0.78259634  1
  O  O26  1  0.03004923  0.72821723  0.21723975  1
  O  O27  1  0.85382377  0.37363759  0.91796153  1
  O  O28  1  0.87122910  0.18558839  0.07370391  1
  O  O29  1  0.81172632  0.73472821  0.64542160  1
  O  O30  1  0.01611487  0.90933310  0.06130952  1
  O  O31  1  0.95448990  0.45848404  0.63731475  1
  O  O32  1  0.38052164  0.60429782  0.64148436  1
  O  O33  1  0.67063455  0.02083251  0.63893610  1
  O  O34  1  0.69338925  0.83474968  0.77684069  1
  O  O35  1  0.83999536  0.54873969  0.77897467  1
  O  O36  1  0.90423792  0.81684936  0.36335037  1
  O  O37  1  0.04599929  0.54042488  0.36273898  1
  O  O38  1  0.48262782  0.68555854  0.35107835  1
  O  O39  1  0.28467665  0.34404229  0.08829833  1
  O  O40  1  0.62180382  0.39508327  0.35753954  1
  O  O41  1  0.10357488  0.01584258  0.77613006  1
  O  O42  1  0.27480813  0.51398236  0.93692834  1
  O  O43  1  0.09338470  0.18187767  0.63708479  1
  O  O44  1  0.93406320  0.64152420  0.50016305  1
  O  O45  1  0.72591420  0.48613468  0.06198965  1
  O  O46  1  0.07308945  0.35706693  0.49974398  1
  O  O47  1  0.20500395  0.09185434  0.49799725  1
  O  O48  1  0.32856887  0.97864230  0.36018923  1
  O  O49  1  0.23042853  0.89685390  0.64086324  1
  O  O50  1  0.42748964  0.05952126  0.08722310  1
  O  O51  1  0.41225320  0.23162609  0.94440100  1
  O  O52  1  0.14753389  0.62597156  0.08111799  1
  O  O53  1  0.18779448  0.26456068  0.35436151  1
  O  O54  1  0.52048751  0.31420267  0.64868732  1
  O  O55  1  0.98608826  0.08967465  0.93844834  1
