# generated using pymatgen
data_LiSn(PO3)3
_symmetry_space_group_name_H-M   'P 1'
_cell_length_a   10.91466937
_cell_length_b   11.87284133
_cell_length_c   5.59930660
_cell_angle_alpha   90.00000000
_cell_angle_beta   90.00000000
_cell_angle_gamma   90.00000000
_symmetry_Int_Tables_number   1
_chemical_formula_structural   LiSn(PO3)3
_chemical_formula_sum   'Li4 Sn4 P12 O36'
_cell_volume   725.60371414
_cell_formula_units_Z   4
loop_
 _symmetry_equiv_pos_site_id
 _symmetry_equiv_pos_as_xyz
  1  'x, y, z'
loop_
 _atom_site_type_symbol
 _atom_site_label
 _atom_site_symmetry_multiplicity
 _atom_site_fract_x
 _atom_site_fract_y
 _atom_site_fract_z
 _atom_site_occupancy
  Li  Li0  1  0.52810707  0.63557876  0.41164362  1
  Li  Li1  1  0.97189293  0.36442124  0.91164362  1
  Li  Li2  1  0.02810707  0.86442124  0.58835638  1
  Li  Li3  1  0.47189293  0.13557876  0.08835638  1
  Sn  Sn4  1  0.39322228  0.91483164  0.60147571  1
  Sn  Sn5  1  0.89322228  0.58516836  0.39852429  1
  Sn  Sn6  1  0.10677772  0.08516836  0.10147571  1
  Sn  Sn7  1  0.60677772  0.41483164  0.89852429  1
  P  P8  1  0.85160252  0.85932808  0.11161655  1
  P  P9  1  0.29876617  0.18280158  0.59419263  1
  P  P10  1  0.14839748  0.35932808  0.38838345  1
  P  P11  1  0.64839748  0.14067192  0.61161655  1
  P  P12  1  0.58303849  0.87470417  0.11908850  1
  P  P13  1  0.35160252  0.64067192  0.88838345  1
  P  P14  1  0.91696151  0.12529583  0.61908850  1
  P  P15  1  0.20123383  0.81719842  0.09419263  1
  P  P16  1  0.70123383  0.68280158  0.90580737  1
  P  P17  1  0.79876617  0.31719842  0.40580737  1
  P  P18  1  0.08303849  0.62529583  0.88091150  1
  P  P19  1  0.41696151  0.37470417  0.38091150  1
  O  O20  1  0.80305928  0.38966376  0.62824252  1
  O  O21  1  0.90514332  0.22235055  0.41499562  1
  O  O22  1  0.22045853  0.57544797  0.87638210  1
  O  O23  1  0.69694072  0.61033624  0.12824252  1
  O  O24  1  0.40514332  0.27764945  0.58500438  1
  O  O25  1  0.45065874  0.31859057  0.14788491  1
  O  O26  1  0.32224178  0.73908989  0.08612428  1
  O  O27  1  0.77954147  0.07544797  0.62361790  1
  O  O28  1  0.82224178  0.76091011  0.91387572  1
  O  O29  1  0.54934126  0.81859057  0.35211509  1
  O  O30  1  0.44263584  0.56460871  0.00499565  1
  O  O31  1  0.04934126  0.68140943  0.64788491  1
  O  O32  1  0.11989967  0.30517511  0.15100666  1
  O  O33  1  0.49753257  0.96163169  0.01695992  1
  O  O34  1  0.61989967  0.19482489  0.84899334  1
  O  O35  1  0.55736416  0.06460871  0.49500435  1
  O  O36  1  0.27954147  0.42455203  0.37638210  1
  O  O37  1  0.59485668  0.77764945  0.91499562  1
  O  O38  1  0.72045853  0.92455203  0.12361790  1
  O  O39  1  0.69330811  0.62489247  0.66788313  1
  O  O40  1  0.99753257  0.53836831  0.98304008  1
  O  O41  1  0.67775822  0.23908989  0.41387572  1
  O  O42  1  0.95065874  0.18140943  0.85211509  1
  O  O43  1  0.94263584  0.93539129  0.99500435  1
  O  O44  1  0.30305928  0.11033624  0.37175748  1
  O  O45  1  0.09485668  0.72235055  0.08500438  1
  O  O46  1  0.50246743  0.46163169  0.48304008  1
  O  O47  1  0.80669189  0.37510753  0.16788313  1
  O  O48  1  0.19694072  0.88966376  0.87175748  1
  O  O49  1  0.88010033  0.80517511  0.34899334  1
  O  O50  1  0.30669189  0.12489247  0.83211687  1
  O  O51  1  0.17775822  0.26091011  0.58612428  1
  O  O52  1  0.00246743  0.03836831  0.51695992  1
  O  O53  1  0.19330811  0.87510753  0.33211687  1
  O  O54  1  0.05736516  0.43539129  0.50499565  1
  O  O55  1  0.38010033  0.69482489  0.65100666  1
