# generated using pymatgen
data_Ca3YGa3B4O15
_symmetry_space_group_name_H-M   'P 1'
_cell_length_a   10.66628317
_cell_length_b   10.64805255
_cell_length_c   11.92467074
_cell_angle_alpha   90.00000000
_cell_angle_beta   90.00000000
_cell_angle_gamma   119.93010000
_symmetry_Int_Tables_number   1
_chemical_formula_structural   Ca3YGa3B4O15
_chemical_formula_sum   'Ca12 Y4 Ga12 B16 O60'
_cell_volume   1173.72347738
_cell_formula_units_Z   4
loop_
 _symmetry_equiv_pos_site_id
 _symmetry_equiv_pos_as_xyz
  1  'x, y, z'
loop_
 _atom_site_type_symbol
 _atom_site_label
 _atom_site_symmetry_multiplicity
 _atom_site_fract_x
 _atom_site_fract_y
 _atom_site_fract_z
 _atom_site_occupancy
  Ca  Ca0  1  0.12085990  0.82280761  0.62500000  1
  Ca  Ca1  1  0.32839622  0.66106806  0.12500000  1
  Ca  Ca2  1  0.16568096  0.30953837  0.12500000  1
  Ca  Ca3  1  0.16357685  0.30435282  0.62500000  1
  Ca  Ca4  1  0.25038505  0.11728071  0.37526812  1
  Ca  Ca5  1  0.25038505  0.11728071  0.87473188  1
  Ca  Ca6  1  0.67524207  0.86075974  0.12500000  1
  Ca  Ca7  1  0.67829155  0.86548845  0.62500000  1
  Ca  Ca8  1  0.83523525  0.73164550  0.37479730  1
  Ca  Ca9  1  0.83523525  0.73164550  0.87520270  1
  Ca  Ca10  1  0.87127830  0.14118913  0.37393392  1
  Ca  Ca11  1  0.87127830  0.14118913  0.87606608  1
  Y  Y12  1  0.12449829  0.81420921  0.12500000  1
  Y  Y13  1  0.32347707  0.66407127  0.62500000  1
  Y  Y14  1  0.65775359  0.32971483  0.37446630  1
  Y  Y15  1  0.65775359  0.32971483  0.87553370  1
  Ga  Ga16  1  0.99212928  0.49188834  0.99644237  1
  Ga  Ga17  1  0.49123644  0.49595175  0.99931790  1
  Ga  Ga18  1  0.49246169  0.49782198  0.49906437  1
  Ga  Ga19  1  0.49123644  0.49595175  0.25068210  1
  Ga  Ga20  1  0.49246169  0.49782198  0.75093563  1
  Ga  Ga21  1  0.48526052  0.99595189  0.99781030  1
  Ga  Ga22  1  0.48526052  0.99595189  0.25218970  1
  Ga  Ga23  1  0.48572888  0.99803365  0.75124819  1
  Ga  Ga24  1  0.48572888  0.99803365  0.49875181  1
  Ga  Ga25  1  0.99056396  0.49477548  0.49888645  1
  Ga  Ga26  1  0.99212928  0.49188834  0.25355763  1
  Ga  Ga27  1  0.99056396  0.49477548  0.75111355  1
  B  B28  1  0.21711531  0.76877759  0.37776526  1
  B  B29  1  0.21711531  0.76877759  0.87223474  1
  B  B30  1  0.22216724  0.45372826  0.37596829  1
  B  B31  1  0.22216724  0.45372826  0.87403171  1
  B  B32  1  0.98867622  0.99558200  0.99971054  1
  B  B33  1  0.98867622  0.99558200  0.25028946  1
  B  B34  1  0.98515911  0.99467647  0.49508405  1
  B  B35  1  0.98515911  0.99467647  0.75491595  1
  B  B36  1  0.52509069  0.76616350  0.87438358  1
  B  B37  1  0.52509069  0.76616350  0.37561642  1
  B  B38  1  0.44356072  0.22149595  0.12500000  1
  B  B39  1  0.44411746  0.22334420  0.62500000  1
  B  B40  1  0.76234633  0.54103239  0.12500000  1
  B  B41  1  0.76271995  0.54089327  0.62500000  1
  B  B42  1  0.76180278  0.22338282  0.12500000  1
  B  B43  1  0.76421877  0.22407439  0.62500000  1
  O  O44  1  0.16449567  0.69842744  0.27620859  1
  O  O45  1  0.17124721  0.69497186  0.77109475  1
  O  O46  1  0.16449567  0.69842744  0.97379141  1
  O  O47  1  0.17124721  0.69497186  0.47890525  1
  O  O48  1  0.08632471  0.47628860  0.12500000  1
  O  O49  1  0.08972506  0.47594889  0.62500000  1
  O  O50  1  0.32034971  0.91785500  0.37693970  1
  O  O51  1  0.32034971  0.91785500  0.87306030  1
  O  O52  1  0.07379027  0.41332738  0.37560038  1
  O  O53  1  0.07379027  0.41332738  0.87439962  1
  O  O54  1  0.36395580  0.90174511  0.12500000  1
  O  O55  1  0.36805706  0.90000781  0.62500000  1
  O  O56  1  0.29278124  0.47735145  0.47834469  1
  O  O57  1  0.29160312  0.47061540  0.27502398  1
  O  O58  1  0.29160312  0.47061540  0.97497602  1
  O  O59  1  0.29278124  0.47735145  0.77165531  1
  O  O60  1  0.49940663  0.81266564  0.47779613  1
  O  O61  1  0.50495128  0.81754147  0.97543283  1
  O  O62  1  0.50495128  0.81754147  0.27456717  1
  O  O63  1  0.49940663  0.81266564  0.77220387  1
  O  O64  1  0.51892248  0.61503688  0.12500000  1
  O  O65  1  0.51416419  0.61734988  0.62500000  1
  O  O66  1  0.57162402  0.66272302  0.37548165  1
  O  O67  1  0.57162402  0.66272302  0.87451835  1
  O  O68  1  0.40426203  0.32942276  0.12500000  1
  O  O69  1  0.40582775  0.33191362  0.62500000  1
  O  O70  1  0.46815464  0.37395923  0.37553329  1
  O  O71  1  0.46815464  0.37395923  0.87446671  1
  O  O72  1  0.84085626  0.92980709  0.25821691  1
  O  O73  1  0.83797872  0.93974284  0.76123455  1
  O  O74  1  0.83797872  0.93974284  0.48876545  1
  O  O75  1  0.84085626  0.92980709  0.99178309  1
  O  O76  1  0.46118616  0.17136487  0.22825542  1
  O  O77  1  0.46116416  0.17240913  0.72800417  1
  O  O78  1  0.46118616  0.17136487  0.02174458  1
  O  O79  1  0.46116416  0.17240913  0.52199583  1
  O  O80  1  0.69362704  0.51959024  0.02202961  1
  O  O81  1  0.69362704  0.51959024  0.22797039  1
  O  O82  1  0.69399852  0.52346911  0.52219878  1
  O  O83  1  0.69399852  0.52346911  0.72780122  1
  O  O84  1  0.05418485  0.91048801  0.99743512  1
  O  O85  1  0.04042320  0.90202714  0.48713927  1
  O  O86  1  0.04042320  0.90202714  0.76286073  1
  O  O87  1  0.05418485  0.91048801  0.25256488  1
  O  O88  1  0.61182152  0.09388783  0.37545141  1
  O  O89  1  0.61182152  0.09388783  0.87454859  1
  O  O90  1  0.91185929  0.58732243  0.12500000  1
  O  O91  1  0.90941551  0.57888967  0.62500000  1
  O  O92  1  0.65123317  0.07707765  0.12500000  1
  O  O93  1  0.65264581  0.07856212  0.62500000  1
  O  O94  1  0.89209869  0.51993627  0.37499825  1
  O  O95  1  0.89209869  0.51993627  0.87500175  1
  O  O96  1  0.81423142  0.29196306  0.02215084  1
  O  O97  1  0.81690185  0.29231771  0.52208530  1
  O  O98  1  0.81423142  0.29196306  0.22784916  1
  O  O99  1  0.81690185  0.29231771  0.72791470  1
  O  O100  1  0.07382573  0.14282311  0.99127334  1
  O  O101  1  0.07746567  0.14251261  0.49030223  1
  O  O102  1  0.07382573  0.14282311  0.25872666  1
  O  O103  1  0.07746567  0.14251261  0.75969777  1
