# generated using pymatgen
data_Zn3In2O6
_symmetry_space_group_name_H-M   'P 1'
_cell_length_a   14.44803020
_cell_length_b   28.90616412
_cell_length_c   43.07583159
_cell_angle_alpha   9.02754908
_cell_angle_beta   11.96938180
_cell_angle_gamma   13.54234044
_symmetry_Int_Tables_number   1
_chemical_formula_structural   Zn3In2O6
_chemical_formula_sum   'Zn12 In8 O24'
_cell_volume   575.19161436
_cell_formula_units_Z   4
loop_
 _symmetry_equiv_pos_site_id
 _symmetry_equiv_pos_as_xyz
  1  'x, y, z'
loop_
 _atom_site_type_symbol
 _atom_site_label
 _atom_site_symmetry_multiplicity
 _atom_site_fract_x
 _atom_site_fract_y
 _atom_site_fract_z
 _atom_site_occupancy
  Zn  Zn0  1  0.13477236  0.03461870  0.06691388  1
  Zn  Zn1  1  0.27201792  0.06747312  0.12619457  1
  Zn  Zn2  1  0.13262041  0.53208975  0.07030291  1
  Zn  Zn3  1  0.25153088  0.56536208  0.13412325  1
  Zn  Zn4  1  0.73047847  0.19007602  0.36786705  1
  Zn  Zn5  1  0.85896728  0.22368296  0.43237884  1
  Zn  Zn6  1  0.26823768  0.30802163  0.63415158  1
  Zn  Zn7  1  0.74639339  0.67936236  0.36895223  1
  Zn  Zn8  1  0.13794263  0.78855084  0.56303338  1
  Zn  Zn9  1  0.25528341  0.82103618  0.62960811  1
  Zn  Zn10  1  0.73717102  0.93302003  0.87038723  1
  Zn  Zn11  1  0.87972201  0.96191801  0.93330921  1
  In  In12  1  0.00303433  0.99677900  0.00029351  1
  In  In13  1  0.99296592  0.50055929  0.00120183  1
  In  In14  1  0.14021182  0.27558335  0.57178391  1
  In  In15  1  -0.00012638  0.24955974  0.50046440  1
  In  In16  1  0.87684909  0.71151554  0.43168261  1
  In  In17  1  0.00163830  0.75227689  0.49712843  1
  In  In18  1  0.73994938  0.43608367  0.86973935  1
  In  In19  1  0.84656688  0.47379750  0.93282172  1
  O  O20  1  0.09168049  0.00626475  0.05005302  1
  O  O21  1  0.22353111  0.05185602  0.08288530  1
  O  O22  1  0.31087704  0.08021372  0.15127639  1
  O  O23  1  0.06382060  0.52434708  0.04697416  1
  O  O24  1  0.15621523  0.55009782  0.10590819  1
  O  O25  1  0.30565835  0.57491763  0.15637123  1
  O  O26  1  0.69286648  0.17179549  0.34584329  1
  O  O27  1  0.07904731  0.27058023  0.54404538  1
  O  O28  1  0.83267846  0.19710147  0.39738102  1
  O  O29  1  0.20280594  0.27601670  0.60457862  1
  O  O30  1  0.91053574  0.23013320  0.45878708  1
  O  O31  1  0.30762872  0.32768454  0.65434069  1
  O  O32  1  0.69052192  0.67401387  0.34485611  1
  O  O33  1  0.10270911  0.78188204  0.52903421  1
  O  O34  1  0.80230032  0.71407504  0.40062650  1
  O  O35  1  0.18057634  0.81917277  0.58581624  1
  O  O36  1  0.91900039  0.72653744  0.45822847  1
  O  O37  1  0.30902569  0.82665581  0.65448471  1
  O  O38  1  0.69175193  0.42237906  0.84567549  1
  O  O39  1  0.80950577  0.45470170  0.90085486  1
  O  O40  1  0.91217323  0.47991607  0.95809010  1
  O  O41  1  0.68997210  0.92174597  0.84685640  1
  O  O42  1  0.78955483  0.93629872  0.91888570  1
  O  O43  1  0.91933608  0.98024619  0.95580883  1
