# generated using pymatgen
data_Li3Bi2(PO4)3
_symmetry_space_group_name_H-M   'P 1'
_cell_length_a   9.22418278
_cell_length_b   13.34934238
_cell_length_c   9.23342648
_cell_angle_alpha   90.00000000
_cell_angle_beta   90.00000000
_cell_angle_gamma   88.57028548
_symmetry_Int_Tables_number   1
_chemical_formula_structural   Li3Bi2(PO4)3
_chemical_formula_sum   'Li12 Bi8 P12 O48'
_cell_volume   1136.62039315
_cell_formula_units_Z   4
loop_
 _symmetry_equiv_pos_site_id
 _symmetry_equiv_pos_as_xyz
  1  'x, y, z'
loop_
 _atom_site_type_symbol
 _atom_site_label
 _atom_site_symmetry_multiplicity
 _atom_site_fract_x
 _atom_site_fract_y
 _atom_site_fract_z
 _atom_site_occupancy
  Li  Li0  1  0.78435982  0.81992084  0.23509366  1
  Li  Li1  1  0.81101451  0.18300418  0.26582350  1
  Li  Li2  1  0.05561030  0.71303742  0.09512990  1
  Li  Li3  1  0.21564018  0.18007916  0.76490634  1
  Li  Li4  1  0.31101451  0.68300418  0.23417650  1
  Li  Li5  1  0.18898549  0.81699582  0.73417650  1
  Li  Li6  1  0.68898549  0.31699582  0.76582350  1
  Li  Li7  1  0.71564018  0.68007916  0.73509366  1
  Li  Li8  1  0.55561030  0.21303742  0.40487010  1
  Li  Li9  1  0.28435982  0.31992084  0.26490634  1
  Li  Li10  1  0.94438970  0.28696258  0.90487010  1
  Li  Li11  1  0.44438970  0.78696258  0.59512990  1
  Bi  Bi12  1  0.74122842  0.09695100  0.94596014  1
  Bi  Bi13  1  0.24122842  0.59695100  0.55403986  1
  Bi  Bi14  1  0.75877158  0.40304900  0.44596014  1
  Bi  Bi15  1  0.25877158  0.90304900  0.05403986  1
  Bi  Bi16  1  0.75927175  0.89602275  0.55870610  1
  Bi  Bi17  1  0.74072825  0.60397725  0.05870610  1
  Bi  Bi18  1  0.25927175  0.39602275  0.94129390  1
  Bi  Bi19  1  0.24072825  0.10397725  0.44129390  1
  P  P20  1  0.42959120  0.99135052  0.74085341  1
  P  P21  1  0.92959120  0.49135052  0.75914659  1
  P  P22  1  0.39873144  0.33625835  0.58517779  1
  P  P23  1  0.10126856  0.16374165  0.08517779  1
  P  P24  1  0.57040880  0.00864948  0.25914659  1
  P  P25  1  0.89873144  0.83625835  0.91482221  1
  P  P26  1  0.07040880  0.50864948  0.24085341  1
  P  P27  1  0.60255486  0.33912482  0.10814542  1
  P  P28  1  0.89744514  0.16087518  0.60814542  1
  P  P29  1  0.10255486  0.83912482  0.39185458  1
  P  P30  1  0.39744514  0.66087518  0.89185458  1
  P  P31  1  0.60126856  0.66374165  0.41482221  1
  O  O32  1  0.17141842  0.78398293  0.52455354  1
  O  O33  1  0.83582137  0.57526177  0.83359372  1
  O  O34  1  0.33123121  0.29901045  0.72797552  1
  O  O35  1  0.67141842  0.28398293  0.97544646  1
  O  O36  1  0.03138869  0.54075840  0.65118411  1
  O  O37  1  0.85204894  0.76793637  0.04499789  1
  O  O38  1  0.96861131  0.45924160  0.34881589  1
  O  O39  1  0.93394518  0.83202313  0.39430113  1
  O  O40  1  0.06605482  0.16797687  0.60569887  1
  O  O41  1  0.99004483  0.57615798  0.12822793  1
  O  O42  1  0.53138869  0.04075840  0.84881589  1
  O  O43  1  0.64795106  0.73206363  0.54499789  1
  O  O44  1  0.46861131  0.95924160  0.15118411  1
  O  O45  1  0.64553548  0.55447907  0.44743238  1
  O  O46  1  0.32858158  0.71601707  0.02455354  1
  O  O47  1  0.43237084  0.67617831  0.40788920  1
  O  O48  1  0.85446452  0.94552093  0.94743238  1
  O  O49  1  0.33582137  0.07526177  0.66640628  1
  O  O50  1  0.35264044  0.54977461  0.88947711  1
  O  O51  1  0.65612025  0.29017457  0.25340906  1
  O  O52  1  0.66876879  0.70098955  0.27202448  1
  O  O53  1  0.16417863  0.42473823  0.16640628  1
  O  O54  1  0.32098644  0.92086778  0.81948421  1
  O  O55  1  0.66417863  0.92473823  0.33359372  1
  O  O56  1  0.56605482  0.66797687  0.89430113  1
  O  O57  1  0.15612025  0.79017457  0.24659094  1
  O  O58  1  0.14735956  0.95022539  0.38947711  1
  O  O59  1  0.34387975  0.70982543  0.74659094  1
  O  O60  1  0.83123121  0.79901045  0.77202448  1
  O  O61  1  0.82858158  0.21601707  0.47544646  1
  O  O62  1  0.14553548  0.05447907  0.05256762  1
  O  O63  1  0.00995517  0.42384202  0.87177207  1
  O  O64  1  0.49004483  0.07615798  0.37177207  1
  O  O65  1  0.17901356  0.57913222  0.31948421  1
  O  O66  1  0.16876879  0.20098955  0.22797552  1
  O  O67  1  0.06762916  0.82382169  0.90788920  1
  O  O68  1  0.43394518  0.33202313  0.10569887  1
  O  O69  1  0.85264044  0.04977461  0.61052289  1
  O  O70  1  0.35204794  0.26793637  0.45500211  1
  O  O71  1  0.93237084  0.17617831  0.09211080  1
  O  O72  1  0.50995517  0.92384202  0.62822793  1
  O  O73  1  0.84387975  0.20982543  0.75340906  1
  O  O74  1  0.56762916  0.32382069  0.59211080  1
  O  O75  1  0.14795106  0.23206363  0.95500211  1
  O  O76  1  0.67901356  0.07913222  0.18051579  1
  O  O77  1  0.35446452  0.44552093  0.55256762  1
  O  O78  1  0.82098644  0.42086778  0.68051579  1
  O  O79  1  0.64735956  0.45022539  0.11052289  1
