# generated using pymatgen
data_Ca11Cr7O28
_symmetry_space_group_name_H-M   'P 1'
_cell_length_a   14.27816496
_cell_length_b   14.27816497
_cell_length_c   14.27816521
_cell_angle_alpha   44.68348270
_cell_angle_beta   44.68348268
_cell_angle_gamma   44.68348191
_symmetry_Int_Tables_number   1
_chemical_formula_structural   Ca11Cr7O28
_chemical_formula_sum   'Ca22 Cr14 O56'
_cell_volume   1309.17940071
_cell_formula_units_Z   2
loop_
 _symmetry_equiv_pos_site_id
 _symmetry_equiv_pos_as_xyz
  1  'x, y, z'
loop_
 _atom_site_type_symbol
 _atom_site_label
 _atom_site_symmetry_multiplicity
 _atom_site_fract_x
 _atom_site_fract_y
 _atom_site_fract_z
 _atom_site_occupancy
  Ca  Ca0  1  0.07977402  0.07977402  0.07977402  1
  Ca  Ca1  1  0.27343594  0.27343594  0.27343594  1
  Ca  Ca2  1  0.19494122  0.21287124  0.61931288  1
  Ca  Ca3  1  0.21287124  0.61931288  0.19494122  1
  Ca  Ca4  1  0.61931288  0.19494122  0.21287124  1
  Ca  Ca5  1  0.30562867  0.33451734  0.70545205  1
  Ca  Ca6  1  0.11931288  0.71287124  0.69494122  1
  Ca  Ca7  1  0.33451734  0.70545205  0.30562867  1
  Ca  Ca8  1  0.70545205  0.30562867  0.33451734  1
  Ca  Ca9  1  0.33912703  0.92001506  0.36928951  1
  Ca  Ca10  1  0.69494122  0.11931288  0.71287124  1
  Ca  Ca11  1  0.36928951  0.33912703  0.92001506  1
  Ca  Ca12  1  0.71287124  0.69494122  0.11931288  1
  Ca  Ca13  1  0.20545205  0.83451734  0.80562867  1
  Ca  Ca14  1  0.92001506  0.36928951  0.33912703  1
  Ca  Ca15  1  0.57977402  0.57977402  0.57977402  1
  Ca  Ca16  1  0.80562867  0.20545205  0.83451734  1
  Ca  Ca17  1  0.83451734  0.80562867  0.20545205  1
  Ca  Ca18  1  0.42001506  0.83912703  0.86928951  1
  Ca  Ca19  1  0.83912703  0.86928951  0.42001506  1
  Ca  Ca20  1  0.86928951  0.42001506  0.83912703  1
  Ca  Ca21  1  0.77343594  0.77343594  0.77343594  1
  Cr  Cr22  1  0.00630131  0.00630131  0.00630131  1
  Cr  Cr23  1  0.97160985  0.00690919  0.44567434  1
  Cr  Cr24  1  0.00690919  0.44567434  0.97160985  1
  Cr  Cr25  1  0.44567434  0.97160985  0.00690919  1
  Cr  Cr26  1  0.04483133  0.08969914  0.59152859  1
  Cr  Cr27  1  0.08969914  0.59152859  0.04483133  1
  Cr  Cr28  1  0.59152859  0.04483133  0.08969914  1
  Cr  Cr29  1  0.50630131  0.50630131  0.50630131  1
  Cr  Cr30  1  0.47160985  0.94567434  0.50690919  1
  Cr  Cr31  1  0.50690919  0.47160985  0.94567434  1
  Cr  Cr32  1  0.94567434  0.50690919  0.47160985  1
  Cr  Cr33  1  0.54483133  0.09152859  0.58969914  1
  Cr  Cr34  1  0.58969914  0.54483133  0.09152859  1
  Cr  Cr35  1  0.09152859  0.58969914  0.54483133  1
  O  O36  1  0.96023866  0.96023866  0.96023866  1
  O  O37  1  0.87482954  0.02861603  0.17494965  1
  O  O38  1  0.02861603  0.17494965  0.87482954  1
  O  O39  1  0.17494965  0.87482954  0.02861603  1
  O  O40  1  0.94137816  0.02033870  0.33674361  1
  O  O41  1  0.02033870  0.33674361  0.94137816  1
  O  O42  1  0.33674361  0.94137816  0.02033870  1
  O  O43  1  0.91149751  0.40470429  0.15376862  1
  O  O44  1  0.91276509  0.63432173  0.89399445  1
  O  O45  1  0.89399445  0.91276509  0.63432173  1
  O  O46  1  0.87215348  0.18419919  0.42933353  1
  O  O47  1  0.18419919  0.42933353  0.87215348  1
  O  O48  1  0.15376862  0.91149751  0.40470429  1
  O  O49  1  0.42933353  0.87215348  0.18419919  1
  O  O50  1  0.40470429  0.15376862  0.91149751  1
  O  O51  1  0.90527836  0.66117511  0.10887883  1
  O  O52  1  0.86172791  0.19907490  0.63140473  1
  O  O53  1  0.10887883  0.90527836  0.66117511  1
  O  O54  1  0.63432173  0.89399445  0.91276509  1
  O  O55  1  0.13558956  0.15226687  0.40359779  1
  O  O56  1  0.15226687  0.40359779  0.13558956  1
  O  O57  1  0.19907490  0.63140473  0.86172791  1
  O  O58  1  0.08721952  0.10718556  0.66384990  1
  O  O59  1  0.10718556  0.66384990  0.08721952  1
  O  O60  1  0.40359779  0.13558956  0.15226687  1
  O  O61  1  0.66117511  0.10887883  0.90527836  1
  O  O62  1  0.63140473  0.86172791  0.19907490  1
  O  O63  1  0.66384990  0.08721952  0.10718556  1
  O  O64  1  0.46023866  0.46023866  0.46023866  1
  O  O65  1  0.37482954  0.67494965  0.52861603  1
  O  O66  1  0.52861603  0.37482954  0.67494965  1
  O  O67  1  0.67494965  0.52861603  0.37482954  1
  O  O68  1  0.44137816  0.83674361  0.52033870  1
  O  O69  1  0.52033870  0.44137816  0.83674361  1
  O  O70  1  0.83674361  0.52033870  0.44137816  1
  O  O71  1  0.41149751  0.65376862  0.90470429  1
  O  O72  1  0.37215348  0.92933353  0.68419919  1
  O  O73  1  0.41276509  0.39399445  0.13432173  1
  O  O74  1  0.39399445  0.13432173  0.41276509  1
  O  O75  1  0.65376862  0.90470429  0.41149751  1
  O  O76  1  0.68419919  0.37215348  0.92933353  1
  O  O77  1  0.90470429  0.41149751  0.65376862  1
  O  O78  1  0.92933353  0.68419919  0.37215348  1
  O  O79  1  0.40527836  0.60887883  0.16117511  1
  O  O80  1  0.36172791  0.13140473  0.69907490  1
  O  O81  1  0.60887883  0.16117511  0.40527836  1
  O  O82  1  0.13432173  0.41276509  0.39399445  1
  O  O83  1  0.63558956  0.90359779  0.65226687  1
  O  O84  1  0.65226687  0.63558956  0.90359779  1
  O  O85  1  0.69907490  0.36172791  0.13140473  1
  O  O86  1  0.58721952  0.16384990  0.60718556  1
  O  O87  1  0.60718556  0.58721952  0.16384990  1
  O  O88  1  0.90359779  0.65226687  0.63558956  1
  O  O89  1  0.16117511  0.40527836  0.60887883  1
  O  O90  1  0.13140473  0.69907490  0.36172791  1
  O  O91  1  0.16384990  0.60718556  0.58721952  1
