# generated using pymatgen
data_Li2Co3(P2O7)2
_symmetry_space_group_name_H-M   'P 1'
_cell_length_a   5.30303980
_cell_length_b   6.41071562
_cell_length_c   16.11776643
_cell_angle_alpha   81.16232412
_cell_angle_beta   81.76366932
_cell_angle_gamma   72.38125049
_symmetry_Int_Tables_number   1
_chemical_formula_structural   Li2Co3(P2O7)2
_chemical_formula_sum   'Li4 Co6 P8 O28'
_cell_volume   513.31017003
_cell_formula_units_Z   2
loop_
 _symmetry_equiv_pos_site_id
 _symmetry_equiv_pos_as_xyz
  1  'x, y, z'
loop_
 _atom_site_type_symbol
 _atom_site_label
 _atom_site_symmetry_multiplicity
 _atom_site_fract_x
 _atom_site_fract_y
 _atom_site_fract_z
 _atom_site_occupancy
  Li  Li0  1  0.92807842  0.77158628  0.00721723  1
  Li  Li1  1  0.35279504  0.68988888  0.11913094  1
  Li  Li2  1  0.07192158  0.22841372  0.99278277  1
  Li  Li3  1  0.64720496  0.31011112  0.88086906  1
  Co  Co4  1  0.80232879  0.72079152  0.40906297  1
  Co  Co5  1  0.04345697  0.62835870  0.81078147  1
  Co  Co6  1  0.95654303  0.37164130  0.18921853  1
  Co  Co7  1  0.23454992  0.96668283  0.33589562  1
  Co  Co8  1  0.76545008  0.03331717  0.66410438  1
  Co  Co9  1  0.19767121  0.27920848  0.59093703  1
  P  P10  1  0.17599074  0.09806529  0.78962170  1
  P  P11  1  0.36376800  0.43071825  0.31964337  1
  P  P12  1  0.63623200  0.56928175  0.68035663  1
  P  P13  1  0.29411201  0.78112537  0.54131649  1
  P  P14  1  0.43883926  0.75284257  0.92562245  1
  P  P15  1  0.82400926  0.90193471  0.21037830  1
  P  P16  1  0.56116074  0.24715743  0.07437755  1
  P  P17  1  0.70588799  0.21887463  0.45868351  1
  O  O18  1  0.25754100  0.32753325  0.07384834  1
  O  O19  1  0.11519929  0.98613929  0.58183463  1
  O  O20  1  0.28226702  0.85371448  0.00514515  1
  O  O21  1  0.60666770  0.45272108  0.26317831  1
  O  O22  1  0.44073846  0.30086895  0.41039245  1
  O  O23  1  0.34554279  0.14278721  0.70739452  1
  O  O24  1  0.97535007  0.69990254  0.16361663  1
  O  O25  1  0.74245900  0.67246675  0.92615166  1
  O  O26  1  0.83864155  0.40002354  0.45161061  1
  O  O27  1  0.65445721  0.85721279  0.29260548  1
  O  O28  1  0.39913215  0.95485811  0.85018224  1
  O  O29  1  0.17575555  0.65796876  0.33894263  1
  O  O30  1  0.32289541  0.57712353  0.90416830  1
  O  O31  1  0.82424445  0.34203124  0.66105737  1
  O  O32  1  0.58650626  0.15653307  0.54889936  1
  O  O33  1  0.16135845  0.59997646  0.54838939  1
  O  O34  1  0.02464993  0.30009746  0.83638337  1
  O  O35  1  0.88480071  0.01386071  0.41816537  1
  O  O36  1  0.01584516  0.03495324  0.21786497  1
  O  O37  1  0.60086785  0.04514189  0.14981776  1
  O  O38  1  0.39333230  0.54727892  0.73682169  1
  O  O39  1  0.20989056  0.29235676  0.28884783  1
  O  O40  1  0.98415484  0.96504676  0.78213503  1
  O  O41  1  0.55926154  0.69913105  0.58960755  1
  O  O42  1  0.41349374  0.84346693  0.45110064  1
  O  O43  1  0.79010944  0.70764324  0.71115217  1
  O  O44  1  0.71773298  0.14628552  0.99485485  1
  O  O45  1  0.67710459  0.42287647  0.09583170  1
