# generated using pymatgen
data_Li2Cr3(P2O7)2
_symmetry_space_group_name_H-M   'P 1'
_cell_length_a   5.44090565
_cell_length_b   6.47017320
_cell_length_c   17.12862232
_cell_angle_alpha   81.99627967
_cell_angle_beta   77.81608082
_cell_angle_gamma   71.67102653
_symmetry_Int_Tables_number   1
_chemical_formula_structural   Li2Cr3(P2O7)2
_chemical_formula_sum   'Li4 Cr6 P8 O28'
_cell_volume   557.77639771
_cell_formula_units_Z   2
loop_
 _symmetry_equiv_pos_site_id
 _symmetry_equiv_pos_as_xyz
  1  'x, y, z'
loop_
 _atom_site_type_symbol
 _atom_site_label
 _atom_site_symmetry_multiplicity
 _atom_site_fract_x
 _atom_site_fract_y
 _atom_site_fract_z
 _atom_site_occupancy
  Li  Li0  1  0.08722328  0.18768631  0.00542483  1
  Li  Li1  1  0.33540812  0.69607407  0.10990837  1
  Li  Li2  1  0.66459188  0.30392593  0.89009163  1
  Li  Li3  1  0.91277672  0.81231369  0.99457517  1
  Cr  Cr4  1  0.95773107  0.37972795  0.18150910  1
  Cr  Cr5  1  0.82361800  0.72051762  0.41758797  1
  Cr  Cr6  1  0.74833376  0.02522781  0.66663151  1
  Cr  Cr7  1  0.17638200  0.27948238  0.58241203  1
  Cr  Cr8  1  0.25166624  0.97477219  0.33336849  1
  Cr  Cr9  1  0.04226893  0.62027205  0.81849090  1
  P  P10  1  0.18759276  0.08376930  0.79891342  1
  P  P11  1  0.62446236  0.56682275  0.67896236  1
  P  P12  1  0.37553764  0.43317725  0.32103764  1
  P  P13  1  0.69806874  0.22955957  0.45224889  1
  P  P14  1  0.55208742  0.24161165  0.07296043  1
  P  P15  1  0.30193126  0.77044043  0.54775111  1
  P  P16  1  0.81240724  0.91623070  0.20108658  1
  P  P17  1  0.44791258  0.75838835  0.92703957  1
  O  O18  1  0.22212147  0.29931708  0.29604526  1
  O  O19  1  0.11018662  0.97506429  0.58858975  1
  O  O20  1  0.54647365  0.69020012  0.59496285  1
  O  O21  1  0.25390954  0.30416821  0.07447798  1
  O  O22  1  0.64380353  0.88641099  0.28219977  1
  O  O23  1  0.83223611  0.40323911  0.44795723  1
  O  O24  1  0.45352635  0.30979988  0.40503715  1
  O  O25  1  0.97369241  0.70034236  0.16270345  1
  O  O26  1  0.56991172  0.16562934  0.53691506  1
  O  O27  1  0.16776389  0.59676089  0.55204277  1
  O  O28  1  0.00034221  0.04991832  0.19885756  1
  O  O29  1  0.63739513  0.42925842  0.09176092  1
  O  O30  1  0.88981338  0.02493571  0.41141025  1
  O  O31  1  0.27580203  0.85886812  0.00462059  1
  O  O32  1  0.72419797  0.14113188  0.99537941  1
  O  O33  1  0.80886877  0.33803541  0.65595503  1
  O  O34  1  -0.00034221  0.95008168  0.80114244  1
  O  O35  1  0.35619647  0.11358901  0.71780023  1
  O  O36  1  0.77787853  0.70068292  0.70395474  1
  O  O37  1  0.19113123  0.66196459  0.34404497  1
  O  O38  1  0.39767246  0.96093382  0.85838747  1
  O  O39  1  0.36260487  0.57074158  0.90823908  1
  O  O40  1  0.61554022  0.45616478  0.26247495  1
  O  O41  1  0.74609046  0.69583179  0.92552202  1
  O  O42  1  0.38445978  0.54383522  0.73752505  1
  O  O43  1  0.43008828  0.83437066  0.46308494  1
  O  O44  1  0.02630759  0.29965764  0.83729655  1
  O  O45  1  0.60232754  0.03906618  0.14161253  1
