# generated using pymatgen
data_LiMoP2O7
_symmetry_space_group_name_H-M   'P 1'
_cell_length_a   7.32175152
_cell_length_b   8.27179343
_cell_length_c   9.85560193
_cell_angle_alpha   90.00000000
_cell_angle_beta   110.91238105
_cell_angle_gamma   90.00000000
_symmetry_Int_Tables_number   1
_chemical_formula_structural   LiMoP2O7
_chemical_formula_sum   'Li4 Mo4 P8 O28'
_cell_volume   557.57579854
_cell_formula_units_Z   4
loop_
 _symmetry_equiv_pos_site_id
 _symmetry_equiv_pos_as_xyz
  1  'x, y, z'
loop_
 _atom_site_type_symbol
 _atom_site_label
 _atom_site_symmetry_multiplicity
 _atom_site_fract_x
 _atom_site_fract_y
 _atom_site_fract_z
 _atom_site_occupancy
  Li  Li0  1  0.30744038  0.48007803  0.27497184  1
  Li  Li1  1  0.30744038  0.01992197  0.77497184  1
  Li  Li2  1  0.69255962  0.98007803  0.22502816  1
  Li  Li3  1  0.69255962  0.51992197  0.72502816  1
  Mo  Mo4  1  0.74379024  0.50104876  0.25112979  1
  Mo  Mo5  1  0.25620976  0.00104876  0.24887021  1
  Mo  Mo6  1  0.25620976  0.49895124  0.74887021  1
  Mo  Mo7  1  0.74379024  0.99895124  0.75112979  1
  P  P8  1  0.91550699  0.75896917  0.04205421  1
  P  P9  1  0.33477119  0.71701002  0.04929141  1
  P  P10  1  0.66522881  0.28298998  0.95070859  1
  P  P11  1  0.08449301  0.24103083  0.95794579  1
  P  P12  1  0.33477119  0.78298998  0.54929141  1
  P  P13  1  0.91550699  0.74103083  0.54205421  1
  P  P14  1  0.66522881  0.21701002  0.45070859  1
  P  P15  1  0.08449301  0.25896917  0.45794579  1
  O  O16  1  0.81526951  0.62816195  0.09516142  1
  O  O17  1  0.45147548  0.91811283  0.64910527  1
  O  O18  1  0.95433107  0.58462006  0.63395807  1
  O  O19  1  0.04566993  0.08462006  0.86604193  1
  O  O20  1  0.45147548  0.58188717  0.14910527  1
  O  O21  1  0.54852452  0.41811283  0.85089473  1
  O  O22  1  0.87391968  0.32167955  0.93544382  1
  O  O23  1  0.60150192  0.11223378  0.88918375  1
  O  O24  1  0.80849769  0.78365198  0.87891732  1
  O  O25  1  0.31739730  0.70974848  0.89068918  1
  O  O26  1  0.68260270  0.29025152  0.10931082  1
  O  O27  1  0.39849808  0.61223378  0.61081625  1
  O  O28  1  0.68260270  0.20974848  0.60931082  1
  O  O29  1  0.18473049  0.37183805  0.90483858  1
  O  O30  1  0.12608032  0.67832045  0.06455618  1
  O  O31  1  0.80849769  0.71634802  0.37891732  1
  O  O32  1  0.81526951  0.87183805  0.59516142  1
  O  O33  1  0.04566993  0.41537994  0.36604193  1
  O  O34  1  0.95433107  0.91537994  0.13395807  1
  O  O35  1  0.18473049  0.12816195  0.40483858  1
  O  O36  1  0.54852452  0.08188717  0.35089473  1
  O  O37  1  0.31739730  0.79025152  0.39068918  1
  O  O38  1  0.60150192  0.38776622  0.38918375  1
  O  O39  1  0.39849808  0.88776622  0.11081625  1
  O  O40  1  0.12608032  0.82167955  0.56455618  1
  O  O41  1  0.19150231  0.28365198  0.62108268  1
  O  O42  1  0.19150231  0.21634802  0.12108268  1
  O  O43  1  0.87391968  0.17832045  0.43544382  1
