# generated using pymatgen
data_Cu3H4SO8
_symmetry_space_group_name_H-M   'P 1'
_cell_length_a   6.11642920
_cell_length_b   8.34159084
_cell_length_c   12.40765196
_cell_angle_alpha   90.00000000
_cell_angle_beta   90.00000000
_cell_angle_gamma   90.00000000
_symmetry_Int_Tables_number   1
_chemical_formula_structural   Cu3H4SO8
_chemical_formula_sum   'Cu12 H16 S4 O32'
_cell_volume   633.04770611
_cell_formula_units_Z   4
loop_
 _symmetry_equiv_pos_site_id
 _symmetry_equiv_pos_as_xyz
  1  'x, y, z'
loop_
 _atom_site_type_symbol
 _atom_site_label
 _atom_site_symmetry_multiplicity
 _atom_site_fract_x
 _atom_site_fract_y
 _atom_site_fract_z
 _atom_site_occupancy
  Cu  Cu0  1  0.75000000  0.00413925  0.99988996  1
  Cu  Cu1  1  0.75000000  0.50413925  0.50011004  1
  Cu  Cu2  1  0.25000000  0.99586075  0.00011004  1
  Cu  Cu3  1  0.25000000  0.49586075  0.49988996  1
  Cu  Cu4  1  0.50292010  0.29257344  0.87600213  1
  Cu  Cu5  1  0.99707990  0.79257344  0.62399787  1
  Cu  Cu6  1  0.00292010  0.70742656  0.12399787  1
  Cu  Cu7  1  0.49707990  0.20742656  0.37600213  1
  Cu  Cu8  1  0.49707990  0.70742656  0.12399787  1
  Cu  Cu9  1  0.00292010  0.20742656  0.37600213  1
  Cu  Cu10  1  0.99707990  0.29257344  0.87600213  1
  Cu  Cu11  1  0.50292010  0.79257344  0.62399787  1
  H  H12  1  0.99473148  0.01032296  0.16792938  1
  H  H13  1  0.50526852  0.51032296  0.33207062  1
  H  H14  1  0.49473148  0.98967704  0.83207062  1
  H  H15  1  0.00526852  0.48967704  0.66792938  1
  H  H16  1  0.00526852  0.98967704  0.83207062  1
  H  H17  1  0.49473148  0.48967704  0.66792938  1
  H  H18  1  0.50526852  0.01032296  0.16792938  1
  H  H19  1  0.99473148  0.51032296  0.33207062  1
  H  H20  1  0.25000000  0.19517906  0.74231417  1
  H  H21  1  0.25000000  0.69517906  0.75768583  1
  H  H22  1  0.75000000  0.80482094  0.25768583  1
  H  H23  1  0.75000000  0.30482094  0.24231417  1
  H  H24  1  0.75000000  0.36682712  0.02664053  1
  H  H25  1  0.75000000  0.86682712  0.47335947  1
  H  H26  1  0.25000000  0.63317288  0.97335947  1
  H  H27  1  0.25000000  0.13317288  0.52664053  1
  S  S28  1  0.75000000  0.62855054  0.86370232  1
  S  S29  1  0.75000000  0.12855054  0.63629768  1
  S  S30  1  0.25000000  0.37144946  0.13629768  1
  S  S31  1  0.25000000  0.87144946  0.36370232  1
  O  O32  1  0.25000000  0.29594631  0.78239407  1
  O  O33  1  0.25000000  0.79594631  0.71760593  1
  O  O34  1  0.75000000  0.70405369  0.21760593  1
  O  O35  1  0.75000000  0.20405369  0.28239407  1
  O  O36  1  0.99424681  0.95106446  0.09948035  1
  O  O37  1  0.50575319  0.45106446  0.40051965  1
  O  O38  1  0.49424681  0.04893554  0.90051965  1
  O  O39  1  0.00575319  0.54893554  0.59948035  1
  O  O40  1  0.00575319  0.04893554  0.90051965  1
  O  O41  1  0.49424681  0.54893554  0.59948035  1
  O  O42  1  0.50575319  0.95106446  0.09948035  1
  O  O43  1  0.99424681  0.45106446  0.40051965  1
  O  O44  1  0.75000000  0.28116310  0.97306408  1
  O  O45  1  0.75000000  0.78116310  0.52693592  1
  O  O46  1  0.25000000  0.71883690  0.02693592  1
  O  O47  1  0.25000000  0.21883690  0.47306408  1
  O  O48  1  0.54628485  0.52945932  0.84656702  1
  O  O49  1  0.95371515  0.02945932  0.65343298  1
  O  O50  1  0.04628485  0.47054068  0.15343298  1
  O  O51  1  0.45371515  0.97054068  0.34656702  1
  O  O52  1  0.45371515  0.47054068  0.15343298  1
  O  O53  1  0.04628485  0.97054068  0.34656702  1
  O  O54  1  0.95371515  0.52945932  0.84656702  1
  O  O55  1  0.54628485  0.02945932  0.65343298  1
  O  O56  1  0.75000000  0.75951490  0.78400524  1
  O  O57  1  0.75000000  0.25951490  0.71599476  1
  O  O58  1  0.25000000  0.24048510  0.21599476  1
  O  O59  1  0.25000000  0.74048510  0.28400524  1
  O  O60  1  0.75000000  0.69291818  0.97523863  1
  O  O61  1  0.75000000  0.19291818  0.52476137  1
  O  O62  1  0.25000000  0.30708182  0.02476137  1
  O  O63  1  0.25000000  0.80708182  0.47523863  1
