# generated using pymatgen
data_Sr2PrCu2(BiO4)2
_symmetry_space_group_name_H-M   'P 1'
_cell_length_a   3.83413574
_cell_length_b   3.83413574
_cell_length_c   15.61208625
_cell_angle_alpha   97.05337005
_cell_angle_beta   97.05337005
_cell_angle_gamma   90.00000000
_symmetry_Int_Tables_number   1
_chemical_formula_structural   Sr2PrCu2(BiO4)2
_chemical_formula_sum   'Sr2 Pr1 Cu2 Bi2 O8'
_cell_volume   226.01991461
_cell_formula_units_Z   1
loop_
 _symmetry_equiv_pos_site_id
 _symmetry_equiv_pos_as_xyz
  1  'x, y, z'
loop_
 _atom_site_type_symbol
 _atom_site_label
 _atom_site_symmetry_multiplicity
 _atom_site_fract_x
 _atom_site_fract_y
 _atom_site_fract_z
 _atom_site_occupancy
  Sr  Sr0  1  0.11559705  0.11559705  0.23119410  1
  Sr  Sr1  1  0.88440295  0.88440295  0.76880590  1
  Pr  Pr2  1  0.00000000  -0.00000000  0.00000000  1
  Cu  Cu3  1  0.44466215  0.44466215  0.88932430  1
  Cu  Cu4  1  0.55533785  0.55533785  0.11067570  1
  Bi  Bi5  1  0.29535671  0.29535671  0.59071343  1
  Bi  Bi6  1  0.70464329  0.70464329  0.40928657  1
  O  O7  1  0.05250261  0.55250261  0.10500522  1
  O  O8  1  0.94749739  0.44749739  0.89499478  1
  O  O9  1  0.55250261  0.05250261  0.10500522  1
  O  O10  1  0.44749739  0.94749739  0.89499478  1
  O  O11  1  0.20329383  0.20329383  0.40658766  1
  O  O12  1  0.79670617  0.79670617  0.59341234  1
  O  O13  1  0.36428071  0.36428071  0.72856142  1
  O  O14  1  0.63571929  0.63571929  0.27143858  1
