# generated using pymatgen
data_Li2Fe(PO3)5
_symmetry_space_group_name_H-M   'P 1'
_cell_length_a   5.15684995
_cell_length_b   13.46880914
_cell_length_c   8.85754353
_cell_angle_alpha   90.00000000
_cell_angle_beta   101.86998594
_cell_angle_gamma   90.00000000
_symmetry_Int_Tables_number   1
_chemical_formula_structural   Li2Fe(PO3)5
_chemical_formula_sum   'Li4 Fe2 P10 O30'
_cell_volume   602.05987850
_cell_formula_units_Z   2
loop_
 _symmetry_equiv_pos_site_id
 _symmetry_equiv_pos_as_xyz
  1  'x, y, z'
loop_
 _atom_site_type_symbol
 _atom_site_label
 _atom_site_symmetry_multiplicity
 _atom_site_fract_x
 _atom_site_fract_y
 _atom_site_fract_z
 _atom_site_occupancy
  Li  Li0  1  0.05920940  0.38399164  0.09700739  1
  Li  Li1  1  0.94079060  0.61600836  0.90299261  1
  Li  Li2  1  0.94079060  0.88399164  0.90299261  1
  Li  Li3  1  0.05920940  0.11600836  0.09700739  1
  Fe  Fe4  1  0.50000000  0.00000000  0.50000000  1
  Fe  Fe5  1  0.50000000  0.50000000  0.50000000  1
  P  P6  1  0.00109592  0.14136165  0.51659975  1
  P  P7  1  0.34132499  0.07675211  0.81589658  1
  P  P8  1  0.99890408  0.64136165  0.48340025  1
  P  P9  1  0.65867501  0.57675211  0.18410342  1
  P  P10  1  0.34132499  0.42324789  0.81589658  1
  P  P11  1  0.54508327  0.25000000  0.01356958  1
  P  P12  1  0.65867501  0.92324789  0.18410342  1
  P  P13  1  0.99890408  0.85863835  0.48340025  1
  P  P14  1  0.45491673  0.75000000  0.98643042  1
  P  P15  1  0.00109592  0.35863835  0.51659975  1
  O  O16  1  0.85001873  0.57312520  0.57167997  1
  O  O17  1  0.19145051  0.75000000  0.87756029  1
  O  O18  1  0.29246071  0.62723304  0.49818234  1
  O  O19  1  0.80975893  0.96799173  0.07445282  1
  O  O20  1  0.86114319  0.85442261  0.30536088  1
  O  O21  1  0.80854949  0.25000000  0.12243971  1
  O  O22  1  0.29246071  0.87276696  0.49818234  1
  O  O23  1  0.51262618  0.99060215  0.27530584  1
  O  O24  1  0.13885681  0.14557739  0.69463912  1
  O  O25  1  0.05503997  0.25000000  0.45888869  1
  O  O26  1  0.51262618  0.50939785  0.27530584  1
  O  O27  1  0.71268127  0.75000000  0.93394431  1
  O  O28  1  0.80975893  0.53200827  0.07445282  1
  O  O29  1  0.44444601  0.65685898  0.10388154  1
  O  O30  1  0.14998127  0.07312520  0.42832003  1
  O  O31  1  0.85001873  0.92687480  0.57167997  1
  O  O32  1  0.19024107  0.46799173  0.92554718  1
  O  O33  1  0.86114319  0.64557739  0.30536088  1
  O  O34  1  0.48737382  0.49060215  0.72469416  1
  O  O35  1  0.44444601  0.84314102  0.10388154  1
  O  O36  1  0.55555399  0.34314102  0.89611846  1
  O  O37  1  0.19024107  0.03200827  0.92554718  1
  O  O38  1  0.13885681  0.35442261  0.69463912  1
  O  O39  1  0.28731873  0.25000000  0.06605569  1
  O  O40  1  0.48737382  0.00939785  0.72469416  1
  O  O41  1  0.55555399  0.15685898  0.89611846  1
  O  O42  1  0.94496003  0.75000000  0.54111131  1
  O  O43  1  0.14998127  0.42687480  0.42832003  1
  O  O44  1  0.70753929  0.37276696  0.50181766  1
  O  O45  1  0.70753929  0.12723304  0.50181766  1
