# generated using pymatgen
data_K4CoMo4O15
_symmetry_space_group_name_H-M   'P 1'
_cell_length_a   10.47964076
_cell_length_b   10.47964034
_cell_length_c   8.31032622
_cell_angle_alpha   90.00000000
_cell_angle_beta   90.00000000
_cell_angle_gamma   120.00000131
_symmetry_Int_Tables_number   1
_chemical_formula_structural   K4CoMo4O15
_chemical_formula_sum   'K8 Co2 Mo8 O30'
_cell_volume   790.39006327
_cell_formula_units_Z   2
loop_
 _symmetry_equiv_pos_site_id
 _symmetry_equiv_pos_as_xyz
  1  'x, y, z'
loop_
 _atom_site_type_symbol
 _atom_site_label
 _atom_site_symmetry_multiplicity
 _atom_site_fract_x
 _atom_site_fract_y
 _atom_site_fract_z
 _atom_site_occupancy
  K  K0  1  0.09248870  0.69504582  0.14018637  1
  K  K1  1  0.60255712  0.90751130  0.14018637  1
  K  K2  1  0.39744288  0.09248870  0.85981363  1
  K  K3  1  0.00000000  0.00000000  0.00000000  1
  K  K4  1  0.90751130  0.30495418  0.85981363  1
  K  K5  1  0.69504582  0.60255712  0.85981363  1
  K  K6  1  0.30495418  0.39744288  0.14018637  1
  K  K7  1  0.00000000  0.00000000  0.50000000  1
  Co  Co8  1  0.33333300  0.66666700  0.47397785  1
  Co  Co9  1  0.66666700  0.33333300  0.52602215  1
  Mo  Mo10  1  0.98743806  0.32911824  0.36549234  1
  Mo  Mo11  1  0.01256194  0.67088176  0.63450766  1
  Mo  Mo12  1  0.34168018  0.01256194  0.36549234  1
  Mo  Mo13  1  0.66666700  0.33333300  0.14878149  1
  Mo  Mo14  1  0.65831982  0.98743806  0.63450766  1
  Mo  Mo15  1  0.33333300  0.66666700  0.85121851  1
  Mo  Mo16  1  0.67088176  0.65831982  0.36549234  1
  Mo  Mo17  1  0.32911824  0.34168018  0.63450766  1
  O  O18  1  0.47727748  0.81539917  0.65353842  1
  O  O19  1  0.66187831  0.47727748  0.34646158  1
  O  O20  1  0.72955175  0.99011107  0.44191680  1
  O  O21  1  0.48898663  0.63938818  0.34608653  1
  O  O22  1  0.17637092  0.51928997  0.94500578  1
  O  O23  1  0.15040155  0.51101337  0.34608653  1
  O  O24  1  0.27044825  0.00988893  0.55808320  1
  O  O25  1  0.36061182  0.84959845  0.34608653  1
  O  O26  1  0.51928997  0.34291905  0.05499422  1
  O  O27  1  0.84959845  0.48898663  0.65391347  1
  O  O28  1  0.33812169  0.52272252  0.65353842  1
  O  O29  1  0.81539917  0.33812169  0.34646158  1
  O  O30  1  0.99011107  0.26055932  0.55808320  1
  O  O31  1  0.73944068  0.72955175  0.55808320  1
  O  O32  1  0.34291905  0.82362908  0.94500578  1
  O  O33  1  0.82362908  0.48071003  0.05499422  1
  O  O34  1  0.22010351  0.00389492  0.21011979  1
  O  O35  1  0.00988893  0.73944068  0.44191680  1
  O  O36  1  0.65708095  0.17637092  0.05499422  1
  O  O37  1  0.77989649  0.99610508  0.78988021  1
  O  O38  1  0.99610508  0.21620859  0.21011979  1
  O  O39  1  0.52272252  0.18460083  0.34646158  1
  O  O40  1  0.51101337  0.36061182  0.65391347  1
  O  O41  1  0.18460083  0.66187831  0.65353842  1
  O  O42  1  0.26055932  0.27044825  0.44191680  1
  O  O43  1  0.63938818  0.15040155  0.65391347  1
  O  O44  1  0.78379141  0.77989649  0.21011979  1
  O  O45  1  0.00389492  0.78379141  0.78988021  1
  O  O46  1  0.48071003  0.65708095  0.94500578  1
  O  O47  1  0.21620859  0.22010351  0.78988021  1
