# generated using pymatgen
data_KH3SO6
_symmetry_space_group_name_H-M   'P 1'
_cell_length_a   10.02158816
_cell_length_b   10.02158816
_cell_length_c   7.56573274
_cell_angle_alpha   89.01515858
_cell_angle_beta   90.98484142
_cell_angle_gamma   134.50831527
_symmetry_Int_Tables_number   1
_chemical_formula_structural   KH3SO6
_chemical_formula_sum   'K4 H12 S4 O24'
_cell_volume   541.78723181
_cell_formula_units_Z   4
loop_
 _symmetry_equiv_pos_site_id
 _symmetry_equiv_pos_as_xyz
  1  'x, y, z'
loop_
 _atom_site_type_symbol
 _atom_site_label
 _atom_site_symmetry_multiplicity
 _atom_site_fract_x
 _atom_site_fract_y
 _atom_site_fract_z
 _atom_site_occupancy
  K  K0  1  0.19807179  0.55919985  0.12313638  1
  K  K1  1  0.55919985  0.19807179  0.37686362  1
  K  K2  1  0.80192821  0.44080015  0.87686362  1
  K  K3  1  0.44080015  0.80192821  0.62313638  1
  H  H4  1  0.63314513  0.71812405  0.95680997  1
  H  H5  1  0.71812405  0.63314513  0.54319003  1
  H  H6  1  0.36685487  0.28187595  0.04319003  1
  H  H7  1  0.28187595  0.36685487  0.45680997  1
  H  H8  1  0.91446642  0.82301482  0.87730862  1
  H  H9  1  0.82301482  0.91446642  0.62269138  1
  H  H10  1  0.08553358  0.17698518  0.12269138  1
  H  H11  1  0.17698518  0.08553358  0.37730862  1
  H  H12  1  0.86052588  0.76083224  0.07367562  1
  H  H13  1  0.76083224  0.86052588  0.42632438  1
  H  H14  1  0.13947412  0.23916776  0.92632438  1
  H  H15  1  0.23916776  0.13947412  0.57367562  1
  S  S16  1  0.70739780  0.01250351  0.14505787  1
  S  S17  1  0.01250351  0.70739780  0.35494213  1
  S  S18  1  0.29260220  0.98749649  0.85494213  1
  S  S19  1  0.98749649  0.29260220  0.64505787  1
  O  O20  1  0.52868848  0.71401839  0.96187137  1
  O  O21  1  0.71401839  0.52868848  0.53812863  1
  O  O22  1  0.47131152  0.28598161  0.03812863  1
  O  O23  1  0.28598161  0.47131152  0.46187137  1
  O  O24  1  0.63489980  0.91369052  0.94561294  1
  O  O25  1  0.91369052  0.63489980  0.55438706  1
  O  O26  1  0.36510020  0.08630948  0.05438706  1
  O  O27  1  0.08630948  0.36510020  0.44561294  1
  O  O28  1  0.83192286  0.99367586  0.21125414  1
  O  O29  1  0.99367586  0.83192286  0.28874586  1
  O  O30  1  0.16807714  0.00632414  0.78874586  1
  O  O31  1  0.00632414  0.16807714  0.71125414  1
  O  O32  1  0.53981032  0.91066608  0.25209719  1
  O  O33  1  0.91066608  0.53981032  0.24790281  1
  O  O34  1  0.46018968  0.08933392  0.74790281  1
  O  O35  1  0.08933392  0.46018968  0.75209719  1
  O  O36  1  0.79955854  0.20093714  0.09218141  1
  O  O37  1  0.20093714  0.79955854  0.40781859  1
  O  O38  1  0.20044146  0.79906286  0.90781859  1
  O  O39  1  0.79906286  0.20044146  0.59218141  1
  O  O40  1  0.80631388  0.72688308  0.95335935  1
  O  O41  1  0.72688308  0.80631388  0.54664065  1
  O  O42  1  0.19368612  0.27311692  0.04664065  1
  O  O43  1  0.27311692  0.19368612  0.45335935  1
