# generated using pymatgen
data_Sr24Ni19O54
_symmetry_space_group_name_H-M   'P 1'
_cell_length_a   9.56248216
_cell_length_b   9.60425448
_cell_length_c   15.62455854
_cell_angle_alpha   89.73350415
_cell_angle_beta   90.28065939
_cell_angle_gamma   119.86328087
_symmetry_Int_Tables_number   1
_chemical_formula_structural   Sr24Ni19O54
_chemical_formula_sum   'Sr24 Ni19 O54'
_cell_volume   1244.40781277
_cell_formula_units_Z   1
loop_
 _symmetry_equiv_pos_site_id
 _symmetry_equiv_pos_as_xyz
  1  'x, y, z'
loop_
 _atom_site_type_symbol
 _atom_site_label
 _atom_site_symmetry_multiplicity
 _atom_site_fract_x
 _atom_site_fract_y
 _atom_site_fract_z
 _atom_site_occupancy
  Sr  Sr0  1  0.02440341  0.69253597  0.12882130  1
  Sr  Sr1  1  0.02250265  0.69094186  0.62206332  1
  Sr  Sr2  1  0.33610248  0.00056527  0.25181557  1
  Sr  Sr3  1  0.33888812  0.01018853  0.73822846  1
  Sr  Sr4  1  0.30492674  0.33373382  0.12498202  1
  Sr  Sr5  1  0.30908025  0.33605241  0.62464761  1
  Sr  Sr6  1  0.33461824  0.30707130  0.37424184  1
  Sr  Sr7  1  0.33941794  0.29061545  0.87404951  1
  Sr  Sr8  1  0.66220709  0.97269892  0.12844171  1
  Sr  Sr9  1  0.66589511  0.97184630  0.62405162  1
  Sr  Sr10  1  0.63620876  0.64191378  0.99828846  1
  Sr  Sr11  1  0.64018499  0.64446350  0.49814632  1
  Sr  Sr12  1  0.66473639  0.66935338  0.24988053  1
  Sr  Sr13  1  0.67269891  0.66877914  0.74647135  1
  Sr  Sr14  1  0.36661003  0.01234855  0.00918939  1
  Sr  Sr15  1  0.36241823  0.99813680  0.49754626  1
  Sr  Sr16  1  0.97159604  0.66781259  0.37376655  1
  Sr  Sr17  1  0.96867352  0.66885044  0.87723891  1
  Sr  Sr18  1  0.68545830  0.01538518  0.37491694  1
  Sr  Sr19  1  0.71185632  0.03823710  0.87647972  1
  Sr  Sr20  1  0.98915009  0.35111257  0.01095620  1
  Sr  Sr21  1  0.99415106  0.35453201  0.50033782  1
  Sr  Sr22  1  0.99399599  0.32669247  0.25119794  1
  Sr  Sr23  1  0.98904330  0.31722506  0.73921769  1
  Ni  Ni24  1  -0.00021311  -0.00021173  0.17166797  1
  Ni  Ni25  1  0.00201779  0.99728963  0.67030735  1
  Ni  Ni26  1  0.27318276  0.61089455  0.37916902  1
  Ni  Ni27  1  0.36370492  0.78560494  0.87934648  1
  Ni  Ni28  1  0.33562960  0.67240129  0.21067112  1
  Ni  Ni29  1  0.33739330  0.66315771  0.71261707  1
  Ni  Ni30  1  0.33235348  0.66407271  0.04754846  1
  Ni  Ni31  1  0.00137911  0.99610650  0.00328670  1
  Ni  Ni32  1  0.33857460  0.67051650  0.54784826  1
  Ni  Ni33  1  0.00136342  0.00126002  0.33031926  1
  Ni  Ni34  1  0.00242032  0.00055197  0.49839623  1
  Ni  Ni35  1  0.00527908  0.00222953  0.83036727  1
  Ni  Ni36  1  0.23170696  0.52443321  0.87762989  1
  Ni  Ni37  1  0.67004114  0.33517242  0.95057317  1
  Ni  Ni38  1  0.66717346  0.33733962  0.12123165  1
  Ni  Ni39  1  0.66669134  0.33544174  0.45014324  1
  Ni  Ni40  1  0.66648452  0.33477008  0.61990458  1
  Ni  Ni41  1  0.66718220  0.33657323  0.28979048  1
  Ni  Ni42  1  0.66996846  0.33372967  0.78930993  1
  O  O43  1  0.00241417  0.85269656  0.25119793  1
  O  O44  1  0.00176071  0.84853460  0.75110715  1
  O  O45  1  0.15305332  0.99019763  0.40170281  1
  O  O46  1  0.15343267  0.98801934  0.90462916  1
  O  O47  1  0.19538032  0.68381562  0.96854678  1
  O  O48  1  0.18976995  0.68262541  0.47276172  1
  O  O49  1  0.19602141  0.68791687  0.28661750  1
  O  O50  1  0.19510017  0.68183382  0.79953585  1
  O  O51  1  0.16057697  0.51422846  0.13606317  1
  O  O52  1  0.16630551  0.51874120  0.62410424  1
  O  O53  1  0.00988367  0.16181581  0.40147386  1
  O  O54  1  0.02141263  0.17482798  0.89665368  1
  O  O55  1  0.34049378  0.82985366  0.13236872  1
  O  O56  1  0.34423791  0.82726024  0.62539902  1
  O  O57  1  0.32129915  0.50775916  0.47371792  1
  O  O58  1  0.30954447  0.47503094  0.97965013  1
  O  O59  1  0.32688589  0.51551446  0.28535557  1
  O  O60  1  0.31323678  0.48072798  0.77517993  1
  O  O61  1  0.14990366  0.15078094  0.25065686  1
  O  O62  1  0.15370583  0.14388194  0.74870366  1
  O  O63  1  0.51280397  0.83011835  0.26700111  1
  O  O64  1  0.50110411  0.83282905  0.78434590  1
  O  O65  1  0.51410604  0.83104126  0.48768536  1
  O  O66  1  0.50737111  0.83794691  0.97139765  1
  O  O67  1  0.16300489  0.01170422  0.10170447  1
  O  O68  1  0.16446161  0.00781458  0.59934320  1
  O  O69  1  0.47369605  0.65043478  0.12712887  1
  O  O70  1  0.48410731  0.64754941  0.62470034  1
  O  O71  1  0.50401375  0.31699877  0.02117359  1
  O  O72  1  0.50314471  0.32182703  0.52067108  1
  O  O73  1  0.50975614  0.33193767  0.21892819  1
  O  O74  1  0.50801393  0.31867036  0.71837991  1
  O  O75  1  0.85259856  0.00202714  0.25067087  1
  O  O76  1  0.85555705  0.00077794  0.74959382  1
  O  O77  1  0.65235650  0.48037904  0.37018387  1
  O  O78  1  0.65180316  0.47753766  0.86989544  1
  O  O79  1  0.83896376  0.84817373  0.40029450  1
  O  O80  1  0.84125504  0.85476739  0.90283665  1
  O  O81  1  0.84655981  0.83538040  0.10085012  1
  O  O82  1  0.84726176  0.83459718  0.60124946  1
  O  O83  1  0.52097569  0.17589772  0.37047562  1
  O  O84  1  0.52798029  0.17207854  0.87088161  1
  O  O85  1  0.81610242  0.50314309  0.02113278  1
  O  O86  1  0.81758679  0.49963370  0.51972648  1
  O  O87  1  0.81958813  0.49645167  0.22181814  1
  O  O88  1  0.81567161  0.49512516  0.71870050  1
  O  O89  1  0.67605108  0.18899841  0.21826840  1
  O  O90  1  0.68290604  0.18852449  0.71736000  1
  O  O91  1  0.68791781  0.19037000  0.02376079  1
  O  O92  1  0.68159323  0.18827480  0.52247542  1
  O  O93  1  0.82505359  0.34697169  0.37103435  1
  O  O94  1  0.83154100  0.35156281  0.87137404  1
  O  O95  1  0.98639374  0.14754471  0.09957577  1
  O  O96  1  0.99045700  0.15108776  0.60035091  1
