# generated using pymatgen
data_LiCu2F5
_symmetry_space_group_name_H-M   'P 1'
_cell_length_a   3.87336933
_cell_length_b   5.56965065
_cell_length_c   9.88937340
_cell_angle_alpha   89.82352702
_cell_angle_beta   89.99768941
_cell_angle_gamma   69.70429194
_symmetry_Int_Tables_number   1
_chemical_formula_structural   LiCu2F5
_chemical_formula_sum   'Li2 Cu4 F10'
_cell_volume   200.09985059
_cell_formula_units_Z   2
loop_
 _symmetry_equiv_pos_site_id
 _symmetry_equiv_pos_as_xyz
  1  'x, y, z'
loop_
 _atom_site_type_symbol
 _atom_site_label
 _atom_site_symmetry_multiplicity
 _atom_site_fract_x
 _atom_site_fract_y
 _atom_site_fract_z
 _atom_site_occupancy
  Li  Li0  1  0.19505841  0.60993255  0.75072587  1
  Li  Li1  1  0.80493076  0.39006012  0.24919732  1
  Cu  Cu2  1  0.13421323  0.73203626  0.43088827  1
  Cu  Cu3  1  0.13525025  0.73021339  0.07013886  1
  Cu  Cu4  1  0.86560790  0.26812324  0.56926122  1
  Cu  Cu5  1  0.86497576  0.26959909  0.92984270  1
  F  F6  1  0.06595513  0.86983236  0.61024554  1
  F  F7  1  0.06700329  0.86795041  0.88894634  1
  F  F8  1  0.32492876  0.34949085  0.56920901  1
  F  F9  1  0.32550412  0.34846241  0.93038659  1
  F  F10  1  0.21967641  0.56134017  0.25012947  1
  F  F11  1  0.78028620  0.43873820  0.74963940  1
  F  F12  1  0.67445216  0.65182933  0.06970689  1
  F  F13  1  0.67498365  0.65051504  0.43078184  1
  F  F14  1  0.93386215  0.13025880  0.38969061  1
  F  F15  1  0.93331283  0.13161877  0.11121008  1
