# generated using pymatgen
data_Zn3P2(H2O3)4
_symmetry_space_group_name_H-M   'P 1'
_cell_length_a   10.76003724
_cell_length_b   19.05636003
_cell_length_c   5.09388680
_cell_angle_alpha   90.00000000
_cell_angle_beta   90.00000000
_cell_angle_gamma   90.00000000
_symmetry_Int_Tables_number   1
_chemical_formula_structural   Zn3P2(H2O3)4
_chemical_formula_sum   'Zn12 P8 H32 O48'
_cell_volume   1044.48693807
_cell_formula_units_Z   4
loop_
 _symmetry_equiv_pos_site_id
 _symmetry_equiv_pos_as_xyz
  1  'x, y, z'
loop_
 _atom_site_type_symbol
 _atom_site_label
 _atom_site_symmetry_multiplicity
 _atom_site_fract_x
 _atom_site_fract_y
 _atom_site_fract_z
 _atom_site_occupancy
  Zn  Zn0  1  0.73852281  0.25000000  0.93786734  1
  Zn  Zn1  1  0.23852281  0.25000000  0.56213266  1
  Zn  Zn2  1  0.26147719  0.75000000  0.06213266  1
  Zn  Zn3  1  0.76147719  0.75000000  0.43786734  1
  Zn  Zn4  1  0.64214342  0.99852244  0.28501228  1
  Zn  Zn5  1  0.14214342  0.50147756  0.21498772  1
  Zn  Zn6  1  0.35785658  0.49852244  0.71498772  1
  Zn  Zn7  1  0.85785658  0.00147756  0.78501228  1
  Zn  Zn8  1  0.35785658  0.00147756  0.71498772  1
  Zn  Zn9  1  0.85785658  0.49852244  0.78501228  1
  Zn  Zn10  1  0.64214342  0.50147756  0.28501228  1
  Zn  Zn11  1  0.14214342  0.99852244  0.21498772  1
  P  P12  1  0.60290484  0.09343907  0.77344957  1
  P  P13  1  0.10290484  0.40656093  0.72655043  1
  P  P14  1  0.39709516  0.59343907  0.22655043  1
  P  P15  1  0.89709516  0.90656093  0.27344957  1
  P  P16  1  0.39709516  0.90656093  0.22655043  1
  P  P17  1  0.89709516  0.59343907  0.27344957  1
  P  P18  1  0.60290484  0.40656093  0.77344957  1
  P  P19  1  0.10290484  0.09343907  0.72655043  1
  H  H20  1  0.61630390  0.20997762  0.37628899  1
  H  H21  1  0.11630390  0.29002238  0.12371101  1
  H  H22  1  0.38369610  0.70997762  0.62371101  1
  H  H23  1  0.88369610  0.79002238  0.87628899  1
  H  H24  1  0.38369610  0.79002238  0.62371101  1
  H  H25  1  0.88369610  0.70997762  0.87628899  1
  H  H26  1  0.61630390  0.29002238  0.37628899  1
  H  H27  1  0.11630390  0.20997762  0.12371101  1
  H  H28  1  0.94960597  0.20988119  0.68943975  1
  H  H29  1  0.44960597  0.29011881  0.81056025  1
  H  H30  1  0.05039403  0.70988119  0.31056025  1
  H  H31  1  0.55039403  0.79011881  0.18943975  1
  H  H32  1  0.05039403  0.79011881  0.31056025  1
  H  H33  1  0.55039403  0.70988119  0.18943975  1
  H  H34  1  0.94960597  0.29011881  0.68943975  1
  H  H35  1  0.44960597  0.20988119  0.81056025  1
  H  H36  1  0.76091540  0.13489421  0.21174520  1
  H  H37  1  0.26091540  0.36510579  0.28825480  1
  H  H38  1  0.23908460  0.63489421  0.78825480  1
  H  H39  1  0.73908460  0.86510579  0.71174520  1
  H  H40  1  0.23908460  0.86510579  0.78825480  1
  H  H41  1  0.73908460  0.63489421  0.71174520  1
  H  H42  1  0.76091540  0.36510579  0.21174520  1
  H  H43  1  0.26091540  0.13489421  0.28825480  1
  H  H44  1  0.88597311  0.13528703  0.05494869  1
  H  H45  1  0.38597311  0.36471297  0.44505131  1
  H  H46  1  0.11402689  0.63528703  0.94505131  1
  H  H47  1  0.61402689  0.86471297  0.55494869  1
  H  H48  1  0.11402689  0.86471297  0.94505131  1
  H  H49  1  0.61402689  0.63528703  0.55494869  1
  H  H50  1  0.88597311  0.36471297  0.05494869  1
  H  H51  1  0.38597311  0.13528703  0.44505131  1
  O  O52  1  0.60994507  0.25000000  0.25350602  1
  O  O53  1  0.10994507  0.25000000  0.24649398  1
  O  O54  1  0.39005493  0.75000000  0.74649398  1
  O  O55  1  0.89005493  0.75000000  0.75350602  1
  O  O56  1  0.89346187  0.25000000  0.69313249  1
  O  O57  1  0.39346187  0.25000000  0.80686751  1
  O  O58  1  0.10653813  0.75000000  0.30686751  1
  O  O59  1  0.60653813  0.75000000  0.19313249  1
  O  O60  1  0.82807790  0.16580880  0.15449641  1
  O  O61  1  0.32807790  0.33419120  0.34550359  1
  O  O62  1  0.17192210  0.66580880  0.84550359  1
  O  O63  1  0.67192210  0.83419120  0.65449641  1
  O  O64  1  0.17192210  0.83419120  0.84550359  1
  O  O65  1  0.67192210  0.66580880  0.65449641  1
  O  O66  1  0.82807790  0.33419120  0.15449641  1
  O  O67  1  0.32807790  0.16580880  0.34550359  1
  O  O68  1  0.63681857  0.16990336  0.71506197  1
  O  O69  1  0.13681857  0.33009664  0.78493803  1
  O  O70  1  0.36318143  0.66990336  0.28493803  1
  O  O71  1  0.86318143  0.83009664  0.21506197  1
  O  O72  1  0.36318143  0.83009664  0.28493803  1
  O  O73  1  0.86318143  0.66990336  0.21506197  1
  O  O74  1  0.63681857  0.33009664  0.71506197  1
  O  O75  1  0.13681857  0.16990336  0.78493803  1
  O  O76  1  0.60596599  0.07929694  0.07177087  1
  O  O77  1  0.10596599  0.42070306  0.42822913  1
  O  O78  1  0.39403401  0.57929694  0.92822913  1
  O  O79  1  0.89403401  0.92070306  0.57177087  1
  O  O80  1  0.39403401  0.92070306  0.92822913  1
  O  O81  1  0.89403401  0.57929694  0.57177087  1
  O  O82  1  0.60596599  0.42070306  0.07177087  1
  O  O83  1  0.10596599  0.07929694  0.42822913  1
  O  O84  1  0.97203223  0.07832076  0.84671375  1
  O  O85  1  0.47203223  0.42167924  0.65328625  1
  O  O86  1  0.02796777  0.57832076  0.15328625  1
  O  O87  1  0.52796777  0.92167924  0.34671375  1
  O  O88  1  0.02796777  0.92167924  0.15328625  1
  O  O89  1  0.52796777  0.57832076  0.34671375  1
  O  O90  1  0.97203223  0.42167924  0.84671375  1
  O  O91  1  0.47203223  0.07832076  0.65328625  1
  O  O92  1  0.69568209  0.03952338  0.63535117  1
  O  O93  1  0.19568209  0.46047662  0.86464883  1
  O  O94  1  0.30431791  0.53952338  0.36464883  1
  O  O95  1  0.80431791  0.96047662  0.13535117  1
  O  O96  1  0.30431791  0.96047662  0.36464883  1
  O  O97  1  0.80431791  0.53952338  0.13535117  1
  O  O98  1  0.69568209  0.46047662  0.63535117  1
  O  O99  1  0.19568209  0.03952338  0.86464883  1
