# generated using pymatgen
data_FeH6SO6
_symmetry_space_group_name_H-M   'P 1'
_cell_length_a   7.42264753
_cell_length_b   8.03466571
_cell_length_c   9.32049004
_cell_angle_alpha   90.00000000
_cell_angle_beta   104.25574368
_cell_angle_gamma   90.00000000
_symmetry_Int_Tables_number   1
_chemical_formula_structural   FeH6SO6
_chemical_formula_sum   'Fe4 H24 S4 O24'
_cell_volume   538.74294231
_cell_formula_units_Z   4
loop_
 _symmetry_equiv_pos_site_id
 _symmetry_equiv_pos_as_xyz
  1  'x, y, z'
loop_
 _atom_site_type_symbol
 _atom_site_label
 _atom_site_symmetry_multiplicity
 _atom_site_fract_x
 _atom_site_fract_y
 _atom_site_fract_z
 _atom_site_occupancy
  Fe  Fe0  1  0.84315044  0.35771824  0.52198765  1
  Fe  Fe1  1  0.15684956  0.85771824  0.97801235  1
  Fe  Fe2  1  0.15684956  0.64228176  0.47801235  1
  Fe  Fe3  1  0.84315044  0.14228176  0.02198765  1
  H  H4  1  0.48322597  0.26894584  0.51995353  1
  H  H5  1  0.51677403  0.76894584  0.98004647  1
  H  H6  1  0.51677403  0.73105416  0.48004647  1
  H  H7  1  0.48322597  0.23105416  0.01995353  1
  H  H8  1  0.51951820  0.42263439  0.63116996  1
  H  H9  1  0.48048180  0.92263439  0.86883004  1
  H  H10  1  0.48048180  0.57736561  0.36883004  1
  H  H11  1  0.51951820  0.07736561  0.13116996  1
  H  H12  1  0.31831101  0.48475308  0.75314892  1
  H  H13  1  0.68168899  0.98475308  0.74685108  1
  H  H14  1  0.68168899  0.51524692  0.24685108  1
  H  H15  1  0.31831101  0.01524692  0.25314892  1
  H  H16  1  0.38123992  0.67163457  0.75200185  1
  H  H17  1  0.61876008  0.17163457  0.74799815  1
  H  H18  1  0.61876008  0.32836543  0.24799815  1
  H  H19  1  0.38123992  0.82836543  0.25200185  1
  H  H20  1  0.84999163  0.42238218  0.87718234  1
  H  H21  1  0.15000837  0.92238218  0.62281766  1
  H  H22  1  0.15000837  0.57761782  0.12281766  1
  H  H23  1  0.84999163  0.07761782  0.37718234  1
  H  H24  1  0.76434568  0.49498706  0.00825852  1
  H  H25  1  0.23565432  0.99498706  0.49174148  1
  H  H26  1  0.23565432  0.50501294  0.99174148  1
  H  H27  1  0.76434568  0.00501294  0.50825852  1
  S  S28  1  0.84768325  0.70885427  0.68812311  1
  S  S29  1  0.15231675  0.20885427  0.81187689  1
  S  S30  1  0.15231675  0.29114573  0.31187689  1
  S  S31  1  0.84768325  0.79114573  0.18812311  1
  O  O32  1  0.90125996  0.61965121  0.55449634  1
  O  O33  1  0.09874004  0.11965121  0.94550366  1
  O  O34  1  0.09874004  0.38034879  0.44550366  1
  O  O35  1  0.90125996  0.88034879  0.05449634  1
  O  O36  1  0.98024306  0.31450085  0.74256462  1
  O  O37  1  0.01975694  0.81450085  0.75743538  1
  O  O38  1  0.01975694  0.68549915  0.25743538  1
  O  O39  1  0.98024306  0.18549915  0.24256462  1
  O  O40  1  0.30179387  0.33724115  0.88679688  1
  O  O41  1  0.69820613  0.83724115  0.61320312  1
  O  O42  1  0.69820613  0.66275885  0.11320312  1
  O  O43  1  0.30179387  0.16275885  0.38679688  1
  O  O44  1  0.58038811  0.32435560  0.59922844  1
  O  O45  1  0.41961189  0.82435560  0.90077156  1
  O  O46  1  0.41961189  0.67564440  0.40077156  1
  O  O47  1  0.58038811  0.17564440  0.09922844  1
  O  O48  1  0.35146843  0.57222673  0.68708547  1
  O  O49  1  0.64853157  0.07222673  0.81291453  1
  O  O50  1  0.64853157  0.42777327  0.31291453  1
  O  O51  1  0.35146843  0.92777327  0.18708547  1
  O  O52  1  0.78450134  0.39311707  0.95367755  1
  O  O53  1  0.21549866  0.89311707  0.54632245  1
  O  O54  1  0.21549866  0.60688293  0.04632245  1
  O  O55  1  0.78450134  0.10688293  0.45367755  1
