# generated using pymatgen
data_LiAg2F4
_symmetry_space_group_name_H-M   'P 1'
_cell_length_a   6.06444233
_cell_length_b   7.00047763
_cell_length_c   9.69379689
_cell_angle_alpha   90.00000000
_cell_angle_beta   92.53562846
_cell_angle_gamma   90.00000000
_symmetry_Int_Tables_number   1
_chemical_formula_structural   LiAg2F4
_chemical_formula_sum   'Li4 Ag8 F16'
_cell_volume   411.13744666
_cell_formula_units_Z   4
loop_
 _symmetry_equiv_pos_site_id
 _symmetry_equiv_pos_as_xyz
  1  'x, y, z'
loop_
 _atom_site_type_symbol
 _atom_site_label
 _atom_site_symmetry_multiplicity
 _atom_site_fract_x
 _atom_site_fract_y
 _atom_site_fract_z
 _atom_site_occupancy
  Li  Li0  1  0.17123770  0.28032642  0.06822999  1
  Li  Li1  1  0.32876230  0.78032642  0.43177001  1
  Li  Li2  1  0.67123770  0.21967358  0.56822999  1
  Li  Li3  1  0.82876230  0.71967358  0.93177001  1
  Ag  Ag4  1  0.21874987  0.00795997  0.72346553  1
  Ag  Ag5  1  0.19951452  0.32940636  0.44563801  1
  Ag  Ag6  1  0.28125013  0.50795997  0.77653447  1
  Ag  Ag7  1  0.30048548  0.82940636  0.05436199  1
  Ag  Ag8  1  0.69951452  0.17059364  0.94563801  1
  Ag  Ag9  1  0.71874987  0.49204003  0.22346553  1
  Ag  Ag10  1  0.80048548  0.67059364  0.55436199  1
  Ag  Ag11  1  0.78125013  0.99204003  0.27653447  1
  F  F12  1  0.02022747  0.74461324  0.77983096  1
  F  F13  1  0.05616518  0.15703712  0.89929703  1
  F  F14  1  0.07551355  0.62449363  0.40013441  1
  F  F15  1  0.24696357  0.02618624  0.48915741  1
  F  F16  1  0.25303643  0.52618624  0.01084259  1
  F  F17  1  0.44383482  0.65703712  0.60070297  1
  F  F18  1  0.42448645  0.12449363  0.09986559  1
  F  F19  1  0.47977253  0.24461324  0.72016904  1
  F  F20  1  0.52022747  0.75538676  0.27983096  1
  F  F21  1  0.57551355  0.87550637  0.90013441  1
  F  F22  1  0.55616518  0.34296288  0.39929703  1
  F  F23  1  0.74696357  0.47381376  0.98915741  1
  F  F24  1  0.75303643  0.97381376  0.51084259  1
  F  F25  1  0.92448645  0.37550637  0.59986559  1
  F  F26  1  0.94383482  0.84296288  0.10070297  1
  F  F27  1  0.97977253  0.25538676  0.22016904  1
