# generated using pymatgen
data_NiH12(NO6)2
_symmetry_space_group_name_H-M   'P 1'
_cell_length_a   7.73850310
_cell_length_b   12.30555481
_cell_length_c   5.82074216
_cell_angle_alpha   100.39659754
_cell_angle_beta   102.85482467
_cell_angle_gamma   107.72228396
_symmetry_Int_Tables_number   1
_chemical_formula_structural   NiH12(NO6)2
_chemical_formula_sum   'Ni2 H24 N4 O24'
_cell_volume   496.02896478
_cell_formula_units_Z   2
loop_
 _symmetry_equiv_pos_site_id
 _symmetry_equiv_pos_as_xyz
  1  'x, y, z'
loop_
 _atom_site_type_symbol
 _atom_site_label
 _atom_site_symmetry_multiplicity
 _atom_site_fract_x
 _atom_site_fract_y
 _atom_site_fract_z
 _atom_site_occupancy
  Ni  Ni0  1  0.90853854  0.76682820  0.95057094  1
  Ni  Ni1  1  0.09146146  0.23317180  0.04942906  1
  H  H2  1  0.10249632  0.62907429  0.83601042  1
  H  H3  1  0.89750368  0.37092571  0.16398958  1
  H  H4  1  0.88631064  0.55991447  0.71187525  1
  H  H5  1  0.11368936  0.44008553  0.28812475  1
  H  H6  1  0.01074774  0.85113722  0.61543416  1
  H  H7  1  0.98925226  0.14886278  0.38456584  1
  H  H8  1  0.80250039  0.85428100  0.57223734  1
  H  H9  1  0.19749961  0.14571900  0.42776266  1
  H  H10  1  0.70449845  0.88746641  0.06287457  1
  H  H11  1  0.29550155  0.11253359  0.93712543  1
  H  H12  1  0.92206289  0.96810757  0.19013342  1
  H  H13  1  0.07793711  0.03189243  0.80986658  1
  H  H14  1  0.05169666  0.70475987  0.34906370  1
  H  H15  1  0.94830334  0.29524013  0.65093630  1
  H  H16  1  0.85139479  0.60834511  0.21236596  1
  H  H17  1  0.14860521  0.39165489  0.78763404  1
  H  H18  1  0.58731175  0.64553470  0.59293470  1
  H  H19  1  0.41268825  0.35446530  0.40706530  1
  H  H20  1  0.53016305  0.64121145  0.84200829  1
  H  H21  1  0.46983695  0.35878855  0.15799171  1
  H  H22  1  0.28165571  0.86561689  0.01943841  1
  H  H23  1  0.71834429  0.13438311  0.98056159  1
  H  H24  1  0.23400137  0.88213071  0.27770386  1
  H  H25  1  0.76599863  0.11786929  0.72229614  1
  N  N26  1  0.58326170  0.13053390  0.33336869  1
  N  N27  1  0.41673830  0.86946610  0.66663131  1
  N  N28  1  0.63024030  0.39346722  0.81493975  1
  N  N29  1  0.36975970  0.60653278  0.18506025  1
  O  O30  1  0.98611409  0.63808922  0.74302174  1
  O  O31  1  0.01388591  0.36191078  0.25697826  1
  O  O32  1  0.92147245  0.86996125  0.69783584  1
  O  O33  1  0.07852755  0.13003875  0.30216416  1
  O  O34  1  0.82800918  0.88778861  0.15693248  1
  O  O35  1  0.17199082  0.11221139  0.84306752  1
  O  O36  1  0.92484435  0.69237371  0.24718509  1
  O  O37  1  0.07515565  0.30762629  0.75281491  1
  O  O38  1  0.63664292  0.65284028  0.77096269  1
  O  O39  1  0.36335708  0.34715972  0.22903731  1
  O  O40  1  0.18465384  0.87462147  0.10057995  1
  O  O41  1  0.81534616  0.12537853  0.89942005  1
  O  O42  1  0.54121964  0.13543079  0.11192629  1
  O  O43  1  0.45878036  0.86456921  0.88807371  1
  O  O44  1  0.46901414  0.12540816  0.45452986  1
  O  O45  1  0.53098586  0.87459184  0.54547014  1
  O  O46  1  0.74965526  0.13096724  0.43194246  1
  O  O47  1  0.25034474  0.86903276  0.56805754  1
  O  O48  1  0.45629445  0.36785517  0.71370744  1
  O  O49  1  0.54370555  0.63214483  0.28629256  1
  O  O50  1  0.74844280  0.40980737  0.69400295  1
  O  O51  1  0.25155720  0.59019263  0.30599705  1
  O  O52  1  0.68658289  0.40270296  0.04479819  1
  O  O53  1  0.31341711  0.59729704  0.95520181  1
