# generated using pymatgen
data_CoH22C3(N3O4)2
_symmetry_space_group_name_H-M   'P 1'
_cell_length_a   9.70730234
_cell_length_b   10.29161495
_cell_length_c   13.24145790
_cell_angle_alpha   90.00000000
_cell_angle_beta   90.00000000
_cell_angle_gamma   90.00000000
_symmetry_Int_Tables_number   1
_chemical_formula_structural   CoH22C3(N3O4)2
_chemical_formula_sum   'Co4 H88 C12 N24 O32'
_cell_volume   1322.87219859
_cell_formula_units_Z   4
loop_
 _symmetry_equiv_pos_site_id
 _symmetry_equiv_pos_as_xyz
  1  'x, y, z'
loop_
 _atom_site_type_symbol
 _atom_site_label
 _atom_site_symmetry_multiplicity
 _atom_site_fract_x
 _atom_site_fract_y
 _atom_site_fract_z
 _atom_site_occupancy
  Co  Co0  1  0.50000000  0.00000000  0.00000000  1
  Co  Co1  1  0.00000000  0.50000000  0.50000000  1
  Co  Co2  1  0.00000000  0.50000000  0.00000000  1
  Co  Co3  1  0.50000000  0.00000000  0.50000000  1
  H  H4  1  0.64051313  0.01384703  0.83789784  1
  H  H5  1  0.35948687  0.98615297  0.83789784  1
  H  H6  1  0.14051313  0.48615297  0.66210216  1
  H  H7  1  0.85948687  0.51384703  0.66210216  1
  H  H8  1  0.35948687  0.98615297  0.16210216  1
  H  H9  1  0.64051313  0.01384703  0.16210216  1
  H  H10  1  0.85948687  0.51384703  0.33789784  1
  H  H11  1  0.14051313  0.48615297  0.33789784  1
  H  H12  1  0.60155519  0.85696046  0.86100538  1
  H  H13  1  0.39844481  0.14303954  0.86100538  1
  H  H14  1  0.10155519  0.64303954  0.63899462  1
  H  H15  1  0.89844481  0.35696046  0.63899462  1
  H  H16  1  0.39844481  0.14303954  0.13899462  1
  H  H17  1  0.60155519  0.85696046  0.13899462  1
  H  H18  1  0.89844481  0.35696046  0.36100538  1
  H  H19  1  0.10155519  0.64303954  0.36100538  1
  H  H20  1  0.72739042  0.92959851  0.92373875  1
  H  H21  1  0.27260958  0.07040149  0.92373875  1
  H  H22  1  0.22739042  0.57040149  0.57626125  1
  H  H23  1  0.77260958  0.42959851  0.57626125  1
  H  H24  1  0.27260958  0.07040149  0.07626125  1
  H  H25  1  0.72739042  0.92959851  0.07626125  1
  H  H26  1  0.77260958  0.42959851  0.42373875  1
  H  H27  1  0.22739042  0.57040149  0.42373875  1
  H  H28  1  0.56466098  0.22658012  0.93777950  1
  H  H29  1  0.43533902  0.77341988  0.93777950  1
  H  H30  1  0.06466098  0.27341988  0.56222050  1
  H  H31  1  0.93533902  0.72658012  0.56222050  1
  H  H32  1  0.43533902  0.77341988  0.06222050  1
  H  H33  1  0.56466098  0.22658012  0.06222050  1
  H  H34  1  0.93533902  0.72658012  0.43777950  1
  H  H35  1  0.06466098  0.27341988  0.43777950  1
  H  H36  1  0.69569282  0.15914060  0.00000000  1
  H  H37  1  0.30430718  0.84085940  0.00000000  1
  H  H38  1  0.19569282  0.34085940  0.50000000  1
  H  H39  1  0.80430718  0.65914060  0.50000000  1
  H  H40  1  0.02312192  0.36603212  0.84090082  1
  H  H41  1  0.97687808  0.63396788  0.84090082  1
  H  H42  1  0.52312192  0.13396788  0.65909918  1
  H  H43  1  0.47687808  0.86603212  0.65909918  1
  H  H44  1  0.97687808  0.63396788  0.15909918  1
  H  H45  1  0.02312192  0.36603212  0.15909918  1
  H  H46  1  0.47687808  0.86603212  0.34090082  1
  H  H47  1  0.52312192  0.13396788  0.34090082  1
  H  H48  1  0.91912957  0.28782305  0.92096667  1
  H  H49  1  0.08087043  0.71217695  0.92096667  1
  H  H50  1  0.41912957  0.21217695  0.57903333  1
  H  H51  1  0.58087043  0.78782305  0.57903333  1
  H  H52  1  0.08087043  0.71217695  0.07903333  1
  H  H53  1  0.91912957  0.28782305  0.07903333  1
  H  H54  1  0.58087043  0.78782305  0.42096667  1
  H  H55  1  0.41912957  0.21217695  0.42096667  1
  H  H56  1  0.85717274  0.41004295  0.85465956  1
  H  H57  1  0.14282726  0.58995705  0.85465956  1
  H  H58  1  0.35717274  0.08995705  0.64534044  1
  H  H59  1  0.64282726  0.91004295  0.64534044  1
  H  H60  1  0.14282726  0.58995705  0.14534044  1
  H  H61  1  0.85717274  0.41004295  0.14534044  1
  H  H62  1  0.64282726  0.91004295  0.35465956  1
  H  H63  1  0.35717274  0.08995705  0.35465956  1
  H  H64  1  0.75666010  0.56202670  0.93779505  1
  H  H65  1  0.24333990  0.43797330  0.93779505  1
  H  H66  1  0.25666010  0.93797330  0.56220495  1
  H  H67  1  0.74333990  0.06202670  0.56220495  1
  H  H68  1  0.24333990  0.43797330  0.06220495  1
  H  H69  1  0.75666010  0.56202670  0.06220495  1
  H  H70  1  0.74333990  0.06202670  0.43779505  1
  H  H71  1  0.25666010  0.93797330  0.43779505  1
  H  H72  1  0.83203481  0.68345824  0.00000000  1
  H  H73  1  0.16796519  0.31654176  0.00000000  1
  H  H74  1  0.33203481  0.81654176  0.50000000  1
  H  H75  1  0.66796519  0.18345824  0.50000000  1
  H  H76  1  0.76961239  0.14563870  0.72197768  1
  H  H77  1  0.23038761  0.85436130  0.72197768  1
  H  H78  1  0.26961239  0.35436130  0.77802232  1
  H  H79  1  0.73038761  0.64563870  0.77802232  1
  H  H80  1  0.23038761  0.85436130  0.27802232  1
  H  H81  1  0.76961239  0.14563870  0.27802232  1
  H  H82  1  0.73038761  0.64563870  0.22197768  1
  H  H83  1  0.26961239  0.35436130  0.22197768  1
  H  H84  1  0.66632848  0.24459988  0.77357377  1
  H  H85  1  0.33367152  0.75540012  0.77357377  1
  H  H86  1  0.16632848  0.25540012  0.72642623  1
  H  H87  1  0.83367152  0.74459988  0.72642623  1
  H  H88  1  0.33367152  0.75540012  0.22642623  1
  H  H89  1  0.66632848  0.24459988  0.22642623  1
  H  H90  1  0.83367152  0.74459988  0.27357377  1
  H  H91  1  0.16632848  0.25540012  0.27357377  1
  C  C92  1  0.99876337  0.07623664  0.00000000  1
  C  C93  1  0.00123663  0.92376336  0.00000000  1
  C  C94  1  0.49876337  0.42376336  0.50000000  1
  C  C95  1  0.50123663  0.57623664  0.50000000  1
  C  C96  1  0.52554678  0.42764612  0.83154974  1
  C  C97  1  0.47445322  0.57235388  0.83154974  1
  C  C98  1  0.02554678  0.07235388  0.66845026  1
  C  C99  1  0.97445322  0.92764612  0.66845026  1
  C  C100  1  0.47445322  0.57235388  0.16845026  1
  C  C101  1  0.52554678  0.42764612  0.16845026  1
  C  C102  1  0.97445322  0.92764612  0.33154974  1
  C  C103  1  0.02554678  0.07235388  0.33154974  1
  N  N104  1  0.63054277  0.94357458  0.89341049  1
  N  N105  1  0.36945723  0.05642542  0.89341049  1
  N  N106  1  0.13054277  0.55642542  0.60658951  1
  N  N107  1  0.86945723  0.44357458  0.60658951  1
  N  N108  1  0.36945723  0.05642542  0.10658951  1
  N  N109  1  0.63054277  0.94357458  0.10658951  1
  N  N110  1  0.86945723  0.44357458  0.39341049  1
  N  N111  1  0.13054277  0.55642542  0.39341049  1
  N  N112  1  0.59040627  0.17213161  0.00000000  1
  N  N113  1  0.40959373  0.82786839  0.00000000  1
  N  N114  1  0.09040627  0.32786839  0.50000000  1
  N  N115  1  0.90959373  0.67213161  0.50000000  1
  N  N116  1  0.94333577  0.37813491  0.89202738  1
  N  N117  1  0.05666423  0.62186509  0.89202738  1
  N  N118  1  0.44333577  0.12186509  0.60797262  1
  N  N119  1  0.55666423  0.87813491  0.60797262  1
  N  N120  1  0.05666423  0.62186509  0.10797262  1
  N  N121  1  0.94333577  0.37813491  0.10797262  1
  N  N122  1  0.55666423  0.87813491  0.39202738  1
  N  N123  1  0.44333577  0.12186509  0.39202738  1
  N  N124  1  0.81545972  0.58417998  0.00000000  1
  N  N125  1  0.18454028  0.41582002  0.00000000  1
  N  N126  1  0.31545972  0.91582002  0.50000000  1
  N  N127  1  0.68454028  0.08417998  0.50000000  1
  O  O128  1  0.88163326  0.13091550  0.00000000  1
  O  O129  1  0.11836674  0.86908450  0.00000000  1
  O  O130  1  0.38163326  0.36908450  0.50000000  1
  O  O131  1  0.61836674  0.63091550  0.50000000  1
  O  O132  1  0.11342196  0.13509707  0.00000000  1
  O  O133  1  0.88657804  0.86490293  0.00000000  1
  O  O134  1  0.61342196  0.36490293  0.50000000  1
  O  O135  1  0.38657804  0.63509707  0.50000000  1
  O  O136  1  0.65446761  0.40822665  0.82759711  1
  O  O137  1  0.34553239  0.59177335  0.82759711  1
  O  O138  1  0.15446761  0.09177335  0.67240289  1
  O  O139  1  0.84553239  0.90822665  0.67240289  1
  O  O140  1  0.34553239  0.59177335  0.17240289  1
  O  O141  1  0.65446761  0.40822665  0.17240289  1
  O  O142  1  0.84553239  0.90822665  0.32759711  1
  O  O143  1  0.15446761  0.09177335  0.32759711  1
  O  O144  1  0.43473448  0.33907173  0.83633428  1
  O  O145  1  0.56526552  0.66092827  0.83633428  1
  O  O146  1  0.93473448  0.16092827  0.66366572  1
  O  O147  1  0.06526552  0.83907173  0.66366572  1
  O  O148  1  0.56526552  0.66092827  0.16366572  1
  O  O149  1  0.43473448  0.33907173  0.16366572  1
  O  O150  1  0.06526552  0.83907173  0.33633428  1
  O  O151  1  0.93473448  0.16092827  0.33633428  1
  O  O152  1  0.67392760  0.15414127  0.74804094  1
  O  O153  1  0.32607240  0.84585873  0.74804094  1
  O  O154  1  0.17392760  0.34585873  0.75195906  1
  O  O155  1  0.82607240  0.65414127  0.75195906  1
  O  O156  1  0.32607240  0.84585873  0.25195906  1
  O  O157  1  0.67392760  0.15414127  0.25195906  1
  O  O158  1  0.82607240  0.65414127  0.24804094  1
  O  O159  1  0.17392760  0.34585873  0.24804094  1
