# generated using pymatgen
data_LiCaP3H8O13
_symmetry_space_group_name_H-M   'P 1'
_cell_length_a   7.85939518
_cell_length_b   10.23729273
_cell_length_c   7.31328466
_cell_angle_alpha   105.31729696
_cell_angle_beta   102.88618849
_cell_angle_gamma   84.97141454
_symmetry_Int_Tables_number   1
_chemical_formula_structural   LiCaP3H8O13
_chemical_formula_sum   'Li2 Ca2 P6 H16 O26'
_cell_volume   552.96559870
_cell_formula_units_Z   2
loop_
 _symmetry_equiv_pos_site_id
 _symmetry_equiv_pos_as_xyz
  1  'x, y, z'
loop_
 _atom_site_type_symbol
 _atom_site_label
 _atom_site_symmetry_multiplicity
 _atom_site_fract_x
 _atom_site_fract_y
 _atom_site_fract_z
 _atom_site_occupancy
  Li  Li0  1  0.50000000  0.50000000  0.00000000  1
  Li  Li1  1  0.00000000  0.00000000  0.00000000  1
  Ca  Ca2  1  0.80757077  0.75764992  0.17585022  1
  Ca  Ca3  1  0.19242923  0.24235008  0.82414978  1
  P  P4  1  0.20271583  0.52018673  0.24377949  1
  P  P5  1  0.79728417  0.47981327  0.75622051  1
  P  P6  1  0.45981959  0.72901275  0.40649279  1
  P  P7  1  0.54018041  0.27098725  0.59350721  1
  P  P8  1  0.80366328  0.74146627  0.67128037  1
  P  P9  1  0.19633672  0.25853373  0.32871963  1
  H  H10  1  0.62144589  0.01008095  0.35036185  1
  H  H11  1  0.37855411  0.98991905  0.64963815  1
  H  H12  1  0.65346131  0.01354445  0.14686484  1
  H  H13  1  0.34653869  0.98645555  0.85313516  1
  H  H14  1  0.97331842  0.96342915  0.64083622  1
  H  H15  1  0.02668158  0.03657085  0.35916378  1
  H  H16  1  0.86740189  0.09950496  0.69361473  1
  H  H17  1  0.13259811  0.90049504  0.30638527  1
  H  H18  1  0.69597563  0.40050849  0.30774168  1
  H  H19  1  0.30402437  0.59949151  0.69225832  1
  H  H20  1  0.81934769  0.42912609  0.18312659  1
  H  H21  1  0.18065231  0.57087391  0.81687341  1
  H  H22  1  0.74202360  0.20219667  0.07742395  1
  H  H23  1  0.25797640  0.79780333  0.92257605  1
  H  H24  1  0.66544416  0.08334739  0.90206254  1
  H  H25  1  0.33455584  0.91665261  0.09793746  1
  O  O26  1  0.29557340  0.43943098  0.08909352  1
  O  O27  1  0.70442660  0.56056902  0.91090648  1
  O  O28  1  0.04886786  0.60951239  0.19290696  1
  O  O29  1  0.95113214  0.39048761  0.80709304  1
  O  O30  1  0.34501964  0.60778507  0.42213629  1
  O  O31  1  0.65498036  0.39221493  0.57786371  1
  O  O32  1  0.85272606  0.57955962  0.64060002  1
  O  O33  1  0.14727394  0.42044038  0.35939998  1
  O  O34  1  0.55466698  0.67340883  0.24381264  1
  O  O35  1  0.44533302  0.32659117  0.75618736  1
  O  O36  1  0.35039914  0.85727222  0.41425494  1
  O  O37  1  0.64960086  0.14272778  0.58574506  1
  O  O38  1  0.59183287  0.74474538  0.61525761  1
  O  O39  1  0.40816713  0.25525462  0.38474239  1
  O  O40  1  0.85434546  0.81200878  0.88189977  1
  O  O41  1  0.14565454  0.18799122  0.11810023  1
  O  O42  1  0.87697276  0.78799724  0.52697597  1
  O  O43  1  0.12302724  0.21200276  0.47302403  1
  O  O44  1  0.38655169  0.04611543  0.78421692  1
  O  O45  1  0.61344831  0.95388457  0.21578308  1
  O  O46  1  0.98381392  0.05573108  0.72785322  1
  O  O47  1  0.01618608  0.94426892  0.27214678  1
  O  O48  1  0.71361560  0.38229025  0.17432543  1
  O  O49  1  0.28638440  0.61770975  0.82567457  1
  O  O50  1  0.75199457  0.10247268  0.02443226  1
  O  O51  1  0.24800543  0.89752732  0.97556774  1
