# generated using pymatgen
data_Sr2YCu2(BiO4)2
_symmetry_space_group_name_H-M   'P 1'
_cell_length_a   3.80121116
_cell_length_b   3.80121116
_cell_length_c   15.59964171
_cell_angle_alpha   96.99810346
_cell_angle_beta   96.99810346
_cell_angle_gamma   90.00000000
_symmetry_Int_Tables_number   1
_chemical_formula_structural   Sr2YCu2(BiO4)2
_chemical_formula_sum   'Sr2 Y1 Cu2 Bi2 O8'
_cell_volume   222.03132877
_cell_formula_units_Z   1
loop_
 _symmetry_equiv_pos_site_id
 _symmetry_equiv_pos_as_xyz
  1  'x, y, z'
loop_
 _atom_site_type_symbol
 _atom_site_label
 _atom_site_symmetry_multiplicity
 _atom_site_fract_x
 _atom_site_fract_y
 _atom_site_fract_z
 _atom_site_occupancy
  Sr  Sr0  1  0.11349526  0.11349526  0.22699052  1
  Sr  Sr1  1  0.88650474  0.88650474  0.77300948  1
  Y  Y2  1  -0.00000000  0.00000000  0.00000000  1
  Cu  Cu3  1  0.44868796  0.44868796  0.89737591  1
  Cu  Cu4  1  0.55131204  0.55131204  0.10262409  1
  Bi  Bi5  1  0.29710547  0.29710547  0.59421094  1
  Bi  Bi6  1  0.70289453  0.70289453  0.40578906  1
  O  O7  1  0.04833015  0.54833015  0.09666030  1
  O  O8  1  0.95166985  0.45166985  0.90333970  1
  O  O9  1  0.54833015  0.04833015  0.09666030  1
  O  O10  1  0.45166985  0.95166985  0.90333970  1
  O  O11  1  0.20112706  0.20112706  0.40225412  1
  O  O12  1  0.79887294  0.79887294  0.59774588  1
  O  O13  1  0.36604899  0.36604899  0.73209797  1
  O  O14  1  0.63395101  0.63395101  0.26790203  1
