# generated using pymatgen
data_Ce5Sm2O13
_symmetry_space_group_name_H-M   'P 1'
_cell_length_a   3.85371982
_cell_length_b   3.85371982
_cell_length_c   22.50018419
_cell_angle_alpha   94.91268561
_cell_angle_beta   94.91268561
_cell_angle_gamma   60.00000000
_symmetry_Int_Tables_number   1
_chemical_formula_structural   Ce5Sm2O13
_chemical_formula_sum   'Ce5 Sm2 O13'
_cell_volume   287.96730453
_cell_formula_units_Z   1
loop_
 _symmetry_equiv_pos_site_id
 _symmetry_equiv_pos_as_xyz
  1  'x, y, z'
loop_
 _atom_site_type_symbol
 _atom_site_label
 _atom_site_symmetry_multiplicity
 _atom_site_fract_x
 _atom_site_fract_y
 _atom_site_fract_z
 _atom_site_occupancy
  Ce  Ce0  1  0.42840780  0.42840780  0.28522241  1
  Ce  Ce1  1  0.85649135  0.85649135  0.56947505  1
  Ce  Ce2  1  0.14228387  0.14228387  0.42685162  1
  Ce  Ce3  1  0.57069850  0.57069850  0.71209549  1
  Ce  Ce4  1  0.28435317  0.28435317  0.85305952  1
  Sm  Sm5  1  0.71653581  0.71653581  0.14960643  1
  Sm  Sm6  1  0.99859745  0.99859745  0.99579234  1
  O  O7  1  0.75111165  0.75111165  0.25333494  1
  O  O8  1  0.39388639  0.39388639  0.18165916  1
  O  O9  1  0.03115930  0.03115930  0.09347891  1
  O  O10  1  0.82178724  0.82178724  0.46536173  1
  O  O11  1  0.10776290  0.10776290  0.32328769  1
  O  O12  1  0.46469405  0.46469405  0.39408116  1
  O  O13  1  0.53603211  0.53603211  0.60809632  1
  O  O14  1  0.89314824  0.89314824  0.67944572  1
  O  O15  1  0.17889297  0.17889297  0.53667890  1
  O  O16  1  0.60694019  0.60694019  0.82082158  1
  O  O17  1  0.25021222  0.25021222  0.75063566  1
  O  O18  1  0.96310371  0.96310371  0.88931214  1
  O  O19  1  0.32532907  0.32532907  0.97598722  1
