# generated using pymatgen
data_Mg9CuO10
_symmetry_space_group_name_H-M   'P 1'
_cell_length_a   3.02533308
_cell_length_b   10.01424513
_cell_length_c   6.68122628
_cell_angle_alpha   78.73163819
_cell_angle_beta   76.99631187
_cell_angle_gamma   89.65895737
_symmetry_Int_Tables_number   1
_chemical_formula_structural   Mg9CuO10
_chemical_formula_sum   'Mg9 Cu1 O10'
_cell_volume   193.27128705
_cell_formula_units_Z   1
loop_
 _symmetry_equiv_pos_site_id
 _symmetry_equiv_pos_as_xyz
  1  'x, y, z'
loop_
 _atom_site_type_symbol
 _atom_site_label
 _atom_site_symmetry_multiplicity
 _atom_site_fract_x
 _atom_site_fract_y
 _atom_site_fract_z
 _atom_site_occupancy
  Mg  Mg0  1  0.60289268  0.80063340  0.79931082  1
  Mg  Mg1  1  0.20551198  0.60246270  0.59752617  1
  Mg  Mg2  1  0.29910547  0.90069146  0.40103870  1
  Mg  Mg3  1  0.69988838  0.10009808  0.60379379  1
  Mg  Mg4  1  0.90510863  0.69988727  0.19873927  1
  Mg  Mg5  1  0.80516390  0.40102682  0.40409715  1
  Mg  Mg6  1  0.50956137  0.50033785  0.99482613  1
  Mg  Mg7  1  0.40896826  0.19909913  0.19525987  1
  Mg  Mg8  1  0.00159557  0.99846165  0.00195268  1
  Cu  Cu9  1  0.10852930  0.30089484  0.79953721  1
  O  O10  1  0.05537645  0.65103939  0.89869693  1
  O  O11  1  0.15109827  0.94969093  0.69995331  1
  O  O12  1  0.66163968  0.45879627  0.69350206  1
  O  O13  1  0.54831267  0.14230056  0.90487892  1
  O  O14  1  0.75141923  0.75136110  0.49853733  1
  O  O15  1  0.25456886  0.25102014  0.50123279  1
  O  O16  1  0.35741772  0.54935814  0.29717121  1
  O  O17  1  0.45230648  0.84969651  0.10130176  1
  O  O18  1  0.85234759  0.05082903  0.30215498  1
  O  O19  1  0.95890450  0.34930374  0.09742689  1
