# generated using pymatgen
data_CaH4SO6
_symmetry_space_group_name_H-M   'P 1'
_cell_length_a   5.68431769
_cell_length_b   8.28425608
_cell_length_c   6.38681173
_cell_angle_alpha   98.01178804
_cell_angle_beta   66.03039182
_cell_angle_gamma   110.06461204
_symmetry_Int_Tables_number   1
_chemical_formula_structural   CaH4SO6
_chemical_formula_sum   'Ca2 H8 S2 O12'
_cell_volume   258.14033858
_cell_formula_units_Z   2
loop_
 _symmetry_equiv_pos_site_id
 _symmetry_equiv_pos_as_xyz
  1  'x, y, z'
loop_
 _atom_site_type_symbol
 _atom_site_label
 _atom_site_symmetry_multiplicity
 _atom_site_fract_x
 _atom_site_fract_y
 _atom_site_fract_z
 _atom_site_occupancy
  Ca  Ca0  1  0.32392028  0.14784056  0.25000000  1
  Ca  Ca1  1  0.67607972  0.85215944  0.75000000  1
  H  H2  1  0.08936124  0.68116907  0.01386668  1
  H  H3  1  0.09180883  0.68116907  0.48613332  1
  H  H4  1  0.18844699  0.46892054  0.49070792  1
  H  H5  1  0.21952745  0.53107946  0.99070792  1
  H  H6  1  0.78047255  0.46892054  0.00929208  1
  H  H7  1  0.81155301  0.53107946  0.50929208  1
  H  H8  1  0.90819117  0.31883093  0.51386668  1
  H  H9  1  0.91063876  0.31883093  0.98613332  1
  S  S10  1  0.67034042  0.84067984  0.25000000  1
  S  S11  1  0.32965958  0.15932016  0.75000000  1
  O  O12  1  0.10818281  0.34955423  0.45344544  1
  O  O13  1  0.57358236  0.95141530  0.15920153  1
  O  O14  1  0.44351702  0.73320475  0.44575679  1
  O  O15  1  0.25862858  0.65044577  0.95344544  1
  O  O16  1  0.12216706  0.04858470  0.65920153  1
  O  O17  1  0.78968773  0.73320475  0.05424321  1
  O  O18  1  0.21031227  0.26679525  0.94575679  1
  O  O19  1  0.87783294  0.95141530  0.34079847  1
  O  O20  1  0.74137142  0.34955423  0.04655456  1
  O  O21  1  0.55648298  0.26679525  0.55424321  1
  O  O22  1  0.42641764  0.04858470  0.84079847  1
  O  O23  1  0.89181719  0.65044577  0.54655456  1
