# generated using pymatgen
data_Ce5Gd2O13
_symmetry_space_group_name_H-M   'P 1'
_cell_length_a   3.84417286
_cell_length_b   3.84417286
_cell_length_c   22.41177942
_cell_angle_alpha   94.91986327
_cell_angle_beta   94.91986327
_cell_angle_gamma   60.00000000
_symmetry_Int_Tables_number   1
_chemical_formula_structural   Ce5Gd2O13
_chemical_formula_sum   'Ce5 Gd2 O13'
_cell_volume   285.41233307
_cell_formula_units_Z   1
loop_
 _symmetry_equiv_pos_site_id
 _symmetry_equiv_pos_as_xyz
  1  'x, y, z'
loop_
 _atom_site_type_symbol
 _atom_site_label
 _atom_site_symmetry_multiplicity
 _atom_site_fract_x
 _atom_site_fract_y
 _atom_site_fract_z
 _atom_site_occupancy
  Ce  Ce0  1  0.42822785  0.42822785  0.28468355  1
  Ce  Ce1  1  0.85652475  0.85652475  0.56957526  1
  Ce  Ce2  1  0.14228565  0.14228565  0.42685796  1
  Ce  Ce3  1  0.57078427  0.57078427  0.71235180  1
  Ce  Ce4  1  0.28475989  0.28475989  0.85427867  1
  Gd  Gd5  1  0.71639074  0.71639074  0.14917221  1
  Gd  Gd6  1  0.99888760  0.99888760  0.99666279  1
  O  O7  1  0.75070088  0.75070088  0.25210363  1
  O  O8  1  0.39345863  0.39345863  0.18037488  1
  O  O9  1  0.03102102  0.03102102  0.09306307  1
  O  O10  1  0.82169980  0.82169980  0.46509839  1
  O  O11  1  0.10757694  0.10757694  0.32273183  1
  O  O12  1  0.46456335  0.46456335  0.39368904  1
  O  O13  1  0.53597161  0.53597161  0.60791584  1
  O  O14  1  0.89307067  0.89307067  0.67921302  1
  O  O15  1  0.17880155  0.17880155  0.53640464  1
  O  O16  1  0.96364937  0.96364937  0.89094811  1
  O  O17  1  0.60707942  0.60707942  0.82123725  1
  O  O18  1  0.25025511  0.25025511  0.75076534  1
  O  O19  1  0.32571991  0.32571991  0.97715974  1
