# generated using pymatgen
data_Ti10O13
_symmetry_space_group_name_H-M   'P 1'
_cell_length_a   12.13834595
_cell_length_b   4.17380046
_cell_length_c   5.10064879
_cell_angle_alpha   114.15108442
_cell_angle_beta   86.14805172
_cell_angle_gamma   90.00000000
_symmetry_Int_Tables_number   1
_chemical_formula_structural   Ti10O13
_chemical_formula_sum   'Ti10 O13'
_cell_volume   235.15536041
_cell_formula_units_Z   1
loop_
 _symmetry_equiv_pos_site_id
 _symmetry_equiv_pos_as_xyz
  1  'x, y, z'
loop_
 _atom_site_type_symbol
 _atom_site_label
 _atom_site_symmetry_multiplicity
 _atom_site_fract_x
 _atom_site_fract_y
 _atom_site_fract_z
 _atom_site_occupancy
  Ti  Ti0  1  0.15206683  0.39812335  0.79624569  1
  Ti  Ti1  1  0.06683756  0.68159765  0.36319431  1
  Ti  Ti2  1  0.31777844  0.77994135  0.55988269  1
  Ti  Ti3  1  0.23254817  0.06341565  0.12683031  1
  Ti  Ti4  1  0.53789055  0.84608465  0.69216829  1
  Ti  Ti5  1  0.46038835  0.16189719  0.32379438  1
  Ti  Ti6  1  0.76453989  0.92435141  0.84870282  1
  Ti  Ti7  1  0.62007511  0.53718659  0.07437418  1
  Ti  Ti8  1  0.92422665  0.29964181  0.59928262  1
  Ti  Ti9  1  0.84672445  0.61545435  0.23090771  1
  O  O10  1  0.08162508  0.19326593  0.38653086  1
  O  O11  1  0.99615447  0.49439093  0.98878185  1
  O  O12  1  0.15273404  0.87301776  0.74603651  1
  O  O13  1  0.30298992  0.26827307  0.53654614  1
  O  O14  1  0.23188196  0.58852024  0.17704049  1
  O  O15  1  0.38846053  0.96714707  0.93429515  1
  O  O16  1  0.53982998  0.34841678  0.69683256  1
  O  O17  1  0.46515676  0.64890348  0.29780695  1
  O  O18  1  0.77137721  0.41781359  0.83562718  1
  O  O19  1  0.69230800  0.73076900  0.46153800  1
  O  O20  1  0.61323779  0.04372541  0.08744982  1
  O  O21  1  0.91945924  0.81263452  0.62527005  1
  O  O22  1  0.84478502  0.11312222  0.22624344  1
