# generated using pymatgen
data_Ca2CuB2(HO)12
_symmetry_space_group_name_H-M   'P 1'
_cell_length_a   5.79951346
_cell_length_b   8.16201602
_cell_length_c   5.76370262
_cell_angle_alpha   109.55099594
_cell_angle_beta   90.18323454
_cell_angle_gamma   82.84237369
_symmetry_Int_Tables_number   1
_chemical_formula_structural   Ca2CuB2(HO)12
_chemical_formula_sum   'Ca2 Cu1 B2 H12 O12'
_cell_volume   254.87892384
_cell_formula_units_Z   1
loop_
 _symmetry_equiv_pos_site_id
 _symmetry_equiv_pos_as_xyz
  1  'x, y, z'
loop_
 _atom_site_type_symbol
 _atom_site_label
 _atom_site_symmetry_multiplicity
 _atom_site_fract_x
 _atom_site_fract_y
 _atom_site_fract_z
 _atom_site_occupancy
  Ca  Ca0  1  0.50542363  0.23580708  0.22239216  1
  Ca  Ca1  1  0.49457637  0.76419292  0.77760784  1
  Cu  Cu2  1  0.00000000  0.00000000  0.00000000  1
  B  B3  1  0.28662772  0.40889811  0.75428833  1
  B  B4  1  0.71337228  0.59110189  0.24571167  1
  H  H5  1  0.00181496  0.38757981  0.52878418  1
  H  H6  1  0.05211979  0.62883504  0.95882576  1
  H  H7  1  0.06882551  0.90504372  0.56535657  1
  H  H8  1  0.22792759  0.17711892  0.79898700  1
  H  H9  1  0.29253230  0.95738983  0.29327001  1
  H  H10  1  0.36382838  0.61909692  0.19373640  1
  H  H11  1  0.63617162  0.38090308  0.80626360  1
  H  H12  1  0.70746770  0.04261017  0.70672999  1
  H  H13  1  0.77207241  0.82288108  0.20101300  1
  H  H14  1  0.93117449  0.09495628  0.43464343  1
  H  H15  1  0.94788021  0.37116496  0.04117424  1
  H  H16  1  0.99818504  0.61242019  0.47121582  1
  O  O17  1  0.16893241  0.35273776  0.51771300  1
  O  O18  1  0.24433572  0.29926012  0.90775606  1
  O  O19  1  0.21940507  0.59634489  0.90600175  1
  O  O20  1  0.17661827  0.95806227  0.69064662  1
  O  O21  1  0.30445741  0.98342650  0.14048523  1
  O  O22  1  0.46678671  0.61017913  0.32765652  1
  O  O23  1  0.53321329  0.38982087  0.67234348  1
  O  O24  1  0.69554259  0.01657350  0.85951477  1
  O  O25  1  0.82338173  0.04193773  0.30935338  1
  O  O26  1  0.78059493  0.40365511  0.09399825  1
  O  O27  1  0.75566428  0.70073988  0.09224394  1
  O  O28  1  0.83106759  0.64726224  0.48228700  1
