# generated using pymatgen
data_Sr2DyCu2(BiO4)2
_symmetry_space_group_name_H-M   'P 1'
_cell_length_a   3.79293817
_cell_length_b   3.79293817
_cell_length_c   15.52351703
_cell_angle_alpha   97.01721274
_cell_angle_beta   97.01721274
_cell_angle_gamma   90.00000000
_symmetry_Int_Tables_number   1
_chemical_formula_structural   Sr2DyCu2(BiO4)2
_chemical_formula_sum   'Sr2 Dy1 Cu2 Bi2 O8'
_cell_volume   219.96882586
_cell_formula_units_Z   1
loop_
 _symmetry_equiv_pos_site_id
 _symmetry_equiv_pos_as_xyz
  1  'x, y, z'
loop_
 _atom_site_type_symbol
 _atom_site_label
 _atom_site_symmetry_multiplicity
 _atom_site_fract_x
 _atom_site_fract_y
 _atom_site_fract_z
 _atom_site_occupancy
  Sr  Sr0  1  0.11358919  0.11358919  0.22717838  1
  Sr  Sr1  1  0.88641081  0.88641081  0.77282162  1
  Dy  Dy2  1  0.00000000  0.00000000  -0.00000000  1
  Cu  Cu3  1  0.44779074  0.44779074  0.89558149  1
  Cu  Cu4  1  0.55220926  0.55220926  0.10441851  1
  Bi  Bi5  1  0.29700856  0.29700856  0.59401712  1
  Bi  Bi6  1  0.70299144  0.70299144  0.40598288  1
  O  O7  1  0.04854779  0.54854779  0.09709557  1
  O  O8  1  0.95145221  0.45145221  0.90290443  1
  O  O9  1  0.54854779  0.04854779  0.09709557  1
  O  O10  1  0.45145221  0.95145221  0.90290443  1
  O  O11  1  0.20066625  0.20066625  0.40133250  1
  O  O12  1  0.79933375  0.79933375  0.59866750  1
  O  O13  1  0.36628630  0.36628630  0.73257259  1
  O  O14  1  0.63371370  0.63371370  0.26742741  1
