# generated using pymatgen
data_BaSr3I8
_symmetry_space_group_name_H-M   'P 1'
_cell_length_a   8.14358500
_cell_length_b   9.98925294
_cell_length_c   8.14358500
_cell_angle_alpha   65.94475701
_cell_angle_beta   90.00000000
_cell_angle_gamma   114.05524299
_symmetry_Int_Tables_number   1
_chemical_formula_structural   BaSr3I8
_chemical_formula_sum   'Ba1 Sr3 I8'
_cell_volume   541.31962229
_cell_formula_units_Z   1
loop_
 _symmetry_equiv_pos_site_id
 _symmetry_equiv_pos_as_xyz
  1  'x, y, z'
loop_
 _atom_site_type_symbol
 _atom_site_label
 _atom_site_symmetry_multiplicity
 _atom_site_fract_x
 _atom_site_fract_y
 _atom_site_fract_z
 _atom_site_occupancy
  Ba  Ba0  1  0.00000000  0.00000000  0.00000000  1
  Sr  Sr1  1  0.50000000  0.00000000  0.50000000  1
  Sr  Sr2  1  0.25000000  0.50000000  0.25000000  1
  Sr  Sr3  1  0.75000000  0.50000000  0.75000000  1
  I  I4  1  0.87280600  0.25422500  0.12719400  1
  I  I5  1  0.38142000  0.25422500  0.12719400  1
  I  I6  1  0.61858000  0.74577500  0.38142000  1
  I  I7  1  0.12719400  0.74577500  0.38142000  1
  I  I8  1  0.87280600  0.25422500  0.61858000  1
  I  I9  1  0.38142000  0.25422500  0.61858000  1
  I  I10  1  0.12719400  0.74577500  0.87280600  1
  I  I11  1  0.61858000  0.74577500  0.87280600  1
