# generated using pymatgen
data_Na6BeO4
_symmetry_space_group_name_H-M   'P 1'
_cell_length_a   7.31475334
_cell_length_b   7.31450923
_cell_length_c   5.76813766
_cell_angle_alpha   89.99990723
_cell_angle_beta   90.00004388
_cell_angle_gamma   119.99889627
_symmetry_Int_Tables_number   1
_chemical_formula_structural   Na6BeO4
_chemical_formula_sum   'Na12 Be2 O8'
_cell_volume   267.27353432
_cell_formula_units_Z   2
loop_
 _symmetry_equiv_pos_site_id
 _symmetry_equiv_pos_as_xyz
  1  'x, y, z'
loop_
 _atom_site_type_symbol
 _atom_site_label
 _atom_site_symmetry_multiplicity
 _atom_site_fract_x
 _atom_site_fract_y
 _atom_site_fract_z
 _atom_site_occupancy
  Na  Na0  1  0.14452324  0.85549530  0.38960563  1
  Na  Na1  1  0.06675567  0.53338001  0.71353965  1
  Na  Na2  1  0.14453176  0.28904835  0.38960301  1
  Na  Na3  1  0.46661345  0.93325543  0.71354318  1
  Na  Na4  1  0.46661109  0.53338234  0.71354761  1
  Na  Na5  1  0.28905537  0.14452810  0.88960051  1
  Na  Na6  1  0.71094463  0.85547272  0.38960051  1
  Na  Na7  1  0.53338655  0.46664298  0.21354318  1
  Na  Na8  1  0.53338891  0.06677125  0.21354761  1
  Na  Na9  1  0.85547676  0.71097206  0.88960563  1
  Na  Na10  1  0.93324433  0.46662435  0.21353965  1
  Na  Na11  1  0.85546824  0.14451660  0.88960301  1
  Be  Be12  1  0.33329954  0.66666417  0.10753378  1
  Be  Be13  1  0.66670046  0.33336463  0.60753378  1
  O  O14  1  0.20227241  0.79772953  0.00711239  1
  O  O15  1  0.33331584  0.66666928  0.40244554  1
  O  O16  1  0.20226308  0.40456170  0.00711798  1
  O  O17  1  0.59541279  0.79771241  0.00711273  1
  O  O18  1  0.40458721  0.20229962  0.50711273  1
  O  O19  1  0.66668416  0.33335444  0.90244554  1
  O  O20  1  0.79772759  0.59545713  0.50711239  1
  O  O21  1  0.79773692  0.20229862  0.50711798  1
