# generated using pymatgen
data_Li3VS4
_symmetry_space_group_name_H-M   'P 1'
_cell_length_a   7.93888237
_cell_length_b   6.81425346
_cell_length_c   6.23515710
_cell_angle_alpha   90.00000000
_cell_angle_beta   90.00000000
_cell_angle_gamma   90.00000000
_symmetry_Int_Tables_number   1
_chemical_formula_structural   Li3VS4
_chemical_formula_sum   'Li6 V2 S8'
_cell_volume   337.30676449
_cell_formula_units_Z   2
loop_
 _symmetry_equiv_pos_site_id
 _symmetry_equiv_pos_as_xyz
  1  'x, y, z'
loop_
 _atom_site_type_symbol
 _atom_site_label
 _atom_site_symmetry_multiplicity
 _atom_site_fract_x
 _atom_site_fract_y
 _atom_site_fract_z
 _atom_site_occupancy
  Li  Li0  1  0.00000000  0.16193616  0.48702783  1
  Li  Li1  1  0.24651391  0.32919565  0.98958134  1
  Li  Li2  1  0.25348609  0.67080435  0.48958134  1
  Li  Li3  1  0.50000000  0.83806384  0.98702783  1
  Li  Li4  1  0.74651391  0.67080435  0.48958134  1
  Li  Li5  1  0.75348609  0.32919565  0.98958134  1
  V  V6  1  0.00000000  0.82860157  0.00099450  1
  V  V7  1  0.50000000  0.17139843  0.50099450  1
  S  S8  1  0.00000000  0.12964934  0.89043262  1
  S  S9  1  0.00000000  0.82549190  0.34799595  1
  S  S10  1  0.22540661  0.67942903  0.88956021  1
  S  S11  1  0.27459339  0.32057097  0.38956021  1
  S  S12  1  0.50000000  0.17450810  0.84799595  1
  S  S13  1  0.50000000  0.87035066  0.39043262  1
  S  S14  1  0.72540661  0.32057097  0.38956021  1
  S  S15  1  0.77459339  0.67942903  0.88956021  1
