# generated using pymatgen
data_LiTiS2
_symmetry_space_group_name_H-M   'P 1'
_cell_length_a   7.11210543
_cell_length_b   7.11210893
_cell_length_c   7.11210543
_cell_angle_alpha   60.00001625
_cell_angle_beta   90.00000000
_cell_angle_gamma   119.99998375
_symmetry_Int_Tables_number   1
_chemical_formula_structural   LiTiS2
_chemical_formula_sum   'Li4 Ti4 S8'
_cell_volume   254.37825704
_cell_formula_units_Z   4
loop_
 _symmetry_equiv_pos_site_id
 _symmetry_equiv_pos_as_xyz
  1  'x, y, z'
loop_
 _atom_site_type_symbol
 _atom_site_label
 _atom_site_symmetry_multiplicity
 _atom_site_fract_x
 _atom_site_fract_y
 _atom_site_fract_z
 _atom_site_occupancy
  Li  Li0  1  0.00000000  0.00000000  0.00000000  1
  Li  Li1  1  0.50000000  0.50000000  0.00000000  1
  Li  Li2  1  0.00000000  0.50000000  0.00000000  1
  Li  Li3  1  0.00000000  0.00000000  0.50000000  1
  Ti  Ti4  1  0.50000000  0.00000000  0.00000000  1
  Ti  Ti5  1  0.50000000  0.00000000  0.50000000  1
  Ti  Ti6  1  0.50000000  0.50000000  0.50000000  1
  Ti  Ti7  1  0.00000000  0.50000000  0.50000000  1
  S  S8  1  0.74717722  0.00564555  0.74717722  1
  S  S9  1  0.74717722  0.49435445  0.25846933  1
  S  S10  1  0.74717722  0.49435445  0.74717722  1
  S  S11  1  0.25846933  0.00564555  0.74717722  1
  S  S12  1  0.25282278  0.50564555  0.25282278  1
  S  S13  1  0.74153067  0.99435445  0.25282278  1
  S  S14  1  0.25282278  0.99435445  0.25282278  1
  S  S15  1  0.25282278  0.50564555  0.74153067  1
