# generated using pymatgen
data_ZrPbO3
_symmetry_space_group_name_H-M   'P 1'
_cell_length_a   5.88932536
_cell_length_b   5.92741979
_cell_length_c   8.35430859
_cell_angle_alpha   89.97324640
_cell_angle_beta   89.96697778
_cell_angle_gamma   90.01308626
_symmetry_Int_Tables_number   1
_chemical_formula_structural   ZrPbO3
_chemical_formula_sum   'Zr4 Pb4 O12'
_cell_volume   291.63632470
_cell_formula_units_Z   4
loop_
 _symmetry_equiv_pos_site_id
 _symmetry_equiv_pos_as_xyz
  1  'x, y, z'
loop_
 _atom_site_type_symbol
 _atom_site_label
 _atom_site_symmetry_multiplicity
 _atom_site_fract_x
 _atom_site_fract_y
 _atom_site_fract_z
 _atom_site_occupancy
  Zr  Zr0  1  -0.00009581  -0.00002905  0.00008294  1
  Zr  Zr1  1  -0.00004752  0.00011741  0.50000116  1
  Zr  Zr2  1  0.50008767  0.50014739  -0.00000645  1
  Zr  Zr3  1  0.50022779  0.50018103  0.50004910  1
  Pb  Pb4  1  0.00699311  0.52392158  0.24981128  1
  Pb  Pb5  1  0.49380130  0.02506046  0.25032941  1
  Pb  Pb6  1  0.50605376  0.97504154  0.74988598  1
  Pb  Pb7  1  0.99353311  0.47552713  0.74995394  1
  O  O8  1  0.07729452  0.01584160  0.74987606  1
  O  O9  1  0.21157516  0.28757094  0.04023006  1
  O  O10  1  0.21181868  0.28763153  0.45971359  1
  O  O11  1  0.28814437  0.78759612  0.04019078  1
  O  O12  1  0.28806687  0.78743236  0.45993181  1
  O  O13  1  0.42269344  0.51592309  0.75001892  1
  O  O14  1  0.57723599  0.48415694  0.24997852  1
  O  O15  1  0.71149972  0.21207504  0.54010264  1
  O  O16  1  0.71157697  0.21246218  0.95988427  1
  O  O17  1  0.78832645  0.71252682  0.54030699  1
  O  O18  1  0.78823390  0.71249216  0.95960094  1
  O  O19  1  0.92298051  0.98432372  0.25005808  1
