# generated using pymatgen
data_BaYCl5
_symmetry_space_group_name_H-M   'P 1'
_cell_length_a   10.07486554
_cell_length_b   10.07486554
_cell_length_c   6.88046576
_cell_angle_alpha   89.12013144
_cell_angle_beta   90.87986856
_cell_angle_gamma   32.15474975
_symmetry_Int_Tables_number   1
_chemical_formula_structural   BaYCl5
_chemical_formula_sum   'Ba2 Y2 Cl10'
_cell_volume   371.11534857
_cell_formula_units_Z   2
loop_
 _symmetry_equiv_pos_site_id
 _symmetry_equiv_pos_as_xyz
  1  'x, y, z'
loop_
 _atom_site_type_symbol
 _atom_site_label
 _atom_site_symmetry_multiplicity
 _atom_site_fract_x
 _atom_site_fract_y
 _atom_site_fract_z
 _atom_site_occupancy
  Ba  Ba0  1  0.67168167  0.67168167  0.75000000  1
  Ba  Ba1  1  0.32831833  0.32831833  0.25000000  1
  Y  Y2  1  0.92376751  0.92376751  0.75000000  1
  Y  Y3  1  0.07623249  0.07623249  0.25000000  1
  Cl  Cl4  1  0.27271603  0.79049811  0.59538937  1
  Cl  Cl5  1  0.20950189  0.72728397  0.09538937  1
  Cl  Cl6  1  0.19450412  0.17970962  0.99985770  1
  Cl  Cl7  1  0.37328344  0.37328344  0.75000000  1
  Cl  Cl8  1  0.17970962  0.19450412  0.50014230  1
  Cl  Cl9  1  0.82029038  0.80549588  0.49985770  1
  Cl  Cl10  1  0.62671656  0.62671656  0.25000000  1
  Cl  Cl11  1  0.80549588  0.82029038  0.00014230  1
  Cl  Cl12  1  0.79049811  0.27271603  0.90461063  1
  Cl  Cl13  1  0.72728397  0.20950189  0.40461063  1
