# generated using pymatgen
data_Sr3Li4La5O12
_symmetry_space_group_name_H-M   'P 1'
_cell_length_a   13.61394349
_cell_length_b   6.98671407
_cell_length_c   3.59119434
_cell_angle_alpha   90.00000000
_cell_angle_beta   90.00000000
_cell_angle_gamma   90.05723849
_symmetry_Int_Tables_number   1
_chemical_formula_structural   Sr3Li4La5O12
_chemical_formula_sum   'Sr3 Li4 La5 O12'
_cell_volume   341.58249368
_cell_formula_units_Z   1
loop_
 _symmetry_equiv_pos_site_id
 _symmetry_equiv_pos_as_xyz
  1  'x, y, z'
loop_
 _atom_site_type_symbol
 _atom_site_label
 _atom_site_symmetry_multiplicity
 _atom_site_fract_x
 _atom_site_fract_y
 _atom_site_fract_z
 _atom_site_occupancy
  Sr  Sr0  1  0.21750826  0.91302455  0.75000000  1
  Sr  Sr1  1  0.27907510  0.41168335  0.75000000  1
  Sr  Sr2  1  0.72042447  0.58916483  0.25000000  1
  Li  Li3  1  0.13437431  0.62343035  0.25000000  1
  Li  Li4  1  0.36468197  0.12370406  0.25000000  1
  Li  Li5  1  0.63145107  0.87526215  0.75000000  1
  Li  Li6  1  0.86863087  0.38281642  0.75000000  1
  La  La7  1  0.04287771  0.24160118  0.25000000  1
  La  La8  1  0.45576774  0.74263737  0.25000000  1
  La  La9  1  0.54156388  0.25747270  0.75000000  1
  La  La10  1  0.78300796  0.08592774  0.25000000  1
  La  La11  1  0.95739296  0.76022037  0.75000000  1
  O  O12  1  0.06849101  0.86844425  0.25000000  1
  O  O13  1  0.09643954  0.48657806  0.75000000  1
  O  O14  1  0.22272888  0.18087149  0.25000000  1
  O  O15  1  0.28078597  0.68027269  0.25000000  1
  O  O16  1  0.40660633  0.98985683  0.75000000  1
  O  O17  1  0.43691341  0.36634120  0.25000000  1
  O  O18  1  0.56365652  0.62992566  0.75000000  1
  O  O19  1  0.60299591  0.01047938  0.25000000  1
  O  O20  1  0.72344523  0.31290580  0.75000000  1
  O  O21  1  0.77228168  0.83163663  0.75000000  1
  O  O22  1  0.89981372  0.50191970  0.25000000  1
  O  O23  1  0.92908749  0.13382422  0.75000000  1
