# generated using pymatgen
data_LiTi6O12
_symmetry_space_group_name_H-M   'P 1'
_cell_length_a   4.93399891
_cell_length_b   14.24322392
_cell_length_c   5.94244407
_cell_angle_alpha   90.00000000
_cell_angle_beta   90.00000000
_cell_angle_gamma   87.90258735
_symmetry_Int_Tables_number   1
_chemical_formula_structural   LiTi6O12
_chemical_formula_sum   'Li2 Ti12 O24'
_cell_volume   417.33172473
_cell_formula_units_Z   2
loop_
 _symmetry_equiv_pos_site_id
 _symmetry_equiv_pos_as_xyz
  1  'x, y, z'
loop_
 _atom_site_type_symbol
 _atom_site_label
 _atom_site_symmetry_multiplicity
 _atom_site_fract_x
 _atom_site_fract_y
 _atom_site_fract_z
 _atom_site_occupancy
  Li  Li0  1  0.06835403  0.78095980  0.00022939  1
  Li  Li1  1  0.06835403  0.28095980  0.24977061  1
  Ti  Ti2  1  0.52611692  0.84553809  0.25387752  1
  Ti  Ti3  1  0.52507178  0.84622323  0.74626542  1
  Ti  Ti4  1  0.52507178  0.34622323  0.50373458  1
  Ti  Ti5  1  0.52611692  0.34553809  0.99612248  1
  Ti  Ti6  1  0.46083615  0.65999589  0.50041335  1
  Ti  Ti7  1  0.49885362  0.64925521  0.99896130  1
  Ti  Ti8  1  0.49885362  0.14925521  0.25103870  1
  Ti  Ti9  1  0.46083615  0.15999589  0.74958665  1
  Ti  Ti10  1  0.00152055  0.50347358  0.25030368  1
  Ti  Ti11  1  0.99956348  0.49939009  0.74944105  1
  Ti  Ti12  1  0.99956348  0.99939009  0.50055895  1
  Ti  Ti13  1  0.00152055  0.00347358  0.99969632  1
  O  O14  1  0.81695299  0.93300600  0.75263130  1
  O  O15  1  0.81498603  0.93398786  0.24723885  1
  O  O16  1  0.81695299  0.43300600  0.49736870  1
  O  O17  1  0.81498603  0.43398786  0.00276115  1
  O  O18  1  0.69077795  0.77470947  0.50017796  1
  O  O19  1  0.69911097  0.77308624  0.99984011  1
  O  O20  1  0.68903578  0.59710153  0.25506824  1
  O  O21  1  0.68929409  0.59683324  0.74499923  1
  O  O22  1  0.69077795  0.27470947  0.74982204  1
  O  O23  1  0.69911097  0.27308624  0.25015989  1
  O  O24  1  0.68929409  0.09683324  0.50500077  1
  O  O25  1  0.68903578  0.09710153  0.99493176  1
  O  O26  1  0.31223047  0.90443137  0.49957973  1
  O  O27  1  0.29526968  0.89714375  0.00015054  1
  O  O28  1  0.30031017  0.72654913  0.24284778  1
  O  O29  1  0.30004826  0.72658132  0.75743619  1
  O  O30  1  0.29526968  0.39714375  0.24984946  1
  O  O31  1  0.31223047  0.40443137  0.75042027  1
  O  O32  1  0.30004826  0.22658132  0.49256381  1
  O  O33  1  0.30031017  0.22654913  0.00715222  1
  O  O34  1  0.18531413  0.56546532  0.50015867  1
  O  O35  1  0.18735296  0.56586986  0.00010539  1
  O  O36  1  0.18735296  0.06586986  0.24989461  1
  O  O37  1  0.18531413  0.06546632  0.74984133  1
