# generated using pymatgen
data_Ti3NO4
_symmetry_space_group_name_H-M   'P 1'
_cell_length_a   3.87908938
_cell_length_b   5.14682472
_cell_length_c   10.05278840
_cell_angle_alpha   90.00000000
_cell_angle_beta   90.00000000
_cell_angle_gamma   112.13827124
_symmetry_Int_Tables_number   1
_chemical_formula_structural   Ti3NO4
_chemical_formula_sum   'Ti6 N2 O8'
_cell_volume   185.90738567
_cell_formula_units_Z   2
loop_
 _symmetry_equiv_pos_site_id
 _symmetry_equiv_pos_as_xyz
  1  'x, y, z'
loop_
 _atom_site_type_symbol
 _atom_site_label
 _atom_site_symmetry_multiplicity
 _atom_site_fract_x
 _atom_site_fract_y
 _atom_site_fract_z
 _atom_site_occupancy
  Ti  Ti0  1  0.35713084  0.71426268  0.42763258  1
  Ti  Ti1  1  0.35713084  0.71426268  0.07236742  1
  Ti  Ti2  1  0.30174431  0.60348862  0.75000000  1
  Ti  Ti3  1  0.64286916  0.28573732  0.92763258  1
  Ti  Ti4  1  0.64286916  0.28573732  0.57236742  1
  Ti  Ti5  1  0.69825569  0.39651138  0.25000000  1
  N  N6  1  0.26884289  0.53768579  0.25000000  1
  N  N7  1  0.73115711  0.46231421  0.75000000  1
  O  O8  1  0.18481827  0.36963655  0.56264917  1
  O  O9  1  0.45286464  0.90572928  0.88038782  1
  O  O10  1  0.45286464  0.90572928  0.61961218  1
  O  O11  1  0.18481827  0.36963655  0.93735083  1
  O  O12  1  0.54713536  0.09427072  0.38038782  1
  O  O13  1  0.54713536  0.09427072  0.11961218  1
  O  O14  1  0.81518173  0.63036345  0.06264917  1
  O  O15  1  0.81518173  0.63036345  0.43735083  1
