# generated using pymatgen
data_Er3TaO7
_symmetry_space_group_name_H-M   'P 1'
_cell_length_a   6.41704903
_cell_length_b   6.41704934
_cell_length_c   7.51089218
_cell_angle_alpha   90.00000000
_cell_angle_beta   90.00000000
_cell_angle_gamma   110.14834067
_symmetry_Int_Tables_number   1
_chemical_formula_structural   Er3TaO7
_chemical_formula_sum   'Er6 Ta2 O14'
_cell_volume   290.36026330
_cell_formula_units_Z   2
loop_
 _symmetry_equiv_pos_site_id
 _symmetry_equiv_pos_as_xyz
  1  'x, y, z'
loop_
 _atom_site_type_symbol
 _atom_site_label
 _atom_site_symmetry_multiplicity
 _atom_site_fract_x
 _atom_site_fract_y
 _atom_site_fract_z
 _atom_site_occupancy
  Er  Er0  1  0.04664604  0.51188397  0.25000000  1
  Er  Er1  1  0.00000000  0.00000000  0.00000000  1
  Er  Er2  1  0.00000000  0.00000000  0.50000000  1
  Er  Er3  1  0.48811603  0.95335396  0.75000000  1
  Er  Er4  1  0.51188397  0.04664604  0.25000000  1
  Er  Er5  1  0.95335396  0.48811603  0.75000000  1
  Ta  Ta6  1  0.50000000  0.50000000  0.00000000  1
  Ta  Ta7  1  0.50000000  0.50000000  0.50000000  1
  O  O8  1  0.11627982  0.84986986  0.75000000  1
  O  O9  1  0.15013014  0.88372018  0.25000000  1
  O  O10  1  0.17415634  0.43341418  0.53062299  1
  O  O11  1  0.17415634  0.43341418  0.96937701  1
  O  O12  1  0.56658582  0.82584366  0.03062299  1
  O  O13  1  0.56658582  0.82584366  0.46937701  1
  O  O14  1  0.42906380  0.42906380  0.25000000  1
  O  O15  1  0.57093620  0.57093620  0.75000000  1
  O  O16  1  0.43341418  0.17415634  0.96937701  1
  O  O17  1  0.43341418  0.17415634  0.53062299  1
  O  O18  1  0.82584366  0.56658582  0.03062299  1
  O  O19  1  0.82584366  0.56658582  0.46937701  1
  O  O20  1  0.84986986  0.11627982  0.75000000  1
  O  O21  1  0.88372018  0.15013014  0.25000000  1
