# generated using pymatgen
data_LiNbO3
_symmetry_space_group_name_H-M   'P 1'
_cell_length_a   5.27535192
_cell_length_b   5.67375565
_cell_length_c   10.04535139
_cell_angle_alpha   93.62880011
_cell_angle_beta   91.95049232
_cell_angle_gamma   57.46865890
_symmetry_Int_Tables_number   1
_chemical_formula_structural   LiNbO3
_chemical_formula_sum   'Li4 Nb4 O12'
_cell_volume   252.98416474
_cell_formula_units_Z   4
loop_
 _symmetry_equiv_pos_site_id
 _symmetry_equiv_pos_as_xyz
  1  'x, y, z'
loop_
 _atom_site_type_symbol
 _atom_site_label
 _atom_site_symmetry_multiplicity
 _atom_site_fract_x
 _atom_site_fract_y
 _atom_site_fract_z
 _atom_site_occupancy
  Li  Li0  1  0.74199516  0.37809839  0.49970109  1
  Li  Li1  1  0.51321753  0.49290491  0.00017489  1
  Li  Li2  1  0.48678247  0.00612244  0.50017489  1
  Li  Li3  1  0.25800484  0.12009355  0.99970109  1
  Nb  Nb4  1  0.85324657  0.57288799  0.23733136  1
  Nb  Nb5  1  0.85272746  0.07398355  0.76258807  1
  Nb  Nb6  1  0.14727254  0.92671101  0.26258807  1
  Nb  Nb7  1  0.14675343  0.42613455  0.73733136  1
  O  O8  1  0.84304850  0.90908181  0.35016788  1
  O  O9  1  0.84264573  0.74805024  0.64979087  1
  O  O10  1  0.90998282  0.35688114  0.86695567  1
  O  O11  1  0.91046088  0.23273876  0.13295689  1
  O  O12  1  0.50073373  0.80262316  0.12561840  1
  O  O13  1  0.49975860  0.69685007  0.37431688  1
  O  O14  1  0.49926627  0.30335688  0.62561940  1
  O  O15  1  0.50024140  0.19660866  0.87431688  1
  O  O16  1  0.15695150  0.75213031  0.85016788  1
  O  O17  1  0.15735427  0.59069497  0.14979087  1
  O  O18  1  0.09001718  0.26686396  0.36695567  1
  O  O19  1  0.08953912  0.14320065  0.63295689  1
