# generated using pymatgen
data_Na2P2H4N2O5
_symmetry_space_group_name_H-M   'P 1'
_cell_length_a   5.26768200
_cell_length_b   11.50515553
_cell_length_c   11.60687454
_cell_angle_alpha   94.35725264
_cell_angle_beta   103.11585256
_cell_angle_gamma   76.76609068
_symmetry_Int_Tables_number   1
_chemical_formula_structural   Na2P2H4N2O5
_chemical_formula_sum   'Na8 P8 H16 N8 O20'
_cell_volume   666.68221138
_cell_formula_units_Z   4
loop_
 _symmetry_equiv_pos_site_id
 _symmetry_equiv_pos_as_xyz
  1  'x, y, z'
loop_
 _atom_site_type_symbol
 _atom_site_label
 _atom_site_symmetry_multiplicity
 _atom_site_fract_x
 _atom_site_fract_y
 _atom_site_fract_z
 _atom_site_occupancy
  Na  Na0  1  0.43746273  0.91201892  0.10333040  1
  Na  Na1  1  0.82019776  0.89882465  0.40520376  1
  Na  Na2  1  0.31381865  0.60117535  0.09479624  1
  Na  Na3  1  0.24615125  0.58798108  0.39666960  1
  Na  Na4  1  0.75384875  0.41201892  0.60333040  1
  Na  Na5  1  0.68618135  0.39882465  0.90520376  1
  Na  Na6  1  0.17980224  0.10117535  0.59479624  1
  Na  Na7  1  0.56253727  0.08798108  0.89666960  1
  P  P8  1  0.84385868  0.92615018  0.68946443  1
  P  P9  1  0.89371199  0.81405393  0.92249611  1
  P  P10  1  0.78526981  0.68594607  0.57750389  1
  P  P11  1  0.08054443  0.57384982  0.81053557  1
  P  P12  1  0.91945557  0.42615018  0.18946443  1
  P  P13  1  0.21473019  0.31405393  0.42249611  1
  P  P14  1  0.10628801  0.18594607  0.07750389  1
  P  P15  1  0.15614132  0.07384982  0.31053557  1
  H  H16  1  0.21761595  0.86902644  0.84459531  1
  H  H17  1  0.46796367  0.84285662  0.63718486  1
  H  H18  1  0.95432635  0.81092846  0.15618934  1
  H  H19  1  0.36493908  0.78570974  0.28739082  1
  H  H20  1  0.86325700  0.71429026  0.21260918  1
  H  H21  1  0.60906547  0.68907154  0.34381066  1
  H  H22  1  0.67363443  0.65714338  0.86281514  1
  H  H23  1  0.24204708  0.63097356  0.65540469  1
  H  H24  1  0.75795292  0.36902644  0.34459531  1
  H  H25  1  0.32636557  0.34285662  0.13718486  1
  H  H26  1  0.39093453  0.31092846  0.65618934  1
  H  H27  1  0.13674300  0.28570974  0.78739082  1
  H  H28  1  0.63506092  0.21429026  0.71260918  1
  H  H29  1  0.04567365  0.18907154  0.84381066  1
  H  H30  1  0.53203633  0.15714338  0.36281514  1
  H  H31  1  0.78238405  0.13097356  0.15540469  1
  N  N32  1  0.01441241  0.87674615  0.82609935  1
  N  N33  1  0.66344720  0.82457220  0.62925426  1
  N  N34  1  0.85876513  0.67542780  0.87074574  1
  N  N35  1  0.06505922  0.62325385  0.67390065  1
  N  N36  1  0.93494078  0.37674615  0.32609935  1
  N  N37  1  0.14123487  0.32457220  0.12925426  1
  N  N38  1  0.33655280  0.17542780  0.37074574  1
  N  N39  1  0.98558759  0.12325385  0.17390065  1
  O  O40  1  0.35666898  0.95775347  0.29911321  1
  O  O41  1  0.05030403  0.92569258  0.61746542  1
  O  O42  1  0.61660810  0.88438388  0.92832490  1
  O  O43  1  0.10668884  0.80281409  0.03728142  1
  O  O44  1  0.84588769  0.80144696  0.21350038  1
  O  O45  1  0.43383427  0.69855304  0.28649962  1
  O  O46  1  0.87222051  0.69718591  0.46271858  1
  O  O47  1  0.57266808  0.61561612  0.57167510  1
  O  O48  1  0.35853118  0.57430742  0.88253458  1
  O  O49  1  0.01530924  0.54224653  0.20088679  1
  O  O50  1  0.98469076  0.45775347  0.79911321  1
  O  O51  1  0.64146882  0.42569258  0.11746542  1
  O  O52  1  0.42733192  0.38438388  0.42832490  1
  O  O53  1  0.12777949  0.30281409  0.53728142  1
  O  O54  1  0.56616573  0.30144696  0.71350038  1
  O  O55  1  0.15411231  0.19855304  0.78649962  1
  O  O56  1  0.89331116  0.19718591  0.96271858  1
  O  O57  1  0.38339190  0.11561612  0.07167510  1
  O  O58  1  0.94969597  0.07430742  0.38253458  1
  O  O59  1  0.64333102  0.04224653  0.70088679  1
