# generated using pymatgen
data_Nb(SO4)2
_symmetry_space_group_name_H-M   'P 1'
_cell_length_a   9.43981645
_cell_length_b   9.30655704
_cell_length_c   13.65508136
_cell_angle_alpha   90.00000000
_cell_angle_beta   90.00000000
_cell_angle_gamma   90.00000000
_symmetry_Int_Tables_number   1
_chemical_formula_structural   Nb(SO4)2
_chemical_formula_sum   'Nb8 S16 O64'
_cell_volume   1199.62880537
_cell_formula_units_Z   8
loop_
 _symmetry_equiv_pos_site_id
 _symmetry_equiv_pos_as_xyz
  1  'x, y, z'
loop_
 _atom_site_type_symbol
 _atom_site_label
 _atom_site_symmetry_multiplicity
 _atom_site_fract_x
 _atom_site_fract_y
 _atom_site_fract_z
 _atom_site_occupancy
  Nb  Nb0  1  0.14166872  0.10411909  0.12722507  1
  Nb  Nb1  1  0.14166872  0.39588091  0.62722507  1
  Nb  Nb2  1  0.35833128  0.60411909  0.12722507  1
  Nb  Nb3  1  0.35833128  0.89588091  0.62722507  1
  Nb  Nb4  1  0.64166872  0.10411909  0.37277493  1
  Nb  Nb5  1  0.64166872  0.39588091  0.87277493  1
  Nb  Nb6  1  0.85833128  0.60411909  0.37277493  1
  Nb  Nb7  1  0.85833128  0.89588091  0.87277493  1
  S  S8  1  0.07242903  0.06680214  0.72232766  1
  S  S9  1  0.07242903  0.43319786  0.22232766  1
  S  S10  1  0.16024065  0.68830228  0.48709795  1
  S  S11  1  0.16024065  0.81169772  0.98709795  1
  S  S12  1  0.33975935  0.18830228  0.48709795  1
  S  S13  1  0.33975935  0.31169772  0.98709795  1
  S  S14  1  0.42757097  0.93319786  0.22232766  1
  S  S15  1  0.42757097  0.56680214  0.72232766  1
  S  S16  1  0.57242903  0.43319786  0.27767334  1
  S  S17  1  0.57242903  0.06680214  0.77767234  1
  S  S18  1  0.66024065  0.68830228  0.01290205  1
  S  S19  1  0.66024065  0.81169772  0.51290205  1
  S  S20  1  0.83975935  0.18830228  0.01290205  1
  S  S21  1  0.83975935  0.31169772  0.51290205  1
  S  S22  1  0.92757097  0.56680214  0.77767234  1
  S  S23  1  0.92757097  0.93319786  0.27767334  1
  O  O24  1  0.00156956  0.69506755  0.47245644  1
  O  O25  1  0.00156956  0.80493245  0.97245644  1
  O  O26  1  0.01761158  0.99161458  0.35178917  1
  O  O27  1  0.01761158  0.50838542  0.85178917  1
  O  O28  1  0.02566425  0.46856062  0.32546219  1
  O  O29  1  0.02566425  0.03143938  0.82546219  1
  O  O30  1  0.08264429  0.23023592  0.71906348  1
  O  O31  1  0.08264429  0.26976408  0.21906348  1
  O  O32  1  0.18825274  0.72826689  0.08117123  1
  O  O33  1  0.18825274  0.77173311  0.58117123  1
  O  O34  1  0.19412462  0.96663010  0.01422358  1
  O  O35  1  0.19412462  0.53336990  0.51422358  1
  O  O36  1  0.22504017  0.01398458  0.71638689  1
  O  O37  1  0.22504017  0.48601542  0.21638689  1
  O  O38  1  0.24002437  0.73685136  0.40470670  1
  O  O39  1  0.24002437  0.76314864  0.90470670  1
  O  O40  1  0.25997563  0.23685136  0.40470670  1
  O  O41  1  0.25997563  0.26314864  0.90470670  1
  O  O42  1  0.27495983  0.98601542  0.21638689  1
  O  O43  1  0.27495983  0.51398458  0.71638689  1
  O  O44  1  0.30587538  0.03336990  0.51422358  1
  O  O45  1  0.30587538  0.46663010  0.01422358  1
  O  O46  1  0.31174726  0.22826689  0.08117123  1
  O  O47  1  0.31174726  0.27173311  0.58117123  1
  O  O48  1  0.41735571  0.76976408  0.21906348  1
  O  O49  1  0.41735571  0.73023592  0.71906348  1
  O  O50  1  0.47433575  0.53143938  0.82546219  1
  O  O51  1  0.47433575  0.96856062  0.32546219  1
  O  O52  1  0.48238842  0.49161458  0.35178917  1
  O  O53  1  0.48238842  0.00838542  0.85178917  1
  O  O54  1  0.49843044  0.19506755  0.47245644  1
  O  O55  1  0.49843044  0.30493245  0.97245644  1
  O  O56  1  0.50156956  0.69506755  0.02754356  1
  O  O57  1  0.50156956  0.80493245  0.52754356  1
  O  O58  1  0.51761158  0.50838542  0.64821083  1
  O  O59  1  0.51761158  0.99161458  0.14821083  1
  O  O60  1  0.52566425  0.46856062  0.17453781  1
  O  O61  1  0.52566425  0.03143938  0.67453781  1
  O  O62  1  0.58264429  0.26976408  0.28093652  1
  O  O63  1  0.58264429  0.23023592  0.78093652  1
  O  O64  1  0.68825274  0.72826689  0.41882877  1
  O  O65  1  0.68825274  0.77173311  0.91882877  1
  O  O66  1  0.69412462  0.53336990  0.98577642  1
  O  O67  1  0.69412462  0.96663010  0.48577642  1
  O  O68  1  0.72504017  0.48601542  0.28361311  1
  O  O69  1  0.72504017  0.01398458  0.78361311  1
  O  O70  1  0.74002437  0.73685136  0.09529330  1
  O  O71  1  0.74002437  0.76314864  0.59529330  1
  O  O72  1  0.75997563  0.23685136  0.09529330  1
  O  O73  1  0.75997563  0.26314864  0.59529330  1
  O  O74  1  0.77495983  0.51398458  0.78361311  1
  O  O75  1  0.77495983  0.98601542  0.28361311  1
  O  O76  1  0.80587538  0.46663010  0.48577642  1
  O  O77  1  0.80587538  0.03336990  0.98577642  1
  O  O78  1  0.81174726  0.22826689  0.41882877  1
  O  O79  1  0.81174726  0.27173311  0.91882877  1
  O  O80  1  0.91735571  0.73023592  0.78093652  1
  O  O81  1  0.91735571  0.76976408  0.28093652  1
  O  O82  1  0.97433575  0.53143938  0.67453781  1
  O  O83  1  0.97433575  0.96856062  0.17453781  1
  O  O84  1  0.98238842  0.00838542  0.64821083  1
  O  O85  1  0.98238842  0.49161458  0.14821083  1
  O  O86  1  0.99843044  0.19506755  0.02754356  1
  O  O87  1  0.99843044  0.30493245  0.52754356  1
