# generated using pymatgen
data_Sr2ErCu2(BiO4)2
_symmetry_space_group_name_H-M   'P 1'
_cell_length_a   3.78043044
_cell_length_b   3.78043044
_cell_length_c   15.46020421
_cell_angle_alpha   97.02273903
_cell_angle_beta   97.02273903
_cell_angle_gamma   90.00000000
_symmetry_Int_Tables_number   1
_chemical_formula_structural   Sr2ErCu2(BiO4)2
_chemical_formula_sum   'Sr2 Er1 Cu2 Bi2 O8'
_cell_volume   217.62397655
_cell_formula_units_Z   1
loop_
 _symmetry_equiv_pos_site_id
 _symmetry_equiv_pos_as_xyz
  1  'x, y, z'
loop_
 _atom_site_type_symbol
 _atom_site_label
 _atom_site_symmetry_multiplicity
 _atom_site_fract_x
 _atom_site_fract_y
 _atom_site_fract_z
 _atom_site_occupancy
  Sr  Sr0  1  0.11459465  0.11459465  0.22918930  1
  Sr  Sr1  1  0.88540535  0.88540535  0.77081070  1
  Er  Er2  1  -0.00000000  -0.00000000  -0.00000000  1
  Cu  Cu3  1  0.44780438  0.44780438  0.89560875  1
  Cu  Cu4  1  0.55219562  0.55219562  0.10439125  1
  Bi  Bi5  1  0.29557280  0.29557280  0.59114560  1
  Bi  Bi6  1  0.70442720  0.70442720  0.40885440  1
  O  O7  1  0.04781168  0.54781168  0.09562336  1
  O  O8  1  0.95218832  0.45218832  0.90437664  1
  O  O9  1  0.54781168  0.04781168  0.09562336  1
  O  O10  1  0.45218832  0.95218832  0.90437664  1
  O  O11  1  0.20246073  0.20246073  0.40492147  1
  O  O12  1  0.79753927  0.79753927  0.59507853  1
  O  O13  1  0.36546770  0.36546770  0.73093540  1
  O  O14  1  0.63453230  0.63453230  0.26906460  1
