# generated using pymatgen
data_Na4H2RuN6O13
_symmetry_space_group_name_H-M   'P 1'
_cell_length_a   7.71111563
_cell_length_b   7.71111563
_cell_length_c   12.31816248
_cell_angle_alpha   92.35749882
_cell_angle_beta   92.35749882
_cell_angle_gamma   117.13060942
_symmetry_Int_Tables_number   1
_chemical_formula_structural   Na4H2RuN6O13
_chemical_formula_sum   'Na8 H4 Ru2 N12 O26'
_cell_volume   649.83080881
_cell_formula_units_Z   2
loop_
 _symmetry_equiv_pos_site_id
 _symmetry_equiv_pos_as_xyz
  1  'x, y, z'
loop_
 _atom_site_type_symbol
 _atom_site_label
 _atom_site_symmetry_multiplicity
 _atom_site_fract_x
 _atom_site_fract_y
 _atom_site_fract_z
 _atom_site_occupancy
  Na  Na0  1  0.72376864  0.97240257  0.12051961  1
  Na  Na1  1  0.02759743  0.27623136  0.37948039  1
  Na  Na2  1  0.27623136  0.02759743  0.87948039  1
  Na  Na3  1  0.97240257  0.72376864  0.62051961  1
  Na  Na4  1  0.34828117  0.16691074  0.19385069  1
  Na  Na5  1  0.83308926  0.65171883  0.30614931  1
  Na  Na6  1  0.65171883  0.83308926  0.80614931  1
  Na  Na7  1  0.16691074  0.34828117  0.69385069  1
  H  H8  1  0.45901950  0.55946741  0.18701184  1
  H  H9  1  0.44053259  0.54098050  0.31298816  1
  H  H10  1  0.54098050  0.44053259  0.81298816  1
  H  H11  1  0.55946741  0.45901950  0.68701184  1
  Ru  Ru12  1  -0.00000000  0.50000000  -0.00000000  1
  Ru  Ru13  1  0.50000000  -0.00000000  0.50000000  1
  N  N14  1  0.01194273  0.75597312  0.06750186  1
  N  N15  1  0.24402688  0.98805727  0.43249814  1
  N  N16  1  0.98805727  0.24402688  0.93249814  1
  N  N17  1  0.75597312  0.01194273  0.56750186  1
  N  N18  1  0.69956390  0.34726426  0.01343188  1
  N  N19  1  0.65273574  0.30043610  0.48656812  1
  N  N20  1  0.30043610  0.65273574  0.98656812  1
  N  N21  1  0.34726426  0.69956390  0.51343188  1
  N  N22  1  0.03899624  0.42148116  0.15506673  1
  N  N23  1  0.57851884  0.96100376  0.34493327  1
  N  N24  1  0.96100376  0.57851884  0.84493327  1
  N  N25  1  0.42148116  0.03899624  0.65506673  1
  O  O26  1  0.15674054  0.91934561  0.05616012  1
  O  O27  1  0.08065439  0.84325946  0.44383988  1
  O  O28  1  0.84325946  0.08065439  0.94383988  1
  O  O29  1  0.91934561  0.15674054  0.55616012  1
  O  O30  1  0.87783820  0.75397782  0.12354639  1
  O  O31  1  0.24602218  0.12216180  0.37645361  1
  O  O32  1  0.12216180  0.24602218  0.87645361  1
  O  O33  1  0.75397782  0.87783820  0.62354639  1
  O  O34  1  0.63576183  0.24616035  0.09444115  1
  O  O35  1  0.75383965  0.36423817  0.40555885  1
  O  O36  1  0.36423817  0.75383965  0.90555885  1
  O  O37  1  0.24616035  0.63576183  0.59444115  1
  O  O38  1  0.57461982  0.34200917  0.94235377  1
  O  O39  1  0.65799083  0.42538018  0.55764623  1
  O  O40  1  0.42538018  0.65799083  0.05764623  1
  O  O41  1  0.34200917  0.57461982  0.44235377  1
  O  O42  1  0.05088280  0.52513576  0.23940921  1
  O  O43  1  0.47486424  0.94911720  0.26059079  1
  O  O44  1  0.94911720  0.47486424  0.76059079  1
  O  O45  1  0.52513576  0.05088280  0.73940921  1
  O  O46  1  0.04733616  0.26286751  0.16938008  1
  O  O47  1  0.73713249  0.95266384  0.33061992  1
  O  O48  1  0.95266384  0.73713249  0.83061992  1
  O  O49  1  0.26286751  0.04733616  0.66938008  1
  O  O50  1  0.49446108  0.50553892  0.25000000  1
  O  O51  1  0.50553892  0.49446108  0.75000000  1
