# generated using pymatgen
data_Ti3NbO8
_symmetry_space_group_name_H-M   'P 1'
_cell_length_a   4.72510783
_cell_length_b   9.91242871
_cell_length_c   6.00896268
_cell_angle_alpha   72.36000063
_cell_angle_beta   90.03075792
_cell_angle_gamma   90.45051951
_symmetry_Int_Tables_number   1
_chemical_formula_structural   Ti3NbO8
_chemical_formula_sum   'Ti6 Nb2 O16'
_cell_volume   268.20109984
_cell_formula_units_Z   2
loop_
 _symmetry_equiv_pos_site_id
 _symmetry_equiv_pos_as_xyz
  1  'x, y, z'
loop_
 _atom_site_type_symbol
 _atom_site_label
 _atom_site_symmetry_multiplicity
 _atom_site_fract_x
 _atom_site_fract_y
 _atom_site_fract_z
 _atom_site_occupancy
  Ti  Ti0  1  0.49552165  0.24672488  0.62326305  1
  Ti  Ti1  1  0.49984313  0.75433760  0.37712803  1
  Ti  Ti2  1  0.99699691  0.00082833  0.49928697  1
  Ti  Ti3  1  0.99806546  0.50295502  0.73781685  1
  Ti  Ti4  1  0.00159885  0.00034089  0.00054439  1
  Ti  Ti5  1  0.99807940  0.49942769  0.25596243  1
  Nb  Nb6  1  0.49747292  0.74811742  0.87988747  1
  Nb  Nb7  1  0.50178727  0.25427889  0.11883129  1
  O  O8  1  0.80552399  0.40441527  0.04591703  1
  O  O9  1  0.80419199  0.40309912  0.54610689  1
  O  O10  1  0.80759923  0.90259603  0.79694119  1
  O  O11  1  0.80237554  0.90297460  0.29886490  1
  O  O12  1  0.69686027  0.15046092  0.92001976  1
  O  O13  1  0.69668692  0.65057194  0.17748777  1
  O  O14  1  0.70104290  0.15316511  0.42557141  1
  O  O15  1  0.69433913  0.65022391  0.67206621  1
  O  O16  1  0.30235066  0.35199551  0.81886889  1
  O  O17  1  0.30381526  0.85186764  0.57010169  1
  O  O18  1  0.29635349  0.84805385  0.08076155  1
  O  O19  1  0.29706610  0.34835049  0.32714162  1
  O  O20  1  0.18939735  0.59868029  0.94895834  1
  O  O21  1  0.19241741  0.59893214  0.44999356  1
  O  O22  1  0.19810105  0.09640022  0.70210444  1
  O  O23  1  0.19197012  0.09767626  0.19843528  1
