# generated using pymatgen
data_Li2FeP2O7
_symmetry_space_group_name_H-M   'P 1'
_cell_length_a   8.05975246
_cell_length_b   5.16341932
_cell_length_c   14.31414908
_cell_angle_alpha   90.00000000
_cell_angle_beta   112.11143993
_cell_angle_gamma   90.00000000
_symmetry_Int_Tables_number   1
_chemical_formula_structural   Li2FeP2O7
_chemical_formula_sum   'Li8 Fe4 P8 O28'
_cell_volume   551.88457852
_cell_formula_units_Z   4
loop_
 _symmetry_equiv_pos_site_id
 _symmetry_equiv_pos_as_xyz
  1  'x, y, z'
loop_
 _atom_site_type_symbol
 _atom_site_label
 _atom_site_symmetry_multiplicity
 _atom_site_fract_x
 _atom_site_fract_y
 _atom_site_fract_z
 _atom_site_occupancy
  Li  Li0  1  0.03002323  0.78814596  0.67682472  1
  Li  Li1  1  0.03002323  0.71185404  0.17682472  1
  Li  Li2  1  0.57450630  0.25148375  0.83834456  1
  Li  Li3  1  0.42549370  0.75148375  0.66165544  1
  Li  Li4  1  0.57450630  0.24851625  0.33834456  1
  Li  Li5  1  0.42549370  0.74851625  0.16165544  1
  Li  Li6  1  0.96997677  0.28814596  0.82317528  1
  Li  Li7  1  0.96997677  0.21185404  0.32317528  1
  Fe  Fe8  1  0.27929903  0.71652214  0.87856426  1
  Fe  Fe9  1  0.27929903  0.78347786  0.37856426  1
  Fe  Fe10  1  0.72070097  0.21652214  0.62143574  1
  Fe  Fe11  1  0.72070097  0.28347786  0.12143574  1
  P  P12  1  0.18513545  0.28353947  0.69327896  1
  P  P13  1  0.29422085  0.28048406  0.52245379  1
  P  P14  1  0.18513545  0.21646053  0.19327896  1
  P  P15  1  0.70577915  0.78048406  0.97754621  1
  P  P16  1  0.29422085  0.21951594  0.02245379  1
  P  P17  1  0.81486455  0.78353947  0.80672104  1
  P  P18  1  0.70577915  0.71951594  0.47754621  1
  P  P19  1  0.81486455  0.71646053  0.30672104  1
  O  O20  1  0.00372871  0.74838540  0.80496130  1
  O  O21  1  0.00372871  0.75161460  0.30496130  1
  O  O22  1  0.20627486  0.34429824  0.91903362  1
  O  O23  1  0.14819140  0.23343586  0.57493965  1
  O  O24  1  0.24823613  0.56655056  0.71634083  1
  O  O25  1  0.31912967  0.08406009  0.75746406  1
  O  O26  1  0.32069223  0.57437008  0.51754172  1
  O  O27  1  0.20627486  0.15570176  0.41903362  1
  O  O28  1  0.14819140  0.26656414  0.07493965  1
  O  O29  1  0.53786663  0.63521752  0.90838207  1
  O  O30  1  0.24823613  0.93344944  0.21634083  1
  O  O31  1  0.31912967  0.41593991  0.25746406  1
  O  O32  1  0.46213337  0.13521752  0.59161793  1
  O  O33  1  0.32069223  0.92562992  0.01754172  1
  O  O34  1  0.67930777  0.07437008  0.98245828  1
  O  O35  1  0.53786663  0.86478248  0.40838207  1
  O  O36  1  0.68087033  0.58406009  0.74253594  1
  O  O37  1  0.75176387  0.06655056  0.78365917  1
  O  O38  1  0.46213337  0.36478248  0.09161793  1
  O  O39  1  0.85180860  0.73343586  0.92506035  1
  O  O40  1  0.79372514  0.84429824  0.58096638  1
  O  O41  1  0.67930777  0.42562992  0.48245828  1
  O  O42  1  0.68087033  0.91593991  0.24253594  1
  O  O43  1  0.75176387  0.43344944  0.28365917  1
  O  O44  1  0.85180860  0.76656414  0.42506035  1
  O  O45  1  0.79372514  0.65570176  0.08096638  1
  O  O46  1  0.99627129  0.24838540  0.69503870  1
  O  O47  1  0.99627129  0.25161460  0.19503870  1
