# generated using pymatgen
data_Tb(BiO2)3
_symmetry_space_group_name_H-M   'P 1'
_cell_length_a   9.60853658
_cell_length_b   9.60853658
_cell_length_c   9.60853658
_cell_angle_alpha   109.47122063
_cell_angle_beta   109.47122063
_cell_angle_gamma   109.47122063
_symmetry_Int_Tables_number   1
_chemical_formula_structural   Tb(BiO2)3
_chemical_formula_sum   'Tb4 Bi12 O24'
_cell_volume   682.88858399
_cell_formula_units_Z   4
loop_
 _symmetry_equiv_pos_site_id
 _symmetry_equiv_pos_as_xyz
  1  'x, y, z'
loop_
 _atom_site_type_symbol
 _atom_site_label
 _atom_site_symmetry_multiplicity
 _atom_site_fract_x
 _atom_site_fract_y
 _atom_site_fract_z
 _atom_site_occupancy
  Tb  Tb0  1  0.00312796  0.50000000  0.00000000  1
  Tb  Tb1  1  0.50000000  0.00000000  0.00312796  1
  Tb  Tb2  1  0.49687204  0.49687204  0.49687204  1
  Tb  Tb3  1  0.00000000  0.00312796  0.50000000  1
  Bi  Bi4  1  0.96664679  0.25000000  0.21664679  1
  Bi  Bi5  1  0.71929156  0.46929156  0.25000000  1
  Bi  Bi6  1  0.78070844  0.03070844  0.75000000  1
  Bi  Bi7  1  0.75000000  0.28335321  0.53335321  1
  Bi  Bi8  1  0.75000000  0.78070844  0.03070844  1
  Bi  Bi9  1  0.53335321  0.75000000  0.28335321  1
  Bi  Bi10  1  0.46929156  0.25000000  0.71929156  1
  Bi  Bi11  1  0.25000000  0.71929156  0.46929156  1
  Bi  Bi12  1  0.25000000  0.21664679  0.96664679  1
  Bi  Bi13  1  0.28335321  0.53335321  0.75000000  1
  Bi  Bi14  1  0.21664679  0.96664679  0.25000000  1
  Bi  Bi15  1  0.03070844  0.75000000  0.78070844  1
  O  O16  1  0.01017332  0.04550237  0.27687114  1
  O  O17  1  0.76669882  0.03532905  0.48982668  1
  O  O18  1  0.73330118  0.22312886  0.26863123  1
  O  O19  1  0.98742457  0.95417611  0.71742990  1
  O  O20  1  0.51257543  0.23000533  0.96675054  1
  O  O21  1  0.76325479  0.54582389  0.53324946  1
  O  O22  1  0.73674521  0.26999467  0.78257010  1
  O  O23  1  0.45449763  0.46467095  0.23136977  1
  O  O24  1  0.46467095  0.23136977  0.45449763  1
  O  O25  1  0.78257010  0.73674521  0.26999467  1
  O  O26  1  0.71742990  0.98742457  0.95417611  1
  O  O27  1  0.23000533  0.96675054  0.51257543  1
  O  O28  1  0.48982668  0.76669882  0.03532905  1
  O  O29  1  0.26863123  0.73330118  0.22312886  1
  O  O30  1  0.23136977  0.45449763  0.46467095  1
  O  O31  1  0.54582389  0.53324946  0.76325479  1
  O  O32  1  0.96675054  0.51257543  0.23000533  1
  O  O33  1  0.53324946  0.76325479  0.54582389  1
  O  O34  1  0.27687114  0.01017332  0.04550237  1
  O  O35  1  0.22312886  0.26863123  0.73330118  1
  O  O36  1  0.04550237  0.27687114  0.01017332  1
  O  O37  1  0.03532905  0.48982668  0.76669882  1
  O  O38  1  0.26999467  0.78257010  0.73674521  1
  O  O39  1  0.95417611  0.71742990  0.98742457  1
