# generated using pymatgen
data_Li3Cu4F15
_symmetry_space_group_name_H-M   'P 1'
_cell_length_a   3.80176145
_cell_length_b   16.64234578
_cell_length_c   18.13714598
_cell_angle_alpha   90.00000000
_cell_angle_beta   90.00000000
_cell_angle_gamma   90.00000000
_symmetry_Int_Tables_number   1
_chemical_formula_structural   Li3Cu4F15
_chemical_formula_sum   'Li12 Cu16 F60'
_cell_volume   1147.54137274
_cell_formula_units_Z   4
loop_
 _symmetry_equiv_pos_site_id
 _symmetry_equiv_pos_as_xyz
  1  'x, y, z'
loop_
 _atom_site_type_symbol
 _atom_site_label
 _atom_site_symmetry_multiplicity
 _atom_site_fract_x
 _atom_site_fract_y
 _atom_site_fract_z
 _atom_site_occupancy
  Li  Li0  1  0.00000000  0.04226871  0.16550658  1
  Li  Li1  1  0.00000000  0.34630454  0.01485423  1
  Li  Li2  1  0.00000000  0.32299908  0.39459126  1
  Li  Li3  1  0.00000000  0.81850009  0.14594974  1
  Li  Li4  1  0.00000000  0.57779245  0.38513461  1
  Li  Li5  1  0.00000000  0.82404753  0.52814957  1
  Li  Li6  1  0.50000000  0.17595247  0.02814957  1
  Li  Li7  1  0.50000000  0.18149991  0.64594974  1
  Li  Li8  1  0.50000000  0.42220755  0.88513461  1
  Li  Li9  1  0.50000000  0.65369546  0.51485423  1
  Li  Li10  1  0.50000000  0.67700092  0.89459126  1
  Li  Li11  1  0.50000000  0.95773129  0.66550658  1
  Cu  Cu12  1  0.00000000  0.02927993  0.82450296  1
  Cu  Cu13  1  0.00000000  0.96629634  0.01683162  1
  Cu  Cu14  1  0.00000000  0.46787106  0.53157568  1
  Cu  Cu15  1  0.00000000  0.31827841  0.67924192  1
  Cu  Cu16  1  0.00000000  0.24714136  0.87642311  1
  Cu  Cu17  1  0.00000000  0.53139623  0.72367460  1
  Cu  Cu18  1  0.00000000  0.74772015  0.67118204  1
  Cu  Cu19  1  0.00000000  0.81643089  0.87008739  1
  Cu  Cu20  1  0.50000000  0.25227985  0.17118204  1
  Cu  Cu21  1  0.50000000  0.53212894  0.03157568  1
  Cu  Cu22  1  0.50000000  0.46860377  0.22367460  1
  Cu  Cu23  1  0.50000000  0.68172159  0.17924192  1
  Cu  Cu24  1  0.50000000  0.03370366  0.51683162  1
  Cu  Cu25  1  0.50000000  0.18356911  0.37008739  1
  Cu  Cu26  1  0.50000000  0.75285864  0.37642311  1
  Cu  Cu27  1  0.50000000  0.97072007  0.32450296  1
  F  F28  1  0.00000000  0.06784963  0.06226211  1
  F  F29  1  0.00000000  0.25172904  0.16721549  1
  F  F30  1  0.00000000  0.52925775  0.03263378  1
  F  F31  1  0.00000000  0.19289938  0.37175176  1
  F  F32  1  0.00000000  0.03363798  0.51589327  1
  F  F33  1  0.00000000  0.47016701  0.22339742  1
  F  F34  1  0.00000000  0.02416591  0.72297558  1
  F  F35  1  0.00000000  0.69178759  0.17752673  1
  F  F36  1  0.00000000  0.42425914  0.43785863  1
  F  F37  1  0.00000000  0.21276021  0.64210726  1
  F  F38  1  0.00000000  0.36703583  0.58151950  1
  F  F39  1  0.00000000  0.02835484  0.92774892  1
  F  F40  1  0.00000000  0.92514364  0.11359779  1
  F  F41  1  0.00000000  0.14269418  0.83558049  1
  F  F42  1  0.00000000  0.57352403  0.48867776  1
  F  F43  1  0.00000000  0.27688201  0.77749534  1
  F  F44  1  0.00000000  0.74910098  0.38204871  1
  F  F45  1  0.00000000  0.52930293  0.62040560  1
  F  F46  1  0.00000000  0.41636582  0.72913933  1
  F  F47  1  0.00000000  0.21772255  0.97861781  1
  F  F48  1  0.00000000  0.97109314  0.32235932  1
  F  F49  1  0.00000000  0.71231533  0.57024104  1
  F  F50  1  0.00000000  0.36022824  0.90415015  1
  F  F51  1  0.00000000  0.64513648  0.71345698  1
  F  F52  1  0.00000000  0.53369459  0.82337790  1
  F  F53  1  0.00000000  0.85430304  0.63675769  1
  F  F54  1  0.00000000  0.77921371  0.77002084  1
  F  F55  1  0.00000000  0.70983822  0.90332369  1
  F  F56  1  0.00000000  0.91557604  0.82306986  1
  F  F57  1  0.00000000  0.86373973  0.96987794  1
  F  F58  1  0.50000000  0.28768467  0.07024104  1
  F  F59  1  0.50000000  0.22078629  0.27002084  1
  F  F60  1  0.50000000  0.08442396  0.32306986  1
  F  F61  1  0.50000000  0.30821241  0.67752673  1
  F  F62  1  0.50000000  0.07485636  0.61359779  1
  F  F63  1  0.50000000  0.29016178  0.40332369  1
  F  F64  1  0.50000000  0.35486352  0.21345698  1
  F  F65  1  0.50000000  0.63296417  0.08151950  1
  F  F66  1  0.50000000  0.72311799  0.27749534  1
  F  F67  1  0.50000000  0.96636202  0.01589327  1
  F  F68  1  0.50000000  0.02890686  0.82235932  1
  F  F69  1  0.50000000  0.14569696  0.13675769  1
  F  F70  1  0.50000000  0.25089902  0.88204871  1
  F  F71  1  0.50000000  0.46630541  0.32337790  1
  F  F72  1  0.50000000  0.58363418  0.22913933  1
  F  F73  1  0.50000000  0.74827096  0.66721549  1
  F  F74  1  0.50000000  0.13626027  0.46987794  1
  F  F75  1  0.50000000  0.47069707  0.12040560  1
  F  F76  1  0.50000000  0.63977176  0.40415015  1
  F  F77  1  0.50000000  0.78227745  0.47861781  1
  F  F78  1  0.50000000  0.97583409  0.22297558  1
  F  F79  1  0.50000000  0.52983299  0.72339742  1
  F  F80  1  0.50000000  0.85730582  0.33558049  1
  F  F81  1  0.50000000  0.97164516  0.42774892  1
  F  F82  1  0.50000000  0.42647597  0.98867776  1
  F  F83  1  0.50000000  0.47074225  0.53263378  1
  F  F84  1  0.50000000  0.78723979  0.14210726  1
  F  F85  1  0.50000000  0.80710062  0.87175176  1
  F  F86  1  0.50000000  0.93215037  0.56226211  1
  F  F87  1  0.50000000  0.57574086  0.93785863  1
