# generated using pymatgen
data_Mg30SiSnO32
_symmetry_space_group_name_H-M   'P 1'
_cell_length_a   8.62697003
_cell_length_b   8.62495410
_cell_length_c   8.62495410
_cell_angle_alpha   90.00000000
_cell_angle_beta   90.00000000
_cell_angle_gamma   90.00000000
_symmetry_Int_Tables_number   1
_chemical_formula_structural   Mg30SiSnO32
_chemical_formula_sum   'Mg30 Si1 Sn1 O32'
_cell_volume   641.75886179
_cell_formula_units_Z   1
loop_
 _symmetry_equiv_pos_site_id
 _symmetry_equiv_pos_as_xyz
  1  'x, y, z'
loop_
 _atom_site_type_symbol
 _atom_site_label
 _atom_site_symmetry_multiplicity
 _atom_site_fract_x
 _atom_site_fract_y
 _atom_site_fract_z
 _atom_site_occupancy
  Mg  Mg0  1  -0.00000000  -0.00000000  0.50000000  1
  Mg  Mg1  1  -0.00000000  0.50000000  0.00000000  1
  Mg  Mg2  1  0.50000000  -0.00000000  0.00000000  1
  Mg  Mg3  1  0.50000000  -0.00000000  0.50000000  1
  Mg  Mg4  1  0.50000000  0.50000000  0.00000000  1
  Mg  Mg5  1  0.50000000  0.50000000  0.50000000  1
  Mg  Mg6  1  -0.00000000  0.25296392  0.25296392  1
  Mg  Mg7  1  -0.00000000  0.25296392  0.74703608  1
  Mg  Mg8  1  -0.00000000  0.74703608  0.25296392  1
  Mg  Mg9  1  -0.00000000  0.74703608  0.74703608  1
  Mg  Mg10  1  0.50000000  0.25035106  0.25035106  1
  Mg  Mg11  1  0.50000000  0.25035106  0.74964894  1
  Mg  Mg12  1  0.50000000  0.74964894  0.25035106  1
  Mg  Mg13  1  0.50000000  0.74964894  0.74964894  1
  Mg  Mg14  1  0.25440519  -0.00000000  0.25441749  1
  Mg  Mg15  1  0.25440519  -0.00000000  0.74558251  1
  Mg  Mg16  1  0.25184280  0.50000000  0.24896962  1
  Mg  Mg17  1  0.25184280  0.50000000  0.75103038  1
  Mg  Mg18  1  0.74559481  -0.00000000  0.25441749  1
  Mg  Mg19  1  0.74559481  -0.00000000  0.74558251  1
  Mg  Mg20  1  0.74815720  0.50000000  0.24896962  1
  Mg  Mg21  1  0.74815720  0.50000000  0.75103038  1
  Mg  Mg22  1  0.25440519  0.25441749  0.00000000  1
  Mg  Mg23  1  0.25184280  0.24896962  0.50000000  1
  Mg  Mg24  1  0.25440519  0.74558251  -0.00000000  1
  Mg  Mg25  1  0.25184280  0.75103038  0.50000000  1
  Mg  Mg26  1  0.74559481  0.25441749  0.00000000  1
  Mg  Mg27  1  0.74815720  0.24896962  0.50000000  1
  Mg  Mg28  1  0.74559481  0.74558251  -0.00000000  1
  Mg  Mg29  1  0.74815720  0.75103038  0.50000000  1
  Si  Si30  1  -0.00000000  0.50000000  0.50000000  1
  Sn  Sn31  1  -0.00000000  -0.00000000  0.00000000  1
  O  O32  1  0.27047779  -0.00000000  -0.00000000  1
  O  O33  1  0.25467789  -0.00000000  0.50000000  1
  O  O34  1  0.25467789  0.50000000  -0.00000000  1
  O  O35  1  0.26092851  0.50000000  0.50000000  1
  O  O36  1  0.72952221  -0.00000000  0.00000000  1
  O  O37  1  0.74532211  -0.00000000  0.50000000  1
  O  O38  1  0.74532211  0.50000000  0.00000000  1
  O  O39  1  0.73907149  0.50000000  0.50000000  1
  O  O40  1  0.24912632  0.25003862  0.25003862  1
  O  O41  1  0.24912632  0.25003862  0.74996138  1
  O  O42  1  0.24912632  0.74996138  0.25003862  1
  O  O43  1  0.24912632  0.74996138  0.74996138  1
  O  O44  1  0.75087368  0.25003862  0.25003862  1
  O  O45  1  0.75087368  0.25003862  0.74996138  1
  O  O46  1  0.75087368  0.74996138  0.25003862  1
  O  O47  1  0.75087368  0.74996138  0.74996138  1
  O  O48  1  -0.00000000  -0.00000000  0.26944919  1
  O  O49  1  -0.00000000  -0.00000000  0.73055081  1
  O  O50  1  -0.00000000  0.50000000  0.24303869  1
  O  O51  1  -0.00000000  0.50000000  0.75696131  1
  O  O52  1  0.50000000  -0.00000000  0.25316632  1
  O  O53  1  0.50000000  -0.00000000  0.74683368  1
  O  O54  1  0.50000000  0.50000000  0.24931272  1
  O  O55  1  0.50000000  0.50000000  0.75068728  1
  O  O56  1  -0.00000000  0.26944919  0.00000000  1
  O  O57  1  -0.00000000  0.24303869  0.50000000  1
  O  O58  1  -0.00000000  0.73055081  -0.00000000  1
  O  O59  1  -0.00000000  0.75696131  0.50000000  1
  O  O60  1  0.50000000  0.25316632  0.00000000  1
  O  O61  1  0.50000000  0.24931272  0.50000000  1
  O  O62  1  0.50000000  0.74683368  0.00000000  1
  O  O63  1  0.50000000  0.75068728  0.50000000  1
