# generated using pymatgen
data_CoPO4
_symmetry_space_group_name_H-M   'P 1'
_cell_length_a   4.97557623
_cell_length_b   9.34208210
_cell_length_c   14.22102941
_cell_angle_alpha   79.32095616
_cell_angle_beta   79.92498896
_cell_angle_gamma   74.55584152
_symmetry_Int_Tables_number   1
_chemical_formula_structural   CoPO4
_chemical_formula_sum   'Co8 P8 O32'
_cell_volume   620.59270038
_cell_formula_units_Z   8
loop_
 _symmetry_equiv_pos_site_id
 _symmetry_equiv_pos_as_xyz
  1  'x, y, z'
loop_
 _atom_site_type_symbol
 _atom_site_label
 _atom_site_symmetry_multiplicity
 _atom_site_fract_x
 _atom_site_fract_y
 _atom_site_fract_z
 _atom_site_occupancy
  Co  Co0  1  0.20696257  0.22580503  0.97277186  1
  Co  Co1  1  0.40553946  0.27419497  0.52722814  1
  Co  Co2  1  0.79303743  0.77419497  0.02722814  1
  Co  Co3  1  0.50000000  0.50000000  -0.00000000  1
  Co  Co4  1  0.59446054  0.72580503  0.47277186  1
  Co  Co5  1  0.67748491  0.75000000  0.25000000  1
  Co  Co6  1  0.32251509  0.25000000  0.75000000  1
  Co  Co7  1  0.00000000  -0.00000000  0.50000000  1
  P  P8  1  0.05187373  0.56354785  0.86589324  1
  P  P9  1  0.77633457  0.41035960  0.61975836  1
  P  P10  1  0.94812627  0.43645215  0.13410676  1
  P  P11  1  0.19354747  0.91035960  0.11975836  1
  P  P12  1  0.51868417  0.06354785  0.36589324  1
  P  P13  1  0.48131583  0.93645215  0.63410676  1
  P  P14  1  0.22366543  0.58964040  0.38024164  1
  P  P15  1  0.80645253  0.08964040  0.88024164  1
  O  O16  1  0.70288708  0.39493104  0.09858394  1
  O  O17  1  0.84939053  0.92356651  0.93247065  1
  O  O18  1  0.80359793  0.89493104  0.59858394  1
  O  O19  1  0.75823244  0.30322748  0.54979138  1
  O  O20  1  0.21286789  0.39110155  0.05399574  1
  O  O21  1  0.56700323  0.39763194  0.71118978  1
  O  O22  1  0.61125030  0.19677252  0.95020862  1
  O  O23  1  0.90100796  0.87202935  0.13890362  1
  O  O24  1  0.24176756  0.69677252  0.45020862  1
  O  O25  1  0.70542670  0.57643349  0.56752935  1
  O  O26  1  0.88776422  0.61155505  0.12889540  1
  O  O27  1  0.58951336  0.14486527  0.26694883  1
  O  O28  1  0.15060947  0.07643349  0.06752935  1
  O  O29  1  0.08805806  0.37202935  0.63890362  1
  O  O30  1  0.29711292  0.60506896  0.90141606  1
  O  O31  1  0.11223578  0.38844495  0.87110460  1
  O  O32  1  0.99867054  0.64486527  0.76694883  1
  O  O33  1  0.38874970  0.80322748  0.04979138  1
  O  O34  1  0.37178633  0.11155505  0.62889540  1
  O  O35  1  0.41048664  0.85513473  0.73305117  1
  O  O36  1  0.91194194  0.62797065  0.36109638  1
  O  O37  1  0.34203482  0.89110155  0.55399574  1
  O  O38  1  0.09899204  0.12797065  0.86109638  1
  O  O39  1  0.32417605  0.89763194  0.21118978  1
  O  O40  1  0.29457330  0.42356651  0.43247065  1
  O  O41  1  0.19640207  0.10506896  0.40141606  1
  O  O42  1  0.00132946  0.35513473  0.23305117  1
  O  O43  1  0.65796518  0.10889845  0.44600426  1
  O  O44  1  0.78713211  0.60889845  0.94600426  1
  O  O45  1  0.67582395  0.10236806  0.78881022  1
  O  O46  1  0.43299677  0.60236806  0.28881022  1
  O  O47  1  0.62821467  0.88844495  0.37110460  1
