# generated using pymatgen
data_Li2P2WO8
_symmetry_space_group_name_H-M   'P 1'
_cell_length_a   4.90577421
_cell_length_b   4.90573371
_cell_length_c   7.73741158
_cell_angle_alpha   89.99712409
_cell_angle_beta   90.00038567
_cell_angle_gamma   120.00023578
_symmetry_Int_Tables_number   1
_chemical_formula_structural   Li2P2WO8
_chemical_formula_sum   'Li2 P2 W1 O8'
_cell_volume   161.26377596
_cell_formula_units_Z   1
loop_
 _symmetry_equiv_pos_site_id
 _symmetry_equiv_pos_as_xyz
  1  'x, y, z'
loop_
 _atom_site_type_symbol
 _atom_site_label
 _atom_site_symmetry_multiplicity
 _atom_site_fract_x
 _atom_site_fract_y
 _atom_site_fract_z
 _atom_site_occupancy
  Li  Li0  1  0.33326375  0.66670748  0.66578100  1
  Li  Li1  1  0.66655446  0.33329905  0.33421824  1
  P  P2  1  0.33329843  0.66663098  0.23151675  1
  P  P3  1  0.66666916  0.33336847  0.76848580  1
  W  W4  1  0.99998134  0.99998791  -0.00000019  1
  O  O5  1  0.04144451  0.68234943  0.16150668  1
  O  O6  1  0.33336566  0.66665537  0.42478393  1
  O  O7  1  0.31758467  0.35906613  0.16150454  1
  O  O8  1  0.64085094  0.95848545  0.16147097  1
  O  O9  1  0.35908269  0.04150414  0.83849393  1
  O  O10  1  0.68236619  0.64091961  0.83849581  1
  O  O11  1  0.66673292  0.33337178  0.57521491  1
  O  O12  1  0.95850727  0.31765419  0.83852963  1
