# generated using pymatgen
data_LiNiPO4
_symmetry_space_group_name_H-M   'P 1'
_cell_length_a   9.90872177
_cell_length_b   6.98379370
_cell_length_c   4.90049678
_cell_angle_alpha   90.00000000
_cell_angle_beta   90.00000000
_cell_angle_gamma   90.00000000
_symmetry_Int_Tables_number   1
_chemical_formula_structural   LiNiPO4
_chemical_formula_sum   'Li4 Ni4 P4 O16'
_cell_volume   339.11667390
_cell_formula_units_Z   4
loop_
 _symmetry_equiv_pos_site_id
 _symmetry_equiv_pos_as_xyz
  1  'x, y, z'
loop_
 _atom_site_type_symbol
 _atom_site_label
 _atom_site_symmetry_multiplicity
 _atom_site_fract_x
 _atom_site_fract_y
 _atom_site_fract_z
 _atom_site_occupancy
  Li  Li0  1  0.16064486  0.99566153  0.24242809  1
  Li  Li1  1  0.33935514  0.49566153  0.74242809  1
  Li  Li2  1  0.66064486  0.50433847  0.24242809  1
  Li  Li3  1  0.83935514  0.00433847  0.74242809  1
  Ni  Ni4  1  0.14389212  0.49172079  0.23132795  1
  Ni  Ni5  1  0.35610788  0.99172079  0.73132795  1
  Ni  Ni6  1  0.64389212  0.00827921  0.23132795  1
  Ni  Ni7  1  0.85610788  0.50827921  0.73132795  1
  P  P8  1  0.09632999  0.75351452  0.75245461  1
  P  P9  1  0.40367001  0.25351452  0.25245461  1
  P  P10  1  0.59632999  0.74648548  0.75245461  1
  P  P11  1  0.90367001  0.24648548  0.25245461  1
  O  O12  1  0.05778955  0.23559197  0.19598242  1
  O  O13  1  0.12491989  0.74629413  0.06421349  1
  O  O14  1  0.15198645  0.56400867  0.62554309  1
  O  O15  1  0.16630280  0.93294604  0.63390034  1
  O  O16  1  0.33369720  0.43294604  0.13390034  1
  O  O17  1  0.34801355  0.06400867  0.12554309  1
  O  O18  1  0.37508011  0.24629413  0.56421349  1
  O  O19  1  0.44221045  0.73559197  0.69598242  1
  O  O20  1  0.55778955  0.26440803  0.19598242  1
  O  O21  1  0.62491989  0.75370587  0.06421349  1
  O  O22  1  0.65198645  0.93599133  0.62554309  1
  O  O23  1  0.66630280  0.56705396  0.63390034  1
  O  O24  1  0.83369720  0.06705396  0.13390034  1
  O  O25  1  0.84801355  0.43599133  0.12554309  1
  O  O26  1  0.87508011  0.25370587  0.56421349  1
  O  O27  1  0.94221045  0.76440803  0.69598242  1
