# generated using pymatgen
data_LiMn4O8
_symmetry_space_group_name_H-M   'P 1'
_cell_length_a   5.81799901
_cell_length_b   5.84304852
_cell_length_c   6.03564012
_cell_angle_alpha   61.05003903
_cell_angle_beta   59.15967185
_cell_angle_gamma   90.00000827
_symmetry_Int_Tables_number   1
_chemical_formula_structural   LiMn4O8
_chemical_formula_sum   'Li1 Mn4 O8'
_cell_volume   145.50370708
_cell_formula_units_Z   1
loop_
 _symmetry_equiv_pos_site_id
 _symmetry_equiv_pos_as_xyz
  1  'x, y, z'
loop_
 _atom_site_type_symbol
 _atom_site_label
 _atom_site_symmetry_multiplicity
 _atom_site_fract_x
 _atom_site_fract_y
 _atom_site_fract_z
 _atom_site_occupancy
  Li  Li0  1  0.50000000  0.50000000  0.00000000  1
  Mn  Mn1  1  0.00000000  0.50000000  0.50000000  1
  Mn  Mn2  1  0.00000000  0.00000000  0.50000000  1
  Mn  Mn3  1  0.00000000  0.00000000  0.00000000  1
  Mn  Mn4  1  0.50000000  0.00000000  0.00000000  1
  O  O5  1  0.23062010  0.75399131  0.04508531  1
  O  O6  1  0.23062010  0.20092438  0.04508531  1
  O  O7  1  0.24677463  0.77312106  0.45375687  1
  O  O8  1  0.22524638  0.26157181  0.47685739  1
  O  O9  1  0.77475362  0.73842819  0.52314261  1
  O  O10  1  0.75322537  0.22687894  0.54624313  1
  O  O11  1  0.76937990  0.79907562  0.95491469  1
  O  O12  1  0.76937990  0.24600869  0.95491469  1
