# generated using pymatgen
data_LiMn(SiO3)2
_symmetry_space_group_name_H-M   'P 1'
_cell_length_a   18.24353763
_cell_length_b   8.65787439
_cell_length_c   5.38540254
_cell_angle_alpha   90.00000000
_cell_angle_beta   90.00000000
_cell_angle_gamma   90.00000000
_symmetry_Int_Tables_number   1
_chemical_formula_structural   LiMn(SiO3)2
_chemical_formula_sum   'Li8 Mn8 Si16 O48'
_cell_volume   850.62571648
_cell_formula_units_Z   8
loop_
 _symmetry_equiv_pos_site_id
 _symmetry_equiv_pos_as_xyz
  1  'x, y, z'
loop_
 _atom_site_type_symbol
 _atom_site_label
 _atom_site_symmetry_multiplicity
 _atom_site_fract_x
 _atom_site_fract_y
 _atom_site_fract_z
 _atom_site_occupancy
  Li  Li0  1  0.12425276  0.99382795  0.37121095  1
  Li  Li1  1  0.12425276  0.50617205  0.87121095  1
  Li  Li2  1  0.37574724  0.00617205  0.87121095  1
  Li  Li3  1  0.37574724  0.49382795  0.37121095  1
  Li  Li4  1  0.62425276  0.50617205  0.62878905  1
  Li  Li5  1  0.62425276  0.99382795  0.12878905  1
  Li  Li6  1  0.87574724  0.00617205  0.62878905  1
  Li  Li7  1  0.87574724  0.49382795  0.12878905  1
  Mn  Mn8  1  0.12492787  0.34609098  0.36936747  1
  Mn  Mn9  1  0.12492787  0.15390902  0.86936747  1
  Mn  Mn10  1  0.37507213  0.65390902  0.86936747  1
  Mn  Mn11  1  0.37507213  0.84609098  0.36936747  1
  Mn  Mn12  1  0.62492787  0.15390902  0.63063253  1
  Mn  Mn13  1  0.62492787  0.34609098  0.13063253  1
  Mn  Mn14  1  0.87507213  0.65390902  0.63063253  1
  Mn  Mn15  1  0.87507213  0.84609098  0.13063253  1
  Si  Si16  1  0.02589309  0.66586515  0.28103559  1
  Si  Si17  1  0.02589309  0.83413485  0.78103559  1
  Si  Si18  1  0.22376275  0.66334983  0.53592074  1
  Si  Si19  1  0.22376275  0.83665017  0.03592074  1
  Si  Si20  1  0.27623725  0.16334983  0.53592074  1
  Si  Si21  1  0.27623725  0.33665017  0.03592074  1
  Si  Si22  1  0.47410691  0.16586515  0.28103559  1
  Si  Si23  1  0.47410691  0.33413485  0.78103559  1
  Si  Si24  1  0.52589309  0.66586515  0.21896441  1
  Si  Si25  1  0.52589309  0.83413485  0.71896441  1
  Si  Si26  1  0.72376275  0.66334983  0.96407926  1
  Si  Si27  1  0.72376275  0.83665017  0.46407926  1
  Si  Si28  1  0.77623725  0.16334983  0.96407926  1
  Si  Si29  1  0.77623725  0.33665017  0.46407926  1
  Si  Si30  1  0.97410691  0.16586515  0.21896441  1
  Si  Si31  1  0.97410691  0.33413485  0.71896441  1
  O  O32  1  0.05286753  0.79098857  0.06637684  1
  O  O33  1  0.05286753  0.70901143  0.56637684  1
  O  O34  1  0.06480045  0.17309793  0.22094356  1
  O  O35  1  0.06480045  0.32690207  0.72094356  1
  O  O36  1  0.06351422  0.50260339  0.20547952  1
  O  O37  1  0.06351422  0.99739661  0.70547952  1
  O  O38  1  0.18589909  0.16777836  0.52623945  1
  O  O39  1  0.18589909  0.33222164  0.02623945  1
  O  O40  1  0.18875598  0.00864354  0.03009517  1
  O  O41  1  0.18875598  0.49135646  0.53009517  1
  O  O42  1  0.19346598  0.72736584  0.80813134  1
  O  O43  1  0.19346598  0.77263416  0.30813134  1
  O  O44  1  0.30653402  0.22736584  0.80813134  1
  O  O45  1  0.30653402  0.27263416  0.30813134  1
  O  O46  1  0.31124402  0.50864354  0.03009517  1
  O  O47  1  0.31124402  0.99135646  0.53009517  1
  O  O48  1  0.31410091  0.66777836  0.52623945  1
  O  O49  1  0.31410091  0.83222164  0.02623945  1
  O  O50  1  0.43648578  0.00260339  0.20547952  1
  O  O51  1  0.43648578  0.49739661  0.70547952  1
  O  O52  1  0.43519955  0.67309793  0.22094356  1
  O  O53  1  0.43519955  0.82690207  0.72094356  1
  O  O54  1  0.44713247  0.20901143  0.56637684  1
  O  O55  1  0.44713247  0.29098857  0.06637684  1
  O  O56  1  0.55286753  0.70901143  0.93362316  1
  O  O57  1  0.55286753  0.79098857  0.43362316  1
  O  O58  1  0.56480045  0.17309793  0.27905644  1
  O  O59  1  0.56480045  0.32690207  0.77905644  1
  O  O60  1  0.56351422  0.50260339  0.29452048  1
  O  O61  1  0.56351422  0.99739661  0.79452048  1
  O  O62  1  0.68589909  0.16777836  0.97376055  1
  O  O63  1  0.68589909  0.33222164  0.47376055  1
  O  O64  1  0.68875598  0.00864354  0.46990483  1
  O  O65  1  0.68875598  0.49135646  0.96990483  1
  O  O66  1  0.69346598  0.72736584  0.69186866  1
  O  O67  1  0.69346598  0.77263416  0.19186866  1
  O  O68  1  0.80653402  0.22736584  0.69186866  1
  O  O69  1  0.80653402  0.27263416  0.19186866  1
  O  O70  1  0.81124402  0.50864354  0.46990483  1
  O  O71  1  0.81124402  0.99135646  0.96990483  1
  O  O72  1  0.81410091  0.66777836  0.97376055  1
  O  O73  1  0.81410091  0.83222164  0.47376055  1
  O  O74  1  0.93648578  0.00260339  0.29452048  1
  O  O75  1  0.93648578  0.49739661  0.79452048  1
  O  O76  1  0.93519955  0.67309793  0.27905644  1
  O  O77  1  0.93519955  0.82690207  0.77905644  1
  O  O78  1  0.94713247  0.20901143  0.93362316  1
  O  O79  1  0.94713247  0.29098857  0.43362316  1
