# generated using pymatgen
data_LiNiPO4
_symmetry_space_group_name_H-M   'P 1'
_cell_length_a   9.85186779
_cell_length_b   14.04872411
_cell_length_c   4.92657593
_cell_angle_alpha   90.00000000
_cell_angle_beta   90.00000000
_cell_angle_gamma   90.00000000
_symmetry_Int_Tables_number   1
_chemical_formula_structural   LiNiPO4
_chemical_formula_sum   'Li8 Ni8 P8 O32'
_cell_volume   681.86851825
_cell_formula_units_Z   8
loop_
 _symmetry_equiv_pos_site_id
 _symmetry_equiv_pos_as_xyz
  1  'x, y, z'
loop_
 _atom_site_type_symbol
 _atom_site_label
 _atom_site_symmetry_multiplicity
 _atom_site_fract_x
 _atom_site_fract_y
 _atom_site_fract_z
 _atom_site_occupancy
  Li  Li0  1  0.02888541  0.50111700  0.93225633  1
  Li  Li1  1  0.22269554  0.75141629  0.55045215  1
  Li  Li2  1  0.27730446  0.25141629  0.55045215  1
  Li  Li3  1  0.47111459  0.00111700  0.93225633  1
  Li  Li4  1  0.52888541  0.50111700  0.06774367  1
  Li  Li5  1  0.72269554  0.75141629  0.44954785  1
  Li  Li6  1  0.77730446  0.25141629  0.44954785  1
  Li  Li7  1  0.97111459  0.00111700  0.06774367  1
  Ni  Ni8  1  0.03049607  0.75199623  0.04976080  1
  Ni  Ni9  1  0.22440945  0.00124940  0.54367677  1
  Ni  Ni10  1  0.27559055  0.50124940  0.54367677  1
  Ni  Ni11  1  0.46950393  0.25199623  0.04976080  1
  Ni  Ni12  1  0.53049607  0.75199623  0.95023920  1
  Ni  Ni13  1  0.72440945  0.00124940  0.45632323  1
  Ni  Ni14  1  0.77559055  0.50124940  0.45632323  1
  Ni  Ni15  1  0.96950393  0.25199623  0.95023920  1
  P  P16  1  0.02877191  0.37647158  0.43562635  1
  P  P17  1  0.21373335  0.12736006  0.05359171  1
  P  P18  1  0.28626665  0.62736006  0.05359171  1
  P  P19  1  0.47122809  0.87647158  0.43562635  1
  P  P20  1  0.52877191  0.37647158  0.56437365  1
  P  P21  1  0.71373335  0.12736006  0.94640829  1
  P  P22  1  0.78626665  0.62736006  0.94640829  1
  P  P23  1  0.97122809  0.87647158  0.56437365  1
  O  O24  1  0.00019948  0.87698914  0.87435933  1
  O  O25  1  0.96598709  0.46871285  0.55687769  1
  O  O26  1  0.03528066  0.78510227  0.44167446  1
  O  O27  1  0.05935029  0.12706462  0.99015621  1
  O  O28  1  0.18306381  0.37619611  0.49721731  1
  O  O29  1  0.22543270  0.53579312  0.92353883  1
  O  O30  1  0.27968557  0.21934122  0.93917765  1
  O  O31  1  0.23962925  0.12679111  0.36428589  1
  O  O32  1  0.26037075  0.62679111  0.36428589  1
  O  O33  1  0.22031443  0.71934122  0.93917765  1
  O  O34  1  0.27456730  0.03579312  0.92353883  1
  O  O35  1  0.31693619  0.87619611  0.49721731  1
  O  O36  1  0.44064971  0.62706462  0.99015621  1
  O  O37  1  0.46471934  0.28510227  0.44167446  1
  O  O38  1  0.53401291  0.96871285  0.55687769  1
  O  O39  1  0.49980052  0.37698914  0.87435933  1
  O  O40  1  0.50019948  0.87698914  0.12564067  1
  O  O41  1  0.46598709  0.46871285  0.44312231  1
  O  O42  1  0.53528066  0.78510227  0.55832554  1
  O  O43  1  0.55935029  0.12706462  0.00984379  1
  O  O44  1  0.68306381  0.37619611  0.50278269  1
  O  O45  1  0.72543270  0.53579312  0.07646117  1
  O  O46  1  0.77968557  0.21934122  0.06082235  1
  O  O47  1  0.73962925  0.12679111  0.63571411  1
  O  O48  1  0.76037075  0.62679111  0.63571411  1
  O  O49  1  0.72031443  0.71934122  0.06082235  1
  O  O50  1  0.77456730  0.03579312  0.07646117  1
  O  O51  1  0.81693619  0.87619611  0.50278269  1
  O  O52  1  0.94064971  0.62706462  0.00984379  1
  O  O53  1  0.96471934  0.28510227  0.55832554  1
  O  O54  1  0.03401291  0.96871285  0.44312231  1
  O  O55  1  -0.00019948  0.37698914  0.12564067  1
