# generated using pymatgen
data_Li4V7O12
_symmetry_space_group_name_H-M   'P 1'
_cell_length_a   5.20968372
_cell_length_b   8.92676578
_cell_length_c   9.89365808
_cell_angle_alpha   89.99999915
_cell_angle_beta   100.24705557
_cell_angle_gamma   90.00000574
_symmetry_Int_Tables_number   1
_chemical_formula_structural   Li4V7O12
_chemical_formula_sum   'Li8 V14 O24'
_cell_volume   452.77192594
_cell_formula_units_Z   2
loop_
 _symmetry_equiv_pos_site_id
 _symmetry_equiv_pos_as_xyz
  1  'x, y, z'
loop_
 _atom_site_type_symbol
 _atom_site_label
 _atom_site_symmetry_multiplicity
 _atom_site_fract_x
 _atom_site_fract_y
 _atom_site_fract_z
 _atom_site_occupancy
  Li  Li0  1  0.75847338  0.08058459  0.51060078  1
  Li  Li1  1  0.25432132  0.41169638  0.99350097  1
  Li  Li2  1  0.50505166  0.41713393  0.74719772  1
  Li  Li3  1  0.74200724  0.42176844  0.50771481  1
  Li  Li4  1  0.74152662  0.58058459  0.98939922  1
  Li  Li5  1  0.99494834  0.91713393  0.75280228  1
  Li  Li6  1  0.24567868  0.91169638  0.50649903  1
  Li  Li7  1  0.75799276  0.92176844  0.99228519  1
  V  V8  1  0.01221588  0.08323425  0.24781054  1
  V  V9  1  0.00058556  0.24313928  0.75715581  1
  V  V10  1  0.49117278  0.07698438  0.75282646  1
  V  V11  1  0.25820455  0.26011418  0.50723705  1
  V  V12  1  0.50066724  0.24455341  0.24700021  1
  V  V13  1  0.99871080  0.43250188  0.25344609  1
  V  V14  1  0.73548898  0.25248858  0.99590395  1
  V  V15  1  0.00882722  0.57698438  0.74717354  1
  V  V16  1  0.99933276  0.74455341  0.25299979  1
  V  V17  1  0.48778412  0.58323425  0.25218946  1
  V  V18  1  0.24179545  0.76011418  0.99276295  1
  V  V19  1  0.49941444  0.74313928  0.74284419  1
  V  V20  1  0.76451102  0.75248858  0.50409605  1
  V  V21  1  0.50128920  0.93250188  0.24655391  1
  O  O22  1  0.13337037  0.09247187  0.63203760  1
  O  O23  1  0.37788895  0.08975779  0.37853085  1
  O  O24  1  0.10195173  0.25755747  0.13572799  1
  O  O25  1  0.39152752  0.24533821  0.87324329  1
  O  O26  1  0.64808066  0.08775871  0.12521244  1
  O  O27  1  0.84675141  0.08845976  0.86644856  1
  O  O28  1  0.61062281  0.23955844  0.62743911  1
  O  O29  1  0.11669020  0.39921327  0.63426082  1
  O  O30  1  0.38010135  0.41452718  0.36635810  1
  O  O31  1  0.89955402  0.25019468  0.37050683  1
  O  O32  1  0.61906644  0.42079586  0.13010051  1
  O  O33  1  0.12211105  0.58975779  0.12146915  1
  O  O34  1  0.36662963  0.59247187  0.86796240  1
  O  O35  1  0.88259191  0.40542845  0.87510317  1
  O  O36  1  0.10847248  0.74533821  0.62675671  1
  O  O37  1  0.65324859  0.58845976  0.63355144  1
  O  O38  1  0.39804827  0.75755747  0.36427201  1
  O  O39  1  0.85191934  0.58775871  0.37478756  1
  O  O40  1  0.11989865  0.91452718  0.13364190  1
  O  O41  1  0.60044598  0.75019468  0.12949317  1
  O  O42  1  0.88937719  0.73955844  0.87256089  1
  O  O43  1  0.38330980  0.89921327  0.86573918  1
  O  O44  1  0.61740809  0.90542845  0.62489683  1
  O  O45  1  0.88093356  0.92079586  0.36989949  1
