# generated using pymatgen
data_Li2V2Si5O13
_symmetry_space_group_name_H-M   'P 1'
_cell_length_a   7.45497312
_cell_length_b   7.59560931
_cell_length_c   10.01490638
_cell_angle_alpha   83.34463837
_cell_angle_beta   68.51801951
_cell_angle_gamma   75.39759611
_symmetry_Int_Tables_number   1
_chemical_formula_structural   Li2V2Si5O13
_chemical_formula_sum   'Li4 V4 Si10 O26'
_cell_volume   510.47976484
_cell_formula_units_Z   2
loop_
 _symmetry_equiv_pos_site_id
 _symmetry_equiv_pos_as_xyz
  1  'x, y, z'
loop_
 _atom_site_type_symbol
 _atom_site_label
 _atom_site_symmetry_multiplicity
 _atom_site_fract_x
 _atom_site_fract_y
 _atom_site_fract_z
 _atom_site_occupancy
  Li  Li0  1  0.17718615  0.08041209  0.87502811  1
  Li  Li1  1  0.16265322  0.40753607  0.74531178  1
  Li  Li2  1  0.83734678  0.59246393  0.25468822  1
  Li  Li3  1  0.82281385  0.91958791  0.12497189  1
  V  V4  1  0.03515397  0.15260561  0.60050429  1
  V  V5  1  0.45253508  0.85396458  0.39916421  1
  V  V6  1  0.54746492  0.14603542  0.60083579  1
  V  V7  1  0.96484603  0.84739439  0.39949571  1
  Si  Si8  1  0.15051249  0.22217369  0.26481524  1
  Si  Si9  1  0.21336059  0.69129311  0.04404004  1
  Si  Si10  1  0.31025600  0.45816244  0.40884466  1
  Si  Si11  1  0.26748395  0.76938624  0.73081168  1
  Si  Si12  1  0.63212046  0.70406646  0.04373936  1
  Si  Si13  1  0.36787954  0.29593354  0.95626064  1
  Si  Si14  1  0.73251605  0.23061376  0.26918832  1
  Si  Si15  1  0.68974400  0.54183756  0.59115534  1
  Si  Si16  1  0.78663941  0.30870689  0.95595996  1
  Si  Si17  1  0.84948751  0.77782631  0.73518476  1
  O  O18  1  0.02433125  0.77083189  0.18003761  1
  O  O19  1  0.16094420  0.04917128  0.37684329  1
  O  O20  1  0.29633275  0.16230243  0.09979997  1
  O  O21  1  0.19774069  0.40014403  0.31068862  1
  O  O22  1  0.07422717  0.69598088  0.74073397  1
  O  O23  1  0.41442521  0.67691647  0.07229703  1
  O  O24  1  0.24351622  0.67717687  0.42742141  1
  O  O25  1  0.27719965  0.32183462  0.55099744  1
  O  O26  1  0.55076326  0.40817588  0.31088695  1
  O  O27  1  0.36138890  0.21819401  0.81652007  1
  O  O28  1  0.20775120  0.49414649  0.99576639  1
  O  O29  1  0.30631720  0.94732437  0.62582797  1
  O  O30  1  0.21699934  0.82852993  0.89907090  1
  O  O31  1  0.78300066  0.17147007  0.10092910  1
  O  O32  1  0.69368280  0.05267563  0.37417203  1
  O  O33  1  0.79224880  0.50585351  0.00423361  1
  O  O34  1  0.63861110  0.78180599  0.18347993  1
  O  O35  1  0.44923674  0.59182412  0.68911305  1
  O  O36  1  0.72280035  0.67816538  0.44900256  1
  O  O37  1  0.75648378  0.32282313  0.57257859  1
  O  O38  1  0.58557479  0.32308353  0.92770297  1
  O  O39  1  0.92577283  0.30401912  0.25926603  1
  O  O40  1  0.80225931  0.59985597  0.68931138  1
  O  O41  1  0.70366725  0.83769757  0.90020003  1
  O  O42  1  0.83905580  0.95082872  0.62315671  1
  O  O43  1  0.97566875  0.22916811  0.81996239  1
