# generated using pymatgen
data_Li4Mn3Co3(NiO8)2
_symmetry_space_group_name_H-M   'P 1'
_cell_length_a   5.73648558
_cell_length_b   5.75155390
_cell_length_c   9.55577970
_cell_angle_alpha   90.00063479
_cell_angle_beta   90.05702572
_cell_angle_gamma   120.08836866
_symmetry_Int_Tables_number   1
_chemical_formula_structural   Li4Mn3Co3(NiO8)2
_chemical_formula_sum   'Li4 Mn3 Co3 Ni2 O16'
_cell_volume   272.79735743
_cell_formula_units_Z   1
loop_
 _symmetry_equiv_pos_site_id
 _symmetry_equiv_pos_as_xyz
  1  'x, y, z'
loop_
 _atom_site_type_symbol
 _atom_site_label
 _atom_site_symmetry_multiplicity
 _atom_site_fract_x
 _atom_site_fract_y
 _atom_site_fract_z
 _atom_site_occupancy
  Li  Li0  1  0.32864685  0.66432456  0.89475921  1
  Li  Li1  1  0.00962586  0.00482759  0.99886736  1
  Li  Li2  1  0.01157309  0.00580438  0.49609715  1
  Li  Li3  1  0.66136610  0.33070653  0.39085306  1
  Mn  Mn4  1  0.65966898  0.82983944  0.21569759  1
  Mn  Mn5  1  0.82957541  0.66188795  0.71535479  1
  Mn  Mn6  1  0.82956905  0.16771513  0.71535714  1
  Co  Co7  1  0.16643794  0.83057020  0.21333076  1
  Co  Co8  1  0.16644327  0.33586750  0.21332835  1
  Co  Co9  1  0.33594071  0.16798905  0.71341952  1
  Ni  Ni10  1  0.33408534  0.66705905  0.48894776  1
  Ni  Ni11  1  0.66856564  0.33429341  0.99041264  1
  O  O12  1  0.16481909  0.84595107  0.60838254  1
  O  O13  1  0.03362954  0.51681820  0.32427527  1
  O  O14  1  0.33128182  0.66563815  0.10864609  1
  O  O15  1  0.00092192  0.00045689  0.31074304  1
  O  O16  1  0.00167764  0.00086255  0.81260258  1
  O  O17  1  0.16483229  0.31891321  0.60839488  1
  O  O18  1  0.47583969  0.96396927  0.32967813  1
  O  O19  1  0.47583781  0.51189609  0.32968310  1
  O  O20  1  0.31942300  0.15970951  0.11279490  1
  O  O21  1  0.68477212  0.84239576  0.60366544  1
  O  O22  1  0.51080388  0.47772085  0.82977194  1
  O  O23  1  0.51079252  0.03311310  0.82976622  1
  O  O24  1  0.66689922  0.33346198  0.60759355  1
  O  O25  1  0.84585966  0.68357512  0.10691026  1
  O  O26  1  0.96524181  0.48264156  0.83160675  1
  O  O27  1  0.84586974  0.16229190  0.10690198  1
