# generated using pymatgen
data_NiSn(PO4)2
_symmetry_space_group_name_H-M   'P 1'
_cell_length_a   10.00011355
_cell_length_b   5.95248070
_cell_length_c   4.94304169
_cell_angle_alpha   90.00000000
_cell_angle_beta   89.68115972
_cell_angle_gamma   90.00000000
_symmetry_Int_Tables_number   1
_chemical_formula_structural   NiSn(PO4)2
_chemical_formula_sum   'Ni2 Sn2 P4 O16'
_cell_volume   294.23238780
_cell_formula_units_Z   2
loop_
 _symmetry_equiv_pos_site_id
 _symmetry_equiv_pos_as_xyz
  1  'x, y, z'
loop_
 _atom_site_type_symbol
 _atom_site_label
 _atom_site_symmetry_multiplicity
 _atom_site_fract_x
 _atom_site_fract_y
 _atom_site_fract_z
 _atom_site_occupancy
  Ni  Ni0  1  0.22744611  0.75000000  0.45674109  1
  Ni  Ni1  1  0.77255389  0.25000000  0.54325891  1
  Sn  Sn2  1  0.27280939  0.25000000  0.96982149  1
  Sn  Sn3  1  0.72719061  0.75000000  0.03017851  1
  P  P4  1  0.09092706  0.25000000  0.41065660  1
  P  P5  1  0.40335271  0.75000000  0.91829115  1
  P  P6  1  0.59664729  0.25000000  0.08170885  1
  P  P7  1  0.90907294  0.75000000  0.58934340  1
  O  O8  1  0.05511708  0.75000000  0.65482115  1
  O  O9  1  0.11311064  0.25000000  0.71944093  1
  O  O10  1  0.17022215  0.05025254  0.26659000  1
  O  O11  1  0.17022215  0.44974746  0.26659000  1
  O  O12  1  0.33019635  0.95309342  0.77357443  1
  O  O13  1  0.33019635  0.54690658  0.77357443  1
  O  O14  1  0.38969286  0.75000000  0.22114184  1
  O  O15  1  0.44859399  0.25000000  0.17469785  1
  O  O16  1  0.55140601  0.75000000  0.82530215  1
  O  O17  1  0.61030714  0.25000000  0.77885816  1
  O  O18  1  0.66980365  0.04690658  0.22642557  1
  O  O19  1  0.66980365  0.45309342  0.22642557  1
  O  O20  1  0.82977785  0.55025254  0.73341000  1
  O  O21  1  0.82977785  0.94974746  0.73341000  1
  O  O22  1  0.88688936  0.75000000  0.28055907  1
  O  O23  1  0.94488292  0.25000000  0.34517885  1
