# generated using pymatgen
data_Li6CoOF6
_symmetry_space_group_name_H-M   'P 1'
_cell_length_a   2.91319161
_cell_length_b   2.91319161
_cell_length_c   14.72198609
_cell_angle_alpha   95.67814402
_cell_angle_beta   84.32185598
_cell_angle_gamma   90.00000000
_symmetry_Int_Tables_number   1
_chemical_formula_structural   Li6CoOF6
_chemical_formula_sum   'Li6 Co1 O1 F6'
_cell_volume   123.71175204
_cell_formula_units_Z   1
loop_
 _symmetry_equiv_pos_site_id
 _symmetry_equiv_pos_as_xyz
  1  'x, y, z'
loop_
 _atom_site_type_symbol
 _atom_site_label
 _atom_site_symmetry_multiplicity
 _atom_site_fract_x
 _atom_site_fract_y
 _atom_site_fract_z
 _atom_site_occupancy
  Li  Li0  1  0.00303211  0.99696789  0.99393478  1
  Li  Li1  1  0.85411089  0.14588911  0.29177922  1
  Li  Li2  1  0.28277045  0.71722955  0.43445910  1
  Li  Li3  1  0.71346219  0.28653781  0.57307463  1
  Li  Li4  1  0.14368081  0.85631919  0.71263937  1
  Li  Li5  1  0.57437255  0.42562745  0.85125590  1
  Co  Co6  1  0.42857100  0.57142900  0.14285700  1
  O  O7  1  0.92857100  0.07142900  0.14285700  1
  F  F8  1  0.50513264  0.49486736  0.98973573  1
  F  F9  1  0.35201036  0.64798964  0.29597927  1
  F  F10  1  0.78311059  0.21688941  0.43377881  1
  F  F11  1  0.21340201  0.78659799  0.57319599  1
  F  F12  1  0.64374099  0.35625901  0.71251801  1
  F  F13  1  0.07403241  0.92596759  0.85193519  1
