# generated using pymatgen
data_Li5V3P8O29
_symmetry_space_group_name_H-M   'P 1'
_cell_length_a   9.83815178
_cell_length_b   9.79849304
_cell_length_c   14.01483091
_cell_angle_alpha   89.97889338
_cell_angle_beta   89.82522059
_cell_angle_gamma   59.89776607
_symmetry_Int_Tables_number   1
_chemical_formula_structural   Li5V3P8O29
_chemical_formula_sum   'Li10 V6 P16 O58'
_cell_volume   1168.80097718
_cell_formula_units_Z   2
loop_
 _symmetry_equiv_pos_site_id
 _symmetry_equiv_pos_as_xyz
  1  'x, y, z'
loop_
 _atom_site_type_symbol
 _atom_site_label
 _atom_site_symmetry_multiplicity
 _atom_site_fract_x
 _atom_site_fract_y
 _atom_site_fract_z
 _atom_site_occupancy
  Li  Li0  1  0.77016827  0.90449431  0.56173936  1
  Li  Li1  1  0.91426183  0.31303330  0.56205779  1
  Li  Li2  1  0.76551148  0.32812258  0.05575102  1
  Li  Li3  1  0.33361432  0.89732820  0.05821320  1
  Li  Li4  1  0.68357179  0.22541055  0.44425503  1
  Li  Li5  1  0.32422571  0.77160474  0.56136674  1
  Li  Li6  1  0.33629633  0.32781161  0.11086164  1
  Li  Li7  1  0.09277203  0.67920357  0.44001050  1
  Li  Li8  1  0.09213486  0.23325859  0.93670999  1
  Li  Li9  1  0.97071999  0.96205627  0.99892643  1
  V  V10  1  0.56902207  0.43665592  0.24976162  1
  V  V11  1  0.43037130  0.56882488  0.75370352  1
  V  V12  1  0.56478843  0.00349976  0.75491838  1
  V  V13  1  0.43312090  0.00156596  0.25204414  1
  V  V14  1  0.99731369  0.57243358  0.24771325  1
  V  V15  1  0.99910820  0.43490448  0.74893664  1
  P  P16  1  0.91381534  0.77448188  0.84134037  1
  P  P17  1  0.76583757  0.91463459  0.34226885  1
  P  P18  1  0.91423210  0.31889672  0.34200182  1
  P  P19  1  0.66500212  0.67022954  0.12836659  1
  P  P20  1  0.66523250  0.66865166  0.62959744  1
  P  P21  1  0.77228683  0.31606808  0.84282129  1
  P  P22  1  0.68060487  0.23192458  0.66078951  1
  P  P23  1  0.31429083  0.91476898  0.84218770  1
  P  P24  1  0.68932271  0.08820970  0.15701165  1
  P  P25  1  0.31469629  0.77262983  0.34374285  1
  P  P26  1  0.22461666  0.68813049  0.15957910  1
  P  P27  1  0.33543649  0.33617244  0.37075187  1
  P  P28  1  0.32909466  0.33446280  0.87215750  1
  P  P29  1  0.08813439  0.68102807  0.65800444  1
  P  P30  1  0.23172243  0.08554494  0.65753011  1
  P  P31  1  0.08946895  0.22673426  0.15728453  1
  O  O32  1  0.99973390  0.75360207  0.56697934  1
  O  O33  1  0.91818190  0.75121270  0.33937950  1
  O  O34  1  0.79017242  0.00619454  0.07423069  1
  O  O35  1  0.74058965  0.91480911  0.83089423  1
  O  O36  1  0.91539554  0.61871857  0.83159578  1
  O  O37  1  0.80787317  0.67156486  0.17120859  1
  O  O38  1  0.90833396  0.47656551  0.32040277  1
  O  O39  1  0.99660236  0.23520085  0.06962789  1
  O  O40  1  0.91823088  0.33865167  0.83523157  1
  O  O41  1  0.66824924  0.81763478  0.67218224  1
  O  O42  1  0.62178838  0.89720194  0.32388050  1
  O  O43  1  0.81326043  0.51528143  0.66986686  1
  O  O44  1  0.65663075  0.65664343  0.02304804  1
  O  O45  1  0.67136541  0.67004858  0.52302341  1
  O  O46  1  0.66759617  0.51589746  0.17314599  1
  O  O47  1  0.47363269  0.90932488  0.82783824  1
  O  O48  1  0.51188130  0.81869154  0.16820120  1
  O  O49  1  0.74398700  0.34137763  0.33667971  1
  O  O50  1  0.79194089  0.20659101  0.75078295  1
  O  O51  1  0.75929643  0.24065150  0.57060769  1
  O  O52  1  0.78479622  0.22839799  0.93299403  1
  O  O53  1  0.62085244  0.47259248  0.82923154  1
  O  O54  1  0.51329082  0.67257567  0.66797931  1
  O  O55  1  0.65886258  0.26308367  0.16134598  1
  O  O56  1  0.47382868  0.61911508  0.31876891  1
  O  O57  1  0.33869724  0.91328762  0.33924350  1
  O  O58  1  0.78394015  0.01185468  0.25514019  1
  O  O59  1  0.75328018  0.00115791  0.43365673  1
  O  O60  1  0.24156512  0.99015888  0.57338900  1
  O  O61  1  0.66019730  0.08468849  0.66054043  1
  O  O62  1  0.52247277  0.38287978  0.67849271  1
  O  O63  1  0.34158337  0.74635678  0.83643306  1
  O  O64  1  0.48652347  0.33514179  0.32502041  1
  O  O65  1  0.37827331  0.52376215  0.16962656  1
  O  O66  1  0.21971128  0.78542835  0.07682051  1
  O  O67  1  0.24905549  0.74903938  0.43479436  1
  O  O68  1  0.20145415  0.78660234  0.25695167  1
  O  O69  1  0.25284431  0.66341991  0.65878660  1
  O  O70  1  0.48082939  0.18424460  0.82694437  1
  O  O71  1  0.52653456  0.09995537  0.16500333  1
  O  O72  1  0.32648131  0.48050862  0.83004792  1
  O  O73  1  0.33824633  0.32153134  0.97894024  1
  O  O74  1  0.35141498  0.32801580  0.47614150  1
  O  O75  1  0.18625480  0.48744047  0.33408072  1
  O  O76  1  0.38325137  0.09255984  0.67784049  1
  O  O77  1  0.33963325  0.18846454  0.32183315  1
  O  O78  1  0.08708456  0.65411496  0.16224578  1
  O  O79  1  0.99553270  0.79539589  0.74532684  1
  O  O80  1  0.99161500  0.79496874  0.92572242  1
  O  O81  1  0.09969492  0.52002443  0.67775594  1
  O  O82  1  0.18556259  0.32259163  0.83610010  1
  O  O83  1  0.10952596  0.37221990  0.17085139  1
  O  O84  1  0.25335828  0.07813177  0.15670759  1
  O  O85  1  0.23388278  0.99797152  0.93346890  1
  O  O86  1  0.20399705  0.00847564  0.75432566  1
  O  O87  1  0.08666680  0.25373142  0.65732362  1
  O  O88  1  0.98827771  0.24658555  0.43395612  1
  O  O89  1  0.00209335  0.20839509  0.25090436  1
