# generated using pymatgen
data_LiP4WO12
_symmetry_space_group_name_H-M   'P 1'
_cell_length_a   5.34034755
_cell_length_b   14.03782990
_cell_length_c   7.39221417
_cell_angle_alpha   90.00000000
_cell_angle_beta   95.96981930
_cell_angle_gamma   90.00000000
_symmetry_Int_Tables_number   1
_chemical_formula_structural   LiP4WO12
_chemical_formula_sum   'Li2 P8 W2 O24'
_cell_volume   551.16593839
_cell_formula_units_Z   2
loop_
 _symmetry_equiv_pos_site_id
 _symmetry_equiv_pos_as_xyz
  1  'x, y, z'
loop_
 _atom_site_type_symbol
 _atom_site_label
 _atom_site_symmetry_multiplicity
 _atom_site_fract_x
 _atom_site_fract_y
 _atom_site_fract_z
 _atom_site_occupancy
  Li  Li0  1  0.62552707  0.99004002  0.10327979  1
  Li  Li1  1  0.37447293  0.49004002  0.89672021  1
  P  P2  1  0.03379611  0.90485060  0.55876149  1
  P  P3  1  0.99244166  0.62126697  0.44513348  1
  P  P4  1  0.13606303  0.32744545  0.09745449  1
  P  P5  1  0.21486195  0.68039877  0.10836062  1
  P  P6  1  0.78513805  0.18039877  0.89163938  1
  P  P7  1  0.86393697  0.82744545  0.90254551  1
  P  P8  1  0.00755834  0.12126697  0.55486652  1
  P  P9  1  0.96620389  0.40485060  0.44123851  1
  W  W10  1  0.51199142  0.76413068  0.50549711  1
  W  W11  1  0.48800858  0.26413068  0.49450289  1
  O  O12  1  0.04611372  0.73800037  0.95319273  1
  O  O13  1  0.03581805  0.89091662  0.77499797  1
  O  O14  1  0.00086655  0.13753689  0.76940621  1
  O  O15  1  0.17791611  0.38561813  0.93651716  1
  O  O16  1  0.06898288  0.51132540  0.47740013  1
  O  O17  1  0.15935796  0.34278176  0.54553957  1
  O  O18  1  0.19529147  0.67642895  0.55625656  1
  O  O19  1  0.29978234  0.89744079  0.51026100  1
  O  O20  1  0.27289386  0.13341266  0.50802643  1
  O  O21  1  0.37857060  0.74946550  0.22314783  1
  O  O22  1  0.36296678  0.28898765  0.21292847  1
  O  O23  1  0.33654385  0.60080079  0.01952469  1
  O  O24  1  0.66345615  0.10080079  0.98047531  1
  O  O25  1  0.63703322  0.78898765  0.78707153  1
  O  O26  1  0.62142940  0.24946550  0.77685217  1
  O  O27  1  0.72710614  0.63341266  0.49197357  1
  O  O28  1  0.70021766  0.39744079  0.48973900  1
  O  O29  1  0.80470853  0.17642895  0.44374344  1
  O  O30  1  0.84064204  0.84278176  0.45446043  1
  O  O31  1  0.93101712  0.01132540  0.52259987  1
  O  O32  1  0.82208389  0.88561813  0.06348284  1
  O  O33  1  0.99913345  0.63753689  0.23059379  1
  O  O34  1  0.96418195  0.39091662  0.22500203  1
  O  O35  1  0.95388628  0.23800037  0.04680727  1
