# generated using pymatgen
data_Mn2Ni(PO4)3
_symmetry_space_group_name_H-M   'P 1'
_cell_length_a   8.43941783
_cell_length_b   8.43941817
_cell_length_c   8.43941792
_cell_angle_alpha   60.89738685
_cell_angle_beta   60.89738514
_cell_angle_gamma   60.89738843
_symmetry_Int_Tables_number   1
_chemical_formula_structural   Mn2Ni(PO4)3
_chemical_formula_sum   'Mn4 Ni2 P6 O24'
_cell_volume   433.63020381
_cell_formula_units_Z   2
loop_
 _symmetry_equiv_pos_site_id
 _symmetry_equiv_pos_as_xyz
  1  'x, y, z'
loop_
 _atom_site_type_symbol
 _atom_site_label
 _atom_site_symmetry_multiplicity
 _atom_site_fract_x
 _atom_site_fract_y
 _atom_site_fract_z
 _atom_site_occupancy
  Mn  Mn0  1  0.14195439  0.14195439  0.14195439  1
  Mn  Mn1  1  0.35804561  0.35804561  0.35804561  1
  Mn  Mn2  1  0.64195439  0.64195439  0.64195439  1
  Mn  Mn3  1  0.85804561  0.85804561  0.85804561  1
  Ni  Ni4  1  0.00000000  0.00000000  0.00000000  1
  Ni  Ni5  1  0.50000000  0.50000000  0.50000000  1
  P  P6  1  0.04274130  0.75000000  0.45725870  1
  P  P7  1  0.45725870  0.04274130  0.75000000  1
  P  P8  1  0.75000000  0.45725870  0.04274130  1
  P  P9  1  0.25000000  0.54274130  0.95725870  1
  P  P10  1  0.54274130  0.95725870  0.25000000  1
  P  P11  1  0.95725870  0.25000000  0.54274130  1
  O  O12  1  0.11492643  0.31386752  0.50871247  1
  O  O13  1  0.31386752  0.50871247  0.11492643  1
  O  O14  1  0.05737794  0.91119794  0.25687160  1
  O  O15  1  0.50871247  0.11492643  0.31386752  1
  O  O16  1  0.00871247  0.81386752  0.61492643  1
  O  O17  1  0.24312840  0.58880206  0.44262206  1
  O  O18  1  0.25687160  0.05737794  0.91119794  1
  O  O19  1  0.44262206  0.24312840  0.58880206  1
  O  O20  1  0.18613248  0.38507357  0.99128753  1
  O  O21  1  0.58880206  0.44262206  0.24312840  1
  O  O22  1  0.08880206  0.74312840  0.94262206  1
  O  O23  1  0.38507357  0.99128753  0.18613248  1
  O  O24  1  0.61492643  0.00871247  0.81386752  1
  O  O25  1  0.91119794  0.25687160  0.05737794  1
  O  O26  1  0.41119794  0.55737794  0.75687160  1
  O  O27  1  0.81386752  0.61492643  0.00871247  1
  O  O28  1  0.55737794  0.75687160  0.41119794  1
  O  O29  1  0.74312840  0.94262206  0.08880206  1
  O  O30  1  0.75687160  0.41119794  0.55737794  1
  O  O31  1  0.99128753  0.18613248  0.38507357  1
  O  O32  1  0.49128753  0.88507357  0.68613248  1
  O  O33  1  0.94262206  0.08880206  0.74312840  1
  O  O34  1  0.68613248  0.49128753  0.88507357  1
  O  O35  1  0.88507357  0.68613248  0.49128753  1
