# generated using pymatgen
data_Li3Cr(Si2O5)3
_symmetry_space_group_name_H-M   'P 1'
_cell_length_a   11.09501936
_cell_length_b   11.09501936
_cell_length_c   10.16776248
_cell_angle_alpha   90.00000000
_cell_angle_beta   90.00000000
_cell_angle_gamma   79.02390339
_symmetry_Int_Tables_number   1
_chemical_formula_structural   Li3Cr(Si2O5)3
_chemical_formula_sum   'Li12 Cr4 Si24 O60'
_cell_volume   1228.74928306
_cell_formula_units_Z   4
loop_
 _symmetry_equiv_pos_site_id
 _symmetry_equiv_pos_as_xyz
  1  'x, y, z'
loop_
 _atom_site_type_symbol
 _atom_site_label
 _atom_site_symmetry_multiplicity
 _atom_site_fract_x
 _atom_site_fract_y
 _atom_site_fract_z
 _atom_site_occupancy
  Li  Li0  1  0.24111008  0.75888992  0.00000000  1
  Li  Li1  1  0.48772646  0.98772646  0.25000000  1
  Li  Li2  1  0.01227354  0.51227354  0.75000000  1
  Li  Li3  1  0.25888992  0.74111008  0.50000000  1
  Li  Li4  1  0.42932536  0.42932536  0.26218613  1
  Li  Li5  1  0.57067464  0.57067464  0.73781387  1
  Li  Li6  1  0.07067464  0.07067464  0.76218613  1
  Li  Li7  1  0.92932536  0.92932536  0.23781387  1
  Li  Li8  1  0.74111008  0.25888992  0.50000000  1
  Li  Li9  1  0.51227354  0.01227354  0.75000000  1
  Li  Li10  1  0.98772646  0.48772646  0.25000000  1
  Li  Li11  1  0.75888992  0.24111008  0.00000000  1
  Cr  Cr12  1  0.16057811  0.66057811  0.25000000  1
  Cr  Cr13  1  0.33942189  0.83942189  0.75000000  1
  Cr  Cr14  1  0.83942189  0.33942189  0.75000000  1
  Cr  Cr15  1  0.66057811  0.16057811  0.25000000  1
  Si  Si16  1  0.18842966  0.95825910  0.19743414  1
  Si  Si17  1  0.04174090  0.81157034  0.80256586  1
  Si  Si18  1  0.31157034  0.54174090  0.69743414  1
  Si  Si19  1  0.45825910  0.68842966  0.30256586  1
  Si  Si20  1  0.51918184  0.74175618  0.01277083  1
  Si  Si21  1  0.01918184  0.24175618  0.48722917  1
  Si  Si22  1  0.75824382  0.98081816  0.51277083  1
  Si  Si23  1  0.25824382  0.48081816  0.98722917  1
  Si  Si24  1  0.20215381  0.42350122  0.45553275  1
  Si  Si25  1  0.70215381  0.92350122  0.04446725  1
  Si  Si26  1  0.07649878  0.29784619  0.95553275  1
  Si  Si27  1  0.57649878  0.79784619  0.54446725  1
  Si  Si28  1  0.42350122  0.20215381  0.45553275  1
  Si  Si29  1  0.92350122  0.70215381  0.04446725  1
  Si  Si30  1  0.29784619  0.07649878  0.95553275  1
  Si  Si31  1  0.79784619  0.57649878  0.54446725  1
  Si  Si32  1  0.74175618  0.51918184  0.01277083  1
  Si  Si33  1  0.24175618  0.01918184  0.48722917  1
  Si  Si34  1  0.98081816  0.75824382  0.51277083  1
  Si  Si35  1  0.48081816  0.25824382  0.98722917  1
  Si  Si36  1  0.54174090  0.31157034  0.69743414  1
  Si  Si37  1  0.68842966  0.45825910  0.30256586  1
  Si  Si38  1  0.81157034  0.04174090  0.80256586  1
  Si  Si39  1  0.95825910  0.18842966  0.19743414  1
  O  O40  1  0.27846346  0.98902692  0.07994094  1
  O  O41  1  0.01097308  0.72153654  0.92005906  1
  O  O42  1  0.02708805  0.73477678  0.66718419  1
  O  O43  1  0.26522322  0.97291195  0.33281581  1
  O  O44  1  0.15234794  0.82781693  0.16822210  1
  O  O45  1  0.17218307  0.84765206  0.83177790  1
  O  O46  1  0.09509735  0.74656976  0.41598111  1
  O  O47  1  0.25343024  0.90490265  0.58401889  1
  O  O48  1  0.14813216  0.49458812  0.32525471  1
  O  O49  1  0.64813216  0.99458812  0.17474529  1
  O  O50  1  0.50541188  0.85186784  0.67474529  1
  O  O51  1  0.00541188  0.35186784  0.82525471  1
  O  O52  1  0.24656976  0.59509735  0.08401889  1
  O  O53  1  0.40490265  0.75343024  0.91598111  1
  O  O54  1  0.34765206  0.67218307  0.66822210  1
  O  O55  1  0.32781693  0.65234794  0.33177790  1
  O  O56  1  0.23477678  0.52708805  0.83281581  1
  O  O57  1  0.47291195  0.76522322  0.16718419  1
  O  O58  1  0.22153654  0.51097308  0.57994094  1
  O  O59  1  0.48902692  0.77846346  0.42005906  1
  O  O60  1  0.15876437  0.39219990  0.01519386  1
  O  O61  1  0.10780010  0.34123563  0.51519386  1
  O  O62  1  0.65876437  0.89219990  0.48480614  1
  O  O63  1  0.60780010  0.84123563  0.98480614  1
  O  O64  1  0.60353404  0.60353404  0.99384967  1
  O  O65  1  0.33836656  0.33836656  0.41764871  1
  O  O66  1  0.94262178  0.94262178  0.79634085  1
  O  O67  1  0.05737822  0.05737822  0.20365915  1
  O  O68  1  0.10353404  0.10353404  0.50615033  1
  O  O69  1  0.16163344  0.16163344  0.91764871  1
  O  O70  1  0.44262178  0.44262178  0.70365915  1
  O  O71  1  0.39646596  0.39646596  0.00615033  1
  O  O72  1  0.55737822  0.55737822  0.29634085  1
  O  O73  1  0.89646596  0.89646596  0.49384967  1
  O  O74  1  0.66163344  0.66163344  0.58235129  1
  O  O75  1  0.83836656  0.83836656  0.08235129  1
  O  O76  1  0.89219990  0.65876437  0.48480614  1
  O  O77  1  0.34123563  0.10780010  0.51519386  1
  O  O78  1  0.39219990  0.15876437  0.01519386  1
  O  O79  1  0.84123563  0.60780010  0.98480614  1
  O  O80  1  0.77846346  0.48902692  0.42005906  1
  O  O81  1  0.51097308  0.22153654  0.57994094  1
  O  O82  1  0.52708805  0.23477678  0.83281581  1
  O  O83  1  0.76522322  0.47291195  0.16718419  1
  O  O84  1  0.65234794  0.32781693  0.33177790  1
  O  O85  1  0.67218307  0.34765206  0.66822210  1
  O  O86  1  0.59509735  0.24656976  0.08401889  1
  O  O87  1  0.75343024  0.40490265  0.91598111  1
  O  O88  1  0.35186784  0.00541188  0.82525471  1
  O  O89  1  0.49458812  0.14813216  0.32525471  1
  O  O90  1  0.99458812  0.64813216  0.17474529  1
  O  O91  1  0.85186784  0.50541188  0.67474529  1
  O  O92  1  0.74656976  0.09509735  0.41598111  1
  O  O93  1  0.90490265  0.25343024  0.58401889  1
  O  O94  1  0.82781693  0.15234794  0.16822210  1
  O  O95  1  0.84765206  0.17218307  0.83177790  1
  O  O96  1  0.73477678  0.02708805  0.66718419  1
  O  O97  1  0.97291195  0.26522322  0.33281581  1
  O  O98  1  0.72153654  0.01097308  0.92005906  1
  O  O99  1  0.98902692  0.27846346  0.07994094  1
