# generated using pymatgen
data_Li9Co13O28
_symmetry_space_group_name_H-M   'P 1'
_cell_length_a   8.10505924
_cell_length_b   8.52559470
_cell_length_c   7.43895337
_cell_angle_alpha   104.42706949
_cell_angle_beta   105.23708480
_cell_angle_gamma   101.55307699
_symmetry_Int_Tables_number   1
_chemical_formula_structural   Li9Co13O28
_chemical_formula_sum   'Li9 Co13 O28'
_cell_volume   460.48940955
_cell_formula_units_Z   1
loop_
 _symmetry_equiv_pos_site_id
 _symmetry_equiv_pos_as_xyz
  1  'x, y, z'
loop_
 _atom_site_type_symbol
 _atom_site_label
 _atom_site_symmetry_multiplicity
 _atom_site_fract_x
 _atom_site_fract_y
 _atom_site_fract_z
 _atom_site_occupancy
  Li  Li0  1  0.27026076  0.22034622  0.90277332  1
  Li  Li1  1  0.13879588  0.34695223  0.22427783  1
  Li  Li2  1  0.35637896  0.13988153  0.30634174  1
  Li  Li3  1  0.64467055  0.86830617  0.71064920  1
  Li  Li4  1  0.49879717  0.00288029  0.00416138  1
  Li  Li5  1  0.87220321  0.63565335  0.77885353  1
  Li  Li6  1  0.78417765  0.71194773  0.42045424  1
  Li  Li7  1  0.72056046  0.79549582  0.07077090  1
  Li  Li8  1  0.93866224  0.56113307  0.14369660  1
  Co  Co9  1  0.13964557  0.85858895  0.71807987  1
  Co  Co10  1  0.07536745  0.93696570  0.35608204  1
  Co  Co11  1  0.21125875  0.78857903  0.07055562  1
  Co  Co12  1  0.34752173  0.63682715  0.78208108  1
  Co  Co13  1  0.29152236  0.72115778  0.43249152  1
  Co  Co14  1  0.43003212  0.57378480  0.14494783  1
  Co  Co15  1  0.49906769  0.50036548  0.50052099  1
  Co  Co16  1  0.56797760  0.42675243  0.85617745  1
  Co  Co17  1  0.71407024  0.28319330  0.57115690  1
  Co  Co18  1  0.64808141  0.36057327  0.21779233  1
  Co  Co19  1  0.78758306  0.20771711  0.92785873  1
  Co  Co20  1  0.92621196  0.06836470  0.64503662  1
  Co  Co21  1  0.85842162  0.14055146  0.28309154  1
  O  O22  1  0.00383373  0.20055126  0.90111725  1
  O  O23  1  0.12340000  0.66339265  0.79943153  1
  O  O24  1  0.06378406  0.74078273  0.44160778  1
  O  O25  1  0.24367250  0.97359591  0.98295295  1
  O  O26  1  0.08593728  0.12605019  0.29262261  1
  O  O27  1  0.15327792  0.05236612  0.63467544  1
  O  O28  1  0.36783724  0.83506731  0.70640886  1
  O  O29  1  0.30021586  0.91325997  0.34437610  1
  O  O30  1  0.27292375  0.52561870  0.50412368  1
  O  O31  1  0.34962483  0.44690409  0.87381671  1
  O  O32  1  0.20523531  0.59546102  0.16364427  1
  O  O33  1  0.43702668  0.76496975  0.05316537  1
  O  O34  1  0.51692712  0.69834146  0.42291718  1
  O  O35  1  0.58545776  0.62518326  0.77802180  1
  O  O36  1  0.41395295  0.37423334  0.22549768  1
  O  O37  1  0.49005870  0.30756957  0.58556871  1
  O  O38  1  0.56013769  0.23814913  0.94583686  1
  O  O39  1  0.79551737  0.40764955  0.84596889  1
  O  O40  1  0.66221030  0.55794906  0.12996253  1
  O  O41  1  0.72935843  0.48113789  0.49432177  1
  O  O42  1  0.69928391  0.08887798  0.65509654  1
  O  O43  1  0.62865861  0.16706224  0.29836698  1
  O  O44  1  0.84486154  0.94363354  0.36564186  1
  O  O45  1  0.90924271  0.86302274  0.69759470  1
  O  O46  1  0.74931211  0.02441224  0.00823648  1
  O  O47  1  0.93034768  0.25489496  0.55511875  1
  O  O48  1  0.87705634  0.33767477  0.19930376  1
  O  O49  1  0.99260213  0.78763702  0.09493868  1
