# generated using pymatgen
data_Li2FeCo9O20
_symmetry_space_group_name_H-M   'P 1'
_cell_length_a   7.52397689
_cell_length_b   4.93487546
_cell_length_c   10.02071535
_cell_angle_alpha   85.33867486
_cell_angle_beta   81.29474161
_cell_angle_gamma   70.66377589
_symmetry_Int_Tables_number   1
_chemical_formula_structural   Li2FeCo9O20
_chemical_formula_sum   'Li2 Fe1 Co9 O20'
_cell_volume   346.84230644
_cell_formula_units_Z   1
loop_
 _symmetry_equiv_pos_site_id
 _symmetry_equiv_pos_as_xyz
  1  'x, y, z'
loop_
 _atom_site_type_symbol
 _atom_site_label
 _atom_site_symmetry_multiplicity
 _atom_site_fract_x
 _atom_site_fract_y
 _atom_site_fract_z
 _atom_site_occupancy
  Li  Li0  1  0.49784726  0.50251226  0.50368891  1
  Li  Li1  1  0.80215274  0.59748774  0.99631109  1
  Fe  Fe2  1  0.15000000  0.05000000  0.25000000  1
  Co  Co3  1  0.05092149  0.35000084  0.74472088  1
  Co  Co4  1  0.35310456  0.44980165  0.24535298  1
  Co  Co5  1  0.24907851  0.74999916  0.75527912  1
  Co  Co6  1  0.45001644  0.14965948  0.75478087  1
  Co  Co7  1  0.55244286  0.84883223  0.25028429  1
  Co  Co8  1  0.74755714  0.25116777  0.24971571  1
  Co  Co9  1  0.65000000  0.55000000  0.75000000  1
  Co  Co10  1  0.94689544  0.65019835  0.25464702  1
  Co  Co11  1  0.84998356  0.95034052  0.74521913  1
  O  O12  1  0.06950036  0.02100382  0.65374805  1
  O  O13  1  0.13294592  0.39770493  0.34770008  1
  O  O14  1  0.16705408  0.70229507  0.15229992  1
  O  O15  1  0.02484753  0.67472861  0.84594225  1
  O  O16  1  0.23049964  0.07899618  0.84625195  1
  O  O17  1  0.38377419  0.12084165  0.15190311  1
  O  O18  1  0.27515247  0.42527139  0.65405775  1
  O  O19  1  0.34779983  0.75551828  0.35075480  1
  O  O20  1  0.53332673  0.18144390  0.34657308  1
  O  O21  1  0.43131077  0.47587282  0.84749543  1
  O  O22  1  0.57505170  0.52681874  0.14992730  1
  O  O23  1  0.46345848  0.82052061  0.65598836  1
  O  O24  1  0.66192244  0.22565552  0.65266232  1
  O  O25  1  0.72494830  0.57318126  0.35007270  1
  O  O26  1  0.76667327  0.91855610  0.15342692  1
  O  O27  1  0.63807756  0.87434448  0.84733768  1
  O  O28  1  0.95220017  0.34448172  0.14924520  1
  O  O29  1  0.83654152  0.27947939  0.84401164  1
  O  O30  1  0.86868923  0.62412718  0.65250457  1
  O  O31  1  0.91622581  0.97915835  0.34809689  1
