# generated using pymatgen
data_RbSm2I5
_symmetry_space_group_name_H-M   'P 1'
_cell_length_a   8.78873770
_cell_length_b   9.78271835
_cell_length_c   14.13182984
_cell_angle_alpha   90.76384525
_cell_angle_beta   90.00000000
_cell_angle_gamma   90.00000000
_symmetry_Int_Tables_number   1
_chemical_formula_structural   RbSm2I5
_chemical_formula_sum   'Rb4 Sm8 I20'
_cell_volume   1214.91489814
_cell_formula_units_Z   4
loop_
 _symmetry_equiv_pos_site_id
 _symmetry_equiv_pos_as_xyz
  1  'x, y, z'
loop_
 _atom_site_type_symbol
 _atom_site_label
 _atom_site_symmetry_multiplicity
 _atom_site_fract_x
 _atom_site_fract_y
 _atom_site_fract_z
 _atom_site_occupancy
  Rb  Rb0  1  0.95310667  0.50062367  0.67236358  1
  Rb  Rb1  1  0.04689333  0.49937633  0.32763642  1
  Rb  Rb2  1  0.45310667  0.49937633  0.82763642  1
  Rb  Rb3  1  0.54689333  0.50062367  0.17236358  1
  Sm  Sm4  1  0.94669448  0.99400137  0.67649254  1
  Sm  Sm5  1  0.05330552  0.00599863  0.32350746  1
  Sm  Sm6  1  0.44669448  0.00599863  0.82350746  1
  Sm  Sm7  1  0.55330552  0.99400137  0.17649254  1
  Sm  Sm8  1  0.91288301  0.76662349  0.00074703  1
  Sm  Sm9  1  0.08711699  0.23337651  0.99925297  1
  Sm  Sm10  1  0.41288301  0.23337651  0.49925297  1
  Sm  Sm11  1  0.58711699  0.76662349  0.50074703  1
  I  I12  1  0.83494838  0.46406766  0.92034579  1
  I  I13  1  0.16505162  0.53593234  0.07965421  1
  I  I14  1  0.33494838  0.53593234  0.57965421  1
  I  I15  1  0.66505162  0.46406766  0.42034579  1
  I  I16  1  0.15379245  0.79237818  0.82090338  1
  I  I17  1  0.84620755  0.20762182  0.17909662  1
  I  I18  1  0.65379245  0.20762182  0.67909662  1
  I  I19  1  0.34620755  0.79237818  0.32090338  1
  I  I20  1  0.68313038  0.77637529  0.71738662  1
  I  I21  1  0.31686962  0.22362471  0.28261338  1
  I  I22  1  0.18313038  0.22362471  0.78261338  1
  I  I23  1  0.81686962  0.77637529  0.21738662  1
  I  I24  1  0.54025520  0.79086237  0.99338318  1
  I  I25  1  0.45974480  0.20913763  0.00661682  1
  I  I26  1  0.04025520  0.20913763  0.50661682  1
  I  I27  1  0.95974480  0.79086237  0.49338318  1
  I  I28  1  0.33787986  0.95457854  0.60269685  1
  I  I29  1  0.66212014  0.04542146  0.39730315  1
  I  I30  1  0.83787986  0.04542146  0.89730315  1
  I  I31  1  0.16212014  0.95457854  0.10269685  1
