# generated using pymatgen
data_Li3CoSiO5
_symmetry_space_group_name_H-M   'P 1'
_cell_length_a   4.94860013
_cell_length_b   5.45885313
_cell_length_c   15.70261763
_cell_angle_alpha   90.00000000
_cell_angle_beta   90.00000000
_cell_angle_gamma   90.00000000
_symmetry_Int_Tables_number   1
_chemical_formula_structural   Li3CoSiO5
_chemical_formula_sum   'Li12 Co4 Si4 O20'
_cell_volume   424.18550837
_cell_formula_units_Z   4
loop_
 _symmetry_equiv_pos_site_id
 _symmetry_equiv_pos_as_xyz
  1  'x, y, z'
loop_
 _atom_site_type_symbol
 _atom_site_label
 _atom_site_symmetry_multiplicity
 _atom_site_fract_x
 _atom_site_fract_y
 _atom_site_fract_z
 _atom_site_occupancy
  Li  Li0  1  0.99848100  0.66905851  0.59345398  1
  Li  Li1  1  0.99848100  0.16905851  0.90654602  1
  Li  Li2  1  0.50053761  0.33738648  0.99467160  1
  Li  Li3  1  0.50053761  0.83738648  0.50532840  1
  Li  Li4  1  0.50632178  0.32980448  0.80353056  1
  Li  Li5  1  0.50632178  0.82980448  0.69646944  1
  Li  Li6  1  0.49848100  0.33094149  0.40654602  1
  Li  Li7  1  0.49848100  0.83094149  0.09345398  1
  Li  Li8  1  0.00053761  0.66261352  0.00532840  1
  Li  Li9  1  0.00053761  0.16261352  0.49467160  1
  Li  Li10  1  0.00632178  0.17019552  0.30353056  1
  Li  Li11  1  0.00632178  0.67019552  0.19646944  1
  Co  Co12  1  0.99967792  0.17825675  0.69895161  1
  Co  Co13  1  0.99967792  0.67825675  0.80104839  1
  Co  Co14  1  0.49967792  0.32174325  0.19895161  1
  Co  Co15  1  0.49967792  0.82174325  0.30104839  1
  Si  Si16  1  0.00720502  0.16130011  0.09787472  1
  Si  Si17  1  0.00720502  0.66130011  0.40212528  1
  Si  Si18  1  0.50720502  0.33869989  0.59787472  1
  Si  Si19  1  0.50720502  0.83869989  0.90212528  1
  O  O20  1  0.09279891  0.34934663  0.79757140  1
  O  O21  1  0.09279891  0.84934663  0.70242860  1
  O  O22  1  0.10245057  0.37679248  0.39814513  1
  O  O23  1  0.10245057  0.87679248  0.10185487  1
  O  O24  1  0.10326411  0.31274882  0.01463529  1
  O  O25  1  0.10326411  0.81274882  0.48536471  1
  O  O26  1  0.11649906  0.30704397  0.18710608  1
  O  O27  1  0.11649906  0.80704397  0.31289392  1
  O  O28  1  0.16776301  0.32693323  0.60513080  1
  O  O29  1  0.16776301  0.82693323  0.89486920  1
  O  O30  1  0.59279891  0.65065337  0.20242860  1
  O  O31  1  0.59279891  0.15065337  0.29757140  1
  O  O32  1  0.60245057  0.62320752  0.60185487  1
  O  O33  1  0.60245057  0.12320752  0.89814513  1
  O  O34  1  0.60326411  0.18725118  0.51463529  1
  O  O35  1  0.60326411  0.68725118  0.98536471  1
  O  O36  1  0.61649906  0.19295603  0.68710608  1
  O  O37  1  0.61649906  0.69295603  0.81289392  1
  O  O38  1  0.66776301  0.17306677  0.10513080  1
  O  O39  1  0.66776301  0.67306677  0.39486920  1
