# generated using pymatgen
data_V2O3F
_symmetry_space_group_name_H-M   'P 1'
_cell_length_a   10.23254219
_cell_length_b   5.78467323
_cell_length_c   4.76531574
_cell_angle_alpha   89.99828359
_cell_angle_beta   90.01225705
_cell_angle_gamma   90.00027745
_symmetry_Int_Tables_number   1
_chemical_formula_structural   V2O3F
_chemical_formula_sum   'V8 O12 F4'
_cell_volume   282.06814741
_cell_formula_units_Z   4
loop_
 _symmetry_equiv_pos_site_id
 _symmetry_equiv_pos_as_xyz
  1  'x, y, z'
loop_
 _atom_site_type_symbol
 _atom_site_label
 _atom_site_symmetry_multiplicity
 _atom_site_fract_x
 _atom_site_fract_y
 _atom_site_fract_z
 _atom_site_occupancy
  V  V0  1  0.02542744  0.99412069  0.05611072  1
  V  V1  1  0.23239708  0.75647329  0.53925028  1
  V  V2  1  0.26750700  0.25644397  0.03924738  1
  V  V3  1  0.47449294  0.49404582  0.55626678  1
  V  V4  1  0.52578056  0.99426427  0.44366755  1
  V  V5  1  0.73254462  0.75642444  0.96074292  1
  V  V6  1  0.76755019  0.25646330  0.46077488  1
  V  V7  1  0.97429434  0.49435267  0.94392755  1
  O  O8  1  0.08254385  0.74815453  0.79182454  1
  O  O9  1  0.09380500  0.25179578  0.84149251  1
  O  O10  1  0.16727934  0.99977687  0.27021794  1
  O  O11  1  0.33267700  0.49976406  0.77031062  1
  O  O12  1  0.40611898  0.75175594  0.34165876  1
  O  O13  1  0.41741640  0.24810668  0.29185195  1
  O  O14  1  0.58248659  0.74804987  0.70800239  1
  O  O15  1  0.59377027  0.25178890  0.65822103  1
  O  O16  1  0.66709037  0.99973201  0.22991196  1
  O  O17  1  0.83296454  0.49971123  0.73009604  1
  O  O18  1  0.90629247  0.75185350  0.15843770  1
  O  O19  1  0.91756403  0.24812979  0.20812626  1
  F  F20  1  0.16728985  0.50564483  0.27328085  1
  F  F21  1  0.33254327  0.00563163  0.77340253  1
  F  F22  1  0.66747632  0.50562405  0.22652342  1
  F  F23  1  0.83268753  0.00563191  0.72665342  1
