# generated using pymatgen
data_Mn6OF11
_symmetry_space_group_name_H-M   'P 1'
_cell_length_a   4.96707036
_cell_length_b   5.88326584
_cell_length_c   16.21804843
_cell_angle_alpha   90.39379787
_cell_angle_beta   90.00000000
_cell_angle_gamma   90.00000000
_symmetry_Int_Tables_number   1
_chemical_formula_structural   Mn6OF11
_chemical_formula_sum   'Mn12 O2 F22'
_cell_volume   473.92227276
_cell_formula_units_Z   2
loop_
 _symmetry_equiv_pos_site_id
 _symmetry_equiv_pos_as_xyz
  1  'x, y, z'
loop_
 _atom_site_type_symbol
 _atom_site_label
 _atom_site_symmetry_multiplicity
 _atom_site_fract_x
 _atom_site_fract_y
 _atom_site_fract_z
 _atom_site_occupancy
  Mn  Mn0  1  0.01511346  0.16496216  0.40986276  1
  Mn  Mn1  1  0.01639199  0.85322094  0.24874745  1
  Mn  Mn2  1  0.97870173  0.19032358  0.07942468  1
  Mn  Mn3  1  0.00326815  0.17154920  0.75209247  1
  Mn  Mn4  1  0.99942899  0.83299811  0.58301565  1
  Mn  Mn5  1  0.99712956  0.82941907  0.91887010  1
  Mn  Mn6  1  0.50326815  0.32845080  0.58124153  1
  Mn  Mn7  1  0.51511346  0.33503784  0.92347024  1
  Mn  Mn8  1  0.47870173  0.30967642  0.25390832  1
  Mn  Mn9  1  0.51639199  0.64677906  0.08458655  1
  Mn  Mn10  1  0.49712956  0.67058093  0.41446290  1
  Mn  Mn11  1  0.49942899  0.66700189  0.75031835  1
  O  O12  1  0.21232542  0.08506957  0.29970173  1
  O  O13  1  0.71232542  0.41493043  0.03363127  1
  F  F14  1  0.23145464  0.10702974  0.64110110  1
  F  F15  1  0.21276690  0.11618717  0.97498606  1
  F  F16  1  0.24781451  0.87216065  0.13647121  1
  F  F17  1  0.23544911  0.89522396  0.47472664  1
  F  F18  1  0.22570293  0.89112988  0.80835499  1
  F  F19  1  0.27911045  0.39346358  0.14116435  1
  F  F20  1  0.25672359  0.60691912  0.30272717  1
  F  F21  1  0.26810906  0.39588231  0.47151785  1
  F  F22  1  0.26868026  0.60285346  0.64063957  1
  F  F23  1  0.27891878  0.39060930  0.81284486  1
  F  F24  1  0.27291149  0.61865747  0.97920076  1
  F  F25  1  0.74781451  0.62783935  0.19686179  1
  F  F26  1  0.71276690  0.38381283  0.35834694  1
  F  F27  1  0.72570293  0.60887012  0.52497901  1
  F  F28  1  0.73544911  0.60477604  0.85860736  1
  F  F29  1  0.73145464  0.39297026  0.69223190  1
  F  F30  1  0.77911045  0.10653642  0.19216865  1
  F  F31  1  0.77891878  0.10939070  0.52048814  1
  F  F32  1  0.77291149  0.88134253  0.35413324  1
  F  F33  1  0.75672359  0.89308088  0.03060583  1
  F  F34  1  0.76810906  0.10411769  0.86181515  1
  F  F35  1  0.76868026  0.89714654  0.69269343  1
