# generated using pymatgen
data_LiVOF4
_symmetry_space_group_name_H-M   'P 1'
_cell_length_a   5.40186868
_cell_length_b   5.69684981
_cell_length_c   7.03443408
_cell_angle_alpha   104.48111966
_cell_angle_beta   83.74123725
_cell_angle_gamma   67.82969475
_symmetry_Int_Tables_number   1
_chemical_formula_structural   LiVOF4
_chemical_formula_sum   'Li2 V2 O2 F8'
_cell_volume   189.04219470
_cell_formula_units_Z   2
loop_
 _symmetry_equiv_pos_site_id
 _symmetry_equiv_pos_as_xyz
  1  'x, y, z'
loop_
 _atom_site_type_symbol
 _atom_site_label
 _atom_site_symmetry_multiplicity
 _atom_site_fract_x
 _atom_site_fract_y
 _atom_site_fract_z
 _atom_site_occupancy
  Li  Li0  1  0.66756236  0.68916879  0.25271803  1
  Li  Li1  1  0.33243764  0.31083121  0.74728197  1
  V  V2  1  0.00000000  0.00000000  0.00000000  1
  V  V3  1  0.00000000  0.00000000  0.50000000  1
  O  O4  1  0.91662402  0.98187227  0.75325325  1
  O  O5  1  0.08337598  0.01812773  0.24674675  1
  F  F6  1  0.76610496  0.84877922  0.05918517  1
  F  F7  1  0.03669348  0.30965789  0.61178550  1
  F  F8  1  0.71650799  0.33676813  0.10867366  1
  F  F9  1  0.36898366  0.81026982  0.48308682  1
  F  F10  1  0.63101634  0.18973018  0.51691318  1
  F  F11  1  0.28349201  0.66323187  0.89132634  1
  F  F12  1  0.96330652  0.69034211  0.38821450  1
  F  F13  1  0.23389504  0.15122078  0.94081483  1
