# generated using pymatgen
data_LiV(SO4)3
_symmetry_space_group_name_H-M   'P 1'
_cell_length_a   8.18063895
_cell_length_b   8.42209766
_cell_length_c   8.26973748
_cell_angle_alpha   107.77131691
_cell_angle_beta   106.58246958
_cell_angle_gamma   108.31111206
_symmetry_Int_Tables_number   1
_chemical_formula_structural   LiV(SO4)3
_chemical_formula_sum   'Li2 V2 S6 O24'
_cell_volume   467.05456463
_cell_formula_units_Z   2
loop_
 _symmetry_equiv_pos_site_id
 _symmetry_equiv_pos_as_xyz
  1  'x, y, z'
loop_
 _atom_site_type_symbol
 _atom_site_label
 _atom_site_symmetry_multiplicity
 _atom_site_fract_x
 _atom_site_fract_y
 _atom_site_fract_z
 _atom_site_occupancy
  Li  Li0  1  0.14509110  0.57332979  0.77261229  1
  Li  Li1  1  0.85490890  0.42667021  0.22738771  1
  V  V2  1  0.00000000  0.00000000  0.00000000  1
  V  V3  1  0.50000000  0.50000000  0.50000000  1
  S  S4  1  0.09058020  0.23323341  0.44614501  1
  S  S5  1  0.54250149  0.89937666  0.75822071  1
  S  S6  1  0.22083889  0.43771851  0.09500188  1
  S  S7  1  0.77916111  0.56228149  0.90499812  1
  S  S8  1  0.45749851  0.10062334  0.24177929  1
  S  S9  1  0.90941880  0.76676659  0.55385499  1
  O  O10  1  0.00723751  0.86303014  0.77033883  1
  O  O11  1  0.03345822  0.70093182  0.48935805  1
  O  O12  1  0.12198341  0.22456709  0.98474752  1
  O  O13  1  0.26879931  0.51227114  0.97054593  1
  O  O14  1  0.10456903  0.49686104  0.17824480  1
  O  O15  1  0.23764575  0.01122719  0.12031679  1
  O  O16  1  0.44092789  0.81032026  0.84771735  1
  O  O17  1  0.25557545  0.41831328  0.48696941  1
  O  O18  1  0.16676250  0.12708157  0.52060947  1
  O  O19  1  0.52306064  0.74454810  0.58257322  1
  O  O20  1  0.49799835  0.96365242  0.28837738  1
  O  O21  1  0.59186817  0.52246402  0.75204688  1
  O  O22  1  0.40813183  0.47753598  0.24795312  1
  O  O23  1  0.50200165  0.03634758  0.71162262  1
  O  O24  1  0.47693936  0.25545190  0.41742678  1
  O  O25  1  0.83323750  0.87291843  0.47939053  1
  O  O26  1  0.74442455  0.58168672  0.51303059  1
  O  O27  1  0.55907211  0.18967974  0.15228265  1
  O  O28  1  0.76235425  0.98877281  0.87968321  1
  O  O29  1  0.89543097  0.50313896  0.82175520  1
  O  O30  1  0.73120069  0.48772886  0.02945407  1
  O  O31  1  0.87801659  0.77543291  0.01525248  1
  O  O32  1  0.96654178  0.29906818  0.51064195  1
  O  O33  1  0.99276249  0.13696986  0.22966117  1
