# generated using pymatgen
data_RbDyI3
_symmetry_space_group_name_H-M   'P 1'
_cell_length_a   8.22963650
_cell_length_b   8.72661229
_cell_length_c   11.98210308
_cell_angle_alpha   90.00000000
_cell_angle_beta   90.00000000
_cell_angle_gamma   90.00000000
_symmetry_Int_Tables_number   1
_chemical_formula_structural   RbDyI3
_chemical_formula_sum   'Rb4 Dy4 I12'
_cell_volume   860.51686391
_cell_formula_units_Z   4
loop_
 _symmetry_equiv_pos_site_id
 _symmetry_equiv_pos_as_xyz
  1  'x, y, z'
loop_
 _atom_site_type_symbol
 _atom_site_label
 _atom_site_symmetry_multiplicity
 _atom_site_fract_x
 _atom_site_fract_y
 _atom_site_fract_z
 _atom_site_occupancy
  Rb  Rb0  1  0.02800531  0.42620890  0.25000000  1
  Rb  Rb1  1  0.97199469  0.57379110  0.75000000  1
  Rb  Rb2  1  0.52800531  0.07379110  0.75000000  1
  Rb  Rb3  1  0.47199469  0.92620890  0.25000000  1
  Dy  Dy4  1  0.00000000  0.00000000  0.00000000  1
  Dy  Dy5  1  0.50000000  0.50000000  0.00000000  1
  Dy  Dy6  1  -0.00000000  -0.00000000  0.50000000  1
  Dy  Dy7  1  0.50000000  0.50000000  0.50000000  1
  I  I8  1  0.29836392  0.20716215  0.04175625  1
  I  I9  1  0.70163608  0.79283785  0.95824375  1
  I  I10  1  0.79836392  0.29283785  0.95824375  1
  I  I11  1  0.70163608  0.79283785  0.54175625  1
  I  I12  1  0.20163608  0.70716215  0.04175625  1
  I  I13  1  0.29836392  0.20716215  0.45824375  1
  I  I14  1  0.20163608  0.70716215  0.45824375  1
  I  I15  1  0.79836392  0.29283785  0.54175625  1
  I  I16  1  0.58656518  0.51529612  0.25000000  1
  I  I17  1  0.41343482  0.48470388  0.75000000  1
  I  I18  1  0.08656518  0.98470388  0.75000000  1
  I  I19  1  0.91343482  0.01529612  0.25000000  1
