# generated using pymatgen
data_Na2V2(PO4)3
_symmetry_space_group_name_H-M   'P 1'
_cell_length_a   8.61364269
_cell_length_b   9.05514498
_cell_length_c   12.36425644
_cell_angle_alpha   90.00000000
_cell_angle_beta   90.13553513
_cell_angle_gamma   90.00000000
_symmetry_Int_Tables_number   1
_chemical_formula_structural   Na2V2(PO4)3
_chemical_formula_sum   'Na8 V8 P12 O48'
_cell_volume   964.38189741
_cell_formula_units_Z   4
loop_
 _symmetry_equiv_pos_site_id
 _symmetry_equiv_pos_as_xyz
  1  'x, y, z'
loop_
 _atom_site_type_symbol
 _atom_site_label
 _atom_site_symmetry_multiplicity
 _atom_site_fract_x
 _atom_site_fract_y
 _atom_site_fract_z
 _atom_site_occupancy
  Na  Na0  1  0.19496202  0.80008371  0.16377074  1
  Na  Na1  1  0.22390261  0.70894021  0.82365851  1
  Na  Na2  1  0.27609739  0.20894021  0.67634149  1
  Na  Na3  1  0.30503798  0.30008371  0.33622926  1
  Na  Na4  1  0.69496202  0.69991629  0.66377074  1
  Na  Na5  1  0.72390261  0.79105979  0.32365851  1
  Na  Na6  1  0.77609739  0.29105979  0.17634149  1
  Na  Na7  1  0.80503798  0.19991629  0.83622926  1
  V  V8  1  0.25057815  0.53398470  0.60596467  1
  V  V9  1  0.24615478  0.96458760  0.39181769  1
  V  V10  1  0.24942185  0.03398470  0.89403533  1
  V  V11  1  0.25384522  0.46458760  0.10818231  1
  V  V12  1  0.74615478  0.53541240  0.89181769  1
  V  V13  1  0.75057815  0.96601530  0.10596467  1
  V  V14  1  0.75384522  0.03541240  0.60818231  1
  V  V15  1  0.74942185  0.46601530  0.39403533  1
  P  P16  1  0.02807550  0.24856152  0.49696081  1
  P  P17  1  0.10643497  0.38871353  0.85453351  1
  P  P18  1  0.11150012  0.11499995  0.14787087  1
  P  P19  1  0.39356503  0.88871353  0.64546649  1
  P  P20  1  0.38849988  0.61499995  0.35212913  1
  P  P21  1  0.47192450  0.74856152  0.00303919  1
  P  P22  1  0.52807550  0.25143848  0.99696081  1
  P  P23  1  0.61150012  0.38500005  0.64787087  1
  P  P24  1  0.60643497  0.11128647  0.35453351  1
  P  P25  1  0.88849988  0.88500005  0.85212913  1
  P  P26  1  0.89356503  0.61128647  0.14546649  1
  P  P27  1  0.97192450  0.75143848  0.50303919  1
  O  O28  1  0.07159960  0.67276867  0.58826451  1
  O  O29  1  0.07041293  0.85722751  0.42869833  1
  O  O30  1  0.06643868  0.89363469  0.86767594  1
  O  O31  1  0.07186024  0.57548360  0.15080659  1
  O  O32  1  0.11374773  0.35294575  0.57329461  1
  O  O33  1  0.16458678  0.44025398  0.96599734  1
  O  O34  1  0.12291436  0.22067607  0.83686153  1
  O  O35  1  0.16006007  0.01612414  0.24524247  1
  O  O36  1  0.15010603  0.15190936  0.43869515  1
  O  O37  1  0.19426489  0.04855820  0.04854277  1
  O  O38  1  0.15812380  0.27808667  0.17019156  1
  O  O39  1  0.19168246  0.47836656  0.76683613  1
  O  O40  1  0.30831754  0.97836656  0.73316387  1
  O  O41  1  0.34187620  0.77808667  0.32980844  1
  O  O42  1  0.30573511  0.54855820  0.45145723  1
  O  O43  1  0.34989397  0.65190936  0.06130485  1
  O  O44  1  0.33993993  0.51612414  0.25475753  1
  O  O45  1  0.37708564  0.72067607  0.66313847  1
  O  O46  1  0.33541322  0.94025398  0.53400266  1
  O  O47  1  0.38625227  0.85294575  0.92670539  1
  O  O48  1  0.42813976  0.07548360  0.34919341  1
  O  O49  1  0.43356132  0.39363469  0.63232406  1
  O  O50  1  0.42958707  0.35722751  0.07130167  1
  O  O51  1  0.42840040  0.17276867  0.91173549  1
  O  O52  1  0.57159960  0.82723133  0.08826451  1
  O  O53  1  0.57041293  0.64277249  0.92869833  1
  O  O54  1  0.56643868  0.60636531  0.36767594  1
  O  O55  1  0.57186024  0.92451640  0.65080659  1
  O  O56  1  0.61374773  0.14705425  0.07329461  1
  O  O57  1  0.66458678  0.05974602  0.46599734  1
  O  O58  1  0.62291436  0.27932393  0.33686153  1
  O  O59  1  0.66006007  0.48387586  0.74524247  1
  O  O60  1  0.65010603  0.34809064  0.93869515  1
  O  O61  1  0.69426489  0.45144180  0.54854277  1
  O  O62  1  0.65812380  0.22191333  0.67019156  1
  O  O63  1  0.69168246  0.02163344  0.26683613  1
  O  O64  1  0.80831754  0.52163344  0.23316387  1
  O  O65  1  0.84187620  0.72191333  0.82980844  1
  O  O66  1  0.80573511  0.95144180  0.95145723  1
  O  O67  1  0.84989397  0.84809064  0.56130485  1
  O  O68  1  0.83993993  0.98387586  0.75475753  1
  O  O69  1  0.87708564  0.77932393  0.16313847  1
  O  O70  1  0.83541322  0.55974602  0.03400266  1
  O  O71  1  0.88625227  0.64705425  0.42670539  1
  O  O72  1  0.92813976  0.42451640  0.84919341  1
  O  O73  1  0.93356132  0.10636531  0.13232406  1
  O  O74  1  0.92958707  0.14277249  0.57130167  1
  O  O75  1  0.92840040  0.32723133  0.41173549  1
