# generated using pymatgen
data_Na7Ni17O24
_symmetry_space_group_name_H-M   'P 1'
_cell_length_a   5.98799050
_cell_length_b   6.11971005
_cell_length_c   14.79504280
_cell_angle_alpha   89.70295485
_cell_angle_beta   89.78616282
_cell_angle_gamma   59.90919087
_symmetry_Int_Tables_number   1
_chemical_formula_structural   Na7Ni17O24
_chemical_formula_sum   'Na7 Ni17 O24'
_cell_volume   469.08815542
_cell_formula_units_Z   1
loop_
 _symmetry_equiv_pos_site_id
 _symmetry_equiv_pos_as_xyz
  1  'x, y, z'
loop_
 _atom_site_type_symbol
 _atom_site_label
 _atom_site_symmetry_multiplicity
 _atom_site_fract_x
 _atom_site_fract_y
 _atom_site_fract_z
 _atom_site_occupancy
  Na  Na0  1  0.63561614  0.13579226  0.46277658  1
  Na  Na1  1  0.97315408  0.47410985  0.13185338  1
  Na  Na2  1  0.63924009  0.64622239  0.96622256  1
  Na  Na3  1  0.30861188  0.30139958  0.29680643  1
  Na  Na4  1  0.81156498  0.81109899  0.79836306  1
  Na  Na5  1  0.13683865  0.13603634  0.46486249  1
  Na  Na6  1  0.31156565  0.81174227  0.80033032  1
  Ni  Ni7  1  0.81122989  0.30479871  0.30034263  1
  Ni  Ni8  1  0.97367600  0.47349005  0.63147335  1
  Ni  Ni9  1  0.63988804  0.14668756  0.96661867  1
  Ni  Ni10  1  0.80842808  0.31410296  0.80104633  1
  Ni  Ni11  1  0.97360596  0.97365997  0.63163421  1
  Ni  Ni12  1  0.47381509  0.47347858  0.63161224  1
  Ni  Ni13  1  0.80967799  0.80029821  0.29647094  1
  Ni  Ni14  1  0.13855301  0.14733329  0.96646392  1
  Ni  Ni15  1  0.47309559  0.47367739  0.13136265  1
  Ni  Ni16  1  0.63872728  0.63934995  0.46406736  1
  Ni  Ni17  1  0.30934080  0.30818650  0.79935829  1
  Ni  Ni18  1  0.97282513  0.97404543  0.13116307  1
  Ni  Ni19  1  0.13733154  0.64266276  0.96337437  1
  Ni  Ni20  1  0.47357836  0.97336706  0.63167180  1
  Ni  Ni21  1  0.30792226  0.80037677  0.29666574  1
  Ni  Ni22  1  0.13891275  0.63311165  0.46341856  1
  Ni  Ni23  1  0.47352299  0.97420707  0.13115234  1
  O  O24  1  0.79732284  0.28025075  0.04687785  1
  O  O25  1  0.78225664  0.32977987  0.56041486  1
  O  O26  1  0.00041171  0.45128584  0.88117067  1
  O  O27  1  0.67011453  0.12437577  0.20542846  1
  O  O28  1  0.62851886  0.16821151  0.70637812  1
  O  O29  1  0.94749280  0.49625245  0.38208720  1
  O  O30  1  0.66971434  0.61935298  0.70421770  1
  O  O31  1  0.99653734  0.94777728  0.36831639  1
  O  O32  1  0.33420130  0.29899939  0.04376561  1
  O  O33  1  0.47509578  0.45029201  0.88209107  1
  O  O34  1  0.47047857  0.50077284  0.38018489  1
  O  O35  1  0.13103049  0.15703031  0.70906731  1
  O  O36  1  0.81183862  0.83826074  0.05151470  1
  O  O37  1  0.81511160  0.79082938  0.55366987  1
  O  O38  1  0.13739432  0.10438505  0.21228396  1
  O  O39  1  0.95268391  -0.00030826  0.89461185  1
  O  O40  1  0.61081625  0.64932253  0.22011648  1
  O  O41  1  0.27831951  0.32731563  0.55854487  1
  O  O42  1  0.16482777  0.61721333  0.70226470  1
  O  O43  1  0.47829988  0.92898660  0.37125679  1
  O  O44  1  0.46977240  0.01930068  0.89183160  1
  O  O45  1  0.15051943  0.66761616  0.21672409  1
  O  O46  1  0.31825420  0.77875900  0.55632941  1
  O  O47  1  0.27697171  0.82250955  0.05721328  1
