# generated using pymatgen
data_Li3Fe(PO4)2
_symmetry_space_group_name_H-M   'P 1'
_cell_length_a   8.26734920
_cell_length_b   8.22375409
_cell_length_c   10.49345121
_cell_angle_alpha   90.01473396
_cell_angle_beta   89.98904365
_cell_angle_gamma   75.93826797
_symmetry_Int_Tables_number   1
_chemical_formula_structural   Li3Fe(PO4)2
_chemical_formula_sum   'Li12 Fe4 P8 O32'
_cell_volume   692.05705543
_cell_formula_units_Z   4
loop_
 _symmetry_equiv_pos_site_id
 _symmetry_equiv_pos_as_xyz
  1  'x, y, z'
loop_
 _atom_site_type_symbol
 _atom_site_label
 _atom_site_symmetry_multiplicity
 _atom_site_fract_x
 _atom_site_fract_y
 _atom_site_fract_z
 _atom_site_occupancy
  Li  Li0  1  0.90524366  0.60232975  0.66384870  1
  Li  Li1  1  0.78141242  0.45740175  0.41518349  1
  Li  Li2  1  0.65592755  0.84762101  0.85326894  1
  Li  Li3  1  0.72325119  0.53562621  0.94107218  1
  Li  Li4  1  0.66223158  0.35191708  0.65828095  1
  Li  Li5  1  0.59744439  0.39690095  0.17425317  1
  Li  Li6  1  0.40436278  0.60427000  0.83648365  1
  Li  Li7  1  0.28148320  0.45727956  0.08526834  1
  Li  Li8  1  0.15589420  0.84640449  0.64581882  1
  Li  Li9  1  0.22374177  0.53372823  0.56003248  1
  Li  Li10  1  0.16290181  0.35192037  0.84190583  1
  Li  Li11  1  0.09759727  0.39689669  0.32626008  1
  Fe  Fe12  1  0.91294988  0.09433171  0.84312902  1
  Fe  Fe13  1  0.41283842  0.09390124  0.65705693  1
  Fe  Fe14  1  0.59463994  0.90122298  0.33350810  1
  Fe  Fe15  1  0.09391777  0.90167852  0.16687981  1
  P  P16  1  0.95917008  0.75939260  0.41138210  1
  P  P17  1  0.96938920  0.28723648  0.08705979  1
  P  P18  1  0.52907893  0.71414045  0.59108177  1
  P  P19  1  0.45895136  0.76049403  0.08874015  1
  P  P20  1  0.53983129  0.23710429  0.90541718  1
  P  P21  1  0.46968938  0.28647844  0.41308159  1
  P  P22  1  0.02887662  0.71444863  0.90907932  1
  P  P23  1  0.04040761  0.23658147  0.59477752  1
  O  O24  1  0.99809728  0.77194211  0.04874277  1
  O  O25  1  0.91843128  0.60193597  0.35771703  1
  O  O26  1  0.98451298  0.27236103  0.45938734  1
  O  O27  1  0.87454805  0.66505162  0.85259832  1
  O  O28  1  0.80035742  0.90956087  0.40673856  1
  O  O29  1  0.95474599  0.11933546  0.14977012  1
  O  O30  1  0.89452756  0.19002369  0.67559174  1
  O  O31  1  0.79957027  0.41130476  0.09073513  1
  O  O32  1  0.68837001  0.57130007  0.60375381  1
  O  O33  1  0.59762309  0.81410396  0.16818061  1
  O  O34  1  0.55401040  0.87126435  0.67272058  1
  O  O35  1  0.69287280  0.07618225  0.88852089  1
  O  O36  1  0.52186931  0.73355532  0.94878367  1
  O  O37  1  0.61103349  0.35260230  0.35838719  1
  O  O38  1  0.49861373  0.77144790  0.45140395  1
  O  O39  1  0.59111621  0.38459953  0.83766065  1
  O  O40  1  0.41891024  0.60227293  0.14149878  1
  O  O41  1  0.51131399  0.24012587  0.56206366  1
  O  O42  1  0.48457284  0.27144942  0.04092570  1
  O  O43  1  0.37457496  0.66495326  0.64740754  1
  O  O44  1  0.29990072  0.91030693  0.09437221  1
  O  O45  1  0.45570750  0.11912632  0.34922100  1
  O  O46  1  0.39419535  0.19014293  0.82444814  1
  O  O47  1  0.29962759  0.40980911  0.41035449  1
  O  O48  1  0.09767262  0.81348818  0.33202057  1
  O  O49  1  0.18819800  0.57167999  0.89653491  1
  O  O50  1  0.05389549  0.87154880  0.82742309  1
  O  O51  1  0.19315497  0.07529609  0.61053440  1
  O  O52  1  0.02245619  0.73093408  0.55111405  1
  O  O53  1  0.11130631  0.35192168  0.14196856  1
  O  O54  1  0.09258635  0.38325969  0.66288934  1
  O  O55  1  0.01003568  0.24203961  0.93772830  1
