# generated using pymatgen
data_Na5Mn7O16
_symmetry_space_group_name_H-M   'P 1'
_cell_length_a   5.97796055
_cell_length_b   6.21015668
_cell_length_c   8.81149478
_cell_angle_alpha   91.96886715
_cell_angle_beta   90.00000000
_cell_angle_gamma   90.00000000
_symmetry_Int_Tables_number   1
_chemical_formula_structural   Na5Mn7O16
_chemical_formula_sum   'Na5 Mn7 O16'
_cell_volume   326.92544646
_cell_formula_units_Z   1
loop_
 _symmetry_equiv_pos_site_id
 _symmetry_equiv_pos_as_xyz
  1  'x, y, z'
loop_
 _atom_site_type_symbol
 _atom_site_label
 _atom_site_symmetry_multiplicity
 _atom_site_fract_x
 _atom_site_fract_y
 _atom_site_fract_z
 _atom_site_occupancy
  Na  Na0  1  0.00000000  0.01299485  0.00141059  1
  Na  Na1  1  0.50000000  0.01486864  0.25594869  1
  Na  Na2  1  0.00000000  0.25000000  0.37500000  1
  Na  Na3  1  0.50000000  0.48513136  0.49405131  1
  Na  Na4  1  0.00000000  0.48700515  0.74858941  1
  Mn  Mn5  1  0.24911040  0.52014390  0.12537806  1
  Mn  Mn6  1  0.75088960  0.52014390  0.12537806  1
  Mn  Mn7  1  0.00000000  0.75000000  0.37500000  1
  Mn  Mn8  1  0.75088960  0.97985610  0.62462194  1
  Mn  Mn9  1  0.24911040  0.97985610  0.62462194  1
  Mn  Mn10  1  0.50000000  0.75000000  0.87500000  1
  Mn  Mn11  1  0.50000000  0.25000000  0.87500000  1
  O  O12  1  0.50000000  0.73257463  0.09711957  1
  O  O13  1  0.50000000  0.31861142  0.12379572  1
  O  O14  1  0.00000000  0.73411707  0.14634337  1
  O  O15  1  0.00000000  0.32957948  0.11239576  1
  O  O16  1  0.77159137  0.53856521  0.33660028  1
  O  O17  1  0.22840863  0.53856521  0.33660028  1
  O  O18  1  0.22840863  0.96143479  0.41339972  1
  O  O19  1  0.77159137  0.96143479  0.41339972  1
  O  O20  1  0.00000000  0.17042052  0.63760424  1
  O  O21  1  0.00000000  0.76588293  0.60365663  1
  O  O22  1  0.50000000  0.18138858  0.62620428  1
  O  O23  1  0.50000000  0.76742537  0.65288043  1
  O  O24  1  0.70909634  0.99373570  0.85410853  1
  O  O25  1  0.29090366  0.99373570  0.85410853  1
  O  O26  1  0.29090366  0.50626430  0.89589147  1
  O  O27  1  0.70909634  0.50626430  0.89589147  1
