# generated using pymatgen
data_Co6OF11
_symmetry_space_group_name_H-M   'P 1'
_cell_length_a   4.75071137
_cell_length_b   7.89689553
_cell_length_c   5.70569494
_cell_angle_alpha   93.25751181
_cell_angle_beta   89.52908992
_cell_angle_gamma   90.39643357
_symmetry_Int_Tables_number   1
_chemical_formula_structural   Co6OF11
_chemical_formula_sum   'Co6 O1 F11'
_cell_volume   213.69657439
_cell_formula_units_Z   1
loop_
 _symmetry_equiv_pos_site_id
 _symmetry_equiv_pos_as_xyz
  1  'x, y, z'
loop_
 _atom_site_type_symbol
 _atom_site_label
 _atom_site_symmetry_multiplicity
 _atom_site_fract_x
 _atom_site_fract_y
 _atom_site_fract_z
 _atom_site_occupancy
  Co  Co0  1  0.51923692  0.00621120  0.48809052  1
  Co  Co1  1  0.50449618  0.33563853  0.82893162  1
  Co  Co2  1  0.49709277  0.66504545  0.16836669  1
  Co  Co3  1  0.00451140  0.67027082  0.66508886  1
  Co  Co4  1  0.98799007  0.31488056  0.32702979  1
  Co  Co5  1  0.99009614  0.00914860  0.01893863  1
  O  O6  1  0.79199641  0.09683082  0.30387013  1
  F  F7  1  0.80541965  0.43350077  0.62795077  1
  F  F8  1  0.80342663  0.77031343  0.96814693  1
  F  F9  1  0.69151094  0.76432311  0.46892896  1
  F  F10  1  0.69978083  0.10295810  0.79925270  1
  F  F11  1  0.70226548  0.43486659  0.12797898  1
  F  F12  1  0.30369223  0.56705607  0.86709095  1
  F  F13  1  0.30164550  0.23307355  0.53442031  1
  F  F14  1  0.29840679  0.89709818  0.20408120  1
  F  F15  1  0.20610210  0.23539900  0.02979881  1
  F  F16  1  0.20101994  0.90606510  0.70572779  1
  F  F17  1  0.19131002  0.55731812  0.36630836  1
