# generated using pymatgen
data_Li5V3P8O29
_symmetry_space_group_name_H-M   'P 1'
_cell_length_a   9.79916416
_cell_length_b   9.79979824
_cell_length_c   14.01313370
_cell_angle_alpha   90.50674547
_cell_angle_beta   90.29498881
_cell_angle_gamma   59.97577442
_symmetry_Int_Tables_number   1
_chemical_formula_structural   Li5V3P8O29
_chemical_formula_sum   'Li10 V6 P16 O58'
_cell_volume   1165.06152032
_cell_formula_units_Z   2
loop_
 _symmetry_equiv_pos_site_id
 _symmetry_equiv_pos_as_xyz
  1  'x, y, z'
loop_
 _atom_site_type_symbol
 _atom_site_label
 _atom_site_symmetry_multiplicity
 _atom_site_fract_x
 _atom_site_fract_y
 _atom_site_fract_z
 _atom_site_occupancy
  Li  Li0  1  0.77278023  0.90562238  0.55583159  1
  Li  Li1  1  0.90681732  0.32541367  0.55949188  1
  Li  Li2  1  0.67174153  0.67246482  0.88940281  1
  Li  Li3  1  0.76304134  0.32759288  0.06245557  1
  Li  Li4  1  0.31917841  0.91199946  0.06256859  1
  Li  Li5  1  0.68311772  0.22366792  0.43776448  1
  Li  Li6  1  0.31118891  0.77338614  0.55821529  1
  Li  Li7  1  0.23194519  0.66349092  0.94464000  1
  Li  Li8  1  0.22817599  0.09068036  0.43904296  1
  Li  Li9  1  0.95738521  0.00582776  0.99976250  1
  V  V10  1  0.56644949  0.43326935  0.25217319  1
  V  V11  1  0.43016584  0.56829378  0.74583458  1
  V  V12  1  0.56681544  0.00202349  0.75536833  1
  V  V13  1  0.43712271  0.00071457  0.24509589  1
  V  V14  1  0.99911550  0.56936387  0.24710577  1
  V  V15  1  0.00701122  0.43125775  0.75307023  1
  P  P16  1  0.91630714  0.77745695  0.84343789  1
  P  P17  1  0.77081040  0.91035041  0.33952200  1
  P  P18  1  0.91476113  0.32086791  0.34402202  1
  P  P19  1  0.66851675  0.66310755  0.12756434  1
  P  P20  1  0.66788832  0.66663255  0.62958804  1
  P  P21  1  0.77454817  0.31936177  0.84232837  1
  P  P22  1  0.68393290  0.22880257  0.65886455  1
  P  P23  1  0.31656321  0.90858911  0.84351547  1
  P  P24  1  0.69313228  0.08483608  0.15677197  1
  P  P25  1  0.31978741  0.77228274  0.34168950  1
  P  P26  1  0.22694538  0.68476563  0.16019824  1
  P  P27  1  0.33085973  0.33287162  0.36974995  1
  P  P28  1  0.33338003  0.33614759  0.87299487  1
  P  P29  1  0.08140812  0.68613630  0.65545484  1
  P  P30  1  0.23275206  0.08652673  0.65996351  1
  P  P31  1  0.08142082  0.22612977  0.15828027  1
  O  O32  1  0.98926926  0.76375651  0.56882741  1
  O  O33  1  0.91697568  0.74398613  0.33332938  1
  O  O34  1  0.79428992  0.00604830  0.07327922  1
  O  O35  1  0.74575830  0.91285677  0.84216588  1
  O  O36  1  0.90867855  0.62090833  0.83177809  1
  O  O37  1  0.81262256  0.66913769  0.17335838  1
  O  O38  1  0.90360688  0.47991298  0.32332020  1
  O  O39  1  0.98725158  0.21548724  0.07740158  1
  O  O40  1  0.91917138  0.34419530  0.83229511  1
  O  O41  1  0.66713097  0.81667293  0.67264090  1
  O  O42  1  0.62196235  0.89820801  0.31958580  1
  O  O43  1  0.81552537  0.51725070  0.67447044  1
  O  O44  1  0.67414781  0.66032196  0.02034642  1
  O  O45  1  0.67453476  0.66012606  0.52348653  1
  O  O46  1  0.67547071  0.51000987  0.16429216  1
  O  O47  1  0.48340142  0.88875958  0.83037593  1
  O  O48  1  0.51271754  0.81088070  0.16300974  1
  O  O49  1  0.74932892  0.33659758  0.34344739  1
  O  O50  1  0.79169267  0.21007961  0.75084579  1
  O  O51  1  0.75651573  0.24742097  0.56946748  1
  O  O52  1  0.78502577  0.23396008  0.93203376  1
  O  O53  1  0.62513965  0.48245321  0.82977931  1
  O  O54  1  0.51274034  0.67246020  0.66703880  1
  O  O55  1  0.65650652  0.25943537  0.16481033  1
  O  O56  1  0.48013402  0.62091054  0.31961383  1
  O  O57  1  0.34052592  0.91879208  0.33682189  1
  O  O58  1  0.79050988  0.00766410  0.25471244  1
  O  O59  1  0.75780895  0.99666440  0.43135839  1
  O  O60  1  0.23740399  0.00003693  0.56999858  1
  O  O61  1  0.66632439  0.08207669  0.65820938  1
  O  O62  1  0.52304014  0.37954153  0.67985729  1
  O  O63  1  0.33677860  0.73984795  0.83602332  1
  O  O64  1  0.48546112  0.32926797  0.33451392  1
  O  O65  1  0.37982412  0.52790475  0.17167514  1
  O  O66  1  0.22162614  0.77322622  0.07111278  1
  O  O67  1  0.24992581  0.76063612  0.43247458  1
  O  O68  1  0.20685447  0.79412779  0.25164717  1
  O  O69  1  0.25024875  0.66332332  0.65634938  1
  O  O70  1  0.47999324  0.18541622  0.82924146  1
  O  O71  1  0.53814000  0.08158133  0.16516714  1
  O  O72  1  0.32925124  0.48625768  0.83382510  1
  O  O73  1  0.32018324  0.33888839  0.97801102  1
  O  O74  1  0.31992532  0.33632743  0.47559306  1
  O  O75  1  0.18497650  0.47597438  0.31907725  1
  O  O76  1  0.38161567  0.09684863  0.67604580  1
  O  O77  1  0.33209239  0.18262151  0.32734569  1
  O  O78  1  0.08361683  0.65890553  0.16483610  1
  O  O79  1  0.99853767  0.79432516  0.74830139  1
  O  O80  1  0.00925729  0.78165264  0.92684245  1
  O  O81  1  0.09155521  0.52601466  0.67840924  1
  O  O82  1  0.18630370  0.33383233  0.82304465  1
  O  O83  1  0.07990886  0.38371499  0.16920562  1
  O  O84  1  0.25338077  0.08563274  0.15744153  1
  O  O85  1  0.23556741  0.98527662  0.93407670  1
  O  O86  1  0.21093341  0.99867904  0.75144236  1
  O  O87  1  0.08277130  0.25399184  0.66179065  1
  O  O88  1  0.00247824  0.24701451  0.43499049  1
  O  O89  1  0.00957983  0.20352851  0.25741770  1
