# generated using pymatgen
data_Li5V3P8O29
_symmetry_space_group_name_H-M   'P 1'
_cell_length_a   9.84600701
_cell_length_b   9.79909757
_cell_length_c   14.12671674
_cell_angle_alpha   89.92990178
_cell_angle_beta   89.69193083
_cell_angle_gamma   59.89301678
_symmetry_Int_Tables_number   1
_chemical_formula_structural   Li5V3P8O29
_chemical_formula_sum   'Li10 V6 P16 O58'
_cell_volume   1179.07651417
_cell_formula_units_Z   2
loop_
 _symmetry_equiv_pos_site_id
 _symmetry_equiv_pos_as_xyz
  1  'x, y, z'
loop_
 _atom_site_type_symbol
 _atom_site_label
 _atom_site_symmetry_multiplicity
 _atom_site_fract_x
 _atom_site_fract_y
 _atom_site_fract_z
 _atom_site_occupancy
  Li  Li0  1  0.91366252  0.77633791  0.06275594  1
  Li  Li1  1  0.76775191  0.89730647  0.55739461  1
  Li  Li2  1  0.90201291  0.32866434  0.55728978  1
  Li  Li3  1  0.77158394  0.31726689  0.06213968  1
  Li  Li4  1  0.32439919  0.90597836  0.05969808  1
  Li  Li5  1  0.33333367  0.76621325  0.55875721  1
  Li  Li6  1  0.33729908  0.33612475  0.60751616  1
  Li  Li7  1  0.34119644  0.33104402  0.10959575  1
  Li  Li8  1  0.08167259  0.22514696  0.93979956  1
  Li  Li9  1  0.99205084  0.00162713  0.49053049  1
  V  V10  1  0.56641698  0.43360471  0.25551577  1
  V  V11  1  0.43156336  0.57056756  0.75225061  1
  V  V12  1  0.57285314  0.99565367  0.75226975  1
  V  V13  1  0.43480866  0.00246894  0.25291631  1
  V  V14  1  0.00103188  0.57025547  0.25233945  1
  V  V15  1  0.99628467  0.43341262  0.74855138  1
  P  P16  1  0.91552386  0.76641771  0.84336432  1
  P  P17  1  0.76998692  0.91714098  0.34368978  1
  P  P18  1  0.91491517  0.31192278  0.34106850  1
  P  P19  1  0.66742108  0.66687251  0.13025456  1
  P  P20  1  0.66385951  0.66778338  0.62767055  1
  P  P21  1  0.76402085  0.32002998  0.84421987  1
  P  P22  1  0.68947585  0.22281853  0.66133918  1
  P  P23  1  0.31785526  0.91463282  0.84256151  1
  P  P24  1  0.68253659  0.09146189  0.16119801  1
  P  P25  1  0.30831980  0.77566204  0.34406309  1
  P  P26  1  0.23013857  0.68265140  0.16067476  1
  P  P27  1  0.33374476  0.33435495  0.37001812  1
  P  P28  1  0.32992857  0.33237119  0.86881500  1
  P  P29  1  0.08887581  0.68896050  0.66091876  1
  P  P30  1  0.22606231  0.08663132  0.65932264  1
  P  P31  1  0.09130760  0.23010795  0.15876766  1
  O  O32  1  0.99325765  0.79404696  0.58216412  1
  O  O33  1  0.91234406  0.74825848  0.32673708  1
  O  O34  1  0.77354254  0.99401037  0.07947930  1
  O  O35  1  0.74736753  0.91328616  0.82970294  1
  O  O36  1  0.90406440  0.61771852  0.81795172  1
  O  O37  1  0.81970997  0.66097459  0.16668689  1
  O  O38  1  0.91485987  0.46632219  0.32963674  1
  O  O39  1  0.99693841  0.24865836  0.07130976  1
  O  O40  1  0.91505906  0.33268212  0.83498993  1
  O  O41  1  0.67042615  0.81538890  0.67186231  1
  O  O42  1  0.61882800  0.91035966  0.33201605  1
  O  O43  1  0.80962318  0.51403118  0.66570069  1
  O  O44  1  0.66145562  0.65991787  0.02524899  1
  O  O45  1  0.66410073  0.67909537  0.52244883  1
  O  O46  1  0.65893246  0.52265543  0.17612894  1
  O  O47  1  0.47882433  0.90319418  0.81873880  1
  O  O48  1  0.52272934  0.82188664  0.17102977  1
  O  O49  1  0.74390010  0.34142651  0.32906139  1
  O  O50  1  0.77843879  0.20129224  0.76106947  1
  O  O51  1  0.79726311  0.20907126  0.58260832  1
  O  O52  1  0.75101783  0.26037841  0.93781253  1
  O  O53  1  0.61815462  0.48104565  0.81746251  1
  O  O54  1  0.51059707  0.67767291  0.66671485  1
  O  O55  1  0.65969585  0.26165513  0.15957249  1
  O  O56  1  0.46577594  0.61496400  0.32677821  1
  O  O57  1  0.33930577  0.91122521  0.33157039  1
  O  O58  1  0.77994709  0.02022350  0.25830823  1
  O  O59  1  0.78869693  0.98117276  0.43550283  1
  O  O60  1  0.21574619  0.99283975  0.57984526  1
  O  O61  1  0.65976488  0.07959352  0.65952820  1
  O  O62  1  0.52706666  0.37398297  0.66690384  1
  O  O63  1  0.33577977  0.75095807  0.83742348  1
  O  O64  1  0.48542319  0.33057165  0.32587449  1
  O  O65  1  0.37715320  0.51499667  0.17583882  1
  O  O66  1  0.24395854  0.76972823  0.07913089  1
  O  O67  1  0.23164312  0.77996913  0.43626844  1
  O  O68  1  0.20029490  0.78247548  0.25747174  1
  O  O69  1  0.25980716  0.66002183  0.66030541  1
  O  O70  1  0.47616701  0.17956257  0.82160076  1
  O  O71  1  0.51579071  0.11377054  0.17296086  1
  O  O72  1  0.33343149  0.47574999  0.82615901  1
  O  O73  1  0.33765673  0.32258969  0.97433316  1
  O  O74  1  0.34199263  0.32942872  0.47531127  1
  O  O75  1  0.19125530  0.48110061  0.32863858  1
  O  O76  1  0.37802603  0.09686287  0.66746098  1
  O  O77  1  0.33582375  0.18528248  0.32708952  1
  O  O78  1  0.08561450  0.65948363  0.15652720  1
  O  O79  1  0.01784144  0.78179330  0.76033453  1
  O  O80  1  0.98396669  0.75803884  0.93691812  1
  O  O81  1  0.10283430  0.52461042  0.66811801  1
  O  O82  1  0.18091547  0.32923750  0.83273285  1
  O  O83  1  0.11132945  0.37543293  0.17608733  1
  O  O84  1  0.25522629  0.08227729  0.15597814  1
  O  O85  1  0.25090867  0.00100794  0.93371157  1
  O  O86  1  0.20256634  0.01735658  0.75842735  1
  O  O87  1  0.08397069  0.25958970  0.65821653  1
  O  O88  1  0.98088089  0.22390345  0.43120383  1
  O  O89  1  0.00602532  0.20496411  0.24983591  1
