# generated using pymatgen
data_Li5V7O12
_symmetry_space_group_name_H-M   'P 1'
_cell_length_a   5.13543485
_cell_length_b   5.20540781
_cell_length_c   9.94478012
_cell_angle_alpha   95.32532789
_cell_angle_beta   78.99936135
_cell_angle_gamma   119.50073566
_symmetry_Int_Tables_number   1
_chemical_formula_structural   Li5V7O12
_chemical_formula_sum   'Li5 V7 O12'
_cell_volume   227.12556845
_cell_formula_units_Z   1
loop_
 _symmetry_equiv_pos_site_id
 _symmetry_equiv_pos_as_xyz
  1  'x, y, z'
loop_
 _atom_site_type_symbol
 _atom_site_label
 _atom_site_symmetry_multiplicity
 _atom_site_fract_x
 _atom_site_fract_y
 _atom_site_fract_z
 _atom_site_occupancy
  Li  Li0  1  0.16145888  0.83116745  0.00345212  1
  Li  Li1  1  0.66928585  0.83295450  0.49497801  1
  Li  Li2  1  0.08210746  0.16464621  0.25061300  1
  Li  Li3  1  0.32715478  0.16458077  0.49388271  1
  Li  Li4  1  0.84002298  0.16207036  0.00811042  1
  V  V5  1  0.49333275  0.48872323  0.00008721  1
  V  V6  1  0.23625082  0.47343470  0.74982636  1
  V  V7  1  0.99598203  0.48962763  0.49937796  1
  V  V8  1  0.57468609  0.14797991  0.75021808  1
  V  V9  1  0.41899855  0.83955498  0.24991333  1
  V  V10  1  0.91337416  0.82830596  0.74988387  1
  V  V11  1  0.75023773  0.50049022  0.25027196  1
  O  O12  1  0.03776008  0.80953698  0.36991621  1
  O  O13  1  0.27777786  0.79661371  0.62578821  1
  O  O14  1  0.14532460  0.51700652  0.12862980  1
  O  O15  1  0.77188583  0.81035629  0.12941207  1
  O  O16  1  0.51740187  0.79543023  0.87450141  1
  O  O17  1  0.37228685  0.51773689  0.37157296  1
  O  O18  1  0.61920523  0.48679869  0.62648051  1
  O  O19  1  0.47300408  0.18284707  0.12907260  1
  O  O20  1  0.86755546  0.48666703  0.87381134  1
  O  O21  1  0.19896853  0.16356328  0.87857817  1
  O  O22  1  0.70916086  0.18182585  0.37074101  1
  O  O23  1  0.96441266  0.16380755  0.62079069  1
