# generated using pymatgen
data_Rb2PbCl5
_symmetry_space_group_name_H-M   'P 1'
_cell_length_a   9.02067853
_cell_length_b   9.88267540
_cell_length_c   12.43344606
_cell_angle_alpha   90.70568601
_cell_angle_beta   90.17176295
_cell_angle_gamma   89.76910213
_symmetry_Int_Tables_number   1
_chemical_formula_structural   Rb2PbCl5
_chemical_formula_sum   'Rb8 Pb4 Cl20'
_cell_volume   1108.32440379
_cell_formula_units_Z   4
loop_
 _symmetry_equiv_pos_site_id
 _symmetry_equiv_pos_as_xyz
  1  'x, y, z'
loop_
 _atom_site_type_symbol
 _atom_site_label
 _atom_site_symmetry_multiplicity
 _atom_site_fract_x
 _atom_site_fract_y
 _atom_site_fract_z
 _atom_site_occupancy
  Rb  Rb0  1  0.93686094  0.02757724  0.67044664  1
  Rb  Rb1  1  0.06313906  0.97242276  0.32955336  1
  Rb  Rb2  1  0.43734313  0.97258079  0.83007853  1
  Rb  Rb3  1  0.56265687  0.02741921  0.16992147  1
  Rb  Rb4  1  0.92281253  0.75767168  0.99702608  1
  Rb  Rb5  1  0.07718747  0.24232832  0.00297392  1
  Rb  Rb6  1  0.42270920  0.24304527  0.50291070  1
  Rb  Rb7  1  0.57729080  0.75695473  0.49708930  1
  Pb  Pb8  1  0.08461150  0.52057057  0.67809731  1
  Pb  Pb9  1  0.91538850  0.47942943  0.32190269  1
  Pb  Pb10  1  0.58454814  0.47951687  0.82194047  1
  Pb  Pb11  1  0.41545186  0.52048313  0.17805953  1
  Cl  Cl12  1  0.87648074  0.46408979  0.86452900  1
  Cl  Cl13  1  0.12351926  0.53591021  0.13547100  1
  Cl  Cl14  1  0.37638569  0.53592368  0.63549644  1
  Cl  Cl15  1  0.62361431  0.46407632  0.36450356  1
  Cl  Cl16  1  0.13440520  0.74338922  0.79068276  1
  Cl  Cl17  1  0.86559480  0.25661078  0.20931724  1
  Cl  Cl18  1  0.63431475  0.25683085  0.70912968  1
  Cl  Cl19  1  0.36568525  0.74316915  0.29087032  1
  Cl  Cl20  1  0.67523456  0.73091342  0.75236422  1
  Cl  Cl21  1  0.32476544  0.26908658  0.24763578  1
  Cl  Cl22  1  0.17537208  0.26896430  0.74761876  1
  Cl  Cl23  1  0.82462792  0.73103570  0.25238124  1
  Cl  Cl24  1  0.53745424  0.67121338  0.01244789  1
  Cl  Cl25  1  0.46254576  0.32878662  0.98755211  1
  Cl  Cl26  1  0.03749320  0.32869334  0.48757448  1
  Cl  Cl27  1  0.96250680  0.67130666  0.51242552  1
  Cl  Cl28  1  0.28604039  0.96268964  0.57406281  1
  Cl  Cl29  1  0.71395961  0.03731036  0.42593719  1
  Cl  Cl30  1  0.78583637  0.03687897  0.92608061  1
  Cl  Cl31  1  0.21416363  0.96312103  0.07391939  1
