# generated using pymatgen
data_Li5V3P8O29
_symmetry_space_group_name_H-M   'P 1'
_cell_length_a   9.77937912
_cell_length_b   9.79763286
_cell_length_c   13.98574200
_cell_angle_alpha   90.22806917
_cell_angle_beta   90.21346163
_cell_angle_gamma   60.06453458
_symmetry_Int_Tables_number   1
_chemical_formula_structural   Li5V3P8O29
_chemical_formula_sum   'Li10 V6 P16 O58'
_cell_volume   1161.25159836
_cell_formula_units_Z   2
loop_
 _symmetry_equiv_pos_site_id
 _symmetry_equiv_pos_as_xyz
  1  'x, y, z'
loop_
 _atom_site_type_symbol
 _atom_site_label
 _atom_site_symmetry_multiplicity
 _atom_site_fract_x
 _atom_site_fract_y
 _atom_site_fract_z
 _atom_site_occupancy
  Li  Li0  1  0.77386640  0.90465519  0.55526987  1
  Li  Li1  1  0.90603087  0.32460506  0.55983262  1
  Li  Li2  1  0.76512547  0.33846730  0.06096978  1
  Li  Li3  1  0.33296953  0.90410131  0.06124139  1
  Li  Li4  1  0.67913561  0.22589467  0.43817353  1
  Li  Li5  1  0.31294599  0.77365028  0.55929363  1
  Li  Li6  1  0.66923868  0.09372751  0.94063693  1
  Li  Li7  1  0.23437628  0.66329648  0.94244729  1
  Li  Li8  1  0.22868993  0.09333355  0.43906324  1
  Li  Li9  1  0.99977719  0.00137840  0.00446364  1
  V  V10  1  0.56706227  0.43407161  0.25243650  1
  V  V11  1  0.43119527  0.56756833  0.74727744  1
  V  V12  1  0.56653344  0.99675542  0.75026946  1
  V  V13  1  0.43298434  0.00046838  0.24844391  1
  V  V14  1  0.99762316  0.57061544  0.24743250  1
  V  V15  1  0.00465668  0.43373162  0.75612913  1
  P  P16  1  0.91748155  0.77573648  0.84354085  1
  P  P17  1  0.77100736  0.91084913  0.33829814  1
  P  P18  1  0.91517500  0.31902605  0.34393274  1
  P  P19  1  0.66761306  0.66425284  0.12714331  1
  P  P20  1  0.66934546  0.66398941  0.62947381  1
  P  P21  1  0.77182532  0.31631173  0.84083031  1
  P  P22  1  0.68052924  0.22991176  0.65770364  1
  P  P23  1  0.31461430  0.91125466  0.84353228  1
  P  P24  1  0.68506997  0.08995528  0.15617933  1
  P  P25  1  0.31899542  0.77027926  0.34320512  1
  P  P26  1  0.22689526  0.68552687  0.15996114  1
  P  P27  1  0.33034615  0.33319748  0.37032187  1
  P  P28  1  0.33559114  0.33466843  0.87261686  1
  P  P29  1  0.08294011  0.68485997  0.65536543  1
  P  P30  1  0.22957149  0.08912570  0.66053554  1
  P  P31  1  0.08312346  0.22604145  0.15824170  1
  O  O32  1  0.99034070  0.76488308  0.56860159  1
  O  O33  1  0.91587275  0.74394035  0.33487753  1
  O  O34  1  0.77303139  0.01701129  0.06553071  1
  O  O35  1  0.74795597  0.91546830  0.84190891  1
  O  O36  1  0.91569517  0.61730324  0.82983441  1
  O  O37  1  0.81306952  0.66883309  0.17554966  1
  O  O38  1  0.90500977  0.47777563  0.32347898  1
  O  O39  1  0.99124304  0.21291459  0.07587631  1
  O  O40  1  0.91656072  0.34136963  0.83446634  1
  O  O41  1  0.67301784  0.81426910  0.67005536  1
  O  O42  1  0.61913817  0.90295406  0.32139029  1
  O  O43  1  0.81640161  0.51436713  0.67415131  1
  O  O44  1  0.67397406  0.66124746  0.02055042  1
  O  O45  1  0.67418963  0.65905735  0.52279268  1
  O  O46  1  0.67763061  0.51019962  0.16730182  1
  O  O47  1  0.47204621  0.90874222  0.83074026  1
  O  O48  1  0.51273645  0.81057575  0.16551580  1
  O  O49  1  0.74968580  0.33501805  0.34379236  1
  O  O50  1  0.79201545  0.20689015  0.74885195  1
  O  O51  1  0.75605784  0.24526310  0.56794516  1
  O  O52  1  0.77953293  0.22583574  0.92982199  1
  O  O53  1  0.61887350  0.47171490  0.82898733  1
  O  O54  1  0.51370962  0.67342372  0.66787526  1
  O  O55  1  0.65963658  0.25988363  0.16421645  1
  O  O56  1  0.47972514  0.62004221  0.32181593  1
  O  O57  1  0.33814088  0.91804890  0.33941416  1
  O  O58  1  0.79331325  0.00121024  0.24877455  1
  O  O59  1  0.75992878  0.99895887  0.42910661  1
  O  O60  1  0.23959704  0.00181007  0.56989695  1
  O  O61  1  0.66285860  0.08274026  0.65712354  1
  O  O62  1  0.52015768  0.38008250  0.67705178  1
  O  O63  1  0.33972209  0.74162172  0.83594256  1
  O  O64  1  0.48544867  0.32787254  0.33352227  1
  O  O65  1  0.38016335  0.52960390  0.16998176  1
  O  O66  1  0.21906433  0.77717488  0.07078307  1
  O  O67  1  0.24756195  0.75932517  0.43408497  1
  O  O68  1  0.20741385  0.79362113  0.25184259  1
  O  O69  1  0.25090808  0.66296602  0.65662399  1
  O  O70  1  0.48886511  0.18680810  0.83307526  1
  O  O71  1  0.52895335  0.09193581  0.16902843  1
  O  O72  1  0.32328184  0.48917323  0.83272636  1
  O  O73  1  0.32815161  0.33688088  0.97899806  1
  O  O74  1  0.32469429  0.33482221  0.47690971  1
  O  O75  1  0.18457629  0.47702056  0.32015148  1
  O  O76  1  0.37796136  0.10184913  0.67817656  1
  O  O77  1  0.32665707  0.18388089  0.33045257  1
  O  O78  1  0.08254871  0.66069659  0.16449490  1
  O  O79  1  0.99907612  0.79335284  0.74831110  1
  O  O80  1  0.00831111  0.78086741  0.92811688  1
  O  O81  1  0.09143931  0.52466273  0.67772822  1
  O  O82  1  0.18832367  0.32955444  0.82491700  1
  O  O83  1  0.08185722  0.38304034  0.16868582  1
  O  O84  1  0.25447661  0.08442020  0.15835402  1
  O  O85  1  0.22936133  0.98467325  0.93470750  1
  O  O86  1  0.20601687  0.00096776  0.75117613  1
  O  O87  1  0.08092270  0.25615139  0.66181070  1
  O  O88  1  0.00292281  0.24442545  0.43526717  1
  O  O89  1  0.00847921  0.20330216  0.25647158  1
