# generated using pymatgen
data_LiVF3
_symmetry_space_group_name_H-M   'P 1'
_cell_length_a   5.45576582
_cell_length_b   7.83429596
_cell_length_c   5.36671107
_cell_angle_alpha   90.00000000
_cell_angle_beta   90.00000000
_cell_angle_gamma   90.00000000
_symmetry_Int_Tables_number   1
_chemical_formula_structural   LiVF3
_chemical_formula_sum   'Li4 V4 F12'
_cell_volume   229.38441601
_cell_formula_units_Z   4
loop_
 _symmetry_equiv_pos_site_id
 _symmetry_equiv_pos_as_xyz
  1  'x, y, z'
loop_
 _atom_site_type_symbol
 _atom_site_label
 _atom_site_symmetry_multiplicity
 _atom_site_fract_x
 _atom_site_fract_y
 _atom_site_fract_z
 _atom_site_occupancy
  Li  Li0  1  0.01564512  0.25000000  0.01292081  1
  Li  Li1  1  0.48435488  0.75000000  0.51292081  1
  Li  Li2  1  0.51564512  0.25000000  0.48707919  1
  Li  Li3  1  0.98435488  0.75000000  0.98707919  1
  V  V4  1  0.00000000  0.00000000  0.50000000  1
  V  V5  1  0.00000000  0.50000000  0.50000000  1
  V  V6  1  0.50000000  0.00000000  0.00000000  1
  V  V7  1  0.50000000  0.50000000  0.00000000  1
  F  F8  1  0.09370082  0.75000000  0.63675944  1
  F  F9  1  0.16632749  0.57448979  0.16244326  1
  F  F10  1  0.16632749  0.92551021  0.16244326  1
  F  F11  1  0.33367251  0.07448979  0.66244326  1
  F  F12  1  0.33367251  0.42551021  0.66244326  1
  F  F13  1  0.40629918  0.25000000  0.13675944  1
  F  F14  1  0.59370082  0.75000000  0.86324056  1
  F  F15  1  0.66632749  0.92551021  0.33755674  1
  F  F16  1  0.66632749  0.57448979  0.33755674  1
  F  F17  1  0.83367251  0.07448979  0.83755674  1
  F  F18  1  0.83367251  0.42551021  0.83755674  1
  F  F19  1  0.90629918  0.25000000  0.36324056  1
