# generated using pymatgen
data_Li9V3P8O29
_symmetry_space_group_name_H-M   'P 1'
_cell_length_a   9.86166724
_cell_length_b   9.84333756
_cell_length_c   13.71233430
_cell_angle_alpha   90.21991166
_cell_angle_beta   89.96124495
_cell_angle_gamma   60.12245279
_symmetry_Int_Tables_number   1
_chemical_formula_structural   Li9V3P8O29
_chemical_formula_sum   'Li18 V6 P16 O58'
_cell_volume   1154.15509893
_cell_formula_units_Z   2
loop_
 _symmetry_equiv_pos_site_id
 _symmetry_equiv_pos_as_xyz
  1  'x, y, z'
loop_
 _atom_site_type_symbol
 _atom_site_label
 _atom_site_symmetry_multiplicity
 _atom_site_fract_x
 _atom_site_fract_y
 _atom_site_fract_z
 _atom_site_occupancy
  Li  Li0  1  0.90363566  0.75902671  0.07214873  1
  Li  Li1  1  0.76175275  0.89780290  0.56229424  1
  Li  Li2  1  0.89967349  0.34057745  0.56164397  1
  Li  Li3  1  0.68278084  0.65814455  0.37720109  1
  Li  Li4  1  0.66555068  0.66758919  0.88201272  1
  Li  Li5  1  0.76931441  0.33165940  0.06653407  1
  Li  Li6  1  0.33300764  0.90092201  0.06481986  1
  Li  Li7  1  0.65974877  0.23742614  0.43228131  1
  Li  Li8  1  0.34048359  0.76130056  0.56355318  1
  Li  Li9  1  0.66685883  0.09898912  0.93823794  1
  Li  Li10  1  0.23415044  0.66804227  0.93943944  1
  Li  Li11  1  0.33362656  0.33243307  0.61830552  1
  Li  Li12  1  0.31535832  0.34730448  0.12261336  1
  Li  Li13  1  0.09752069  0.65576481  0.42539476  1
  Li  Li14  1  0.23583893  0.10533691  0.43308365  1
  Li  Li15  1  0.00126103  0.56559245  0.24865194  1
  Li  Li16  1  0.09756323  0.23534250  0.93986346  1
  Li  Li17  1  0.00325749  0.99914893  0.00547945  1
  V  V18  1  0.56388724  0.43631305  0.24832869  1
  V  V19  1  0.43562225  0.56483247  0.75075518  1
  V  V20  1  0.56518375  0.99907627  0.75048270  1
  V  V21  1  0.43534780  0.00158758  0.24995254  1
  V  V22  1  0.99929913  0.43625637  0.75079607  1
  V  V23  1  0.99720594  0.00127156  0.49592920  1
  P  P24  1  0.91029725  0.77525550  0.84587988  1
  P  P25  1  0.77870684  0.90994845  0.34452250  1
  P  P26  1  0.90785681  0.31464800  0.34477279  1
  P  P27  1  0.66562095  0.67149498  0.12493363  1
  P  P28  1  0.66645237  0.66657877  0.62334994  1
  P  P29  1  0.77389110  0.31593940  0.84546068  1
  P  P30  1  0.68863661  0.22153576  0.65514480  1
  P  P31  1  0.31538827  0.91057712  0.84516529  1
  P  P32  1  0.68538654  0.08783194  0.15562136  1
  P  P33  1  0.31180141  0.77878119  0.34349037  1
  P  P34  1  0.22499348  0.68440314  0.15379356  1
  P  P35  1  0.33816077  0.33265641  0.37566547  1
  P  P36  1  0.33360242  0.33338393  0.87583257  1
  P  P37  1  0.08949654  0.68893587  0.65470740  1
  P  P38  1  0.22224866  0.08946718  0.65535318  1
  P  P39  1  0.09263080  0.22711152  0.15549171  1
  O  O40  1  0.99695920  0.78888481  0.56648239  1
  O  O41  1  0.91925412  0.75001243  0.34877343  1
  O  O42  1  0.77287571  0.99387641  0.06577737  1
  O  O43  1  0.74948349  0.92368441  0.84546433  1
  O  O44  1  0.89012990  0.62991943  0.83463280  1
  O  O45  1  0.80488346  0.68217896  0.16004525  1
  O  O46  1  0.89203776  0.47422588  0.34595330  1
  O  O47  1  0.00008757  0.21884037  0.06754326  1
  O  O48  1  0.92297543  0.32759725  0.84574316  1
  O  O49  1  0.67725098  0.80988395  0.66327567  1
  O  O50  1  0.62498769  0.90304190  0.33610230  1
  O  O51  1  0.81016488  0.51320318  0.66229101  1
  O  O52  1  0.64428284  0.67702319  0.01525142  1
  O  O53  1  0.66396494  0.66841892  0.51335962  1
  O  O54  1  0.66729206  0.52082902  0.16471638  1
  O  O55  1  0.47985056  0.89071237  0.83343898  1
  O  O56  1  0.51068831  0.81930524  0.17036465  1
  O  O57  1  0.74807150  0.32239288  0.34234684  1
  O  O58  1  0.78795488  0.21211107  0.75002742  1
  O  O59  1  0.78818822  0.21532238  0.56651718  1
  O  O60  1  0.76921445  0.22633893  0.93403994  1
  O  O61  1  0.62940924  0.48027042  0.83385493  1
  O  O62  1  0.51324923  0.67647493  0.66357073  1
  O  O63  1  0.66900622  0.25050308  0.15312092  1
  O  O64  1  0.47246419  0.63073266  0.34007833  1
  O  O65  1  0.32927465  0.92573916  0.34466806  1
  O  O66  1  0.78904669  0.00163372  0.25004743  1
  O  O67  1  0.77749711  0.00907926  0.43404913  1
  O  O68  1  0.21575697  0.99674316  0.56611509  1
  O  O69  1  0.67373785  0.07432235  0.65470207  1
  O  O70  1  0.52695462  0.36919416  0.66104792  1
  O  O71  1  0.32617721  0.75014170  0.84502131  1
  O  O72  1  0.49252456  0.31994932  0.33650900  1
  O  O73  1  0.37288309  0.52087407  0.16701800  1
  O  O74  1  0.23807083  0.77281412  0.06584591  1
  O  O75  1  0.21047160  0.78965842  0.43292506  1
  O  O76  1  0.21289844  0.78953956  0.24963421  1
  O  O77  1  0.25216475  0.67261656  0.65452105  1
  O  O78  1  0.48621757  0.18921390  0.83494088  1
  O  O79  1  0.52103295  0.10464849  0.16767615  1
  O  O80  1  0.32483339  0.48653159  0.83585955  1
  O  O81  1  0.33570842  0.33228999  0.98555773  1
  O  O82  1  0.34642777  0.30943497  0.48545042  1
  O  O83  1  0.19748608  0.48091993  0.34084924  1
  O  O84  1  0.36986961  0.10349940  0.66180896  1
  O  O85  1  0.33451763  0.18187913  0.33114029  1
  O  O86  1  0.07985718  0.67268729  0.15153110  1
  O  O87  1  0.99948446  0.78815804  0.74992793  1
  O  O88  1  0.00491202  0.77172793  0.93380958  1
  O  O89  1  0.10385785  0.52653940  0.66033520  1
  O  O90  1  0.18854491  0.32539169  0.83605419  1
  O  O91  1  0.11332401  0.36805586  0.16118774  1
  O  O92  1  0.25307663  0.07249420  0.15843045  1
  O  O93  1  0.22543558  0.00571363  0.93372790  1
  O  O94  1  0.21228202  0.99949217  0.74989030  1
  O  O95  1  0.07528984  0.25157630  0.65495010  1
  O  O96  1  0.00112688  0.20722510  0.43271983  1
  O  O97  1  0.00112569  0.21414346  0.25028942  1
