# generated using pymatgen
data_V6O5F19
_symmetry_space_group_name_H-M   'P 1'
_cell_length_a   5.47974092
_cell_length_b   5.30199263
_cell_length_c   14.91029021
_cell_angle_alpha   89.74223646
_cell_angle_beta   100.41220944
_cell_angle_gamma   91.28735300
_symmetry_Int_Tables_number   1
_chemical_formula_structural   V6O5F19
_chemical_formula_sum   'V6 O5 F19'
_cell_volume   425.95575845
_cell_formula_units_Z   1
loop_
 _symmetry_equiv_pos_site_id
 _symmetry_equiv_pos_as_xyz
  1  'x, y, z'
loop_
 _atom_site_type_symbol
 _atom_site_label
 _atom_site_symmetry_multiplicity
 _atom_site_fract_x
 _atom_site_fract_y
 _atom_site_fract_z
 _atom_site_occupancy
  V  V0  1  0.95745558  0.03057577  0.99637717  1
  V  V1  1  0.19595787  0.45911252  0.32952281  1
  V  V2  1  0.31848593  0.99281211  0.66745781  1
  V  V3  1  0.46962617  0.54022850  0.00346619  1
  V  V4  1  0.70876110  0.96869181  0.33709629  1
  V  V5  1  0.79093103  0.47784075  0.66394919  1
  O  O6  1  0.36115833  0.22213570  0.31100433  1
  O  O7  1  0.53590932  0.30010703  0.64450426  1
  O  O8  1  0.71320445  0.20274883  0.97789099  1
  O  O9  1  0.30413012  0.77740910  0.02175841  1
  O  O10  1  0.95420468  0.79819006  0.35604164  1
  F  F11  1  0.01585785  0.20080215  0.64016728  1
  F  F12  1  0.20340168  0.28761569  0.97429544  1
  F  F13  1  0.14548852  0.69898301  0.69011368  1
  F  F14  1  0.06636903  0.07266441  0.11493102  1
  F  F15  1  0.19522413  0.43391885  0.44821184  1
  F  F16  1  0.37615267  0.09316023  0.78234000  1
  F  F17  1  0.11500587  0.59551845  0.21952340  1
  F  F18  1  0.30676056  0.92483674  0.55081117  1
  F  F19  1  0.47464476  0.56800414  0.88520921  1
  F  F20  1  0.46475089  0.71161640  0.35886548  1
  F  F21  1  0.64010308  0.78625472  0.69305244  1
  F  F22  1  0.55187194  0.40634764  0.11389121  1
  F  F23  1  0.70282880  0.09588888  0.44668238  1
  F  F24  1  0.89789701  0.41938353  0.78097272  1
  F  F25  1  0.60260771  0.92794631  0.21839444  1
  F  F26  1  0.80093436  0.59856652  0.55380748  1
  F  F27  1  0.96344284  0.90779337  0.88620663  1
  F  F28  1  0.87066344  0.28605186  0.30829027  1
  F  F29  1  0.79617330  0.71479592  0.02516382  1
