# generated using pymatgen
data_Ba2CaI6
_symmetry_space_group_name_H-M   'P 1'
_cell_length_a   10.73390459
_cell_length_b   9.64968566
_cell_length_c   15.15839982
_cell_angle_alpha   90.00000000
_cell_angle_beta   88.42118695
_cell_angle_gamma   90.00000000
_symmetry_Int_Tables_number   1
_chemical_formula_structural   Ba2CaI6
_chemical_formula_sum   'Ba8 Ca4 I24'
_cell_volume   1569.49289183
_cell_formula_units_Z   4
loop_
 _symmetry_equiv_pos_site_id
 _symmetry_equiv_pos_as_xyz
  1  'x, y, z'
loop_
 _atom_site_type_symbol
 _atom_site_label
 _atom_site_symmetry_multiplicity
 _atom_site_fract_x
 _atom_site_fract_y
 _atom_site_fract_z
 _atom_site_occupancy
  Ba  Ba0  1  0.11454362  0.78820583  0.59493919  1
  Ba  Ba1  1  0.14733014  0.60357378  0.20924969  1
  Ba  Ba2  1  0.35266986  0.10357378  0.29075031  1
  Ba  Ba3  1  0.38545638  0.28820583  0.90506081  1
  Ba  Ba4  1  0.61454362  0.71179417  0.09493919  1
  Ba  Ba5  1  0.64733014  0.89642622  0.70924969  1
  Ba  Ba6  1  0.85266986  0.39642622  0.79075031  1
  Ba  Ba7  1  0.88545638  0.21179417  0.40506081  1
  Ca  Ca8  1  0.14005026  0.85457134  0.93023267  1
  Ca  Ca9  1  0.35994974  0.35457134  0.56976733  1
  Ca  Ca10  1  0.64005026  0.64542866  0.43023267  1
  Ca  Ca11  1  0.85994974  0.14542866  0.06976733  1
  I  I12  1  0.05985757  0.16472220  0.91378602  1
  I  I13  1  0.06739120  0.23915232  0.20244784  1
  I  I14  1  0.06902011  0.89258428  0.36386580  1
  I  I15  1  0.18458234  0.55408680  0.97819023  1
  I  I16  1  0.16341221  0.43924779  0.42581925  1
  I  I17  1  0.17617249  0.44171405  0.71914503  1
  I  I18  1  0.32382751  0.94171405  0.78085497  1
  I  I19  1  0.31541766  0.05408680  0.52180977  1
  I  I20  1  0.33658779  0.93924779  0.07418075  1
  I  I21  1  0.43097989  0.39258428  0.13613420  1
  I  I22  1  0.43260880  0.73915232  0.29755216  1
  I  I23  1  0.44014243  0.66472220  0.58621398  1
  I  I24  1  0.55985757  0.33527780  0.41378602  1
  I  I25  1  0.56739120  0.26084768  0.70244784  1
  I  I26  1  0.56902011  0.60741572  0.86386580  1
  I  I27  1  0.66341221  0.06075221  0.92581925  1
  I  I28  1  0.68458234  0.94591320  0.47819023  1
  I  I29  1  0.67617249  0.05828595  0.21914503  1
  I  I30  1  0.82382751  0.55828595  0.28085497  1
  I  I31  1  0.83658779  0.56075221  0.57418075  1
  I  I32  1  0.81541766  0.44591320  0.02180977  1
  I  I33  1  0.93097989  0.10741572  0.63613420  1
  I  I34  1  0.93260880  0.76084768  0.79755216  1
  I  I35  1  0.94014243  0.83527780  0.08621398  1
