# generated using pymatgen
data_H16PdC4S4(N4Cl)2
_symmetry_space_group_name_H-M   'P 1'
_cell_length_a   10.28404692
_cell_length_b   10.28404692
_cell_length_c   8.96802810
_cell_angle_alpha   88.04511071
_cell_angle_beta   91.95488929
_cell_angle_gamma   112.86808612
_symmetry_Int_Tables_number   1
_chemical_formula_structural   H16PdC4S4(N4Cl)2
_chemical_formula_sum   'H32 Pd2 C8 S8 N16 Cl4'
_cell_volume   873.19243362
_cell_formula_units_Z   2
loop_
 _symmetry_equiv_pos_site_id
 _symmetry_equiv_pos_as_xyz
  1  'x, y, z'
loop_
 _atom_site_type_symbol
 _atom_site_label
 _atom_site_symmetry_multiplicity
 _atom_site_fract_x
 _atom_site_fract_y
 _atom_site_fract_z
 _atom_site_occupancy
  H  H0  1  0.06139296  0.67059091  0.63488310  1
  H  H1  1  0.32940909  0.93860704  0.13488310  1
  H  H2  1  0.38630413  0.86864934  0.82994104  1
  H  H3  1  0.20675788  0.65827010  0.73116644  1
  H  H4  1  0.13135066  0.61369587  0.32994104  1
  H  H5  1  0.34172990  0.79324212  0.23116644  1
  H  H6  1  0.02352908  0.35196603  0.67965200  1
  H  H7  1  0.64803397  0.97647092  0.17965200  1
  H  H8  1  0.39934286  0.59181738  0.55083108  1
  H  H9  1  0.48119104  0.66894502  0.72045337  1
  H  H10  1  0.40818262  0.60065714  0.05083108  1
  H  H11  1  0.33105498  0.51880896  0.22045337  1
  H  H12  1  0.70310645  0.84403190  0.72481434  1
  H  H13  1  0.78843557  0.91349544  0.55508284  1
  H  H14  1  0.15596810  0.29689355  0.22481434  1
  H  H15  1  0.08650456  0.21156443  0.05508284  1
  H  H16  1  0.91349544  0.78843557  0.94491716  1
  H  H17  1  0.84403190  0.70310645  0.77518566  1
  H  H18  1  0.21156443  0.08650456  0.44491716  1
  H  H19  1  0.29689355  0.15596810  0.27518566  1
  H  H20  1  0.66894502  0.48119104  0.77954663  1
  H  H21  1  0.59181738  0.39934286  0.94916892  1
  H  H22  1  0.51880896  0.33105498  0.27954663  1
  H  H23  1  0.60065714  0.40818262  0.44916892  1
  H  H24  1  0.35196603  0.02352908  0.82034800  1
  H  H25  1  0.97647092  0.64803397  0.32034800  1
  H  H26  1  0.65827010  0.20675788  0.76883356  1
  H  H27  1  0.86864934  0.38630413  0.67005896  1
  H  H28  1  0.79324212  0.34172990  0.26883356  1
  H  H29  1  0.61369587  0.13135066  0.17005896  1
  H  H30  1  0.67059091  0.06139296  0.86511690  1
  H  H31  1  0.93860704  0.32940909  0.36511690  1
  Pd  Pd32  1  0.17691356  0.17691356  0.75000000  1
  Pd  Pd33  1  0.82308644  0.82308644  0.25000000  1
  C  C34  1  0.20220973  0.85747180  0.71745206  1
  C  C35  1  0.14252820  0.79779027  0.21745206  1
  C  C36  1  0.59496085  0.75409592  0.53361266  1
  C  C37  1  0.24590408  0.40503915  0.03361266  1
  C  C38  1  0.75409592  0.59496085  0.96638734  1
  C  C39  1  0.40503915  0.24590408  0.46638734  1
  C  C40  1  0.85747180  0.20220973  0.78254794  1
  C  C41  1  0.79779027  0.14252820  0.28254794  1
  S  S42  1  0.09567765  0.94590750  0.65581864  1
  S  S43  1  0.05409250  0.90432235  0.15581864  1
  S  S44  1  0.25395789  0.41042765  0.84033684  1
  S  S45  1  0.58957235  0.74604211  0.34033684  1
  S  S46  1  0.41042765  0.25395789  0.65966316  1
  S  S47  1  0.74604211  0.58957235  0.15966316  1
  S  S48  1  0.94590750  0.09567765  0.84418136  1
  S  S49  1  0.90432235  0.05409250  0.34418136  1
  N  N50  1  0.32225338  0.92040116  0.79340629  1
  N  N51  1  0.07959884  0.67774662  0.29340629  1
  N  N52  1  0.15752054  0.72031073  0.68710169  1
  N  N53  1  0.27968927  0.84247946  0.18710169  1
  N  N54  1  0.48270411  0.66562884  0.60654556  1
  N  N55  1  0.33437116  0.51729589  0.10654556  1
  N  N56  1  0.70430168  0.84311878  0.61071707  1
  N  N57  1  0.15688122  0.29569832  0.11071707  1
  N  N58  1  0.84311878  0.70430168  0.88928293  1
  N  N59  1  0.29569832  0.15688122  0.38928293  1
  N  N60  1  0.66562884  0.48270411  0.89345444  1
  N  N61  1  0.51729589  0.33437116  0.39345444  1
  N  N62  1  0.72031073  0.15752054  0.81289831  1
  N  N63  1  0.84247946  0.27968927  0.31289831  1
  N  N64  1  0.92040116  0.32225338  0.70659371  1
  N  N65  1  0.67774662  0.07959884  0.20659371  1
  Cl  Cl66  1  0.55081129  0.81589542  0.94207311  1
  Cl  Cl67  1  0.18410458  0.44918871  0.44207311  1
  Cl  Cl68  1  0.81589542  0.55081129  0.55792689  1
  Cl  Cl69  1  0.44918871  0.18410458  0.05792689  1
