# generated using pymatgen
data_Li4Si3(NiO5)2
_symmetry_space_group_name_H-M   'P 1'
_cell_length_a   5.30826090
_cell_length_b   5.30826090
_cell_length_c   16.68138270
_cell_angle_alpha   82.92518105
_cell_angle_beta   97.07481895
_cell_angle_gamma   118.02765886
_symmetry_Int_Tables_number   1
_chemical_formula_structural   Li4Si3(NiO5)2
_chemical_formula_sum   'Li8 Si6 Ni4 O20'
_cell_volume   410.61142466
_cell_formula_units_Z   2
loop_
 _symmetry_equiv_pos_site_id
 _symmetry_equiv_pos_as_xyz
  1  'x, y, z'
loop_
 _atom_site_type_symbol
 _atom_site_label
 _atom_site_symmetry_multiplicity
 _atom_site_fract_x
 _atom_site_fract_y
 _atom_site_fract_z
 _atom_site_occupancy
  Li  Li0  1  0.16888891  0.67786759  0.94659119  1
  Li  Li1  1  0.42363312  0.79321159  0.76979120  1
  Li  Li2  1  0.32213241  0.83111109  0.44659119  1
  Li  Li3  1  0.20678841  0.57636688  0.26979120  1
  Li  Li4  1  0.79321159  0.42363312  0.73020880  1
  Li  Li5  1  0.67786759  0.16888891  0.55340881  1
  Li  Li6  1  0.57636688  0.20678841  0.23020880  1
  Li  Li7  1  0.83111109  0.32213241  0.05340881  1
  Si  Si8  1  0.33819239  0.46956520  0.59805708  1
  Si  Si9  1  0.11318326  0.11318326  0.75000000  1
  Si  Si10  1  0.46956520  0.33819239  0.90194292  1
  Si  Si11  1  0.53043480  0.66180761  0.09805708  1
  Si  Si12  1  0.88681674  0.88681674  0.25000000  1
  Si  Si13  1  0.66180761  0.53043480  0.40194292  1
  Ni  Ni14  1  0.80634817  0.00069698  0.91901601  1
  Ni  Ni15  1  0.99930302  0.19365183  0.41901601  1
  Ni  Ni16  1  0.00069698  0.80634817  0.58098399  1
  Ni  Ni17  1  0.19365183  0.99930302  0.08098399  1
  O  O18  1  0.07661148  0.84019446  0.70736907  1
  O  O19  1  0.15980554  0.92338852  0.20736907  1
  O  O20  1  0.36979241  0.78335885  0.56551294  1
  O  O21  1  0.44693724  0.63751774  0.88994264  1
  O  O22  1  0.20918708  0.40967347  0.68888603  1
  O  O23  1  0.21599833  0.08743849  0.95494517  1
  O  O24  1  0.08743849  0.21599833  0.54505483  1
  O  O25  1  0.21664115  0.63020759  0.06551294  1
  O  O26  1  0.36248226  0.55306276  0.38994264  1
  O  O27  1  0.40967347  0.20918708  0.81111397  1
  O  O28  1  0.59032653  0.79081292  0.18888603  1
  O  O29  1  0.63751774  0.44693724  0.61005736  1
  O  O30  1  0.78335885  0.36979241  0.93448706  1
  O  O31  1  0.91256151  0.78400167  0.45494517  1
  O  O32  1  0.78400167  0.91256151  0.04505483  1
  O  O33  1  0.79081292  0.59032653  0.31111397  1
  O  O34  1  0.55306276  0.36248226  0.11005736  1
  O  O35  1  0.63020759  0.21664115  0.43448706  1
  O  O36  1  0.84019446  0.07661148  0.79263093  1
  O  O37  1  0.92338852  0.15980554  0.29263093  1
