# generated using pymatgen
data_LiFeSiO4
_symmetry_space_group_name_H-M   'P 1'
_cell_length_a   18.74725086
_cell_length_b   8.25210403
_cell_length_c   5.47462112
_cell_angle_alpha   90.00004856
_cell_angle_beta   90.00025942
_cell_angle_gamma   89.98416705
_symmetry_Int_Tables_number   1
_chemical_formula_structural   LiFeSiO4
_chemical_formula_sum   'Li12 Fe12 Si12 O48'
_cell_volume   846.94720058
_cell_formula_units_Z   12
loop_
 _symmetry_equiv_pos_site_id
 _symmetry_equiv_pos_as_xyz
  1  'x, y, z'
loop_
 _atom_site_type_symbol
 _atom_site_label
 _atom_site_symmetry_multiplicity
 _atom_site_fract_x
 _atom_site_fract_y
 _atom_site_fract_z
 _atom_site_occupancy
  Li  Li0  1  0.08257637  0.57652710  0.02047840  1
  Li  Li1  1  0.08447587  0.07713518  0.48380463  1
  Li  Li2  1  0.24901801  0.92032137  0.00598527  1
  Li  Li3  1  0.25100046  0.42030775  0.50595353  1
  Li  Li4  1  0.41554321  0.57714404  0.98382783  1
  Li  Li5  1  0.41742616  0.07652409  0.52045226  1
  Li  Li6  1  0.58258646  0.92347795  0.02048880  1
  Li  Li7  1  0.58447278  0.42286130  0.48379169  1
  Li  Li8  1  0.74900561  0.57967898  0.00594550  1
  Li  Li9  1  0.75098623  0.07969072  0.50597079  1
  Li  Li10  1  0.91553674  0.92286352  0.98380545  1
  Li  Li11  1  0.91742875  0.42346961  0.52043534  1
  Fe  Fe12  1  0.99967126  0.24925763  0.00110399  1
  Fe  Fe13  1  0.00029854  0.75076151  0.50127684  1
  Fe  Fe14  1  0.16687631  0.74831770  0.50952537  1
  Fe  Fe15  1  0.16628143  0.24977494  0.00739468  1
  Fe  Fe16  1  0.33359439  0.74970341  0.50733321  1
  Fe  Fe17  1  0.33309467  0.24829100  0.00942565  1
  Fe  Fe18  1  0.49967706  0.25073773  0.00117150  1
  Fe  Fe19  1  0.50031843  0.74927503  0.50125298  1
  Fe  Fe20  1  0.66686123  0.75166787  0.50941943  1
  Fe  Fe21  1  0.66633623  0.25026076  0.00721155  1
  Fe  Fe22  1  0.83361805  0.75025607  0.50720344  1
  Fe  Fe23  1  0.83309268  0.25170704  0.00958943  1
  Si  Si24  1  0.08262869  0.90250726  0.00243123  1
  Si  Si25  1  0.08349686  0.40286898  0.50686933  1
  Si  Si26  1  0.24984231  0.59565605  0.00953711  1
  Si  Si27  1  0.25033788  0.09566906  0.50952853  1
  Si  Si28  1  0.41643489  0.90283212  0.00692344  1
  Si  Si29  1  0.41730595  0.40249140  0.50237386  1
  Si  Si30  1  0.58271087  0.59749284  0.00243256  1
  Si  Si31  1  0.58359780  0.09715015  0.50687461  1
  Si  Si32  1  0.74969247  0.90436027  0.00951710  1
  Si  Si33  1  0.75017975  0.40431132  0.50953516  1
  Si  Si34  1  0.91648750  0.59715101  0.00689926  1
  Si  Si35  1  0.91735273  0.09750583  0.50238002  1
  O  O36  1  0.98879348  0.98636915  0.50060695  1
  O  O37  1  0.01121411  0.01363503  0.00058650  1
  O  O38  1  0.01270567  0.51567796  0.50272476  1
  O  O39  1  0.08333365  0.27609763  0.74668884  1
  O  O40  1  0.08303536  0.27783365  0.26341683  1
  O  O41  1  0.08332675  0.77672295  0.24518088  1
  O  O42  1  0.08325725  0.77621070  0.76210800  1
  O  O43  1  0.15376035  0.01510948  0.00965666  1
  O  O44  1  0.15540608  0.51344620  0.50868837  1
  O  O45  1  0.17816066  0.48485446  0.01069507  1
  O  O46  1  0.17919034  0.98311379  0.50900263  1
  O  O47  1  0.24989683  0.22237062  0.26879791  1
  O  O48  1  0.24979466  0.22153288  0.75142459  1
  O  O49  1  0.25010361  0.72238510  0.76877146  1
  O  O50  1  0.25020360  0.72152138  0.25149517  1
  O  O51  1  0.32077385  0.48321436  0.00902002  1
  O  O52  1  0.32182438  0.98489745  0.51068755  1
  O  O53  1  0.34463957  0.01340500  0.00867516  1
  O  O54  1  0.34627422  0.51504132  0.50966829  1
  O  O55  1  0.41675365  0.27616761  0.26206000  1
  O  O56  1  0.41668068  0.27668640  0.74512635  1
  O  O57  1  0.41698848  0.77780476  0.76344059  1
  O  O58  1  0.41668910  0.77604997  0.24675699  1
  O  O59  1  0.48732709  0.01572604  0.00270038  1
  O  O60  1  0.48884258  0.51368096  0.50060224  1
  O  O61  1  0.51116517  0.48628699  0.00057921  1
  O  O62  1  0.51267946  0.98428812  0.50272330  1
  O  O63  1  0.58330739  0.22392387  0.74671471  1
  O  O64  1  0.58301272  0.22217936  0.26341013  1
  O  O65  1  0.58332641  0.72329988  0.24518626  1
  O  O66  1  0.58325816  0.72381078  0.76209332  1
  O  O67  1  0.65372037  0.48498170  0.00965080  1
  O  O68  1  0.65537454  0.98658015  0.50868465  1
  O  O69  1  0.67819058  0.01508518  0.01068631  1
  O  O70  1  0.67924377  0.51681329  0.50900734  1
  O  O71  1  0.74980205  0.27846541  0.75146787  1
  O  O72  1  0.74990259  0.27762079  0.26877811  1
  O  O73  1  0.75020884  0.77845929  0.25144749  1
  O  O74  1  0.75010920  0.77761712  0.76878654  1
  O  O75  1  0.82082111  0.01686726  0.00900835  1
  O  O76  1  0.82185983  0.51517690  0.51068084  1
  O  O77  1  0.84460248  0.48657573  0.00866798  1
  O  O78  1  0.84623923  0.98488879  0.50964388  1
  O  O79  1  0.91674348  0.22381433  0.26205389  1
  O  O80  1  0.91667139  0.22329420  0.74513717  1
  O  O81  1  0.91696677  0.72218059  0.76344768  1
  O  O82  1  0.91666635  0.72392363  0.24672186  1
  O  O83  1  0.98730748  0.48430319  0.00269035  1
