# generated using pymatgen
data_Li5V3P8O29
_symmetry_space_group_name_H-M   'P 1'
_cell_length_a   9.81189099
_cell_length_b   9.77463813
_cell_length_c   14.07564511
_cell_angle_alpha   89.62182396
_cell_angle_beta   89.77359421
_cell_angle_gamma   60.12016672
_symmetry_Int_Tables_number   1
_chemical_formula_structural   Li5V3P8O29
_chemical_formula_sum   'Li10 V6 P16 O58'
_cell_volume   1170.48906752
_cell_formula_units_Z   2
loop_
 _symmetry_equiv_pos_site_id
 _symmetry_equiv_pos_as_xyz
  1  'x, y, z'
loop_
 _atom_site_type_symbol
 _atom_site_label
 _atom_site_symmetry_multiplicity
 _atom_site_fract_x
 _atom_site_fract_y
 _atom_site_fract_z
 _atom_site_occupancy
  Li  Li0  1  0.91044938  0.77616716  0.05731764  1
  Li  Li1  1  0.76703589  0.89666245  0.56116581  1
  Li  Li2  1  0.90780076  0.32856287  0.56062187  1
  Li  Li3  1  0.77412353  0.31100517  0.05748935  1
  Li  Li4  1  0.32050889  0.90549954  0.05836835  1
  Li  Li5  1  0.67121777  0.23409581  0.44217343  1
  Li  Li6  1  0.33947751  0.75995586  0.56265780  1
  Li  Li7  1  0.34166358  0.33177053  0.10851590  1
  Li  Li8  1  0.08455695  0.22508195  0.93662811  1
  Li  Li9  1  0.04395631  0.96355397  0.50264265  1
  V  V10  1  0.56214755  0.43652877  0.24899395  1
  V  V11  1  0.43142346  0.56841054  0.75274085  1
  V  V12  1  0.56764273  0.99859910  0.75146217  1
  V  V13  1  0.43019329  0.00047322  0.25108820  1
  V  V14  1  0.00103026  0.57048341  0.25769497  1
  V  V15  1  0.99739912  0.43628914  0.74600600  1
  P  P16  1  0.91240065  0.76773606  0.84263513  1
  P  P17  1  0.76825946  0.91810701  0.34260656  1
  P  P18  1  0.91406860  0.31060540  0.34318986  1
  P  P19  1  0.67119856  0.66598045  0.13019685  1
  P  P20  1  0.66485890  0.66885590  0.62774642  1
  P  P21  1  0.76814338  0.32006749  0.84118500  1
  P  P22  1  0.68331689  0.22993584  0.65930036  1
  P  P23  1  0.31855626  0.91156849  0.84333017  1
  P  P24  1  0.68220300  0.08868020  0.15821894  1
  P  P25  1  0.31283665  0.77092427  0.34420290  1
  P  P26  1  0.22448689  0.68537380  0.16154824  1
  P  P27  1  0.33392402  0.33139645  0.37105254  1
  P  P28  1  0.32992676  0.33183251  0.86869989  1
  P  P29  1  0.08529686  0.69360189  0.66004648  1
  P  P30  1  0.22524994  0.08292649  0.65924738  1
  P  P31  1  0.08954821  0.23273129  0.15868464  1
  O  O32  1  0.99396652  0.80201098  0.57932339  1
  O  O33  1  0.91539962  0.74915790  0.33439879  1
  O  O34  1  0.76893926  0.98892596  0.07684602  1
  O  O35  1  0.74386621  0.91483674  0.82876180  1
  O  O36  1  0.90018627  0.61933974  0.82078076  1
  O  O37  1  0.81988707  0.66055264  0.17846430  1
  O  O38  1  0.91540792  0.46874970  0.32685100  1
  O  O39  1  0.99693545  0.24950708  0.07048437  1
  O  O40  1  0.91815218  0.33554790  0.83512075  1
  O  O41  1  0.67525334  0.81401543  0.67054262  1
  O  O42  1  0.61924012  0.91005901  0.32788400  1
  O  O43  1  0.80872963  0.51168799  0.66659600  1
  O  O44  1  0.68681321  0.65917095  0.02504530  1
  O  O45  1  0.66858288  0.67567282  0.52166093  1
  O  O46  1  0.66405620  0.51717185  0.17087135  1
  O  O47  1  0.47990096  0.90131361  0.82155968  1
  O  O48  1  0.52053119  0.81562044  0.16638671  1
  O  O49  1  0.74630588  0.33667534  0.33785787  1
  O  O50  1  0.78878845  0.20601095  0.75219092  1
  O  O51  1  0.77460458  0.22397339  0.57083870  1
  O  O52  1  0.75935387  0.24913095  0.93270758  1
  O  O53  1  0.62099091  0.48186009  0.81976553  1
  O  O54  1  0.51005491  0.68004038  0.66634754  1
  O  O55  1  0.65912870  0.25725777  0.15478494  1
  O  O56  1  0.46895083  0.61625161  0.33128584  1
  O  O57  1  0.34086838  0.91225321  0.32821295  1
  O  O58  1  0.78339390  0.01630370  0.25583990  1
  O  O59  1  0.77419235  0.99549589  0.43375382  1
  O  O60  1  0.21165091  0.98963197  0.57977308  1
  O  O61  1  0.65747319  0.08472644  0.65957138  1
  O  O62  1  0.52866916  0.38348268  0.66990368  1
  O  O63  1  0.33983448  0.74650863  0.84005772  1
  O  O64  1  0.48722797  0.32767069  0.32965101  1
  O  O65  1  0.36846177  0.51598483  0.17493879  1
  O  O66  1  0.23608786  0.77201778  0.07857436  1
  O  O67  1  0.23216259  0.78555199  0.43681712  1
  O  O68  1  0.19896739  0.78387057  0.25839618  1
  O  O69  1  0.25667791  0.66135319  0.66082431  1
  O  O70  1  0.47556522  0.18071107  0.82160783  1
  O  O71  1  0.51571928  0.10805233  0.17448085  1
  O  O72  1  0.33211625  0.47776126  0.82780411  1
  O  O73  1  0.33849723  0.31971745  0.97498822  1
  O  O74  1  0.33234249  0.33858113  0.47611456  1
  O  O75  1  0.18603474  0.48553719  0.32492560  1
  O  O76  1  0.38425339  0.07870644  0.66862601  1
  O  O77  1  0.32590197  0.19215971  0.32571183  1
  O  O78  1  0.07629262  0.66463769  0.16031075  1
  O  O79  1  0.01251125  0.78711827  0.75856411  1
  O  O80  1  0.98410304  0.76354842  0.93511259  1
  O  O81  1  0.08224260  0.53817197  0.66674622  1
  O  O82  1  0.18157379  0.32914658  0.83160260  1
  O  O83  1  0.11025372  0.37810458  0.17644503  1
  O  O84  1  0.25387675  0.08314901  0.15591189  1
  O  O85  1  0.24958999  0.00009063  0.93391800  1
  O  O86  1  0.20171265  0.01186709  0.75856252  1
  O  O87  1  0.08638638  0.25522339  0.65762729  1
  O  O88  1  0.99160505  0.22903690  0.43352051  1
  O  O89  1  0.00324752  0.20848207  0.25002501  1
