# generated using pymatgen
data_Li5Ti12O24
_symmetry_space_group_name_H-M   'P 1'
_cell_length_a   5.08802539
_cell_length_b   9.73782267
_cell_length_c   8.88726884
_cell_angle_alpha   90.00000000
_cell_angle_beta   90.00000000
_cell_angle_gamma   90.10356667
_symmetry_Int_Tables_number   1
_chemical_formula_structural   Li5Ti12O24
_chemical_formula_sum   'Li5 Ti12 O24'
_cell_volume   440.33047134
_cell_formula_units_Z   1
loop_
 _symmetry_equiv_pos_site_id
 _symmetry_equiv_pos_as_xyz
  1  'x, y, z'
loop_
 _atom_site_type_symbol
 _atom_site_label
 _atom_site_symmetry_multiplicity
 _atom_site_fract_x
 _atom_site_fract_y
 _atom_site_fract_z
 _atom_site_occupancy
  Li  Li0  1  0.42838750  0.03227985  0.25000000  1
  Li  Li1  1  0.56792804  0.96266398  0.75000000  1
  Li  Li2  1  0.93895277  0.46588931  0.75000000  1
  Li  Li3  1  0.93379125  0.46657289  0.08356373  1
  Li  Li4  1  0.93379125  0.46657289  0.41643627  1
  Ti  Ti5  1  0.00300392  0.85518929  0.25000000  1
  Ti  Ti6  1  0.02810407  0.86032979  0.57681834  1
  Ti  Ti7  1  0.02810407  0.86032979  0.92318166  1
  Ti  Ti8  1  0.47891721  0.35784288  0.91427500  1
  Ti  Ti9  1  0.46907499  0.35671720  0.25000000  1
  Ti  Ti10  1  0.47891721  0.35784288  0.58572500  1
  Ti  Ti11  1  0.51216987  0.64211453  0.08540283  1
  Ti  Ti12  1  0.52394331  0.64278997  0.75000000  1
  Ti  Ti13  1  0.51216987  0.64211453  0.41459717  1
  Ti  Ti14  1  0.99756812  0.14025772  0.75000000  1
  Ti  Ti15  1  0.96879910  0.13467978  0.42360131  1
  Ti  Ti16  1  0.96879910  0.13467978  0.07639869  1
  O  O17  1  0.19556510  0.22493936  0.92265354  1
  O  O18  1  0.20820863  0.21281408  0.25000000  1
  O  O19  1  0.19556510  0.22493936  0.57734646  1
  O  O20  1  0.19550218  0.96448461  0.08673019  1
  O  O21  1  0.19550218  0.96448461  0.41326981  1
  O  O22  1  0.20024188  0.96436705  0.75000000  1
  O  O23  1  0.30229658  0.46561880  0.08365935  1
  O  O24  1  0.30229658  0.46561880  0.41634065  1
  O  O25  1  0.30525448  0.46542144  0.75000000  1
  O  O26  1  0.30661273  0.72306062  0.91343584  1
  O  O27  1  0.30661273  0.72306062  0.58656416  1
  O  O28  1  0.30257165  0.72545673  0.25000000  1
  O  O29  1  0.71448923  0.28466793  0.75000000  1
  O  O30  1  0.70997789  0.28622994  0.08634129  1
  O  O31  1  0.70997789  0.28622994  0.41365871  1
  O  O32  1  0.70629662  0.53480177  0.25000000  1
  O  O33  1  0.70921882  0.53372350  0.58392722  1
  O  O34  1  0.70921882  0.53372350  0.91607278  1
  O  O35  1  0.79869090  0.03495692  0.58720513  1
  O  O36  1  0.79570953  0.03624521  0.25000000  1
  O  O37  1  0.79869090  0.03495692  0.91279487  1
  O  O38  1  0.79508036  0.78568711  0.75000000  1
  O  O39  1  0.80474879  0.77377504  0.07875603  1
  O  O40  1  0.80474879  0.77377504  0.42124397  1
