# generated using pymatgen
data_Li2MnF6
_symmetry_space_group_name_H-M   'P 1'
_cell_length_a   5.08279013
_cell_length_b   5.22130196
_cell_length_c   7.51064026
_cell_angle_alpha   90.00000000
_cell_angle_beta   89.94955107
_cell_angle_gamma   90.00000000
_symmetry_Int_Tables_number   1
_chemical_formula_structural   Li2MnF6
_chemical_formula_sum   'Li4 Mn2 F12'
_cell_volume   199.32316788
_cell_formula_units_Z   2
loop_
 _symmetry_equiv_pos_site_id
 _symmetry_equiv_pos_as_xyz
  1  'x, y, z'
loop_
 _atom_site_type_symbol
 _atom_site_label
 _atom_site_symmetry_multiplicity
 _atom_site_fract_x
 _atom_site_fract_y
 _atom_site_fract_z
 _atom_site_occupancy
  Li  Li0  1  0.99492471  0.01192862  0.50002826  1
  Li  Li1  1  0.49801946  0.95577692  0.24182365  1
  Li  Li2  1  0.49492471  0.48807138  0.00002826  1
  Li  Li3  1  0.99801946  0.54422308  0.74182365  1
  Mn  Mn4  1  0.99854558  -0.00036484  0.00009728  1
  Mn  Mn5  1  0.49854558  0.50036484  0.50009728  1
  F  F6  1  0.12535083  0.05268201  0.22988539  1
  F  F7  1  0.14938285  0.30667263  0.92735515  1
  F  F8  1  0.18903880  0.33031313  0.55864108  1
  F  F9  1  0.30083726  0.81915025  0.95384503  1
  F  F10  1  0.32883558  0.79365057  0.56791876  1
  F  F11  1  0.39690594  0.57007416  0.26982241  1
  F  F12  1  0.62535083  0.44731799  0.72988539  1
  F  F13  1  0.64938285  0.19332737  0.42735515  1
  F  F14  1  0.68903880  0.16968687  0.05864108  1
  F  F15  1  0.80083726  0.68084975  0.45384503  1
  F  F16  1  0.82883558  0.70634943  0.06791876  1
  F  F17  1  0.89690594  0.92992584  0.76982241  1
