# generated using pymatgen
data_Li5Cr2Fe3O10
_symmetry_space_group_name_H-M   'P 1'
_cell_length_a   5.13208060
_cell_length_b   5.14008911
_cell_length_c   7.90888349
_cell_angle_alpha   71.51984899
_cell_angle_beta   108.60674539
_cell_angle_gamma   99.86215833
_symmetry_Int_Tables_number   1
_chemical_formula_structural   Li5Cr2Fe3O10
_chemical_formula_sum   'Li5 Cr2 Fe3 O10'
_cell_volume   186.95837753
_cell_formula_units_Z   1
loop_
 _symmetry_equiv_pos_site_id
 _symmetry_equiv_pos_as_xyz
  1  'x, y, z'
loop_
 _atom_site_type_symbol
 _atom_site_label
 _atom_site_symmetry_multiplicity
 _atom_site_fract_x
 _atom_site_fract_y
 _atom_site_fract_z
 _atom_site_occupancy
  Li  Li0  1  0.49830748  0.21512228  0.58345293  1
  Li  Li1  1  0.51370621  0.38764069  0.22693401  1
  Li  Li2  1  0.99795359  0.50134621  0.49922092  1
  Li  Li3  1  0.48448218  0.61321100  0.77295874  1
  Li  Li4  1  0.49930318  0.78560748  0.41688360  1
  Cr  Cr5  1  0.00517709  0.09819282  0.30890412  1
  Cr  Cr6  1  0.99297649  0.90360406  0.69064421  1
  Fe  Fe7  1  0.00285095  0.68821624  0.11230654  1
  Fe  Fe8  1  0.99536679  0.31337112  0.88719145  1
  Fe  Fe9  1  0.49897053  0.00037265  0.00000304  1
  O  O10  1  0.23849686  0.04942123  0.13963478  1
  O  O11  1  0.76989129  0.13546649  0.45462701  1
  O  O12  1  0.76674864  0.33583045  0.05707276  1
  O  O13  1  0.24936967  0.23084942  0.76804726  1
  O  O14  1  0.23122786  0.45101894  0.33555883  1
  O  O15  1  0.76698609  0.55065232  0.66402630  1
  O  O16  1  0.74918174  0.77049803  0.23176023  1
  O  O17  1  0.23165850  0.66574554  0.94248418  1
  O  O18  1  0.22822675  0.86610577  0.54497617  1
  O  O19  1  0.75991010  0.95220126  0.86005991  1
