# generated using pymatgen
data_Ni(H3Cl)2
_symmetry_space_group_name_H-M   'P 1'
_cell_length_a   4.95463929
_cell_length_b   4.95463929
_cell_length_c   5.34049020
_cell_angle_alpha   81.02190507
_cell_angle_beta   81.02190507
_cell_angle_gamma   79.77196574
_symmetry_Int_Tables_number   1
_chemical_formula_structural   Ni(H3Cl)2
_chemical_formula_sum   'Ni1 H6 Cl2'
_cell_volume   126.32097622
_cell_formula_units_Z   1
loop_
 _symmetry_equiv_pos_site_id
 _symmetry_equiv_pos_as_xyz
  1  'x, y, z'
loop_
 _atom_site_type_symbol
 _atom_site_label
 _atom_site_symmetry_multiplicity
 _atom_site_fract_x
 _atom_site_fract_y
 _atom_site_fract_z
 _atom_site_occupancy
  Ni  Ni0  1  0.00000000  0.00000000  -0.00000000  1
  H  H1  1  0.80821876  0.93836346  0.26910583  1
  H  H2  1  0.19178124  0.06163654  0.73089417  1
  H  H3  1  0.06163654  0.19178124  0.73089417  1
  H  H4  1  0.93836346  0.80821876  0.26910583  1
  H  H5  1  0.54769197  0.54769197  0.50788012  1
  H  H6  1  0.45230803  0.45230803  0.49211988  1
  Cl  Cl7  1  0.22948737  0.22948737  0.17880663  1
  Cl  Cl8  1  0.77051263  0.77051263  0.82119337  1
