# generated using pymatgen
data_Na7Mn16O32
_symmetry_space_group_name_H-M   'P 1'
_cell_length_a   8.66340636
_cell_length_b   10.48333157
_cell_length_c   8.78762897
_cell_angle_alpha   65.61858020
_cell_angle_beta   90.23912305
_cell_angle_gamma   114.19856234
_symmetry_Int_Tables_number   1
_chemical_formula_structural   Na7Mn16O32
_chemical_formula_sum   'Na7 Mn16 O32'
_cell_volume   649.83812014
_cell_formula_units_Z   1
loop_
 _symmetry_equiv_pos_site_id
 _symmetry_equiv_pos_as_xyz
  1  'x, y, z'
loop_
 _atom_site_type_symbol
 _atom_site_label
 _atom_site_symmetry_multiplicity
 _atom_site_fract_x
 _atom_site_fract_y
 _atom_site_fract_z
 _atom_site_occupancy
  Na  Na0  1  0.44025478  0.13130489  0.30659980  1
  Na  Na1  1  0.80740943  0.36900942  0.93873581  1
  Na  Na2  1  0.31198506  0.37369846  0.44208383  1
  Na  Na3  1  0.69567754  0.62619236  0.56474538  1
  Na  Na4  1  0.19099142  0.62559132  0.06139140  1
  Na  Na5  1  0.06206497  0.88008388  0.18497510  1
  Na  Na6  1  0.55921889  0.87223343  0.68636800  1
  Mn  Mn7  1  0.50381552  0.99843494  0.99837772  1
  Mn  Mn8  1  0.75314055  0.99923275  0.25240513  1
  Mn  Mn9  1  0.25027659  0.00544479  0.74111499  1
  Mn  Mn10  1  0.00260596  0.00927768  0.50551906  1
  Mn  Mn11  1  0.62642591  0.24587731  0.62755295  1
  Mn  Mn12  1  0.37043476  0.25033581  0.86454756  1
  Mn  Mn13  1  0.12232748  0.25003580  0.11786277  1
  Mn  Mn14  1  0.87127545  0.24742620  0.38311251  1
  Mn  Mn15  1  0.49784264  0.50472558  0.99119556  1
  Mn  Mn16  1  0.99423491  0.49042237  0.51235374  1
  Mn  Mn17  1  0.75199262  0.50393263  0.25306748  1
  Mn  Mn18  1  0.24414413  0.48822947  0.74214608  1
  Mn  Mn19  1  0.37762234  0.74931102  0.37953805  1
  Mn  Mn20  1  0.87280420  0.75603136  0.86934964  1
  Mn  Mn21  1  0.63184369  0.75256348  0.12885120  1
  Mn  Mn22  1  0.12347792  0.74978567  0.62443182  1
  O  O23  1  0.77856430  0.01730617  0.47282008  1
  O  O24  1  0.27755596  0.01700152  0.96125695  1
  O  O25  1  0.48263666  0.02358269  0.73494006  1
  O  O26  1  0.99537120  0.02510779  0.26675001  1
  O  O27  1  0.87916382  0.23212776  0.16585517  1
  O  O28  1  0.39092049  0.23500524  0.65146407  1
  O  O29  1  0.59375312  0.22595196  0.86055476  1
  O  O30  1  0.08343861  0.23279184  0.38360225  1
  O  O31  1  0.15789244  0.26493872  0.85579007  1
  O  O32  1  0.36472856  0.26575421  0.07766776  1
  O  O33  1  0.65292735  0.26863603  0.39311024  1
  O  O34  1  0.85897033  0.25551292  0.60161309  1
  O  O35  1  0.96992593  0.47817042  0.28974881  1
  O  O36  1  0.45955596  0.47469084  0.75430544  1
  O  O37  1  0.76411725  0.46705288  0.52383055  1
  O  O38  1  0.25223941  0.47654132  0.97451249  1
  O  O39  1  0.02347874  0.48952520  0.72924429  1
  O  O40  1  0.73335394  0.52889163  0.98367719  1
  O  O41  1  0.23374784  0.51719929  0.50600291  1
  O  O42  1  0.53943424  0.52583491  0.23876542  1
  O  O43  1  0.84739968  0.73471954  0.10854520  1
  O  O44  1  0.34040451  0.72197560  0.61559422  1
  O  O45  1  0.10176478  0.71493093  0.42015224  1
  O  O46  1  0.60684518  0.73018140  0.92254107  1
  O  O47  1  0.14203847  0.78329851  0.82830146  1
  O  O48  1  0.64979260  0.77825407  0.33583963  1
  O  O49  1  0.91025832  0.78251959  0.62923626  1
  O  O50  1  0.41133932  0.76927833  0.14366910  1
  O  O51  1  0.73003337  0.98675539  0.03565448  1
  O  O52  1  0.01225968  0.98769556  0.73869864  1
  O  O53  1  0.22487108  0.01550960  0.51855552  1
  O  O54  1  0.52269209  0.97736549  0.26453498  1
