# generated using pymatgen
data_V6Cu2O15
_symmetry_space_group_name_H-M   'P 1'
_cell_length_a   7.89169668
_cell_length_b   3.70227981
_cell_length_c   10.19622915
_cell_angle_alpha   90.37638185
_cell_angle_beta   105.60919072
_cell_angle_gamma   76.19589330
_symmetry_Int_Tables_number   1
_chemical_formula_structural   V6Cu2O15
_chemical_formula_sum   'V6 Cu2 O15'
_cell_volume   278.10251395
_cell_formula_units_Z   1
loop_
 _symmetry_equiv_pos_site_id
 _symmetry_equiv_pos_as_xyz
  1  'x, y, z'
loop_
 _atom_site_type_symbol
 _atom_site_label
 _atom_site_symmetry_multiplicity
 _atom_site_fract_x
 _atom_site_fract_y
 _atom_site_fract_z
 _atom_site_occupancy
  V  V0  1  0.33745897  0.33056727  0.91160528  1
  V  V1  1  0.22554562  0.88937641  0.11826849  1
  V  V2  1  0.42760460  0.28734801  0.59384740  1
  V  V3  1  0.57239540  0.71265199  0.40615260  1
  V  V4  1  0.77445438  0.11062359  0.88173151  1
  V  V5  1  0.66254103  0.66943273  0.08839472  1
  Cu  Cu6  1  0.06097201  0.42161970  0.35433248  1
  Cu  Cu7  1  0.93902799  0.57838030  0.64566752  1
  O  O8  1  0.13458776  0.43295150  0.79591355  1
  O  O9  1  0.00000000  0.00000000  0.00000000  1
  O  O10  1  0.19892952  0.39917570  0.53473888  1
  O  O11  1  0.37946312  0.81029195  0.96336369  1
  O  O12  1  0.18983004  0.91852553  0.27370935  1
  O  O13  1  0.48214560  0.25949791  0.77404390  1
  O  O14  1  0.26167304  0.37070772  0.08607290  1
  O  O15  1  0.48379809  0.75875105  0.57152347  1
  O  O16  1  0.51620191  0.24124895  0.42847653  1
  O  O17  1  0.73832696  0.62929228  0.91392710  1
  O  O18  1  0.51785440  0.74050209  0.22595610  1
  O  O19  1  0.81016996  0.08147447  0.72629065  1
  O  O20  1  0.62053688  0.18970805  0.03663631  1
  O  O21  1  0.80107048  0.60082430  0.46526112  1
  O  O22  1  0.86541224  0.56704850  0.20408645  1
