# generated using pymatgen
data_V11NiO18
_symmetry_space_group_name_H-M   'P 1'
_cell_length_a   5.55317706
_cell_length_b   8.86056864
_cell_length_c   7.50771375
_cell_angle_alpha   66.95065172
_cell_angle_beta   96.35789840
_cell_angle_gamma   74.54599139
_symmetry_Int_Tables_number   1
_chemical_formula_structural   V11NiO18
_chemical_formula_sum   'V11 Ni1 O18'
_cell_volume   317.85231966
_cell_formula_units_Z   1
loop_
 _symmetry_equiv_pos_site_id
 _symmetry_equiv_pos_as_xyz
  1  'x, y, z'
loop_
 _atom_site_type_symbol
 _atom_site_label
 _atom_site_symmetry_multiplicity
 _atom_site_fract_x
 _atom_site_fract_y
 _atom_site_fract_z
 _atom_site_occupancy
  V  V0  1  0.29876220  0.00049706  0.35241005  1
  V  V1  1  0.70184951  0.00205892  0.14872616  1
  V  V2  1  0.63690411  0.33055712  0.18737883  1
  V  V3  1  0.29588497  0.00214843  0.84930873  1
  V  V4  1  0.69813645  0.00015116  0.64965879  1
  V  V5  1  0.63607148  0.33495732  0.67765856  1
  V  V6  1  0.37287320  0.66088785  0.32260749  1
  V  V7  1  0.96518880  0.66522478  0.02028593  1
  V  V8  1  0.03445002  0.33318943  0.98406546  1
  V  V9  1  0.96897405  0.66713804  0.51661077  1
  V  V10  1  0.36853829  0.66685838  0.81747604  1
  Ni  Ni11  1  0.04183475  0.33135898  0.47968782  1
  O  O12  1  0.39671052  0.20360016  0.14695230  1
  O  O13  1  0.30122048  0.09500343  0.55077150  1
  O  O14  1  0.93571057  0.12823725  0.18697454  1
  O  O15  1  0.37431431  0.56571642  0.12625953  1
  O  O16  1  0.03303782  0.22886187  0.79138134  1
  O  O17  1  0.72134760  0.23275130  0.48114793  1
  O  O18  1  0.93057378  0.43818174  0.17797996  1
  O  O19  1  0.60027190  0.10289981  0.85348487  1
  O  O20  1  0.26829153  0.46906738  0.51318064  1
  O  O21  1  0.71198758  0.55190050  0.47084537  1
  O  O22  1  0.39963578  0.88973167  0.15383271  1
  O  O23  1  0.06671658  0.56729275  0.81339620  1
  O  O24  1  0.27002555  0.76603486  0.51611186  1
  O  O25  1  0.97709018  0.76668546  0.21688600  1
  O  O26  1  0.62976529  0.43511938  0.87799316  1
  O  O27  1  0.70393627  0.89932496  0.44884296  1
  O  O28  1  0.06226204  0.86722125  0.81621959  1
  O  O29  1  0.59763439  0.79734335  0.85186292  1
