# generated using pymatgen
data_Pr4CrS7
_symmetry_space_group_name_H-M   'P 1'
_cell_length_a   6.78622014
_cell_length_b   9.95848043
_cell_length_c   9.95848043
_cell_angle_alpha   119.99999950
_cell_angle_beta   90.00000000
_cell_angle_gamma   90.00000000
_symmetry_Int_Tables_number   1
_chemical_formula_structural   Pr4CrS7
_chemical_formula_sum   'Pr8 Cr2 S14'
_cell_volume   582.83379467
_cell_formula_units_Z   2
loop_
 _symmetry_equiv_pos_site_id
 _symmetry_equiv_pos_as_xyz
  1  'x, y, z'
loop_
 _atom_site_type_symbol
 _atom_site_label
 _atom_site_symmetry_multiplicity
 _atom_site_fract_x
 _atom_site_fract_y
 _atom_site_fract_z
 _atom_site_occupancy
  Pr  Pr0  1  0.82671558  0.66666700  0.33333300  1
  Pr  Pr1  1  0.32671558  0.33333300  0.66666700  1
  Pr  Pr2  1  0.77675348  0.62497077  0.84641687  1
  Pr  Pr3  1  0.77675348  0.22144611  0.37502923  1
  Pr  Pr4  1  0.27675348  0.37502923  0.15358313  1
  Pr  Pr5  1  0.77675348  0.15358313  0.77855389  1
  Pr  Pr6  1  0.27675348  0.77855389  0.62497077  1
  Pr  Pr7  1  0.27675348  0.84641687  0.22144611  1
  Cr  Cr8  1  0.96367983  -0.00000000  -0.00000000  1
  Cr  Cr9  1  0.46367983  -0.00000000  -0.00000000  1
  S  S10  1  0.54308009  0.49205476  0.56323577  1
  S  S11  1  0.54308009  0.07118101  0.50794524  1
  S  S12  1  0.04308009  0.50794524  0.43676423  1
  S  S13  1  0.54308009  0.43676423  0.92881899  1
  S  S14  1  0.04308009  0.92881899  0.49205476  1
  S  S15  1  0.04308009  0.56323577  0.07118101  1
  S  S16  1  0.43312330  0.66666700  0.33333300  1
  S  S17  1  0.93312330  0.33333300  0.66666700  1
  S  S18  1  0.70699353  0.90294286  0.13306836  1
  S  S19  1  0.70699353  0.23012550  0.09705714  1
  S  S20  1  0.20699353  0.09705714  0.86693164  1
  S  S21  1  0.70699353  0.86693164  0.76987450  1
  S  S22  1  0.20699353  0.76987450  0.90294286  1
  S  S23  1  0.20699353  0.13306836  0.23012550  1
