# generated using pymatgen
data_LiV3Zn2O8
_symmetry_space_group_name_H-M   'P 1'
_cell_length_a   5.96609477
_cell_length_b   5.97367138
_cell_length_c   5.97367138
_cell_angle_alpha   60.00000000
_cell_angle_beta   90.00000000
_cell_angle_gamma   120.04201830
_symmetry_Int_Tables_number   1
_chemical_formula_structural   LiV3Zn2O8
_chemical_formula_sum   'Li1 V3 Zn2 O8'
_cell_volume   150.44636193
_cell_formula_units_Z   1
loop_
 _symmetry_equiv_pos_site_id
 _symmetry_equiv_pos_as_xyz
  1  'x, y, z'
loop_
 _atom_site_type_symbol
 _atom_site_label
 _atom_site_symmetry_multiplicity
 _atom_site_fract_x
 _atom_site_fract_y
 _atom_site_fract_z
 _atom_site_occupancy
  Li  Li0  1  0.12500000  0.75000000  0.62500000  1
  V  V1  1  0.62500000  0.25000000  0.12500000  1
  V  V2  1  0.62500000  0.25000000  0.62500000  1
  V  V3  1  0.62500000  0.75000000  0.62500000  1
  Zn  Zn4  1  0.98668376  0.99112250  0.00443875  1
  Zn  Zn5  1  0.26331624  0.50887750  0.24556125  1
  O  O6  1  0.85269124  0.23512716  0.38243592  1
  O  O7  1  0.40865777  0.24782521  0.37608740  1
  O  O8  1  0.84134223  0.25217479  0.87391260  1
  O  O9  1  0.84134223  0.71525484  0.41083256  1
  O  O10  1  0.84134223  0.71525484  0.87391260  1
  O  O11  1  0.39730876  0.26487284  0.86756408  1
  O  O12  1  0.40865777  0.78474516  0.37608740  1
  O  O13  1  0.40865777  0.78474516  0.83916744  1
