# generated using pymatgen
data_Ba4Li6Ti19O44
_symmetry_space_group_name_H-M   'P 1'
_cell_length_a   5.85820441
_cell_length_b   10.07367348
_cell_length_c   14.17924863
_cell_angle_alpha   89.65037057
_cell_angle_beta   90.04083660
_cell_angle_gamma   89.99566205
_symmetry_Int_Tables_number   1
_chemical_formula_structural   Ba4Li6Ti19O44
_chemical_formula_sum   'Ba4 Li6 Ti19 O44'
_cell_volume   836.75325662
_cell_formula_units_Z   1
loop_
 _symmetry_equiv_pos_site_id
 _symmetry_equiv_pos_as_xyz
  1  'x, y, z'
loop_
 _atom_site_type_symbol
 _atom_site_label
 _atom_site_symmetry_multiplicity
 _atom_site_fract_x
 _atom_site_fract_y
 _atom_site_fract_z
 _atom_site_occupancy
  Ba  Ba0  1  0.25012390  0.08840099  0.41124769  1
  Ba  Ba1  1  0.24281564  0.40481367  0.90235475  1
  Ba  Ba2  1  0.75438223  0.60633447  0.10104185  1
  Ba  Ba3  1  0.74572773  0.90842882  0.59361685  1
  Li  Li4  1  0.00928067  0.50317112  0.47547192  1
  Li  Li5  1  0.24839560  0.39037833  0.33946734  1
  Li  Li6  1  0.46038493  0.46686354  0.48813332  1
  Li  Li7  1  0.24760329  0.07893656  0.96322653  1
  Li  Li8  1  0.72888172  0.59783882  0.56403353  1
  Li  Li9  1  0.74989607  0.92499229  0.03847544  1
  Ti  Ti10  1  0.99377595  0.83719900  0.83040049  1
  Ti  Ti11  1  0.99956152  0.15351527  0.17374206  1
  Ti  Ti12  1  0.99309574  0.33355339  0.66450305  1
  Ti  Ti13  1  0.25593655  0.88327393  0.17319842  1
  Ti  Ti14  1  0.24640444  0.06628692  0.66760837  1
  Ti  Ti15  1  0.24139007  0.42296755  0.15290351  1
  Ti  Ti16  1  0.24863474  0.73939623  0.99998129  1
  Ti  Ti17  1  0.23785026  0.75841499  0.49200239  1
  Ti  Ti18  1  0.23866908  0.60979778  0.66984735  1
  Ti  Ti19  1  0.49622718  0.33362882  0.66965398  1
  Ti  Ti20  1  0.50546413  0.15211723  0.17764223  1
  Ti  Ti21  1  0.49236480  0.83682527  0.82768268  1
  Ti  Ti22  1  0.48884879  0.65878714  0.32884519  1
  Ti  Ti23  1  0.74012047  0.22972886  0.48737994  1
  Ti  Ti24  1  0.76487857  0.40908045  0.32294029  1
  Ti  Ti25  1  0.74375667  0.57332143  0.83036958  1
  Ti  Ti26  1  0.74843120  0.11133397  0.83469257  1
  Ti  Ti27  1  0.74293138  0.27358226  0.99948242  1
  Ti  Ti28  1  0.77193144  0.90125518  0.33757288  1
  O  O29  1  0.00319409  0.46993851  0.24283286  1
  O  O30  1  0.99728186  0.00328930  0.74923992  1
  O  O31  1  0.01243014  0.32256338  0.08301387  1
  O  O32  1  0.99838704  0.17691879  0.58679307  1
  O  O33  1  0.03303773  0.82196998  0.08370647  1
  O  O34  1  0.01985084  0.67314202  0.57946891  1
  O  O35  1  0.25247218  0.07340455  0.10369234  1
  O  O36  1  0.24495692  0.43164711  0.59882268  1
  O  O37  1  0.25306397  0.24718571  0.23832642  1
  O  O38  1  0.24660907  0.56592738  0.06872617  1
  O  O39  1  0.27074900  0.74306041  0.25104609  1
  O  O40  1  0.25039906  0.93614312  0.57726368  1
  O  O41  1  0.24532385  0.89754298  0.91249208  1
  O  O42  1  0.24342789  0.24966280  0.73644214  1
  O  O43  1  0.26353934  0.59871339  0.42116456  1
  O  O44  1  0.23961084  0.75782356  0.75300075  1
  O  O45  1  0.47094516  0.82182130  0.08079232  1
  O  O46  1  0.45573472  0.68299670  0.58864414  1
  O  O47  1  0.49918284  0.32875844  0.08739910  1
  O  O48  1  0.49384658  0.17624720  0.58763304  1
  O  O49  1  0.49267502  0.00281413  0.74904213  1
  O  O50  1  0.49164800  0.49306585  0.25139960  1
  O  O51  1  0.49983746  0.99692085  0.25118268  1
  O  O52  1  0.49502588  0.50140455  0.74988496  1
  O  O53  1  0.50271479  0.82451761  0.41605564  1
  O  O54  1  0.49734706  0.67436179  0.91013129  1
  O  O55  1  0.52163187  0.31323862  0.41050448  1
  O  O56  1  0.52812169  0.18165887  0.91689920  1
  O  O57  1  0.72030815  0.55430866  0.40571449  1
  O  O58  1  0.74222115  0.06816148  0.43049169  1
  O  O59  1  0.75122777  0.10480277  0.08900182  1
  O  O60  1  0.75316637  0.23660901  0.24541600  1
  O  O61  1  0.74630393  0.25840798  0.74515180  1
  O  O62  1  0.73897091  0.40239903  0.58114916  1
  O  O63  1  0.74759058  0.43583227  0.92994042  1
  O  O64  1  0.73556129  0.75291459  0.26827026  1
  O  O65  1  0.74426921  0.74938041  0.76006585  1
  O  O66  1  0.74265734  0.92972927  0.89719352  1
  O  O67  1  0.97159879  0.32501784  0.41332186  1
  O  O68  1  0.96477882  0.17904358  0.91610739  1
  O  O69  1  0.99098144  0.67594199  0.91222173  1
  O  O70  1  0.00008281  0.84683650  0.42322000  1
  O  O71  1  0.98985354  0.50276916  0.74872561  1
  O  O72  1  -0.00032075  0.99437529  0.25103588  1
