# generated using pymatgen
data_Li4Fe2Co3Cu3O16
_symmetry_space_group_name_H-M   'P 1'
_cell_length_a   5.81016757
_cell_length_b   5.75495973
_cell_length_c   9.40385195
_cell_angle_alpha   90.02483404
_cell_angle_beta   88.39543852
_cell_angle_gamma   119.70888867
_symmetry_Int_Tables_number   1
_chemical_formula_structural   Li4Fe2Co3Cu3O16
_chemical_formula_sum   'Li4 Fe2 Co3 Cu3 O16'
_cell_volume   272.96783707
_cell_formula_units_Z   1
loop_
 _symmetry_equiv_pos_site_id
 _symmetry_equiv_pos_as_xyz
  1  'x, y, z'
loop_
 _atom_site_type_symbol
 _atom_site_label
 _atom_site_symmetry_multiplicity
 _atom_site_fract_x
 _atom_site_fract_y
 _atom_site_fract_z
 _atom_site_occupancy
  Li  Li0  1  0.33410830  0.66719512  0.89249718  1
  Li  Li1  1  0.99755788  0.99883652  0.99750100  1
  Li  Li2  1  0.00128013  0.00047853  0.49490155  1
  Li  Li3  1  0.67301046  0.33643966  0.39386686  1
  Fe  Fe4  1  0.33210228  0.66599698  0.49219613  1
  Fe  Fe5  1  0.66027525  0.33015346  0.99267769  1
  Co  Co6  1  0.66046059  0.83027533  0.21292988  1
  Co  Co7  1  0.83104591  0.66213360  0.71329027  1
  Co  Co8  1  0.83103884  0.16894008  0.71326160  1
  Cu  Cu9  1  0.16889954  0.83032390  0.21437628  1
  Cu  Cu10  1  0.16892404  0.33855250  0.21437941  1
  Cu  Cu11  1  0.33724903  0.16865523  0.71444839  1
  O  O12  1  0.15026380  0.82764057  0.60166912  1
  O  O13  1  0.04126626  0.52068280  0.34187867  1
  O  O14  1  0.34587946  0.67311793  0.10940427  1
  O  O15  1  0.98571913  0.99273080  0.30570113  1
  O  O16  1  0.98794324  0.99410549  0.80867594  1
  O  O17  1  0.15026265  0.32254968  0.60158633  1
  O  O18  1  0.49666648  0.96644020  0.33874323  1
  O  O19  1  0.49686215  0.53034350  0.33872268  1
  O  O20  1  0.31982330  0.15974679  0.09628340  1
  O  O21  1  0.68219360  0.84106185  0.60946741  1
  O  O22  1  0.53300427  0.49423230  0.83553435  1
  O  O23  1  0.53295787  0.03894454  0.83551821  1
  O  O24  1  0.67791307  0.33894385  0.60929633  1
  O  O25  1  0.82037259  0.66925824  0.10132390  1
  O  O26  1  0.96254659  0.48134020  0.82639105  1
  O  O27  1  0.82037529  0.15118134  0.10131974  1
