# generated using pymatgen
data_Li2MnOF3
_symmetry_space_group_name_H-M   'P 1'
_cell_length_a   6.08369502
_cell_length_b   6.08369502
_cell_length_c   8.23348530
_cell_angle_alpha   90.00000000
_cell_angle_beta   90.00000000
_cell_angle_gamma   90.00000000
_symmetry_Int_Tables_number   1
_chemical_formula_structural   Li2MnOF3
_chemical_formula_sum   'Li8 Mn4 O4 F12'
_cell_volume   304.73236578
_cell_formula_units_Z   4
loop_
 _symmetry_equiv_pos_site_id
 _symmetry_equiv_pos_as_xyz
  1  'x, y, z'
loop_
 _atom_site_type_symbol
 _atom_site_label
 _atom_site_symmetry_multiplicity
 _atom_site_fract_x
 _atom_site_fract_y
 _atom_site_fract_z
 _atom_site_occupancy
  Li  Li0  1  0.23603776  0.25706126  0.36992030  1
  Li  Li1  1  0.25706126  0.76396224  0.11992030  1
  Li  Li2  1  0.26736522  0.51475620  0.75409025  1
  Li  Li3  1  0.48524380  0.26736522  0.00409025  1
  Li  Li4  1  0.51475620  0.73263478  0.50409025  1
  Li  Li5  1  0.73263478  0.48524380  0.25409025  1
  Li  Li6  1  0.74293874  0.23603776  0.61992030  1
  Li  Li7  1  0.76396224  0.74293874  0.86992030  1
  Mn  Mn8  1  0.00491833  0.25509250  0.00624993  1
  Mn  Mn9  1  0.99508167  0.74490750  0.50624993  1
  Mn  Mn10  1  0.25509250  0.99508167  0.75624993  1
  Mn  Mn11  1  0.74490750  0.00491833  0.25624993  1
  O  O12  1  0.03363918  0.78031365  0.73280096  1
  O  O13  1  0.21968635  0.03363918  0.98280096  1
  O  O14  1  0.78031365  0.96636082  0.48280096  1
  O  O15  1  0.96636082  0.21968635  0.23280096  1
  F  F16  1  0.00098049  0.27785670  0.76352268  1
  F  F17  1  0.27785670  0.99901951  0.51352268  1
  F  F18  1  0.25570112  0.50022882  0.99387554  1
  F  F19  1  0.23667893  0.52771246  0.50454135  1
  F  F20  1  0.47228754  0.23667893  0.75454135  1
  F  F21  1  0.50022882  0.74429888  0.74387554  1
  F  F22  1  0.49977118  0.25570112  0.24387554  1
  F  F23  1  0.52771246  0.76332107  0.25454135  1
  F  F24  1  0.74429888  0.49977118  0.49387554  1
  F  F25  1  0.76332107  0.47228754  0.00454135  1
  F  F26  1  0.72214330  0.00098049  0.01352268  1
  F  F27  1  0.99901951  0.72214330  0.26352268  1
