# generated using pymatgen
data_Li2SiNiO4
_symmetry_space_group_name_H-M   'P 1'
_cell_length_a   5.32534771
_cell_length_b   5.27452364
_cell_length_c   6.24375433
_cell_angle_alpha   90.20742109
_cell_angle_beta   90.21243452
_cell_angle_gamma   93.39869526
_symmetry_Int_Tables_number   1
_chemical_formula_structural   Li2SiNiO4
_chemical_formula_sum   'Li4 Si2 Ni2 O8'
_cell_volume   175.06781125
_cell_formula_units_Z   2
loop_
 _symmetry_equiv_pos_site_id
 _symmetry_equiv_pos_as_xyz
  1  'x, y, z'
loop_
 _atom_site_type_symbol
 _atom_site_label
 _atom_site_symmetry_multiplicity
 _atom_site_fract_x
 _atom_site_fract_y
 _atom_site_fract_z
 _atom_site_occupancy
  Li  Li0  1  0.18266457  0.18672950  0.75012028  1
  Li  Li1  1  0.31392667  0.68939182  0.50056233  1
  Li  Li2  1  0.68560760  0.31103957  0.00021858  1
  Li  Li3  1  0.81769568  0.81287429  0.24657807  1
  Si  Si4  1  0.17030193  0.18144560  0.25025813  1
  Si  Si5  1  0.82906041  0.81912835  0.74713803  1
  Ni  Ni6  1  0.32568601  0.68265957  0.00551907  1
  Ni  Ni7  1  0.67438489  0.31818552  0.50575166  1
  O  O8  1  0.13530199  0.78658536  0.75470159  1
  O  O9  1  0.19646960  0.86994040  0.24911936  1
  O  O10  1  0.30468293  0.30560024  0.03190533  1
  O  O11  1  0.30393769  0.31279244  0.46578343  1
  O  O12  1  0.69493285  0.68607515  0.96123291  1
  O  O13  1  0.69550374  0.69607179  0.52743986  1
  O  O14  1  0.80270941  0.13002788  0.74887589  1
  O  O15  1  0.86433702  0.21425154  0.25480046  1
