# generated using pymatgen
data_VOF
_symmetry_space_group_name_H-M   'P 1'
_cell_length_a   5.22803314
_cell_length_b   4.67462435
_cell_length_c   5.71375716
_cell_angle_alpha   90.00000000
_cell_angle_beta   87.63137881
_cell_angle_gamma   90.00000000
_symmetry_Int_Tables_number   1
_chemical_formula_structural   VOF
_chemical_formula_sum   'V4 O4 F4'
_cell_volume   139.51972548
_cell_formula_units_Z   4
loop_
 _symmetry_equiv_pos_site_id
 _symmetry_equiv_pos_as_xyz
  1  'x, y, z'
loop_
 _atom_site_type_symbol
 _atom_site_label
 _atom_site_symmetry_multiplicity
 _atom_site_fract_x
 _atom_site_fract_y
 _atom_site_fract_z
 _atom_site_occupancy
  V  V0  1  0.22316838  0.48149190  0.65601863  1
  V  V1  1  0.22316838  0.01850810  0.15601863  1
  V  V2  1  0.77683162  0.98149190  0.84398137  1
  V  V3  1  0.77683162  0.51850810  0.34398137  1
  O  O4  1  0.08137077  0.21997977  0.87935014  1
  O  O5  1  0.08137077  0.28002023  0.37935014  1
  O  O6  1  0.91862923  0.71997977  0.62064986  1
  O  O7  1  0.91862923  0.78002023  0.12064986  1
  F  F8  1  0.41758451  0.76876668  0.88751105  1
  F  F9  1  0.41758451  0.73123332  0.38751105  1
  F  F10  1  0.58241549  0.26876668  0.61248895  1
  F  F11  1  0.58241549  0.23123332  0.11248895  1
