# generated using pymatgen
data_Ba2YBr7
_symmetry_space_group_name_H-M   'P 1'
_cell_length_a   7.59506187
_cell_length_b   14.43205523
_cell_length_c   13.27807931
_cell_angle_alpha   90.00000000
_cell_angle_beta   96.83220180
_cell_angle_gamma   90.00000000
_symmetry_Int_Tables_number   1
_chemical_formula_structural   Ba2YBr7
_chemical_formula_sum   'Ba8 Y4 Br28'
_cell_volume   1445.10613471
_cell_formula_units_Z   4
loop_
 _symmetry_equiv_pos_site_id
 _symmetry_equiv_pos_as_xyz
  1  'x, y, z'
loop_
 _atom_site_type_symbol
 _atom_site_label
 _atom_site_symmetry_multiplicity
 _atom_site_fract_x
 _atom_site_fract_y
 _atom_site_fract_z
 _atom_site_occupancy
  Ba  Ba0  1  0.23080481  0.45565224  0.74400245  1
  Ba  Ba1  1  0.26486506  0.86369858  0.62474070  1
  Ba  Ba2  1  0.25259997  0.21449478  0.12505480  1
  Ba  Ba3  1  0.29827426  0.63101252  0.23318399  1
  Ba  Ba4  1  0.70172574  0.13101252  0.76681601  1
  Ba  Ba5  1  0.74740003  0.71449478  0.87494520  1
  Ba  Ba6  1  0.73513494  0.36369858  0.37525930  1
  Ba  Ba7  1  0.76919519  0.95565224  0.25599755  1
  Y  Y8  1  0.18678858  0.15504984  0.54713516  1
  Y  Y9  1  0.20467910  0.92385116  0.04439360  1
  Y  Y10  1  0.79532090  0.42385116  0.95560640  1
  Y  Y11  1  0.81321142  0.65504984  0.45286484  1
  Br  Br12  1  0.03768021  0.29400886  0.89015522  1
  Br  Br13  1  0.05886148  0.56278981  0.98370290  1
  Br  Br14  1  0.04193399  0.50280907  0.50234534  1
  Br  Br15  1  0.11593321  0.84860685  0.85558016  1
  Br  Br16  1  0.08978141  0.76682219  0.39426553  1
  Br  Br17  1  0.10729180  0.22868769  0.35596896  1
  Br  Br18  1  0.20877820  0.08517582  0.74429883  1
  Br  Br19  1  0.22776526  0.98951793  0.24455410  1
  Br  Br20  1  0.38378563  0.66388963  0.72730594  1
  Br  Br21  1  0.37723004  0.41294455  0.22445634  1
  Br  Br22  1  0.42968530  0.29848458  0.60730380  1
  Br  Br23  1  0.52053290  0.29477957  0.90270334  1
  Br  Br24  1  0.48152978  0.04538631  0.52959556  1
  Br  Br25  1  0.53479184  0.54928501  0.98899443  1
  Br  Br26  1  0.46520816  0.04928501  0.01100557  1
  Br  Br27  1  0.51847022  0.54538631  0.47040444  1
  Br  Br28  1  0.47946710  0.79477957  0.09729666  1
  Br  Br29  1  0.57031470  0.79848458  0.39269620  1
  Br  Br30  1  0.62276996  0.91294455  0.77554366  1
  Br  Br31  1  0.61621437  0.16388963  0.27269406  1
  Br  Br32  1  0.77223474  0.48951793  0.75544590  1
  Br  Br33  1  0.79122180  0.58517582  0.25570117  1
  Br  Br34  1  0.89270820  0.72868769  0.64403104  1
  Br  Br35  1  0.91021859  0.26682219  0.60573447  1
  Br  Br36  1  0.88406679  0.34860685  0.14441984  1
  Br  Br37  1  0.95806601  0.00280907  0.49765466  1
  Br  Br38  1  0.94113852  0.06278981  0.01629710  1
  Br  Br39  1  0.96231979  0.79400886  0.10984478  1
