# generated using pymatgen
data_LiMn10O20
_symmetry_space_group_name_H-M   'P 1'
_cell_length_a   10.14599006
_cell_length_b   8.27762892
_cell_length_c   10.14599006
_cell_angle_alpha   114.07462394
_cell_angle_beta   80.42121044
_cell_angle_gamma   114.07462394
_symmetry_Int_Tables_number   1
_chemical_formula_structural   LiMn10O20
_chemical_formula_sum   'Li2 Mn20 O40'
_cell_volume   710.31434029
_cell_formula_units_Z   2
loop_
 _symmetry_equiv_pos_site_id
 _symmetry_equiv_pos_as_xyz
  1  'x, y, z'
loop_
 _atom_site_type_symbol
 _atom_site_label
 _atom_site_symmetry_multiplicity
 _atom_site_fract_x
 _atom_site_fract_y
 _atom_site_fract_z
 _atom_site_occupancy
  Li  Li0  1  0.05000000  0.07500000  0.85000000  1
  Li  Li1  1  0.55000000  0.32500000  0.35000000  1
  Mn  Mn2  1  0.20012036  0.79846241  0.89940339  1
  Mn  Mn3  1  0.99865582  0.99805941  0.49847441  1
  Mn  Mn4  1  0.09940339  0.40094097  0.69987964  1
  Mn  Mn5  1  0.30000000  0.20000000  0.60000000  1
  Mn  Mn6  1  0.40152559  0.10059641  0.79865582  1
  Mn  Mn7  1  0.10134418  0.40092817  0.20152559  1
  Mn  Mn8  1  0.00059661  0.50165794  0.00012036  1
  Mn  Mn9  1  0.19847441  0.29940359  0.40134418  1
  Mn  Mn10  1  0.69847441  0.80041501  0.90134418  1
  Mn  Mn11  1  0.50059661  0.99905903  0.50012036  1
  Mn  Mn12  1  0.30000000  0.20000000  0.10000000  1
  Mn  Mn13  1  0.39987964  0.60153759  0.30059661  1
  Mn  Mn14  1  0.60134418  0.40194059  0.70152559  1
  Mn  Mn15  1  0.89987964  0.59893867  0.80059661  1
  Mn  Mn16  1  0.49865582  0.99907183  0.99847441  1
  Mn  Mn17  1  0.70012036  0.80106133  0.39940339  1
  Mn  Mn18  1  0.59940339  0.89834206  0.19987964  1
  Mn  Mn19  1  0.80000000  0.70000000  0.60000000  1
  Mn  Mn20  1  0.80000000  0.20000000  0.10000000  1
  Mn  Mn21  1  0.90152559  0.59958499  0.29865582  1
  O  O22  1  0.00630810  0.72911427  0.98169170  1
  O  O23  1  0.18169170  0.55257743  0.89369190  1
  O  O24  1  0.09369190  0.64111448  0.71830830  1
  O  O25  1  0.21549805  0.04572587  0.90302778  1
  O  O26  1  0.01761581  0.24649345  0.50617756  1
  O  O27  1  0.10302778  0.15730191  0.68450195  1
  O  O28  1  0.39382244  0.87112236  0.81761581  1
  O  O29  1  0.19322066  0.07164040  0.41865296  1
  O  O30  1  0.28060965  0.42218438  0.59390941  1
  O  O31  1  0.48134704  0.22158027  0.99322066  1
  O  O32  1  0.08238419  0.62270008  0.19382244  1
  O  O33  1  0.40677934  0.32835960  0.78134704  1
  O  O34  1  0.20617756  0.52887764  0.38238419  1
  O  O35  1  0.31939035  0.97781562  0.60609059  1
  O  O36  1  0.11865296  0.17841973  0.20677934  1
  O  O37  1  0.58238419  0.15350655  0.69382244  1
  O  O38  1  0.38450195  0.35427413  0.29697222  1
  O  O39  1  0.69322066  0.04023322  0.91865296  1
  O  O40  1  0.29390941  0.44157373  0.11939035  1
  O  O41  1  0.49697222  0.24269809  0.51549805  1
  O  O42  1  0.70617756  0.55968412  0.88238419  1
  O  O43  1  0.30609059  0.95842627  0.08060965  1
  O  O44  1  0.41830830  0.84742257  0.30630810  1
  O  O45  1  0.50630810  0.75888552  0.48169170  1
  O  O46  1  0.61865296  0.64701256  0.70677934  1
  O  O47  1  0.68169170  0.02280617  0.39369190  1
  O  O48  1  0.59369190  0.67088573  0.21830830  1
  O  O49  1  0.88450195  0.82720004  0.79697222  1
  O  O50  1  0.79390941  0.47172603  0.61939035  1
  O  O51  1  0.60302778  0.13022781  0.18450195  1
  O  O52  1  0.71549805  0.57279996  0.40302778  1
  O  O53  1  0.51761581  0.77729992  0.00617756  1
  O  O54  1  0.80609059  0.92827397  0.58060965  1
  O  O55  1  0.91830830  0.37719383  0.80630810  1
  O  O56  1  0.78060965  0.95233568  0.09390941  1
  O  O57  1  0.89382244  0.84031588  0.31761581  1
  O  O58  1  0.98134704  0.75298744  0.49322066  1
  O  O59  1  0.90677934  0.35976678  0.28134704  1
  O  O60  1  0.81939035  0.44766432  0.10609059  1
  O  O61  1  0.99697222  0.26977219  0.01549805  1
