# generated using pymatgen
data_Sc(ClO4)3
_symmetry_space_group_name_H-M   'P 1'
_cell_length_a   9.24988119
_cell_length_b   9.24704152
_cell_length_c   5.39948561
_cell_angle_alpha   90.00000000
_cell_angle_beta   90.00000000
_cell_angle_gamma   119.99341928
_symmetry_Int_Tables_number   1
_chemical_formula_structural   Sc(ClO4)3
_chemical_formula_sum   'Sc2 Cl6 O24'
_cell_volume   399.99151322
_cell_formula_units_Z   2
loop_
 _symmetry_equiv_pos_site_id
 _symmetry_equiv_pos_as_xyz
  1  'x, y, z'
loop_
 _atom_site_type_symbol
 _atom_site_label
 _atom_site_symmetry_multiplicity
 _atom_site_fract_x
 _atom_site_fract_y
 _atom_site_fract_z
 _atom_site_occupancy
  Sc  Sc0  1  0.33337892  0.66685254  0.75000000  1
  Sc  Sc1  1  0.66677584  0.33326494  0.25000000  1
  Cl  Cl2  1  0.09544183  0.70486872  0.25000000  1
  Cl  Cl3  1  0.29514769  0.39067064  0.25000000  1
  Cl  Cl4  1  0.60944277  0.90455689  0.25000000  1
  Cl  Cl5  1  0.39057348  0.09544089  0.75000000  1
  Cl  Cl6  1  0.70485600  0.60935232  0.75000000  1
  Cl  Cl7  1  0.90453901  0.29511614  0.75000000  1
  O  O8  1  0.02529211  0.81032659  0.25000000  1
  O  O9  1  0.02736985  0.47238721  0.75000000  1
  O  O10  1  0.20465273  0.74222237  0.03041992  1
  O  O11  1  0.20465273  0.74222237  0.46958008  1
  O  O12  1  0.44488303  0.97245261  0.75000000  1
  O  O13  1  0.25785253  0.46259214  0.46961879  1
  O  O14  1  0.25785253  0.46259214  0.03038121  1
  O  O15  1  0.18965402  0.21506851  0.25000000  1
  O  O16  1  0.53755415  0.79533971  0.03042402  1
  O  O17  1  0.53755415  0.79533971  0.46957598  1
  O  O18  1  0.21501797  0.02533951  0.75000000  1
  O  O19  1  0.47234703  0.44494054  0.25000000  1
  O  O20  1  0.52765292  0.55506576  0.75000000  1
  O  O21  1  0.78500102  0.97465785  0.25000000  1
  O  O22  1  0.46247510  0.20463356  0.53041321  1
  O  O23  1  0.46247510  0.20463356  0.96958679  1
  O  O24  1  0.81033842  0.78495546  0.75000000  1
  O  O25  1  0.74216291  0.53743924  0.96960973  1
  O  O26  1  0.74216291  0.53743924  0.53039027  1
  O  O27  1  0.55511501  0.02751452  0.25000000  1
  O  O28  1  0.79530906  0.25774369  0.96957780  1
  O  O29  1  0.79530906  0.25774369  0.53042220  1
  O  O30  1  0.97259186  0.52758484  0.25000000  1
  O  O31  1  0.97466726  0.18964109  0.75000000  1
