# generated using pymatgen
data_Li7(NiO2)11
_symmetry_space_group_name_H-M   'P 1'
_cell_length_a   4.92451327
_cell_length_b   9.80664416
_cell_length_c   8.62587232
_cell_angle_alpha   65.37550232
_cell_angle_beta   94.61085579
_cell_angle_gamma   85.50602071
_symmetry_Int_Tables_number   1
_chemical_formula_structural   Li7(NiO2)11
_chemical_formula_sum   'Li7 Ni11 O22'
_cell_volume   374.57295722
_cell_formula_units_Z   1
loop_
 _symmetry_equiv_pos_site_id
 _symmetry_equiv_pos_as_xyz
  1  'x, y, z'
loop_
 _atom_site_type_symbol
 _atom_site_label
 _atom_site_symmetry_multiplicity
 _atom_site_fract_x
 _atom_site_fract_y
 _atom_site_fract_z
 _atom_site_occupancy
  Li  Li0  1  0.81011701  0.86670254  0.76714932  1
  Li  Li1  1  0.54545500  0.40909100  0.68181800  1
  Li  Li2  1  0.28079199  0.95147846  0.59648668  1
  Li  Li3  1  0.45257428  0.59270287  0.31844367  1
  Li  Li4  1  0.91852867  0.68474977  0.13604562  1
  Li  Li5  1  0.17238033  0.13343223  0.22759138  1
  Li  Li6  1  0.63833472  0.22547813  0.04519233  1
  Ni  Ni7  1  0.72636341  0.54518781  0.90952343  1
  Ni  Ni8  1  0.90887671  0.18583378  0.63521615  1
  Ni  Ni9  1  0.46081541  0.08738144  0.81706272  1
  Ni  Ni10  1  0.63009459  0.73080056  0.54657428  1
  Ni  Ni11  1  0.18203229  0.63234822  0.72841985  1
  Ni  Ni12  1  0.36454559  0.27299319  0.45411357  1
  Ni  Ni13  1  0.81875371  0.36331245  0.27475834  1
  Ni  Ni14  1  0.54545500  0.90909100  0.18181800  1
  Ni  Ni15  1  0.08321486  0.81874202  0.36749468  1
  Ni  Ni16  1  0.27215529  0.45486955  0.08887766  1
  Ni  Ni17  1  0.00769414  0.99943998  0.99614132  1
  O  O18  1  0.75833415  0.19289073  0.82524100  1
  O  O19  1  0.69639282  0.90736165  0.96675827  1
  O  O20  1  0.83595450  0.54797930  0.70075636  1
  O  O21  1  0.42218644  0.44502401  0.89749929  1
  O  O22  1  0.58911469  0.07541022  0.62756646  1
  O  O23  1  0.50179431  0.74277178  0.73607054  1
  O  O24  1  0.94594989  0.82291624  0.56554884  1
  O  O25  1  0.04404275  0.63700586  0.92493268  1
  O  O26  1  0.66872256  0.37315799  0.46613771  1
  O  O27  1  0.25495450  0.27020170  0.66288064  1
  O  O28  1  0.14495911  0.99526476  0.79808816  1
  O  O29  1  0.86433750  0.01603677  0.18281468  1
  O  O30  1  0.75579363  0.72953664  0.34101383  1
  O  O31  1  0.33257485  0.62529127  0.53839500  1
  O  O32  1  0.48377729  0.27198429  0.24641080  1
  O  O33  1  0.04686625  0.18117614  0.43870332  1
  O  O34  1  0.95743580  0.34545491  0.08840980  1
  O  O35  1  0.39451618  0.91082035  0.39687773  1
  O  O36  1  0.13347320  0.47272709  0.27522620  1
  O  O37  1  0.60713171  0.54619671  0.11722520  1
  O  O38  1  0.33511537  0.08864536  0.02262317  1
  O  O39  1  0.22657150  0.80214523  0.18082132  1
