# generated using pymatgen
data_LaAlO3
_symmetry_space_group_name_H-M   'P 1'
_cell_length_a   8.31854353
_cell_length_b   7.92599936
_cell_length_c   7.35280489
_cell_angle_alpha   89.67373940
_cell_angle_beta   96.34129929
_cell_angle_gamma   103.82211814
_symmetry_Int_Tables_number   1
_chemical_formula_structural   LaAlO3
_chemical_formula_sum   'La6 Al6 O18'
_cell_volume   467.76447376
_cell_formula_units_Z   6
loop_
 _symmetry_equiv_pos_site_id
 _symmetry_equiv_pos_as_xyz
  1  'x, y, z'
loop_
 _atom_site_type_symbol
 _atom_site_label
 _atom_site_symmetry_multiplicity
 _atom_site_fract_x
 _atom_site_fract_y
 _atom_site_fract_z
 _atom_site_occupancy
  La  La0  1  0.01534285  0.75490015  0.02765421  1
  La  La1  1  0.98465715  0.24509985  0.97234579  1
  La  La2  1  0.30229626  0.57673854  0.73055212  1
  La  La3  1  0.31780095  0.08214468  0.73715467  1
  La  La4  1  0.68219905  0.91785532  0.26284533  1
  La  La5  1  0.69770374  0.42326146  0.26944788  1
  Al  Al6  1  0.09389588  0.26901131  0.44672323  1
  Al  Al7  1  0.31206191  0.60480658  0.23189803  1
  Al  Al8  1  0.31363356  0.04896880  0.23440275  1
  Al  Al9  1  0.68636644  0.95103120  0.76559725  1
  Al  Al10  1  0.68793809  0.39519342  0.76810197  1
  Al  Al11  1  0.90610412  0.73098869  0.55327677  1
  O  O12  1  0.09241167  0.77918519  0.70677054  1
  O  O13  1  0.10334023  0.27104062  0.69057858  1
  O  O14  1  0.18615895  0.52809956  0.02087906  1
  O  O15  1  0.21775311  0.48356985  0.41178767  1
  O  O16  1  0.29470942  0.82251752  0.24680977  1
  O  O17  1  0.22553353  0.12358167  0.41740374  1
  O  O18  1  0.19166881  0.06737659  0.02151479  1
  O  O19  1  0.47222552  0.85824479  0.76778532  1
  O  O20  1  0.47463621  0.38135687  0.77208841  1
  O  O21  1  0.52536379  0.61864313  0.22791159  1
  O  O22  1  0.52777448  0.14175521  0.23221468  1
  O  O23  1  0.80833119  0.93262341  0.97848521  1
  O  O24  1  0.77446647  0.87641833  0.58259626  1
  O  O25  1  0.70529058  0.17748248  0.75319023  1
  O  O26  1  0.78224689  0.51643015  0.58821233  1
  O  O27  1  0.81384105  0.47190044  0.97912094  1
  O  O28  1  0.89665977  0.72895938  0.30942142  1
  O  O29  1  0.90758833  0.22081481  0.29322946  1
