# generated using pymatgen
data_Gd3AsO7
_symmetry_space_group_name_H-M   'P 1'
_cell_length_a   7.37865964
_cell_length_b   10.54630679
_cell_length_c   7.35617914
_cell_angle_alpha   89.99977398
_cell_angle_beta   89.99969864
_cell_angle_gamma   90.00016636
_symmetry_Int_Tables_number   1
_chemical_formula_structural   Gd3AsO7
_chemical_formula_sum   'Gd12 As4 O28'
_cell_volume   572.44026662
_cell_formula_units_Z   4
loop_
 _symmetry_equiv_pos_site_id
 _symmetry_equiv_pos_as_xyz
  1  'x, y, z'
loop_
 _atom_site_type_symbol
 _atom_site_label
 _atom_site_symmetry_multiplicity
 _atom_site_fract_x
 _atom_site_fract_y
 _atom_site_fract_z
 _atom_site_occupancy
  Gd  Gd0  1  0.00370648  0.25000279  0.77264563  1
  Gd  Gd1  1  0.25346263  0.52602617  0.95436510  1
  Gd  Gd2  1  0.25346409  0.97397547  0.95436291  1
  Gd  Gd3  1  0.24653688  0.02602449  0.45436457  1
  Gd  Gd4  1  0.24653705  0.47397785  0.45436226  1
  Gd  Gd5  1  0.49629025  0.75000006  0.27264294  1
  Gd  Gd6  1  0.50370842  0.25000087  0.72735506  1
  Gd  Gd7  1  0.75346411  0.52602325  0.54563760  1
  Gd  Gd8  1  0.75346234  0.97397521  0.54563579  1
  Gd  Gd9  1  0.74653515  0.02602300  0.04563659  1
  Gd  Gd10  1  0.74653989  0.47397255  0.04563808  1
  Gd  Gd11  1  0.99629258  0.74999943  0.22735350  1
  As  As12  1  0.00199626  0.74999924  0.75084550  1
  As  As13  1  0.49800390  0.25000053  0.25084524  1
  As  As14  1  0.50199721  0.74999932  0.74915423  1
  As  As15  1  0.99800162  0.25000067  0.24915452  1
  O  O16  1  0.03173728  0.12843040  0.06575589  1
  O  O17  1  0.03173776  0.37156930  0.06575456  1
  O  O18  1  0.03654389  0.62461016  0.57960230  1
  O  O19  1  0.03654338  0.87539049  0.57960055  1
  O  O20  1  0.24746095  0.24999954  0.32748403  1
  O  O21  1  0.25074272  0.11719763  0.72906870  1
  O  O22  1  0.25074147  0.38280279  0.72906888  1
  O  O23  1  0.24925843  0.61719640  0.22906833  1
  O  O24  1  0.24925808  0.88280467  0.22906921  1
  O  O25  1  0.25254020  0.75000001  0.82748487  1
  O  O26  1  0.46345592  0.12460991  0.07960169  1
  O  O27  1  0.46345562  0.37538952  0.07960102  1
  O  O28  1  0.46826327  0.62843036  0.56575596  1
  O  O29  1  0.46826206  0.87157016  0.56575568  1
  O  O30  1  0.53173686  0.12842986  0.43424541  1
  O  O31  1  0.53173721  0.37156914  0.43424474  1
  O  O32  1  0.53654382  0.62460980  0.92039880  1
  O  O33  1  0.53654293  0.87538950  0.92039798  1
  O  O34  1  0.74746135  0.24999972  0.17251534  1
  O  O35  1  0.75074255  0.11719617  0.77093050  1
  O  O36  1  0.75074170  0.38280320  0.77093099  1
  O  O37  1  0.74925781  0.61719590  0.27093123  1
  O  O38  1  0.74925781  0.88280530  0.27093113  1
  O  O39  1  0.75253845  0.74999999  0.67251600  1
  O  O40  1  0.96345616  0.12460945  0.42039927  1
  O  O41  1  0.96345617  0.37538940  0.42039861  1
  O  O42  1  0.96826336  0.62842984  0.93424505  1
  O  O43  1  0.96826394  0.87157049  0.93424377  1
