# generated using pymatgen
data_Gd2HfO5
_symmetry_space_group_name_H-M   'P 1'
_cell_length_a   10.87142376
_cell_length_b   11.70687741
_cell_length_c   3.79120736
_cell_angle_alpha   90.00001465
_cell_angle_beta   89.99987282
_cell_angle_gamma   89.99851964
_symmetry_Int_Tables_number   1
_chemical_formula_structural   Gd2HfO5
_chemical_formula_sum   'Gd8 Hf4 O20'
_cell_volume   482.50857276
_cell_formula_units_Z   4
loop_
 _symmetry_equiv_pos_site_id
 _symmetry_equiv_pos_as_xyz
  1  'x, y, z'
loop_
 _atom_site_type_symbol
 _atom_site_label
 _atom_site_symmetry_multiplicity
 _atom_site_fract_x
 _atom_site_fract_y
 _atom_site_fract_z
 _atom_site_occupancy
  Gd  Gd0  1  0.11764414  0.72198652  0.25000598  1
  Gd  Gd1  1  0.13023466  0.06073951  0.25000342  1
  Gd  Gd2  1  0.36976606  0.56072128  0.74999566  1
  Gd  Gd3  1  0.38235373  0.22196054  0.74999642  1
  Gd  Gd4  1  0.61768058  0.77804886  0.24999973  1
  Gd  Gd5  1  0.63026906  0.43924662  0.25000297  1
  Gd  Gd6  1  0.86975025  0.93926942  0.75000081  1
  Gd  Gd7  1  0.88232638  0.27802630  0.74999981  1
  Hf  Hf8  1  0.17456695  0.38345272  0.24999945  1
  Hf  Hf9  1  0.32543500  0.88346597  0.74999931  1
  Hf  Hf10  1  0.67456728  0.11654166  0.24999807  1
  Hf  Hf11  1  0.82543015  0.61653168  0.75000014  1
  O  O12  1  0.00506912  0.10410481  0.74999967  1
  O  O13  1  0.00133423  0.34276306  0.24999981  1
  O  O14  1  0.22936434  0.54927258  0.24999939  1
  O  O15  1  0.24576931  0.38642815  0.75000011  1
  O  O16  1  0.24460993  0.72842447  0.74999949  1
  O  O17  1  0.25539587  0.22842996  0.24999874  1
  O  O18  1  0.25423334  0.88642203  0.25000018  1
  O  O19  1  0.27064752  0.04927875  0.75000117  1
  O  O20  1  0.49865928  0.84276249  0.74999954  1
  O  O21  1  0.49491553  0.60409207  0.24999876  1
  O  O22  1  0.50506642  0.39591248  0.75000259  1
  O  O23  1  0.50134496  0.15723718  0.25000092  1
  O  O24  1  0.72934435  0.95073030  0.24999952  1
  O  O25  1  0.74575924  0.11358310  0.74999898  1
  O  O26  1  0.74460226  0.77156625  0.74999927  1
  O  O27  1  0.75539645  0.27156954  0.25000035  1
  O  O28  1  0.75423382  0.61357392  0.24999982  1
  O  O29  1  0.77064639  0.45072277  0.74999975  1
  O  O30  1  0.99865275  0.65723523  0.74999991  1
  O  O31  1  0.99493067  0.89589980  0.25000028  1
