# generated using pymatgen
data_NaSbCSO7
_symmetry_space_group_name_H-M   'P 1'
_cell_length_a   9.02745323
_cell_length_b   6.80591238
_cell_length_c   5.84426231
_cell_angle_alpha   90.00000000
_cell_angle_beta   94.48852126
_cell_angle_gamma   90.00000000
_symmetry_Int_Tables_number   1
_chemical_formula_structural   NaSbCSO7
_chemical_formula_sum   'Na2 Sb2 C2 S2 O14'
_cell_volume   357.97054038
_cell_formula_units_Z   2
loop_
 _symmetry_equiv_pos_site_id
 _symmetry_equiv_pos_as_xyz
  1  'x, y, z'
loop_
 _atom_site_type_symbol
 _atom_site_label
 _atom_site_symmetry_multiplicity
 _atom_site_fract_x
 _atom_site_fract_y
 _atom_site_fract_z
 _atom_site_occupancy
  Na  Na0  1  0.21622664  0.49949985  0.24351283  1
  Na  Na1  1  0.78377336  0.99949985  0.75648717  1
  Sb  Sb2  1  0.36319042  0.75728716  0.79431549  1
  Sb  Sb3  1  0.63680958  0.25728716  0.20568451  1
  C  C4  1  0.08087906  0.73779645  0.72328033  1
  C  C5  1  0.91912094  0.23779645  0.27671967  1
  S  S6  1  0.40171326  0.25720224  0.72689082  1
  S  S7  1  0.59828674  0.75720224  0.27310918  1
  O  O8  1  0.05435858  0.25312250  0.30504052  1
  O  O9  1  0.15937297  0.74620405  0.93265572  1
  O  O10  1  0.17403735  0.71624411  0.55626865  1
  O  O11  1  0.31056386  0.08102560  0.78213858  1
  O  O12  1  0.34889700  0.42041369  0.87539047  1
  O  O13  1  0.43620736  0.71967755  0.20392398  1
  O  O14  1  0.38405753  0.30937581  0.48362799  1
  O  O15  1  0.61594247  0.80937581  0.51637201  1
  O  O16  1  0.56379264  0.21967755  0.79607602  1
  O  O17  1  0.65110300  0.92041369  0.12460953  1
  O  O18  1  0.68943614  0.58102560  0.21786142  1
  O  O19  1  0.82596265  0.21624411  0.44373135  1
  O  O20  1  0.84062703  0.24620405  0.06734428  1
  O  O21  1  0.94564142  0.75312250  0.69495948  1
