# generated using pymatgen
data_Na3Sc2(MoO4)3
_symmetry_space_group_name_H-M   'P 1'
_cell_length_a   7.28802235
_cell_length_b   9.23498344
_cell_length_c   9.23498344
_cell_angle_alpha   95.06581224
_cell_angle_beta   104.29598770
_cell_angle_gamma   104.29598770
_symmetry_Int_Tables_number   1
_chemical_formula_structural   Na3Sc2(MoO4)3
_chemical_formula_sum   'Na6 Sc4 Mo6 O24'
_cell_volume   576.23691331
_cell_formula_units_Z   2
loop_
 _symmetry_equiv_pos_site_id
 _symmetry_equiv_pos_as_xyz
  1  'x, y, z'
loop_
 _atom_site_type_symbol
 _atom_site_label
 _atom_site_symmetry_multiplicity
 _atom_site_fract_x
 _atom_site_fract_y
 _atom_site_fract_z
 _atom_site_occupancy
  Na  Na0  1  0.75000000  0.23083750  0.76916250  1
  Na  Na1  1  0.25000000  0.76916250  0.23083750  1
  Na  Na2  1  0.00000000  -0.00000000  0.00000000  1
  Na  Na3  1  0.50000000  -0.00000000  0.00000000  1
  Na  Na4  1  0.75000000  0.51266074  0.48733926  1
  Na  Na5  1  0.25000000  0.48733926  0.51266074  1
  Sc  Sc6  1  0.62264184  0.55408595  0.86840016  1
  Sc  Sc7  1  0.37735816  0.44591405  0.13159984  1
  Sc  Sc8  1  0.87735816  0.13159984  0.44591405  1
  Sc  Sc9  1  0.12264184  0.86840016  0.55408595  1
  Mo  Mo10  1  0.75000000  0.78160908  0.21839092  1
  Mo  Mo11  1  0.25000000  0.21839092  0.78160908  1
  Mo  Mo12  1  0.87832611  0.37798213  0.15395880  1
  Mo  Mo13  1  0.12167389  0.62201787  0.84604120  1
  Mo  Mo14  1  0.62167389  0.84604120  0.62201787  1
  Mo  Mo15  1  0.37832611  0.15395880  0.37798213  1
  O  O16  1  0.66004858  0.46300229  0.08669943  1
  O  O17  1  0.33995142  0.53699771  0.91330057  1
  O  O18  1  0.83995142  0.91330057  0.53699771  1
  O  O19  1  0.16004858  0.08669943  0.46300229  1
  O  O20  1  0.87434818  0.49838631  0.84209173  1
  O  O21  1  0.12565182  0.50161369  0.15790827  1
  O  O22  1  0.62565182  0.15790827  0.50161369  1
  O  O23  1  0.37434818  0.84209173  0.49838631  1
  O  O24  1  0.79087775  0.19927055  0.03350487  1
  O  O25  1  0.20912225  0.80072945  0.96649513  1
  O  O26  1  0.70912225  0.96649513  0.80072945  1
  O  O27  1  0.29087775  0.03350487  0.19927055  1
  O  O28  1  0.76928796  0.75911499  0.01987928  1
  O  O29  1  0.23071204  0.24088501  0.98012072  1
  O  O30  1  0.73071204  0.98012072  0.24088501  1
  O  O31  1  0.26928796  0.01987928  0.75911499  1
  O  O32  1  0.52788295  0.66363503  0.26279115  1
  O  O33  1  0.47211705  0.33636497  0.73720885  1
  O  O34  1  0.97211705  0.73720885  0.33636497  1
  O  O35  1  0.02788295  0.26279115  0.66363503  1
  O  O36  1  0.58386882  0.64401043  0.66586829  1
  O  O37  1  0.41613118  0.35598957  0.33413171  1
  O  O38  1  0.91613118  0.33413171  0.35598957  1
  O  O39  1  0.08386882  0.66586829  0.64401043  1
