# generated using pymatgen
data_Ca4Ta2O9
_symmetry_space_group_name_H-M   'P 1'
_cell_length_a   5.76092640
_cell_length_b   14.87329634
_cell_length_c   5.76243511
_cell_angle_alpha   90.09521122
_cell_angle_beta   119.95415965
_cell_angle_gamma   89.80015421
_symmetry_Int_Tables_number   1
_chemical_formula_structural   Ca4Ta2O9
_chemical_formula_sum   'Ca8 Ta4 O18'
_cell_volume   427.79333781
_cell_formula_units_Z   2
loop_
 _symmetry_equiv_pos_site_id
 _symmetry_equiv_pos_as_xyz
  1  'x, y, z'
loop_
 _atom_site_type_symbol
 _atom_site_label
 _atom_site_symmetry_multiplicity
 _atom_site_fract_x
 _atom_site_fract_y
 _atom_site_fract_z
 _atom_site_occupancy
  Ca  Ca0  1  0.00074162  0.74477467  0.99799731  1
  Ca  Ca1  1  0.00000000  0.50000000  0.00000000  1
  Ca  Ca2  1  0.00000000  0.00000000  0.00000000  1
  Ca  Ca3  1  0.33441971  0.65620790  0.66658867  1
  Ca  Ca4  1  0.33993603  0.90504418  0.66727767  1
  Ca  Ca5  1  0.66006397  0.09495582  0.33272233  1
  Ca  Ca6  1  0.66558029  0.34379210  0.33341133  1
  Ca  Ca7  1  0.99925838  0.25522533  0.00200269  1
  Ta  Ta8  1  0.32847992  0.15082695  0.66500707  1
  Ta  Ta9  1  0.33299351  0.35074480  0.66726161  1
  Ta  Ta10  1  0.66700649  0.64925520  0.33273839  1
  Ta  Ta11  1  0.67152008  0.84917305  0.33499293  1
  O  O12  1  0.03905745  0.24781685  0.61941009  1
  O  O13  1  0.29388376  0.40115613  0.94841550  1
  O  O14  1  0.28261240  0.08976990  0.93225424  1
  O  O15  1  0.05109337  0.39968549  0.34423133  1
  O  O16  1  0.06032896  0.08903998  0.35415769  1
  O  O17  1  0.57511316  0.24692712  0.95689669  1
  O  O18  1  0.38154433  0.24601245  0.42334938  1
  O  O19  1  0.36599970  0.91536146  0.29110798  1
  O  O20  1  0.34718209  0.59932704  0.29428992  1
  O  O21  1  0.65281791  0.40067296  0.70571008  1
  O  O22  1  0.63400030  0.08463854  0.70889202  1
  O  O23  1  0.61845567  0.75398755  0.57665062  1
  O  O24  1  0.42488684  0.75307288  0.04310431  1
  O  O25  1  0.93967104  0.91096002  0.64584231  1
  O  O26  1  0.94890663  0.60031451  0.65576867  1
  O  O27  1  0.71738760  0.91023010  0.06774576  1
  O  O28  1  0.70611624  0.59884387  0.05158450  1
  O  O29  1  0.96094255  0.75218315  0.38058991  1
