# generated using pymatgen
data_Na3Ni2P2(CO7)2
_symmetry_space_group_name_H-M   'P 1'
_cell_length_a   9.00944991
_cell_length_b   8.27328073
_cell_length_c   8.28453808
_cell_angle_alpha   77.10635007
_cell_angle_beta   89.02614625
_cell_angle_gamma   91.10684413
_symmetry_Int_Tables_number   1
_chemical_formula_structural   Na3Ni2P2(CO7)2
_chemical_formula_sum   'Na6 Ni4 P4 C4 O28'
_cell_volume   601.68438125
_cell_formula_units_Z   2
loop_
 _symmetry_equiv_pos_site_id
 _symmetry_equiv_pos_as_xyz
  1  'x, y, z'
loop_
 _atom_site_type_symbol
 _atom_site_label
 _atom_site_symmetry_multiplicity
 _atom_site_fract_x
 _atom_site_fract_y
 _atom_site_fract_z
 _atom_site_occupancy
  Na  Na0  1  0.75281973  0.61886155  0.36813297  1
  Na  Na1  1  0.76314021  0.36922935  0.12935996  1
  Na  Na2  1  0.74379356  0.89136001  0.65873939  1
  Na  Na3  1  0.24673095  0.62260372  0.86599479  1
  Na  Na4  1  0.23981384  0.38084787  0.61938907  1
  Na  Na5  1  0.25163107  0.90811405  0.14111013  1
  Ni  Ni6  1  0.64949855  0.01629665  0.22994340  1
  Ni  Ni7  1  0.65255595  0.51329945  0.73019702  1
  Ni  Ni8  1  0.35274588  0.98274039  0.76417035  1
  Ni  Ni9  1  0.34603045  0.47766507  0.26566170  1
  P  P10  1  0.57043866  0.23513731  0.50907440  1
  P  P11  1  0.57425507  0.72838817  0.02265832  1
  P  P12  1  0.42773558  0.26775778  0.97836121  1
  P  P13  1  0.42788763  0.76453329  0.48535316  1
  C  C14  1  0.92069050  0.48373585  0.76241558  1
  C  C15  1  0.91763052  0.98381019  0.27274106  1
  C  C16  1  0.08228737  0.01285401  0.73457964  1
  C  C17  1  0.07940704  0.52053602  0.23368381  1
  O  O18  1  0.94614287  0.03109475  0.71728454  1
  O  O19  1  0.94295249  0.53863661  0.21395909  1
  O  O20  1  0.86014053  0.59793465  0.65088433  1
  O  O21  1  0.86355701  0.09497235  0.15558127  1
  O  O22  1  0.82282524  0.38671876  0.85399505  1
  O  O23  1  0.81697827  0.89440185  0.37012528  1
  O  O24  1  0.67077332  0.67199103  0.89060652  1
  O  O25  1  0.66950056  0.18145785  0.37685223  1
  O  O26  1  0.66801245  0.36975561  0.56093997  1
  O  O27  1  0.67522512  0.84912528  0.09033936  1
  O  O28  1  0.57274826  0.19805018  0.05490053  1
  O  O29  1  0.57888409  0.69741828  0.55468365  1
  O  O30  1  0.53835497  0.08481798  0.65557983  1
  O  O31  1  0.53806089  0.57517379  0.16878827  1
  O  O32  1  0.46270091  0.41484174  0.82602283  1
  O  O33  1  0.46184725  0.90982809  0.33400930  1
  O  O34  1  0.42767583  0.80530540  0.95362168  1
  O  O35  1  0.42035721  0.30302077  0.44213425  1
  O  O36  1  0.32932735  0.13663271  0.92141122  1
  O  O37  1  0.33341288  0.81740444  0.62066873  1
  O  O38  1  0.32456688  0.33430532  0.09804442  1
  O  O39  1  0.33028622  0.63099345  0.43182318  1
  O  O40  1  0.17948149  0.10650280  0.63892642  1
  O  O41  1  0.18056436  0.61572803  0.14229486  1
  O  O42  1  0.13634508  0.40529381  0.34498932  1
  O  O43  1  0.13937497  0.89961687  0.84923606  1
  O  O44  1  0.05792937  0.47023107  0.77889859  1
  O  O45  1  0.05288057  0.96082082  0.29167925  1
