# generated using pymatgen
data_Li4V3Cr3(TeO8)2
_symmetry_space_group_name_H-M   'P 1'
_cell_length_a   5.98506922
_cell_length_b   5.98429316
_cell_length_c   9.99324040
_cell_angle_alpha   89.95469930
_cell_angle_beta   90.28131679
_cell_angle_gamma   119.06870361
_symmetry_Int_Tables_number   1
_chemical_formula_structural   Li4V3Cr3(TeO8)2
_chemical_formula_sum   'Li4 V3 Cr3 Te2 O16'
_cell_volume   312.83303043
_cell_formula_units_Z   1
loop_
 _symmetry_equiv_pos_site_id
 _symmetry_equiv_pos_as_xyz
  1  'x, y, z'
loop_
 _atom_site_type_symbol
 _atom_site_label
 _atom_site_symmetry_multiplicity
 _atom_site_fract_x
 _atom_site_fract_y
 _atom_site_fract_z
 _atom_site_occupancy
  Li  Li0  1  0.33576097  0.67114286  0.90209334  1
  Li  Li1  1  0.99564510  0.99543695  0.99212055  1
  Li  Li2  1  0.99664806  0.99215335  0.49211339  1
  Li  Li3  1  0.67294518  0.33842587  0.39956797  1
  V  V4  1  0.65674986  0.83006751  0.21901267  1
  V  V5  1  0.82843885  0.65605679  0.71884903  1
  V  V6  1  0.82992047  0.16885577  0.71549604  1
  Cr  Cr7  1  0.16913039  0.83190226  0.21526925  1
  Cr  Cr8  1  0.17000296  0.33828797  0.21502797  1
  Cr  Cr9  1  0.33702107  0.16844085  0.71468099  1
  Te  Te10  1  0.32330167  0.65476695  0.49457212  1
  Te  Te11  1  0.65413967  0.32361619  0.99571408  1
  O  O12  1  0.15514455  0.83200842  0.60117449  1
  O  O13  1  0.03843293  0.52057556  0.33936541  1
  O  O14  1  0.33695988  0.66419885  0.11049360  1
  O  O15  1  0.99945721  0.00303167  0.30973244  1
  O  O16  1  0.00226877  0.99933855  0.80900514  1
  O  O17  1  0.15219814  0.31500421  0.59508995  1
  O  O18  1  0.50278036  0.97739732  0.32457066  1
  O  O19  1  0.49070419  0.51597306  0.32789657  1
  O  O20  1  0.31358000  0.15188857  0.09735259  1
  O  O21  1  0.69615681  0.83307929  0.60594096  1
  O  O22  1  0.51267071  0.48978329  0.82559520  1
  O  O23  1  0.52002397  0.03656201  0.84006972  1
  O  O24  1  0.66318211  0.33504092  0.60945305  1
  O  O25  1  0.83844624  0.69606818  0.10849460  1
  O  O26  1  0.97328196  0.50441868  0.83009449  1
  O  O27  1  0.83500791  0.15677810  0.09899175  1
