# generated using pymatgen
data_Li5Co5(SnO6)2
_symmetry_space_group_name_H-M   'P 1'
_cell_length_a   5.27154366
_cell_length_b   5.27154403
_cell_length_c   10.05268045
_cell_angle_alpha   84.22104617
_cell_angle_beta   95.77894888
_cell_angle_gamma   59.18689784
_symmetry_Int_Tables_number   1
_chemical_formula_structural   Li5Co5(SnO6)2
_chemical_formula_sum   'Li5 Co5 Sn2 O12'
_cell_volume   234.88262951
_cell_formula_units_Z   1
loop_
 _symmetry_equiv_pos_site_id
 _symmetry_equiv_pos_as_xyz
  1  'x, y, z'
loop_
 _atom_site_type_symbol
 _atom_site_label
 _atom_site_symmetry_multiplicity
 _atom_site_fract_x
 _atom_site_fract_y
 _atom_site_fract_z
 _atom_site_occupancy
  Li  Li0  1  0.18802109  0.68217595  0.50078884  1
  Li  Li1  1  0.32993534  0.81265285  0.99332633  1
  Li  Li2  1  0.68217595  0.18802109  0.99921116  1
  Li  Li3  1  0.81265285  0.32993534  0.50667367  1
  Li  Li4  1  0.91421360  0.91421360  0.75000000  1
  Co  Co5  1  0.08414392  0.08414392  0.25000000  1
  Co  Co6  1  0.00048637  0.50345138  0.99663233  1
  Co  Co7  1  0.50345138  0.00048637  0.50336767  1
  Co  Co8  1  0.41756519  0.41756519  0.25000000  1
  Co  Co9  1  0.58127424  0.58127424  0.75000000  1
  Sn  Sn10  1  0.25075844  0.25075844  0.75000000  1
  Sn  Sn11  1  0.75100539  0.75100539  0.25000000  1
  O  O12  1  0.94546166  0.23822907  0.86678243  1
  O  O13  1  0.23822907  0.94546166  0.63321757  1
  O  O14  1  0.12860284  0.37350544  0.37359823  1
  O  O15  1  0.37350544  0.12860284  0.12640177  1
  O  O16  1  0.31290676  0.52775800  0.86533172  1
  O  O17  1  0.52775800  0.31290676  0.63466828  1
  O  O18  1  0.46405071  0.71341612  0.36870421  1
  O  O19  1  0.71341612  0.46405071  0.13129579  1
  O  O20  1  0.61667657  0.84506790  0.86353568  1
  O  O21  1  0.84506790  0.61667657  0.63646432  1
  O  O22  1  0.78762976  0.03101141  0.37420169  1
  O  O23  1  0.03101141  0.78762976  0.12579831  1
