# generated using pymatgen
data_Li4Mn5Sb3O16
_symmetry_space_group_name_H-M   'P 1'
_cell_length_a   6.19081677
_cell_length_b   6.12774098
_cell_length_c   9.93039512
_cell_angle_alpha   90.00772773
_cell_angle_beta   90.32147345
_cell_angle_gamma   119.66916582
_symmetry_Int_Tables_number   1
_chemical_formula_structural   Li4Mn5Sb3O16
_chemical_formula_sum   'Li4 Mn5 Sb3 O16'
_cell_volume   327.32140987
_cell_formula_units_Z   1
loop_
 _symmetry_equiv_pos_site_id
 _symmetry_equiv_pos_as_xyz
  1  'x, y, z'
loop_
 _atom_site_type_symbol
 _atom_site_label
 _atom_site_symmetry_multiplicity
 _atom_site_fract_x
 _atom_site_fract_y
 _atom_site_fract_z
 _atom_site_occupancy
  Li  Li0  1  0.32461513  0.66233412  0.87310592  1
  Li  Li1  1  0.98034356  0.99011649  0.99222857  1
  Li  Li2  1  0.99500136  0.99748362  0.50666769  1
  Li  Li3  1  0.64869395  0.32446914  0.39858211  1
  Mn  Mn4  1  0.35297527  0.67646314  0.51120321  1
  Mn  Mn5  1  0.66360356  0.83181171  0.21659750  1
  Mn  Mn6  1  0.68866643  0.34435695  0.98574499  1
  Mn  Mn7  1  0.83383207  0.66398332  0.71438010  1
  Mn  Mn8  1  0.83392401  0.16996590  0.71447999  1
  Sb  Sb9  1  0.16813084  0.83067388  0.21586349  1
  Sb  Sb10  1  0.16811472  0.33750318  0.21583770  1
  Sb  Sb11  1  0.34249150  0.17124390  0.71606841  1
  O  O12  1  0.16516492  0.85010909  0.60453099  1
  O  O13  1  0.02267542  0.51137033  0.32993209  1
  O  O14  1  0.30465427  0.65235887  0.09747175  1
  O  O15  1  0.02316904  0.01163392  0.32290298  1
  O  O16  1  0.02328911  0.01057443  0.81730738  1
  O  O17  1  0.16430638  0.31487535  0.60491220  1
  O  O18  1  0.47352354  0.96317860  0.32776207  1
  O  O19  1  0.47330202  0.51025231  0.32782765  1
  O  O20  1  0.30726676  0.15360196  0.10308536  1
  O  O21  1  0.69906698  0.84920468  0.61246453  1
  O  O22  1  0.51585027  0.48312303  0.83263378  1
  O  O23  1  0.51680246  0.03295368  0.83224825  1
  O  O24  1  0.64575958  0.32384711  0.59812410  1
  O  O25  1  0.85275722  0.69149307  0.10789634  1
  O  O26  1  0.95914102  0.47991839  0.82017688  1
  O  O27  1  0.85287761  0.16139885  0.10780398  1
