# generated using pymatgen
data_LiLa4MnO8
_symmetry_space_group_name_H-M   'P 1'
_cell_length_a   5.41770273
_cell_length_b   7.00910960
_cell_length_c   5.41802823
_cell_angle_alpha   90.00000453
_cell_angle_beta   89.99969342
_cell_angle_gamma   112.73871357
_symmetry_Int_Tables_number   1
_chemical_formula_structural   LiLa4MnO8
_chemical_formula_sum   'Li1 La4 Mn1 O8'
_cell_volume   189.74953732
_cell_formula_units_Z   1
loop_
 _symmetry_equiv_pos_site_id
 _symmetry_equiv_pos_as_xyz
  1  'x, y, z'
loop_
 _atom_site_type_symbol
 _atom_site_label
 _atom_site_symmetry_multiplicity
 _atom_site_fract_x
 _atom_site_fract_y
 _atom_site_fract_z
 _atom_site_occupancy
  Li  Li0  1  0.49999774  0.99999899  0.50000251  1
  La  La1  1  0.13867744  0.27736468  0.49998572  1
  La  La2  1  0.63705735  0.27403616  0.00000181  1
  La  La3  1  0.36294738  0.72597612  0.00000931  1
  La  La4  1  0.86130357  0.72261900  0.50000973  1
  Mn  Mn5  1  0.00000603  0.00000042  0.00000050  1
  O  O6  1  0.24810857  0.00002318  0.24666728  1
  O  O7  1  0.24811016  0.00002358  0.75333972  1
  O  O8  1  0.75189170  0.99997943  0.24666547  1
  O  O9  1  0.75190001  0.99997862  0.75333363  1
  O  O10  1  0.18049520  0.36136466  0.99999201  1
  O  O11  1  0.68197872  0.36411575  0.49999346  1
  O  O12  1  0.31801552  0.63588287  0.50000111  1
  O  O13  1  0.81951061  0.63863654  0.99999674  1
