# generated using pymatgen
data_Li2Cr2O7
_symmetry_space_group_name_H-M   'P 1'
_cell_length_a   5.43284519
_cell_length_b   7.62163822
_cell_length_c   7.82360526
_cell_angle_alpha   77.95023102
_cell_angle_beta   77.51028478
_cell_angle_gamma   90.58154054
_symmetry_Int_Tables_number   1
_chemical_formula_structural   Li2Cr2O7
_chemical_formula_sum   'Li4 Cr4 O14'
_cell_volume   308.79899848
_cell_formula_units_Z   2
loop_
 _symmetry_equiv_pos_site_id
 _symmetry_equiv_pos_as_xyz
  1  'x, y, z'
loop_
 _atom_site_type_symbol
 _atom_site_label
 _atom_site_symmetry_multiplicity
 _atom_site_fract_x
 _atom_site_fract_y
 _atom_site_fract_z
 _atom_site_occupancy
  Li  Li0  1  0.19519233  0.74725883  0.68863123  1
  Li  Li1  1  0.23406963  0.22433774  0.07907396  1
  Li  Li2  1  0.76593037  0.77566226  0.92092604  1
  Li  Li3  1  0.80480767  0.25274117  0.31136877  1
  Cr  Cr4  1  0.21925563  0.75093794  0.13607771  1
  Cr  Cr5  1  0.24526329  0.23707590  0.52348910  1
  Cr  Cr6  1  0.75473671  0.76292410  0.47651090  1
  Cr  Cr7  1  0.78074437  0.24906206  0.86392229  1
  O  O8  1  0.02432618  0.34101506  0.67182800  1
  O  O9  1  0.11667621  0.72854106  0.95618923  1
  O  O10  1  0.26481200  0.96266189  0.13431404  1
  O  O11  1  0.17013728  0.27741491  0.32522312  1
  O  O12  1  0.22435942  0.02229237  0.60737951  1
  O  O13  1  0.46354745  0.68862734  0.50130276  1
  O  O14  1  0.51069102  0.34212066  0.87074284  1
  O  O15  1  0.48930898  0.65787934  0.12925716  1
  O  O16  1  0.53645255  0.31137266  0.49869724  1
  O  O17  1  0.77564058  0.97770763  0.39262049  1
  O  O18  1  0.82986272  0.72258509  0.67477688  1
  O  O19  1  0.73518800  0.03733811  0.86568596  1
  O  O20  1  0.88332379  0.27145894  0.04381077  1
  O  O21  1  0.97567382  0.65898494  0.32817200  1
