# generated using pymatgen
data_LiAlVO4
_symmetry_space_group_name_H-M   'P 1'
_cell_length_a   5.83926876
_cell_length_b   5.83926876
_cell_length_c   5.83926944
_cell_angle_alpha   59.02343452
_cell_angle_beta   90.07351018
_cell_angle_gamma   119.11705772
_symmetry_Int_Tables_number   1
_chemical_formula_structural   LiAlVO4
_chemical_formula_sum   'Li2 Al2 V2 O8'
_cell_volume   140.64019712
_cell_formula_units_Z   2
loop_
 _symmetry_equiv_pos_site_id
 _symmetry_equiv_pos_as_xyz
  1  'x, y, z'
loop_
 _atom_site_type_symbol
 _atom_site_label
 _atom_site_symmetry_multiplicity
 _atom_site_fract_x
 _atom_site_fract_y
 _atom_site_fract_z
 _atom_site_occupancy
  Li  Li0  1  0.11880329  0.25000000  0.13119671  1
  Li  Li1  1  0.88119671  0.75000000  0.86880329  1
  Al  Al2  1  0.50000000  0.00000000  0.00000000  1
  Al  Al3  1  0.50000000  0.50000000  0.50000000  1
  V  V4  1  0.50000000  0.00000000  0.50000000  1
  V  V5  1  0.00000000  0.50000000  0.50000000  1
  O  O6  1  0.29714176  0.03104239  0.73390164  1
  O  O7  1  0.26494403  0.53104239  0.26609836  1
  O  O8  1  0.26669503  0.51924160  0.71406437  1
  O  O9  1  0.26669503  0.98075840  0.25254656  1
  O  O10  1  0.73330497  0.01924160  0.74745344  1
  O  O11  1  0.73330497  0.48075840  0.28593563  1
  O  O12  1  0.73505597  0.46895761  0.73390164  1
  O  O13  1  0.70285824  0.96895761  0.26609836  1
