# generated using pymatgen
data_Li(NiS)2
_symmetry_space_group_name_H-M   'P 1'
_cell_length_a   6.94232793
_cell_length_b   5.99795755
_cell_length_c   7.48384049
_cell_angle_alpha   90.00000000
_cell_angle_beta   117.59897657
_cell_angle_gamma   90.00000000
_symmetry_Int_Tables_number   1
_chemical_formula_structural   Li(NiS)2
_chemical_formula_sum   'Li4 Ni8 S8'
_cell_volume   276.16624139
_cell_formula_units_Z   4
loop_
 _symmetry_equiv_pos_site_id
 _symmetry_equiv_pos_as_xyz
  1  'x, y, z'
loop_
 _atom_site_type_symbol
 _atom_site_label
 _atom_site_symmetry_multiplicity
 _atom_site_fract_x
 _atom_site_fract_y
 _atom_site_fract_z
 _atom_site_occupancy
  Li  Li0  1  0.25917779  0.49460536  0.00058661  1
  Li  Li1  1  0.25917779  0.00539464  0.50058661  1
  Li  Li2  1  0.74082221  0.99460536  0.49941339  1
  Li  Li3  1  0.74082221  0.50539464  0.99941339  1
  Ni  Ni4  1  0.06690557  0.64168278  0.63851789  1
  Ni  Ni5  1  0.06690557  0.85831722  0.13851789  1
  Ni  Ni6  1  0.43270718  0.14352051  0.86311135  1
  Ni  Ni7  1  0.43270718  0.35647949  0.36311135  1
  Ni  Ni8  1  0.56729282  0.64352051  0.63688865  1
  Ni  Ni9  1  0.56729282  0.85647949  0.13688865  1
  Ni  Ni10  1  0.93309443  0.14168278  0.86148211  1
  Ni  Ni11  1  0.93309443  0.35831722  0.36148211  1
  S  S12  1  0.09512236  0.27116727  0.68740994  1
  S  S13  1  0.09512236  0.22883273  0.18740994  1
  S  S14  1  0.40285855  0.77285181  0.80976077  1
  S  S15  1  0.40285855  0.72714819  0.30976077  1
  S  S16  1  0.59714145  0.27285181  0.69023923  1
  S  S17  1  0.59714145  0.22714819  0.19023923  1
  S  S18  1  0.90487764  0.77116727  0.81259006  1
  S  S19  1  0.90487764  0.72883273  0.31259006  1
