# generated using pymatgen
data_Li3VCr3O8
_symmetry_space_group_name_H-M   'P 1'
_cell_length_a   5.19303910
_cell_length_b   7.84168210
_cell_length_c   7.87842595
_cell_angle_alpha   81.60646502
_cell_angle_beta   70.63239219
_cell_angle_gamma   83.92912840
_symmetry_Int_Tables_number   1
_chemical_formula_structural   Li3VCr3O8
_chemical_formula_sum   'Li6 V2 Cr6 O16'
_cell_volume   298.86324206
_cell_formula_units_Z   2
loop_
 _symmetry_equiv_pos_site_id
 _symmetry_equiv_pos_as_xyz
  1  'x, y, z'
loop_
 _atom_site_type_symbol
 _atom_site_label
 _atom_site_symmetry_multiplicity
 _atom_site_fract_x
 _atom_site_fract_y
 _atom_site_fract_z
 _atom_site_occupancy
  Li  Li0  1  0.99889895  0.99894379  0.99781227  1
  Li  Li1  1  0.00631591  0.25614792  0.24789651  1
  Li  Li2  1  0.00421766  0.48786467  0.50244465  1
  Li  Li3  1  0.00485636  0.87363321  0.37010235  1
  Li  Li4  1  0.99547790  0.37744246  0.87758813  1
  Li  Li5  1  0.99623708  0.75091638  0.75693821  1
  V  V6  1  0.51437307  0.68367242  0.42926908  1
  V  V7  1  0.50744089  0.94040171  0.68723205  1
  Cr  Cr8  1  0.48723554  0.06338691  0.31524037  1
  Cr  Cr9  1  0.50170545  0.43978933  0.18460737  1
  Cr  Cr10  1  0.49682440  0.81196151  0.06165056  1
  Cr  Cr11  1  0.49222958  0.31059099  0.56769795  1
  Cr  Cr12  1  0.50882417  0.18820695  0.93707432  1
  Cr  Cr13  1  0.49107436  0.56310033  0.81417015  1
  O  O14  1  0.27355414  0.02977719  0.15230613  1
  O  O15  1  0.28469003  0.39958089  0.02591693  1
  O  O16  1  0.28290716  0.28507435  0.39642285  1
  O  O17  1  0.28714640  0.65827101  0.28218528  1
  O  O18  1  0.28794478  0.15018443  0.78177017  1
  O  O19  1  0.27356361  0.53149209  0.64830072  1
  O  O20  1  0.29019324  0.88625807  0.52521089  1
  O  O21  1  0.72547702  0.22001065  0.10312235  1
  O  O22  1  0.28242412  0.79488346  0.88484902  1
  O  O23  1  0.70762829  0.08719549  0.47882820  1
  O  O24  1  0.71628250  0.47372557  0.35949027  1
  O  O25  1  0.71383244  0.84725126  0.22581089  1
  O  O26  1  0.71235424  0.35314935  0.72607935  1
  O  O27  1  0.72573427  0.72342595  0.59436358  1
  O  O28  1  0.71146101  0.59780131  0.96756981  1
  O  O29  1  0.71909643  0.96586030  0.84805256  1
