# generated using pymatgen
data_Nd4CrS7
_symmetry_space_group_name_H-M   'P 1'
_cell_length_a   6.75661081
_cell_length_b   9.90488702
_cell_length_c   9.90488702
_cell_angle_alpha   119.99999999
_cell_angle_beta   90.00000000
_cell_angle_gamma   90.00000000
_symmetry_Int_Tables_number   1
_chemical_formula_structural   Nd4CrS7
_chemical_formula_sum   'Nd8 Cr2 S14'
_cell_volume   574.06171960
_cell_formula_units_Z   2
loop_
 _symmetry_equiv_pos_site_id
 _symmetry_equiv_pos_as_xyz
  1  'x, y, z'
loop_
 _atom_site_type_symbol
 _atom_site_label
 _atom_site_symmetry_multiplicity
 _atom_site_fract_x
 _atom_site_fract_y
 _atom_site_fract_z
 _atom_site_occupancy
  Nd  Nd0  1  0.82412472  0.66666700  0.33333300  1
  Nd  Nd1  1  0.32412472  0.33333300  0.66666700  1
  Nd  Nd2  1  0.77400400  0.62492934  0.85032039  1
  Nd  Nd3  1  0.77400400  0.22539104  0.37507066  1
  Nd  Nd4  1  0.27400400  0.37507066  0.14967961  1
  Nd  Nd5  1  0.77400400  0.14967961  0.77460896  1
  Nd  Nd6  1  0.27400400  0.77460896  0.62492934  1
  Nd  Nd7  1  0.27400400  0.85032039  0.22539104  1
  Cr  Cr8  1  0.96807022  -0.00000000  -0.00000000  1
  Cr  Cr9  1  0.46807022  -0.00000000  -0.00000000  1
  S  S10  1  0.54123139  0.49418283  0.56668443  1
  S  S11  1  0.54123139  0.07250160  0.50581717  1
  S  S12  1  0.04123139  0.50581717  0.43331557  1
  S  S13  1  0.54123139  0.43331557  0.92749840  1
  S  S14  1  0.04123139  0.92749840  0.49418283  1
  S  S15  1  0.04123139  0.56668443  0.07250160  1
  S  S16  1  0.43128363  0.66666700  0.33333300  1
  S  S17  1  0.93128363  0.33333300  0.66666700  1
  S  S18  1  0.71160509  0.90461503  0.13590322  1
  S  S19  1  0.71160509  0.23128819  0.09538497  1
  S  S20  1  0.21160509  0.09538497  0.86409678  1
  S  S21  1  0.71160509  0.86409678  0.76871181  1
  S  S22  1  0.21160509  0.76871181  0.90461503  1
  S  S23  1  0.21160509  0.13590322  0.23128819  1
