# generated using pymatgen
data_Li2V2(SO4)3
_symmetry_space_group_name_H-M   'P 1'
_cell_length_a   12.46125988
_cell_length_b   8.78853459
_cell_length_c   8.98258137
_cell_angle_alpha   90.00000000
_cell_angle_beta   90.00000000
_cell_angle_gamma   90.00000000
_symmetry_Int_Tables_number   1
_chemical_formula_structural   Li2V2(SO4)3
_chemical_formula_sum   'Li8 V8 S12 O48'
_cell_volume   983.73829901
_cell_formula_units_Z   4
loop_
 _symmetry_equiv_pos_site_id
 _symmetry_equiv_pos_as_xyz
  1  'x, y, z'
loop_
 _atom_site_type_symbol
 _atom_site_label
 _atom_site_symmetry_multiplicity
 _atom_site_fract_x
 _atom_site_fract_y
 _atom_site_fract_z
 _atom_site_occupancy
  Li  Li0  1  0.18226938  0.21637373  0.27724906  1
  Li  Li1  1  0.18226938  0.78362627  0.77724906  1
  Li  Li2  1  0.31773062  0.28362627  0.77724906  1
  Li  Li3  1  0.31773062  0.71637373  0.27724906  1
  Li  Li4  1  0.68226938  0.28362627  0.72275094  1
  Li  Li5  1  0.68226938  0.71637373  0.22275094  1
  Li  Li6  1  0.81773062  0.21637373  0.22275094  1
  Li  Li7  1  0.81773062  0.78362627  0.72275094  1
  V  V8  1  0.11372826  0.25246416  0.96236002  1
  V  V9  1  0.11372826  0.74753584  0.46236002  1
  V  V10  1  0.38627174  0.75246416  0.96236002  1
  V  V11  1  0.38627174  0.24753584  0.46236002  1
  V  V12  1  0.61372826  0.24753584  0.03763998  1
  V  V13  1  0.61372826  0.75246416  0.53763998  1
  V  V14  1  0.88627174  0.25246416  0.53763998  1
  V  V15  1  0.88627174  0.74753584  0.03763998  1
  S  S16  1  0.00000000  0.45502911  0.25000000  1
  S  S17  1  0.00000000  0.54497089  0.75000000  1
  S  S18  1  0.14675306  0.10241529  0.60569575  1
  S  S19  1  0.14675306  0.89758471  0.10569575  1
  S  S20  1  0.35324694  0.39758471  0.10569575  1
  S  S21  1  0.35324694  0.60241529  0.60569575  1
  S  S22  1  0.50000000  0.04497089  0.75000000  1
  S  S23  1  0.50000000  0.95502911  0.25000000  1
  S  S24  1  0.64675306  0.39758471  0.39430425  1
  S  S25  1  0.64675306  0.60241529  0.89430425  1
  S  S26  1  0.85324694  0.10241529  0.89430425  1
  S  S27  1  0.85324694  0.89758471  0.39430425  1
  O  O28  1  0.03433036  0.13662983  0.57493289  1
  O  O29  1  0.03433036  0.86337017  0.07493289  1
  O  O30  1  0.05726092  0.54509548  0.36134783  1
  O  O31  1  0.05726092  0.45490452  0.86134783  1
  O  O32  1  0.08060290  0.35281726  0.17568272  1
  O  O33  1  0.08060290  0.64718274  0.67568272  1
  O  O34  1  0.16274151  0.06616221  0.11332990  1
  O  O35  1  0.16274151  0.93383779  0.61332990  1
  O  O36  1  0.18179085  0.16865105  0.75107875  1
  O  O37  1  0.18179085  0.83134895  0.25107875  1
  O  O38  1  0.21617825  0.83442058  0.98449486  1
  O  O39  1  0.21617825  0.16557942  0.48449486  1
  O  O40  1  0.28382175  0.33442058  0.98449486  1
  O  O41  1  0.28382175  0.66557942  0.48449486  1
  O  O42  1  0.31820915  0.66865105  0.75107875  1
  O  O43  1  0.31820915  0.33134895  0.25107875  1
  O  O44  1  0.33725849  0.43383779  0.61332990  1
  O  O45  1  0.33725849  0.56616221  0.11332990  1
  O  O46  1  0.41939710  0.14718274  0.67568272  1
  O  O47  1  0.41939710  0.85281726  0.17568272  1
  O  O48  1  0.44273908  0.04509548  0.36134783  1
  O  O49  1  0.44273908  0.95490452  0.86134783  1
  O  O50  1  0.46566964  0.63662983  0.57493289  1
  O  O51  1  0.46566964  0.36337017  0.07493289  1
  O  O52  1  0.53433036  0.36337017  0.42506711  1
  O  O53  1  0.53433036  0.63662983  0.92506711  1
  O  O54  1  0.55726092  0.04509548  0.13865217  1
  O  O55  1  0.55726092  0.95490452  0.63865217  1
  O  O56  1  0.58060290  0.14718274  0.82431728  1
  O  O57  1  0.58060290  0.85281726  0.32431728  1
  O  O58  1  0.66274151  0.43383779  0.88667010  1
  O  O59  1  0.66274151  0.56616221  0.38667010  1
  O  O60  1  0.68179085  0.33134895  0.24892125  1
  O  O61  1  0.68179085  0.66865105  0.74892125  1
  O  O62  1  0.71617825  0.33442058  0.51550514  1
  O  O63  1  0.71617825  0.66557942  0.01550514  1
  O  O64  1  0.78382175  0.16557942  0.01550514  1
  O  O65  1  0.78382175  0.83442058  0.51550514  1
  O  O66  1  0.81820915  0.16865105  0.74892125  1
  O  O67  1  0.81820915  0.83134895  0.24892125  1
  O  O68  1  0.83725849  0.06616221  0.38667010  1
  O  O69  1  0.83725849  0.93383779  0.88667010  1
  O  O70  1  0.91939710  0.35281726  0.32431728  1
  O  O71  1  0.91939710  0.64718274  0.82431728  1
  O  O72  1  0.94273908  0.45490452  0.63865217  1
  O  O73  1  0.94273908  0.54509548  0.13865217  1
  O  O74  1  0.96566964  0.13662983  0.92506711  1
  O  O75  1  0.96566964  0.86337017  0.42506711  1
