# generated using pymatgen
data_Mn2(SO4)3
_symmetry_space_group_name_H-M   'P 1'
_cell_length_a   7.77795202
_cell_length_b   7.77795202
_cell_length_c   9.19454466
_cell_angle_alpha   65.41283733
_cell_angle_beta   114.58716267
_cell_angle_gamma   115.36026153
_symmetry_Int_Tables_number   1
_chemical_formula_structural   Mn2(SO4)3
_chemical_formula_sum   'Mn4 S6 O24'
_cell_volume   437.49081551
_cell_formula_units_Z   2
loop_
 _symmetry_equiv_pos_site_id
 _symmetry_equiv_pos_as_xyz
  1  'x, y, z'
loop_
 _atom_site_type_symbol
 _atom_site_label
 _atom_site_symmetry_multiplicity
 _atom_site_fract_x
 _atom_site_fract_y
 _atom_site_fract_z
 _atom_site_occupancy
  Mn  Mn0  1  0.63204345  0.86994180  0.96875707  1
  Mn  Mn1  1  0.13005820  0.36795655  0.46875707  1
  Mn  Mn2  1  0.86994180  0.63204345  0.53124293  1
  Mn  Mn3  1  0.36795655  0.13005820  0.03124293  1
  S  S4  1  0.24415110  0.53748388  0.83167031  1
  S  S5  1  0.46251612  0.75584890  0.33167031  1
  S  S6  1  0.96202899  0.96202899  0.75000000  1
  S  S7  1  0.03797101  0.03797101  0.25000000  1
  S  S8  1  0.53748388  0.24415110  0.66832969  1
  S  S9  1  0.75584890  0.46251612  0.16833069  1
  O  O10  1  0.15842586  0.97298238  0.88285493  1
  O  O11  1  0.02701762  0.84157414  0.38285493  1
  O  O12  1  0.13284206  0.48697994  0.94155366  1
  O  O13  1  0.39694721  0.74076715  0.81330244  1
  O  O14  1  0.11834568  0.54675599  0.65057241  1
  O  O15  1  0.51302006  0.86715794  0.44155366  1
  O  O16  1  0.80729634  0.92343081  0.81999014  1
  O  O17  1  0.35167296  0.39216370  0.87726922  1
  O  O18  1  0.25923285  0.60305279  0.31330244  1
  O  O19  1  0.45324401  0.88165432  0.15057241  1
  O  O20  1  0.07656919  0.19270366  0.31999014  1
  O  O21  1  0.39216370  0.35167296  0.62273078  1
  O  O22  1  0.60783630  0.64832704  0.37726922  1
  O  O23  1  0.92343081  0.80729634  0.68000986  1
  O  O24  1  0.54675599  0.11834568  0.84942759  1
  O  O25  1  0.74076715  0.39694721  0.68669756  1
  O  O26  1  0.64832704  0.60783630  0.12273078  1
  O  O27  1  0.19270366  0.07656919  0.18000986  1
  O  O28  1  0.48697994  0.13284206  0.55844634  1
  O  O29  1  0.88165432  0.45324401  0.34942759  1
  O  O30  1  0.60305279  0.25923285  0.18669756  1
  O  O31  1  0.86715794  0.51302006  0.05844634  1
  O  O32  1  0.97298238  0.15842586  0.61714507  1
  O  O33  1  0.84157414  0.02701762  0.11714507  1
