# generated using pymatgen
data_Li3VSiCO7
_symmetry_space_group_name_H-M   'P 1'
_cell_length_a   8.38732679
_cell_length_b   6.48054384
_cell_length_c   5.05581593
_cell_angle_alpha   90.00000000
_cell_angle_beta   85.50176891
_cell_angle_gamma   90.00000000
_symmetry_Int_Tables_number   1
_chemical_formula_structural   Li3VSiCO7
_chemical_formula_sum   'Li6 V2 Si2 C2 O14'
_cell_volume   273.95956856
_cell_formula_units_Z   2
loop_
 _symmetry_equiv_pos_site_id
 _symmetry_equiv_pos_as_xyz
  1  'x, y, z'
loop_
 _atom_site_type_symbol
 _atom_site_label
 _atom_site_symmetry_multiplicity
 _atom_site_fract_x
 _atom_site_fract_y
 _atom_site_fract_z
 _atom_site_occupancy
  Li  Li0  1  0.10813028  0.25000000  0.76829011  1
  Li  Li1  1  0.29106315  0.03816223  0.23812813  1
  Li  Li2  1  0.29106315  0.46183777  0.23812813  1
  Li  Li3  1  0.70893685  0.53816223  0.76187187  1
  Li  Li4  1  0.70893685  0.96183777  0.76187187  1
  Li  Li5  1  0.89186972  0.75000000  0.23170989  1
  V  V6  1  0.31941578  0.75000000  0.80754933  1
  V  V7  1  0.68058422  0.25000000  0.19245067  1
  Si  Si8  1  0.42076713  0.25000000  0.70977838  1
  Si  Si9  1  0.57923287  0.75000000  0.29022162  1
  C  C10  1  0.02833352  0.75000000  0.70330808  1
  C  C11  1  0.97166648  0.25000000  0.29669192  1
  O  O12  1  0.11653492  0.25000000  0.36222573  1
  O  O13  1  0.06477278  0.75000000  0.94879388  1
  O  O14  1  0.14850621  0.75000000  0.52207584  1
  O  O15  1  0.30464958  0.05605186  0.81666205  1
  O  O16  1  0.30464958  0.44394814  0.81666205  1
  O  O17  1  0.44965304  0.25000000  0.38400143  1
  O  O18  1  0.40496356  0.75000000  0.16442410  1
  O  O19  1  0.59503644  0.25000000  0.83557590  1
  O  O20  1  0.55034696  0.75000000  0.61599857  1
  O  O21  1  0.69535042  0.55605186  0.18333795  1
  O  O22  1  0.69535042  0.94394814  0.18333795  1
  O  O23  1  0.85149379  0.25000000  0.47792416  1
  O  O24  1  0.93522722  0.25000000  0.05120612  1
  O  O25  1  0.88346508  0.75000000  0.63777427  1
