# generated using pymatgen
data_Li3Mn2P2(CO7)2
_symmetry_space_group_name_H-M   'P 1'
_cell_length_a   8.30543398
_cell_length_b   5.03537022
_cell_length_c   6.35970341
_cell_angle_alpha   89.91207139
_cell_angle_beta   89.73296247
_cell_angle_gamma   85.74686768
_symmetry_Int_Tables_number   1
_chemical_formula_structural   Li3Mn2P2(CO7)2
_chemical_formula_sum   'Li3 Mn2 P2 C2 O14'
_cell_volume   265.23323030
_cell_formula_units_Z   1
loop_
 _symmetry_equiv_pos_site_id
 _symmetry_equiv_pos_as_xyz
  1  'x, y, z'
loop_
 _atom_site_type_symbol
 _atom_site_label
 _atom_site_symmetry_multiplicity
 _atom_site_fract_x
 _atom_site_fract_y
 _atom_site_fract_z
 _atom_site_occupancy
  Li  Li0  1  0.27385679  0.24351576  0.04733503  1
  Li  Li1  1  0.73023418  0.74813974  0.52972261  1
  Li  Li2  1  0.90239737  0.23401737  0.75655752  1
  Mn  Mn3  1  0.32844451  0.80603228  0.74623944  1
  Mn  Mn4  1  0.67304982  0.20424536  0.24429027  1
  P  P5  1  0.42161800  0.72636265  0.25082495  1
  P  P6  1  0.57933981  0.28116301  0.74903600  1
  C  C7  1  0.04173447  0.70912410  0.74983135  1
  C  C8  1  0.95325410  0.29330863  0.25017931  1
  O  O9  1  0.07157388  0.95634309  0.75273604  1
  O  O10  1  0.09562119  0.34332596  0.23185244  1
  O  O11  1  0.16975380  0.53870904  0.76717487  1
  O  O12  1  0.32347328  0.82810110  0.05857902  1
  O  O13  1  0.31459039  0.79538499  0.44046155  1
  O  O14  1  0.41852534  0.15111913  0.76492431  1
  O  O15  1  0.46451128  0.41842907  0.22881866  1
  O  O16  1  0.54748012  0.58132702  0.72561721  1
  O  O17  1  0.58499214  0.85703831  0.26574088  1
  O  O18  1  0.69455447  0.20465147  0.93686614  1
  O  O19  1  0.68914759  0.17053923  0.56179491  1
  O  O20  1  0.82987821  0.47662757  0.26762337  1
  O  O21  1  0.90360332  0.62389249  0.72803955  1
  O  O22  1  0.89920395  0.05303362  0.24812457  1
