# generated using pymatgen
data_Li2Mn3CoO8
_symmetry_space_group_name_H-M   'P 1'
_cell_length_a   5.83727692
_cell_length_b   5.83730683
_cell_length_c   9.64964797
_cell_angle_alpha   90.00290239
_cell_angle_beta   89.99854383
_cell_angle_gamma   120.00016888
_symmetry_Int_Tables_number   1
_chemical_formula_structural   Li2Mn3CoO8
_chemical_formula_sum   'Li4 Mn6 Co2 O16'
_cell_volume   284.75029389
_cell_formula_units_Z   2
loop_
 _symmetry_equiv_pos_site_id
 _symmetry_equiv_pos_as_xyz
  1  'x, y, z'
loop_
 _atom_site_type_symbol
 _atom_site_label
 _atom_site_symmetry_multiplicity
 _atom_site_fract_x
 _atom_site_fract_y
 _atom_site_fract_z
 _atom_site_occupancy
  Li  Li0  1  0.33333579  0.66667835  0.88619578  1
  Li  Li1  1  0.99999242  0.00001721  0.99813552  1
  Li  Li2  1  0.00000758  0.00002479  0.49813552  1
  Li  Li3  1  0.66666421  0.33334356  0.38619578  1
  Mn  Mn4  1  0.16881801  0.83117608  0.21523086  1
  Mn  Mn5  1  0.16881740  0.33766345  0.21523297  1
  Mn  Mn6  1  0.66232910  0.83117141  0.21523583  1
  Mn  Mn7  1  0.33767090  0.16884231  0.71523583  1
  Mn  Mn8  1  0.83118199  0.66235807  0.71523086  1
  Mn  Mn9  1  0.83118260  0.16884605  0.71523297  1
  Co  Co10  1  0.33333742  0.66666734  0.49351423  1
  Co  Co11  1  0.66666258  0.33332991  0.99351423  1
  O  O12  1  0.15890124  0.84111305  0.60641262  1
  O  O13  1  0.03519620  0.51762727  0.33021682  1
  O  O14  1  0.33332047  0.66664483  0.10896012  1
  O  O15  1  0.99999250  0.00001699  0.31151110  1
  O  O16  1  0.00000750  0.00002449  0.81151110  1
  O  O17  1  0.15890701  0.31779568  0.60641762  1
  O  O18  1  0.48239236  0.96481326  0.33020711  1
  O  O19  1  0.48239360  0.51763174  0.33023046  1
  O  O20  1  0.31777491  0.15888604  0.10641995  1
  O  O21  1  0.68222509  0.84111213  0.60641995  1
  O  O22  1  0.51760764  0.48242090  0.83020711  1
  O  O23  1  0.51760640  0.03523914  0.83023046  1
  O  O24  1  0.66667953  0.33332437  0.60896012  1
  O  O25  1  0.84109876  0.68221181  0.10641262  1
  O  O26  1  0.96480380  0.48243208  0.83021682  1
  O  O27  1  0.84109299  0.15888867  0.10641762  1
