# generated using pymatgen
data_LiIn2
_symmetry_space_group_name_H-M   'P 1'
_cell_length_a   7.50128579
_cell_length_b   7.50128579
_cell_length_c   7.49587441
_cell_angle_alpha   120.02388701
_cell_angle_beta   120.02388701
_cell_angle_gamma   90.00000000
_symmetry_Int_Tables_number   1
_chemical_formula_structural   LiIn2
_chemical_formula_sum   'Li4 In8'
_cell_volume   298.03331891
_cell_formula_units_Z   4
loop_
 _symmetry_equiv_pos_site_id
 _symmetry_equiv_pos_as_xyz
  1  'x, y, z'
loop_
 _atom_site_type_symbol
 _atom_site_label
 _atom_site_symmetry_multiplicity
 _atom_site_fract_x
 _atom_site_fract_y
 _atom_site_fract_z
 _atom_site_occupancy
  Li  Li0  1  0.12500000  0.87500000  0.25000000  1
  Li  Li1  1  0.12500000  0.37500000  0.25000000  1
  Li  Li2  1  0.62500000  0.87500000  0.75000000  1
  Li  Li3  1  0.12500000  0.87500000  0.75000000  1
  In  In4  1  0.39471116  0.60541987  0.78942233  1
  In  In5  1  0.39471116  0.18400246  0.78942233  1
  In  In6  1  0.43400246  0.14471116  0.28942233  1
  In  In7  1  0.85528884  0.56599754  0.71057767  1
  In  In8  1  0.85528884  0.14458013  0.71057767  1
  In  In9  1  0.85541987  0.14471116  0.28942233  1
  In  In10  1  0.81599754  0.60528884  0.21057767  1
  In  In11  1  0.39458013  0.60528884  0.21057767  1
