# generated using pymatgen
data_Li4MnV(PO4)3
_symmetry_space_group_name_H-M   'P 1'
_cell_length_a   9.26162310
_cell_length_b   8.43861707
_cell_length_c   8.41646342
_cell_angle_alpha   60.71470539
_cell_angle_beta   63.05811680
_cell_angle_gamma   90.53487218
_symmetry_Int_Tables_number   1
_chemical_formula_structural   Li4MnV(PO4)3
_chemical_formula_sum   'Li8 Mn2 V2 P6 O24'
_cell_volume   488.36791822
_cell_formula_units_Z   2
loop_
 _symmetry_equiv_pos_site_id
 _symmetry_equiv_pos_as_xyz
  1  'x, y, z'
loop_
 _atom_site_type_symbol
 _atom_site_label
 _atom_site_symmetry_multiplicity
 _atom_site_fract_x
 _atom_site_fract_y
 _atom_site_fract_z
 _atom_site_occupancy
  Li  Li0  1  0.86531032  0.26521158  0.80483528  1
  Li  Li1  1  0.90035515  0.93843069  0.36876467  1
  Li  Li2  1  0.85138927  0.65901932  0.07281090  1
  Li  Li3  1  0.58877298  0.79362636  0.67156924  1
  Li  Li4  1  0.41040489  0.20140376  0.32498918  1
  Li  Li5  1  0.14445732  0.33947481  0.93485035  1
  Li  Li6  1  0.09902176  0.06403661  0.62839891  1
  Li  Li7  1  0.13821132  0.72985404  0.19359061  1
  Mn  Mn8  1  0.56328799  0.85084693  0.28698819  1
  Mn  Mn9  1  0.03178223  0.35140289  0.31127312  1
  V  V10  1  0.96274313  0.64801177  0.69297564  1
  V  V11  1  0.43911072  0.15094707  0.70853325  1
  P  P12  1  0.74788556  0.94809939  0.79169489  1
  P  P13  1  0.75044651  0.54640804  0.50755849  1
  P  P14  1  0.75949503  0.25083866  0.19415721  1
  P  P15  1  0.24315949  0.75446498  0.79614734  1
  P  P16  1  0.25158721  0.45708996  0.49706093  1
  P  P17  1  0.25265588  0.04597575  0.21083534  1
  O  O18  1  0.88922512  0.14014014  0.65625844  1
  O  O19  1  0.81657751  0.50004702  0.66276875  1
  O  O20  1  0.80630633  0.83173428  0.68467178  1
  O  O21  1  0.89600137  0.56819755  0.30100265  1
  O  O22  1  0.90082134  0.20201773  0.24651110  1
  O  O23  1  0.71754223  0.74224283  0.44322054  1
  O  O24  1  0.58215786  0.97880208  0.79396814  1
  O  O25  1  0.59096649  0.38581900  0.61947425  1
  O  O26  1  0.81763049  0.46928699  0.01733008  1
  O  O27  1  0.73816606  0.13460133  0.10843180  1
  O  O28  1  0.58933106  0.20756399  0.39244593  1
  O  O29  1  0.72745826  0.83685365  0.01222928  1
  O  O30  1  0.26749643  0.14441486  0.98816994  1
  O  O31  1  0.41464798  0.81253475  0.60004951  1
  O  O32  1  0.25633182  0.88213429  0.87868256  1
  O  O33  1  0.18764630  0.54254054  0.97000165  1
  O  O34  1  0.41320881  0.59759458  0.39985374  1
  O  O35  1  0.41935911  0.02537004  0.19393032  1
  O  O36  1  0.27502286  0.24945670  0.58517429  1
  O  O37  1  0.09935268  0.79696662  0.73931981  1
  O  O38  1  0.09992133  0.44573815  0.69957840  1
  O  O39  1  0.19387140  0.16268327  0.31297611  1
  O  O40  1  0.19386566  0.49968773  0.33919785  1
  O  O41  1  0.10701675  0.84843125  0.35771855  1
