# generated using pymatgen
data_Li4Ti2Mn3Cr3O16
_symmetry_space_group_name_H-M   'P 1'
_cell_length_a   5.86971831
_cell_length_b   5.93491677
_cell_length_c   9.47953862
_cell_angle_alpha   89.13992459
_cell_angle_beta   89.89799695
_cell_angle_gamma   120.15194774
_symmetry_Int_Tables_number   1
_chemical_formula_structural   Li4Ti2Mn3Cr3O16
_chemical_formula_sum   'Li4 Ti2 Mn3 Cr3 O16'
_cell_volume   285.50160891
_cell_formula_units_Z   1
loop_
 _symmetry_equiv_pos_site_id
 _symmetry_equiv_pos_as_xyz
  1  'x, y, z'
loop_
 _atom_site_type_symbol
 _atom_site_label
 _atom_site_symmetry_multiplicity
 _atom_site_fract_x
 _atom_site_fract_y
 _atom_site_fract_z
 _atom_site_occupancy
  Li  Li0  1  0.34509087  0.67870748  0.89828003  1
  Li  Li1  1  0.99834515  0.99755110  0.99455618  1
  Li  Li2  1  0.98981772  0.99335260  0.49489648  1
  Li  Li3  1  0.67425166  0.33760104  0.39544853  1
  Ti  Ti4  1  0.32560030  0.66038773  0.49361162  1
  Ti  Ti5  1  0.66972769  0.33585359  0.99551216  1
  Mn  Mn6  1  0.65900572  0.82740544  0.21601244  1
  Mn  Mn7  1  0.82661892  0.65686353  0.71621474  1
  Mn  Mn8  1  0.83226695  0.17115864  0.71422419  1
  Cr  Cr9  1  0.17027218  0.83038930  0.21428521  1
  Cr  Cr10  1  0.17018205  0.33971994  0.21400933  1
  Cr  Cr11  1  0.33850167  0.16699293  0.71476726  1
  O  O12  1  0.16268716  0.83027762  0.59728748  1
  O  O13  1  0.04256638  0.51879534  0.34191000  1
  O  O14  1  0.34545241  0.67486396  0.10749499  1
  O  O15  1  0.99126496  0.99361356  0.30827973  1
  O  O16  1  0.98552493  0.98784099  0.80656111  1
  O  O17  1  0.15954799  0.32669557  0.59346884  1
  O  O18  1  0.48826794  0.95950853  0.33888469  1
  O  O19  1  0.48623176  0.52310789  0.33703545  1
  O  O20  1  0.33552694  0.17137620  0.09167052  1
  O  O21  1  0.65336271  0.80108983  0.59172873  1
  O  O22  1  0.52011492  0.48244093  0.83633886  1
  O  O23  1  0.52894088  0.04676131  0.84219628  1
  O  O24  1  0.67874937  0.34347417  0.60934255  1
  O  O25  1  0.82579686  0.66828991  0.09934756  1
  O  O26  1  0.96625556  0.51206347  0.84873495  1
  O  O27  1  0.83002935  0.16411841  0.09574210  1
