# generated using pymatgen
data_Li8CrO6
_symmetry_space_group_name_H-M   'P 1'
_cell_length_a   5.39826232
_cell_length_b   5.86646444
_cell_length_c   5.39826189
_cell_angle_alpha   117.39323555
_cell_angle_beta   60.00000352
_cell_angle_gamma   117.39323458
_symmetry_Int_Tables_number   1
_chemical_formula_structural   Li8CrO6
_chemical_formula_sum   'Li8 Cr1 O6'
_cell_volume   125.43007271
_cell_formula_units_Z   1
loop_
 _symmetry_equiv_pos_site_id
 _symmetry_equiv_pos_as_xyz
  1  'x, y, z'
loop_
 _atom_site_type_symbol
 _atom_site_label
 _atom_site_symmetry_multiplicity
 _atom_site_fract_x
 _atom_site_fract_y
 _atom_site_fract_z
 _atom_site_occupancy
  Li  Li0  1  0.09930657  0.35162650  0.48947968  1
  Li  Li1  1  0.51052032  0.64837350  0.23716075  1
  Li  Li2  1  0.23716075  0.64837350  0.90069343  1
  Li  Li3  1  0.34150789  0.02452268  0.34150789  1
  Li  Li4  1  0.65849211  0.97547732  0.65849211  1
  Li  Li5  1  0.76283925  0.35162650  0.09930657  1
  Li  Li6  1  0.48947968  0.35162650  0.76283925  1
  Li  Li7  1  0.90069343  0.64837350  0.51052032  1
  Cr  Cr8  1  0.00000000  0.00000000  0.00000000  1
  O  O9  1  0.22995514  0.76737192  0.62626114  1
  O  O10  1  0.37373886  0.23262808  0.08884535  1
  O  O11  1  0.08884535  0.23262808  0.77004486  1
  O  O12  1  0.91115465  0.76737192  0.22995514  1
  O  O13  1  0.62626114  0.76737192  0.91115465  1
  O  O14  1  0.77004486  0.23262808  0.37373886  1
