# generated using pymatgen
data_Ba4Ce2O7
_symmetry_space_group_name_H-M   'P 1'
_cell_length_a   6.20828485
_cell_length_b   12.26184358
_cell_length_c   7.76800488
_cell_angle_alpha   90.00000000
_cell_angle_beta   113.55356259
_cell_angle_gamma   90.00000000
_symmetry_Int_Tables_number   1
_chemical_formula_structural   Ba4Ce2O7
_chemical_formula_sum   'Ba8 Ce4 O14'
_cell_volume   542.07318516
_cell_formula_units_Z   2
loop_
 _symmetry_equiv_pos_site_id
 _symmetry_equiv_pos_as_xyz
  1  'x, y, z'
loop_
 _atom_site_type_symbol
 _atom_site_label
 _atom_site_symmetry_multiplicity
 _atom_site_fract_x
 _atom_site_fract_y
 _atom_site_fract_z
 _atom_site_occupancy
  Ba  Ba0  1  0.06264332  0.88029166  0.69134573  1
  Ba  Ba1  1  0.12870241  0.38029166  0.69134573  1
  Ba  Ba2  1  0.37129759  0.88029166  0.30865427  1
  Ba  Ba3  1  0.56264332  0.61970834  0.69134573  1
  Ba  Ba4  1  0.43735668  0.38029166  0.30865427  1
  Ba  Ba5  1  0.62870241  0.11970834  0.69134573  1
  Ba  Ba6  1  0.87129759  0.61970834  0.30865427  1
  Ba  Ba7  1  0.93735668  0.11970834  0.30865427  1
  Ce  Ce8  1  0.23131340  0.63086871  1.00000000  1
  Ce  Ce9  1  0.26868660  0.13086871  0.00000000  1
  Ce  Ce10  1  0.73131340  0.86913129  1.00000000  1
  Ce  Ce11  1  0.76868660  0.36913129  0.00000000  1
  O  O12  1  0.07988261  0.61772822  0.67636950  1
  O  O13  1  0.09648689  0.11772822  0.67636950  1
  O  O14  1  0.00000000  0.00000000  0.00000000  1
  O  O15  1  0.09859995  0.28949802  0.00000000  1
  O  O16  1  0.57988261  0.88227178  0.67636950  1
  O  O17  1  0.40351311  0.61772822  0.32363050  1
  O  O18  1  0.59648689  0.38227178  0.67636950  1
  O  O19  1  0.42011739  0.11772822  0.32363050  1
  O  O20  1  0.40140005  0.78949802  0.00000000  1
  O  O21  1  0.50000000  0.50000000  0.00000000  1
  O  O22  1  0.59859995  0.21050198  0.00000000  1
  O  O23  1  0.90351311  0.88227178  0.32363050  1
  O  O24  1  0.92011739  0.38227178  0.32363050  1
  O  O25  1  0.90140005  0.71050198  0.00000000  1
