# generated using pymatgen
data_HoBiO3
_symmetry_space_group_name_H-M   'P 1'
_cell_length_a   5.79045511
_cell_length_b   6.20860934
_cell_length_c   8.43538269
_cell_angle_alpha   90.00000000
_cell_angle_beta   90.00701732
_cell_angle_gamma   90.00000000
_symmetry_Int_Tables_number   1
_chemical_formula_structural   HoBiO3
_chemical_formula_sum   'Ho4 Bi4 O12'
_cell_volume   303.25768801
_cell_formula_units_Z   4
loop_
 _symmetry_equiv_pos_site_id
 _symmetry_equiv_pos_as_xyz
  1  'x, y, z'
loop_
 _atom_site_type_symbol
 _atom_site_label
 _atom_site_symmetry_multiplicity
 _atom_site_fract_x
 _atom_site_fract_y
 _atom_site_fract_z
 _atom_site_occupancy
  Ho  Ho0  1  0.00000000  0.50000000  0.50000000  1
  Ho  Ho1  1  0.00000000  0.50000000  0.00000000  1
  Ho  Ho2  1  0.50000000  0.00000000  0.50000000  1
  Ho  Ho3  1  0.50000000  0.00000000  0.00000000  1
  Bi  Bi4  1  0.01196687  0.96437953  0.74984753  1
  Bi  Bi5  1  0.48803313  0.46437953  0.75015247  1
  Bi  Bi6  1  0.51196687  0.53562047  0.24984753  1
  Bi  Bi7  1  0.98803313  0.03562047  0.25015247  1
  O  O8  1  0.14311309  0.44932504  0.24999912  1
  O  O9  1  0.16951722  0.18134716  0.93301944  1
  O  O10  1  0.16935501  0.18119510  0.56663215  1
  O  O11  1  0.33064499  0.68119510  0.93336785  1
  O  O12  1  0.33048278  0.68134716  0.56698056  1
  O  O13  1  0.35688691  0.94932504  0.25000088  1
  O  O14  1  0.64311309  0.05067496  0.74999912  1
  O  O15  1  0.66951722  0.31865284  0.43301944  1
  O  O16  1  0.66935501  0.31880490  0.06663215  1
  O  O17  1  0.83064499  0.81880490  0.43336785  1
  O  O18  1  0.83048278  0.81865284  0.06698056  1
  O  O19  1  0.85688691  0.55067496  0.75000088  1
