# generated using pymatgen
data_Li3Mn4SnO8
_symmetry_space_group_name_H-M   'P 1'
_cell_length_a   6.24523005
_cell_length_b   6.24523035
_cell_length_c   6.18016555
_cell_angle_alpha   90.81686257
_cell_angle_beta   60.31748140
_cell_angle_gamma   60.27368979
_symmetry_Int_Tables_number   1
_chemical_formula_structural   Li3Mn4SnO8
_chemical_formula_sum   'Li3 Mn4 Sn1 O8'
_cell_volume   170.73433353
_cell_formula_units_Z   1
loop_
 _symmetry_equiv_pos_site_id
 _symmetry_equiv_pos_as_xyz
  1  'x, y, z'
loop_
 _atom_site_type_symbol
 _atom_site_label
 _atom_site_symmetry_multiplicity
 _atom_site_fract_x
 _atom_site_fract_y
 _atom_site_fract_z
 _atom_site_occupancy
  Li  Li0  1  0.00000000  0.00000000  0.50000000  1
  Li  Li1  1  0.50000000  0.00000000  0.50000000  1
  Li  Li2  1  0.50000000  0.50000000  0.50000000  1
  Mn  Mn3  1  0.00000000  0.50000000  0.50000000  1
  Mn  Mn4  1  0.00000000  0.00000000  0.00000000  1
  Mn  Mn5  1  0.50000000  0.00000000  0.00000000  1
  Mn  Mn6  1  0.00000000  0.50000000  0.00000000  1
  Sn  Sn7  1  0.50000000  0.50000000  0.00000000  1
  O  O8  1  0.49036042  0.26005251  0.76969209  1
  O  O9  1  0.98128301  0.25430554  0.75361919  1
  O  O10  1  0.50068635  0.73490219  0.75361919  1
  O  O11  1  0.98395471  0.75082676  0.76687204  1
  O  O12  1  0.01604529  0.24917324  0.23312796  1
  O  O13  1  0.49931365  0.26509781  0.24638081  1
  O  O14  1  0.01871699  0.74569446  0.24638081  1
  O  O15  1  0.50963958  0.73994749  0.23030791  1
