# generated using pymatgen
data_Li5Fe2P2(CO7)2
_symmetry_space_group_name_H-M   'P 1'
_cell_length_a   8.42523161
_cell_length_b   10.15892745
_cell_length_c   6.47108705
_cell_angle_alpha   90.00000000
_cell_angle_beta   90.00000000
_cell_angle_gamma   84.46586902
_symmetry_Int_Tables_number   1
_chemical_formula_structural   Li5Fe2P2(CO7)2
_chemical_formula_sum   'Li10 Fe4 P4 C4 O28'
_cell_volume   551.28723747
_cell_formula_units_Z   2
loop_
 _symmetry_equiv_pos_site_id
 _symmetry_equiv_pos_as_xyz
  1  'x, y, z'
loop_
 _atom_site_type_symbol
 _atom_site_label
 _atom_site_symmetry_multiplicity
 _atom_site_fract_x
 _atom_site_fract_y
 _atom_site_fract_z
 _atom_site_occupancy
  Li  Li0  1  0.10293921  0.39042459  0.24306147  1
  Li  Li1  1  0.10293921  0.89042459  0.25693853  1
  Li  Li2  1  0.28820394  0.11828417  0.06277740  1
  Li  Li3  1  0.28820394  0.61828417  0.43722260  1
  Li  Li4  1  0.73912180  0.37132383  0.49649688  1
  Li  Li5  1  0.73424745  0.36843426  0.99959214  1
  Li  Li6  1  0.73424745  0.86843426  0.50040786  1
  Li  Li7  1  0.73912180  0.87132383  0.00350312  1
  Li  Li8  1  0.90113423  0.11842969  0.75138987  1
  Li  Li9  1  0.90113423  0.61842969  0.74861013  1
  Fe  Fe10  1  0.32825527  0.39779387  0.74963762  1
  Fe  Fe11  1  0.32825527  0.89779387  0.75036238  1
  Fe  Fe12  1  0.66792009  0.10571490  0.25675798  1
  Fe  Fe13  1  0.66792009  0.60571490  0.24324202  1
  P  P14  1  0.41482907  0.35840852  0.24434573  1
  P  P15  1  0.41482907  0.85840852  0.25565427  1
  P  P16  1  0.58157483  0.13214268  0.75967800  1
  P  P17  1  0.58157483  0.63214268  0.74032200  1
  C  C18  1  0.03640463  0.35190347  0.74964616  1
  C  C19  1  0.03640463  0.85190347  0.75035384  1
  C  C20  1  0.96137092  0.15836653  0.24180842  1
  C  C21  1  0.96137092  0.65836653  0.25819158  1
  O  O22  1  0.07036359  0.47412960  0.74067309  1
  O  O23  1  0.09895427  0.19423623  0.20737046  1
  O  O24  1  0.07036359  0.97412960  0.75932691  1
  O  O25  1  0.15719788  0.26287892  0.75669990  1
  O  O26  1  0.09895427  0.69423623  0.29262954  1
  O  O27  1  0.15719788  0.76287892  0.74330010  1
  O  O28  1  0.31218606  0.40824058  0.05420021  1
  O  O29  1  0.30662876  0.40738284  0.43221057  1
  O  O30  1  0.30662876  0.90738284  0.06778943  1
  O  O31  1  0.31218606  0.90824058  0.44579979  1
  O  O32  1  0.42315300  0.06985207  0.78729755  1
  O  O33  1  0.44115239  0.20661387  0.23478894  1
  O  O34  1  0.42315300  0.56985207  0.71270245  1
  O  O35  1  0.44115239  0.70661387  0.26521106  1
  O  O36  1  0.54392223  0.28650761  0.74863724  1
  O  O37  1  0.57672401  0.41736596  0.25362309  1
  O  O38  1  0.54392223  0.78650761  0.75136276  1
  O  O39  1  0.57672401  0.91736596  0.24637691  1
  O  O40  1  0.68099993  0.08025521  0.56979142  1
  O  O41  1  0.70058027  0.09458378  0.93929120  1
  O  O42  1  0.70058027  0.59458378  0.56070880  1
  O  O43  1  0.68099993  0.58025521  0.93020858  1
  O  O44  1  0.83861728  0.24957282  0.26261445  1
  O  O45  1  0.89089891  0.31954283  0.75068946  1
  O  O46  1  0.83861728  0.74957282  0.23738555  1
  O  O47  1  0.93150397  0.03499619  0.25454339  1
  O  O48  1  0.89089891  0.81954283  0.74931054  1
  O  O49  1  0.93150397  0.53499619  0.24545661  1
