# generated using pymatgen
data_LiLa4MnO8
_symmetry_space_group_name_H-M   'P 1'
_cell_length_a   5.42614597
_cell_length_b   5.42614597
_cell_length_c   13.44993952
_cell_angle_alpha   78.36265432
_cell_angle_beta   101.63734568
_cell_angle_gamma   90.00000000
_symmetry_Int_Tables_number   1
_chemical_formula_structural   LiLa4MnO8
_chemical_formula_sum   'Li2 La8 Mn2 O16'
_cell_volume   379.55215709
_cell_formula_units_Z   2
loop_
 _symmetry_equiv_pos_site_id
 _symmetry_equiv_pos_as_xyz
  1  'x, y, z'
loop_
 _atom_site_type_symbol
 _atom_site_label
 _atom_site_symmetry_multiplicity
 _atom_site_fract_x
 _atom_site_fract_y
 _atom_site_fract_z
 _atom_site_occupancy
  Li  Li0  1  0.25000000  0.25000000  0.50000000  1
  Li  Li1  1  0.50000000  0.50000000  0.00000000  1
  La  La2  1  0.43033895  0.06966105  0.86067691  1
  La  La3  1  0.06966105  0.43033895  0.13932309  1
  La  La4  1  0.68033895  0.31966105  0.36067691  1
  La  La5  1  0.81820041  0.18179959  0.63640182  1
  La  La6  1  0.31966105  0.68033895  0.63932309  1
  La  La7  1  0.18179959  0.81820041  0.36359818  1
  La  La8  1  0.56820041  0.93179959  0.13640182  1
  La  La9  1  0.93179959  0.56820041  0.86359818  1
  Mn  Mn10  1  0.00000000  0.00000000  0.00000000  1
  Mn  Mn11  1  0.75000000  0.75000000  0.50000000  1
  O  O12  1  0.99727256  0.99727256  0.50000000  1
  O  O13  1  0.34097647  0.15902353  0.68195294  1
  O  O14  1  0.24727256  0.24727256  0.00000000  1
  O  O15  1  0.50272744  0.99727256  0.50000000  1
  O  O16  1  0.99727256  0.50272744  0.50000000  1
  O  O17  1  0.15902353  0.34097647  0.31804706  1
  O  O18  1  0.40902353  0.59097647  0.81804706  1
  O  O19  1  0.24727256  0.75272744  0.00000000  1
  O  O20  1  0.59097647  0.40902353  0.18195294  1
  O  O21  1  0.50272744  0.50272744  0.50000000  1
  O  O22  1  0.09040010  0.90959990  0.18079919  1
  O  O23  1  0.90959990  0.09040010  0.81920081  1
  O  O24  1  0.75272744  0.24727256  0.00000000  1
  O  O25  1  0.65959990  0.84040010  0.31920081  1
  O  O26  1  0.75272744  0.75272744  0.00000000  1
  O  O27  1  0.84040010  0.65959990  0.68079919  1
