# generated using pymatgen
data_ZnCrO4
_symmetry_space_group_name_H-M   'P 1'
_cell_length_a   7.02683363
_cell_length_b   8.32554531
_cell_length_c   5.27417213
_cell_angle_alpha   90.00000000
_cell_angle_beta   96.85154098
_cell_angle_gamma   90.00000000
_symmetry_Int_Tables_number   1
_chemical_formula_structural   ZnCrO4
_chemical_formula_sum   'Zn4 Cr4 O16'
_cell_volume   306.34730170
_cell_formula_units_Z   4
loop_
 _symmetry_equiv_pos_site_id
 _symmetry_equiv_pos_as_xyz
  1  'x, y, z'
loop_
 _atom_site_type_symbol
 _atom_site_label
 _atom_site_symmetry_multiplicity
 _atom_site_fract_x
 _atom_site_fract_y
 _atom_site_fract_z
 _atom_site_occupancy
  Zn  Zn0  1  0.17126737  0.05682764  0.27747604  1
  Zn  Zn1  1  0.32873263  0.55682764  0.22252396  1
  Zn  Zn2  1  0.67126737  0.44317236  0.77747604  1
  Zn  Zn3  1  0.82873263  0.94317236  0.72252396  1
  Cr  Cr4  1  0.14786240  0.30584226  0.77899238  1
  Cr  Cr5  1  0.35213760  0.80584226  0.72100762  1
  Cr  Cr6  1  0.64786240  0.19415774  0.27899238  1
  Cr  Cr7  1  0.85213760  0.69415774  0.22100762  1
  O  O8  1  0.03630973  0.57121009  0.24645196  1
  O  O9  1  0.09522626  0.13464531  0.92907804  1
  O  O10  1  0.16286120  0.89548170  0.54824114  1
  O  O11  1  0.20648083  0.26321965  0.49047999  1
  O  O12  1  0.29351917  0.76321965  0.00952001  1
  O  O13  1  0.33713880  0.39548170  0.95175886  1
  O  O14  1  0.40477374  0.63464531  0.57092196  1
  O  O15  1  0.53630973  0.92878991  0.74645196  1
  O  O16  1  0.46369027  0.07121009  0.25354804  1
  O  O17  1  0.59522626  0.36535469  0.42907804  1
  O  O18  1  0.66286120  0.60451830  0.04824114  1
  O  O19  1  0.70648083  0.23678035  0.99047999  1
  O  O20  1  0.79351917  0.73678035  0.50952001  1
  O  O21  1  0.83713880  0.10451830  0.45175886  1
  O  O22  1  0.90477374  0.86535469  0.07092196  1
  O  O23  1  0.96369027  0.42878991  0.75354804  1
