# generated using pymatgen
data_NaCoBP2H4O11
_symmetry_space_group_name_H-M   'P 1'
_cell_length_a   9.51900364
_cell_length_b   9.51900364
_cell_length_c   15.96162768
_cell_angle_alpha   90.00000000
_cell_angle_beta   90.00000000
_cell_angle_gamma   120.00000458
_symmetry_Int_Tables_number   1
_chemical_formula_structural   NaCoBP2H4O11
_chemical_formula_sum   'Na6 Co6 B6 P12 H24 O66'
_cell_volume   1252.53760502
_cell_formula_units_Z   6
loop_
 _symmetry_equiv_pos_site_id
 _symmetry_equiv_pos_as_xyz
  1  'x, y, z'
loop_
 _atom_site_type_symbol
 _atom_site_label
 _atom_site_symmetry_multiplicity
 _atom_site_fract_x
 _atom_site_fract_y
 _atom_site_fract_z
 _atom_site_occupancy
  Na  Na0  1  0.80691142  0.19308858  0.75000000  1
  Na  Na1  1  0.38617715  0.19308858  0.41666700  1
  Na  Na2  1  0.19308858  0.80691142  0.25000000  1
  Na  Na3  1  0.61382285  0.80691142  0.91666700  1
  Na  Na4  1  0.80691142  0.61382285  0.08333300  1
  Na  Na5  1  0.19308858  0.38617715  0.58333300  1
  Co  Co6  1  0.44675197  0.55324803  0.75000000  1
  Co  Co7  1  0.10649606  0.55324803  0.41666700  1
  Co  Co8  1  0.55324803  0.44675197  0.25000000  1
  Co  Co9  1  0.89350394  0.44675197  0.91666700  1
  Co  Co10  1  0.44675197  0.89350394  0.08333300  1
  Co  Co11  1  0.55324803  0.10649606  0.58333300  1
  B  B12  1  0.15213672  0.84786328  0.75000000  1
  B  B13  1  0.69572657  0.84786328  0.41666700  1
  B  B14  1  0.84786328  0.15213672  0.25000000  1
  B  B15  1  0.30427343  0.15213672  0.91666700  1
  B  B16  1  0.15213672  0.30427343  0.08333300  1
  B  B17  1  0.84786328  0.69572657  0.58333300  1
  P  P18  1  0.61182005  0.77982539  0.58560634  1
  P  P19  1  0.16800534  0.38817995  0.25227334  1
  P  P20  1  0.38817995  0.22017461  0.08560634  1
  P  P21  1  0.83199466  0.22017461  0.08106066  1
  P  P22  1  0.22017461  0.83199466  0.91893934  1
  P  P23  1  0.83199466  0.61182005  0.75227334  1
  P  P24  1  0.77982539  0.61182005  0.41439366  1
  P  P25  1  0.16800534  0.77982539  0.58106066  1
  P  P26  1  0.77982539  0.16800534  0.41893934  1
  P  P27  1  0.22017461  0.38817995  0.91439366  1
  P  P28  1  0.38817995  0.16800534  0.74772666  1
  P  P29  1  0.61182005  0.83199466  0.24772666  1
  H  H30  1  0.81380356  0.39928266  0.62931529  1
  H  H31  1  0.58547910  0.18619644  0.29598229  1
  H  H32  1  0.18619644  0.60071734  0.12931529  1
  H  H33  1  0.41452090  0.60071734  0.03735171  1
  H  H34  1  0.60071734  0.41452090  0.96264829  1
  H  H35  1  0.41452090  0.81380356  0.79598229  1
  H  H36  1  0.39928266  0.81380356  0.37068471  1
  H  H37  1  0.58547910  0.39928266  0.53735171  1
  H  H38  1  0.39928266  0.58547910  0.46264829  1
  H  H39  1  0.60071734  0.18619644  0.87068471  1
  H  H40  1  0.18619644  0.58547910  0.70401771  1
  H  H41  1  0.81380356  0.41452090  0.20401771  1
  H  H42  1  0.68259998  0.14094686  0.94426864  1
  H  H43  1  0.45834688  0.31740002  0.61093564  1
  H  H44  1  0.31740002  0.85905314  0.44426864  1
  H  H45  1  0.54165312  0.85905314  0.72239836  1
  H  H46  1  0.85905314  0.54165312  0.27760164  1
  H  H47  1  0.54165312  0.68259998  0.11093564  1
  H  H48  1  0.14094686  0.68259998  0.05573136  1
  H  H49  1  0.45834688  0.14094686  0.22239836  1
  H  H50  1  0.14094686  0.45834688  0.77760164  1
  H  H51  1  0.85905314  0.31740002  0.55573136  1
  H  H52  1  0.31740002  0.45834688  0.38906436  1
  H  H53  1  0.68259998  0.54165312  0.88906436  1
  O  O54  1  0.61192477  0.92990078  0.62065536  1
  O  O55  1  0.31797600  0.38807523  0.28732236  1
  O  O56  1  0.38807523  0.07009922  0.12065536  1
  O  O57  1  0.68202400  0.07009922  0.04601164  1
  O  O58  1  0.07009922  0.68202400  0.95398836  1
  O  O59  1  0.68202400  0.61192477  0.78732236  1
  O  O60  1  0.92990078  0.61192477  0.37934464  1
  O  O61  1  0.31797600  0.92990078  0.54601164  1
  O  O62  1  0.92990078  0.31797600  0.45398836  1
  O  O63  1  0.07009922  0.38807523  0.87934464  1
  O  O64  1  0.38807523  0.31797600  0.71267764  1
  O  O65  1  0.61192477  0.68202400  0.21267764  1
  O  O66  1  0.70615117  0.19782771  0.88904841  1
  O  O67  1  0.49167654  0.29384883  0.55571541  1
  O  O68  1  0.29384883  0.80217229  0.38904841  1
  O  O69  1  0.50832346  0.80217229  0.77761859  1
  O  O70  1  0.80217229  0.50832346  0.22238141  1
  O  O71  1  0.50832346  0.70615117  0.05571541  1
  O  O72  1  0.19782771  0.70615117  0.11095159  1
  O  O73  1  0.49167654  0.19782771  0.27761859  1
  O  O74  1  0.19782771  0.49167654  0.72238141  1
  O  O75  1  0.80217229  0.29384883  0.61095159  1
  O  O76  1  0.29384883  0.49167654  0.44428459  1
  O  O77  1  0.70615117  0.50832346  0.94428459  1
  O  O78  1  0.86569318  0.86569318  -0.00000000  1
  O  O79  1  0.00000000  0.13430682  0.66666700  1
  O  O80  1  0.13430682  0.13430682  0.50000000  1
  O  O81  1  0.13430682  0.00000000  0.33333300  1
  O  O82  1  1.00000000  0.86569318  0.16666700  1
  O  O83  1  0.86569318  1.00000000  0.83333300  1
  O  O84  1  0.38068259  0.51854169  0.87627130  1
  O  O85  1  0.13785909  0.61931741  0.54293830  1
  O  O86  1  0.61931741  0.48145831  0.37627130  1
  O  O87  1  0.86214091  0.48145831  0.79039570  1
  O  O88  1  0.48145831  0.86214091  0.20960430  1
  O  O89  1  0.86214091  0.38068259  0.04293830  1
  O  O90  1  0.51854169  0.38068259  0.12372870  1
  O  O91  1  0.13785909  0.51854169  0.29039570  1
  O  O92  1  0.51854169  0.13785909  0.70960430  1
  O  O93  1  0.48145831  0.61931741  0.62372870  1
  O  O94  1  0.61931741  0.13785909  0.45706170  1
  O  O95  1  0.38068259  0.86214091  0.95706170  1
  O  O96  1  0.57969688  0.76322519  0.48754425  1
  O  O97  1  0.18352832  0.42030312  0.15421125  1
  O  O98  1  0.42030312  0.23677481  0.98754425  1
  O  O99  1  0.81647168  0.23677481  0.17912275  1
  O  O100  1  0.23677481  0.81647168  0.82087725  1
  O  O101  1  0.81647168  0.57969688  0.65421125  1
  O  O102  1  0.76322519  0.57969688  0.51245575  1
  O  O103  1  0.18352832  0.76322519  0.67912275  1
  O  O104  1  0.76322519  0.18352832  0.32087725  1
  O  O105  1  0.23677481  0.42030312  0.01245575  1
  O  O106  1  0.42030312  0.18352832  0.84578875  1
  O  O107  1  0.57969688  0.81647168  0.34578875  1
  O  O108  1  0.78474311  0.80436833  0.60045805  1
  O  O109  1  0.01962522  0.21525689  0.26712505  1
  O  O110  1  0.21525689  0.19563167  0.10045805  1
  O  O111  1  0.98037478  0.19563167  0.06620895  1
  O  O112  1  0.19563167  0.98037478  0.93379105  1
  O  O113  1  0.98037478  0.78474311  0.76712505  1
  O  O114  1  0.80436833  0.78474311  0.39954195  1
  O  O115  1  0.01962522  0.80436833  0.56620895  1
  O  O116  1  0.80436833  0.01962522  0.43379105  1
  O  O117  1  0.19563167  0.21525689  0.89954195  1
  O  O118  1  0.21525689  0.01962522  0.73287495  1
  O  O119  1  0.78474311  0.98037478  0.23287495  1
