# generated using pymatgen
data_Li3Ti(FeO2)4
_symmetry_space_group_name_H-M   'P 1'
_cell_length_a   6.02599057
_cell_length_b   6.02599036
_cell_length_c   6.02042151
_cell_angle_alpha   91.11835974
_cell_angle_beta   60.42955651
_cell_angle_gamma   60.82603383
_symmetry_Int_Tables_number   1
_chemical_formula_structural   Li3Ti(FeO2)4
_chemical_formula_sum   'Li3 Ti1 Fe4 O8'
_cell_volume   155.98174270
_cell_formula_units_Z   1
loop_
 _symmetry_equiv_pos_site_id
 _symmetry_equiv_pos_as_xyz
  1  'x, y, z'
loop_
 _atom_site_type_symbol
 _atom_site_label
 _atom_site_symmetry_multiplicity
 _atom_site_fract_x
 _atom_site_fract_y
 _atom_site_fract_z
 _atom_site_occupancy
  Li  Li0  1  0.00000000  0.00000000  0.50000000  1
  Li  Li1  1  0.50000000  0.00000000  0.50000000  1
  Li  Li2  1  0.50000000  0.50000000  0.50000000  1
  Ti  Ti3  1  0.50000000  0.50000000  0.00000000  1
  Fe  Fe4  1  0.00000000  0.50000000  0.50000000  1
  Fe  Fe5  1  0.00000000  0.00000000  0.00000000  1
  Fe  Fe6  1  0.50000000  0.00000000  0.00000000  1
  Fe  Fe7  1  0.00000000  0.50000000  0.00000000  1
  O  O8  1  0.48896494  0.26673247  0.77776753  1
  O  O9  1  0.97177313  0.26722698  0.75122853  1
  O  O10  1  0.51599845  0.72300066  0.75122853  1
  O  O11  1  0.00043832  0.74531007  0.74487075  1
  O  O12  1  0.99956168  0.25468993  0.25512925  1
  O  O13  1  0.48400155  0.27699934  0.24877147  1
  O  O14  1  0.02822687  0.73277302  0.24877147  1
  O  O15  1  0.51103506  0.73326753  0.22223247  1
