# generated using pymatgen
data_KLiMnO2
_symmetry_space_group_name_H-M   'P 1'
_cell_length_a   6.44999093
_cell_length_b   6.44999093
_cell_length_c   6.99993449
_cell_angle_alpha   90.00000000
_cell_angle_beta   90.00000000
_cell_angle_gamma   88.30128436
_symmetry_Int_Tables_number   1
_chemical_formula_structural   KLiMnO2
_chemical_formula_sum   'K4 Li4 Mn4 O8'
_cell_volume   291.08597437
_cell_formula_units_Z   4
loop_
 _symmetry_equiv_pos_site_id
 _symmetry_equiv_pos_as_xyz
  1  'x, y, z'
loop_
 _atom_site_type_symbol
 _atom_site_label
 _atom_site_symmetry_multiplicity
 _atom_site_fract_x
 _atom_site_fract_y
 _atom_site_fract_z
 _atom_site_occupancy
  K  K0  1  0.00000000  0.50000000  0.00000000  1
  K  K1  1  0.00000000  0.00000000  0.25000000  1
  K  K2  1  0.00000000  0.00000000  0.75000000  1
  K  K3  1  0.50000000  0.00000000  0.50000000  1
  Li  Li4  1  0.64027514  0.64027514  0.25000000  1
  Li  Li5  1  0.35972486  0.35972486  0.75000000  1
  Li  Li6  1  0.64027514  0.64027514  0.75000000  1
  Li  Li7  1  0.35972486  0.35972486  0.25000000  1
  Mn  Mn8  1  0.37786937  0.82897814  0.00000000  1
  Mn  Mn9  1  0.17102186  0.62213063  0.50000000  1
  Mn  Mn10  1  0.62213063  0.17102186  0.00000000  1
  Mn  Mn11  1  0.82897814  0.37786937  0.50000000  1
  O  O12  1  0.32352915  0.67647085  0.25000000  1
  O  O13  1  0.32352915  0.67647085  0.75000000  1
  O  O14  1  0.15946157  0.29775229  0.50000000  1
  O  O15  1  0.70224771  0.84053843  0.00000000  1
  O  O16  1  0.29775229  0.15946157  0.00000000  1
  O  O17  1  0.84053843  0.70224771  0.50000000  1
  O  O18  1  0.67647085  0.32352915  0.75000000  1
  O  O19  1  0.67647085  0.32352915  0.25000000  1
