# generated using pymatgen
data_Ta2Zn(CuO4)2
_symmetry_space_group_name_H-M   'P 1'
_cell_length_a   6.65667774
_cell_length_b   8.68392848
_cell_length_c   12.27046836
_cell_angle_alpha   90.00000000
_cell_angle_beta   91.92854061
_cell_angle_gamma   90.00000000
_symmetry_Int_Tables_number   1
_chemical_formula_structural   Ta2Zn(CuO4)2
_chemical_formula_sum   'Ta8 Zn4 Cu8 O32'
_cell_volume   708.90631721
_cell_formula_units_Z   4
loop_
 _symmetry_equiv_pos_site_id
 _symmetry_equiv_pos_as_xyz
  1  'x, y, z'
loop_
 _atom_site_type_symbol
 _atom_site_label
 _atom_site_symmetry_multiplicity
 _atom_site_fract_x
 _atom_site_fract_y
 _atom_site_fract_z
 _atom_site_occupancy
  Ta  Ta0  1  0.09729400  0.45466194  0.84422731  1
  Ta  Ta1  1  0.09729400  0.04533806  0.34422731  1
  Ta  Ta2  1  0.61174483  0.08826988  0.13570405  1
  Ta  Ta3  1  0.90270600  0.95466194  0.65577269  1
  Ta  Ta4  1  0.38825517  0.91173012  0.86429595  1
  Ta  Ta5  1  0.38825517  0.58826988  0.36429595  1
  Ta  Ta6  1  0.61174483  0.41173012  0.63570405  1
  Ta  Ta7  1  0.90270600  0.54533806  0.15577269  1
  Zn  Zn8  1  0.10862011  0.16337954  0.05246904  1
  Zn  Zn9  1  0.89137989  0.83662046  0.94753096  1
  Zn  Zn10  1  0.89137989  0.66337954  0.44753096  1
  Zn  Zn11  1  0.10862011  0.33662046  0.55246904  1
  Cu  Cu12  1  0.76527237  0.18440758  0.87721542  1
  Cu  Cu13  1  0.37554961  0.05886769  0.62397184  1
  Cu  Cu14  1  0.62445039  0.94113231  0.37602816  1
  Cu  Cu15  1  0.23472763  0.81559242  0.12278458  1
  Cu  Cu16  1  0.76527237  0.31559242  0.37721542  1
  Cu  Cu17  1  0.37554961  0.44113231  0.12397184  1
  Cu  Cu18  1  0.23472763  0.68440758  0.62278458  1
  Cu  Cu19  1  0.62445039  0.55886769  0.87602816  1
  O  O20  1  0.03746360  0.24333006  0.40041299  1
  O  O21  1  0.65349374  0.01593311  0.60154393  1
  O  O22  1  0.18877751  0.58000137  0.47212632  1
  O  O23  1  0.81122249  0.08000137  0.02787368  1
  O  O24  1  0.03746360  0.25666994  0.90041299  1
  O  O25  1  0.96253640  0.75666994  0.59958701  1
  O  O26  1  0.08912027  0.10700918  0.61310126  1
  O  O27  1  0.49945152  0.89770478  0.13839494  1
  O  O28  1  0.49945152  0.60229522  0.63839494  1
  O  O29  1  0.29960380  0.87246819  0.71622054  1
  O  O30  1  0.70039620  0.37246819  0.78377946  1
  O  O31  1  0.50054848  0.10229522  0.86160506  1
  O  O32  1  0.91087973  0.89299082  0.38689874  1
  O  O33  1  0.88267612  0.54382853  0.30534231  1
  O  O34  1  0.41062415  0.27748664  0.58645711  1
  O  O35  1  0.41062415  0.22251336  0.08645711  1
  O  O36  1  0.11732388  0.04382853  0.19465769  1
  O  O37  1  0.50054848  0.39770478  0.36160506  1
  O  O38  1  0.11732388  0.45617147  0.69465769  1
  O  O39  1  0.81122249  0.41999863  0.52787368  1
  O  O40  1  0.65349374  0.48406689  0.10154393  1
  O  O41  1  0.70039620  0.12753181  0.28377946  1
  O  O42  1  0.96253640  0.74333006  0.09958701  1
  O  O43  1  0.08912027  0.39299082  0.11310126  1
  O  O44  1  0.18877751  0.91999863  0.97212632  1
  O  O45  1  0.58937585  0.77748664  0.91354289  1
  O  O46  1  0.34650626  0.98406689  0.39845607  1
  O  O47  1  0.34650626  0.51593311  0.89845607  1
  O  O48  1  0.91087973  0.60700918  0.88689874  1
  O  O49  1  0.58937585  0.72251336  0.41354289  1
  O  O50  1  0.29960380  0.62753181  0.21622054  1
  O  O51  1  0.88267612  0.95617147  0.80534231  1
