# generated using pymatgen
data_Li2Ti2O5
_symmetry_space_group_name_H-M   'P 1'
_cell_length_a   5.88208983
_cell_length_b   5.34419355
_cell_length_c   15.84698403
_cell_angle_alpha   90.00000000
_cell_angle_beta   90.00000000
_cell_angle_gamma   90.00000000
_symmetry_Int_Tables_number   1
_chemical_formula_structural   Li2Ti2O5
_chemical_formula_sum   'Li8 Ti8 O20'
_cell_volume   498.15036340
_cell_formula_units_Z   4
loop_
 _symmetry_equiv_pos_site_id
 _symmetry_equiv_pos_as_xyz
  1  'x, y, z'
loop_
 _atom_site_type_symbol
 _atom_site_label
 _atom_site_symmetry_multiplicity
 _atom_site_fract_x
 _atom_site_fract_y
 _atom_site_fract_z
 _atom_site_occupancy
  Li  Li0  1  0.09851640  0.81911697  0.04946924  1
  Li  Li1  1  0.09851640  0.18088303  0.54946924  1
  Li  Li2  1  0.40148360  0.31911697  0.04946924  1
  Li  Li3  1  0.40148360  0.68088303  0.54946924  1
  Li  Li4  1  0.59851640  0.31911697  0.45053076  1
  Li  Li5  1  0.59851640  0.68088303  0.95053076  1
  Li  Li6  1  0.90148360  0.81911697  0.45053076  1
  Li  Li7  1  0.90148360  0.18088303  0.95053076  1
  Ti  Ti8  1  0.09242954  0.30995254  0.35687107  1
  Ti  Ti9  1  0.09242954  0.69004746  0.85687107  1
  Ti  Ti10  1  0.40757046  0.19004746  0.85687107  1
  Ti  Ti11  1  0.40757046  0.80995254  0.35687107  1
  Ti  Ti12  1  0.59242954  0.19004746  0.64312893  1
  Ti  Ti13  1  0.59242954  0.80995254  0.14312893  1
  Ti  Ti14  1  0.90757046  0.30995254  0.14312893  1
  Ti  Ti15  1  0.90757046  0.69004746  0.64312893  1
  O  O16  1  0.00000000  0.22632662  0.25000000  1
  O  O17  1  0.00000000  0.77367338  0.75000000  1
  O  O18  1  0.08763429  0.19195810  0.06289851  1
  O  O19  1  0.08763429  0.80804190  0.56289851  1
  O  O20  1  0.12585052  0.65518425  0.37262411  1
  O  O21  1  0.12585052  0.34481575  0.87262411  1
  O  O22  1  0.37414948  0.15518425  0.37262411  1
  O  O23  1  0.37414948  0.84481575  0.87262411  1
  O  O24  1  0.41236571  0.30804190  0.56289851  1
  O  O25  1  0.41236571  0.69195810  0.06289851  1
  O  O26  1  0.50000000  0.27367338  0.75000000  1
  O  O27  1  0.50000000  0.72632662  0.25000000  1
  O  O28  1  0.58763429  0.69195810  0.43710149  1
  O  O29  1  0.58763429  0.30804190  0.93710149  1
  O  O30  1  0.62585052  0.15518425  0.12737589  1
  O  O31  1  0.62585052  0.84481575  0.62737589  1
  O  O32  1  0.87414948  0.65518425  0.12737589  1
  O  O33  1  0.87414948  0.34481575  0.62737589  1
  O  O34  1  0.91236571  0.19195810  0.43710149  1
  O  O35  1  0.91236571  0.80804190  0.93710149  1
