# generated using pymatgen
data_NaLi2FePCO7
_symmetry_space_group_name_H-M   'P 1'
_cell_length_a   8.72925634
_cell_length_b   6.49911347
_cell_length_c   5.09423215
_cell_angle_alpha   90.42245461
_cell_angle_beta   87.66581874
_cell_angle_gamma   89.09365783
_symmetry_Int_Tables_number   1
_chemical_formula_structural   NaLi2FePCO7
_chemical_formula_sum   'Na2 Li4 Fe2 P2 C2 O14'
_cell_volume   288.72293258
_cell_formula_units_Z   2
loop_
 _symmetry_equiv_pos_site_id
 _symmetry_equiv_pos_as_xyz
  1  'x, y, z'
loop_
 _atom_site_type_symbol
 _atom_site_label
 _atom_site_symmetry_multiplicity
 _atom_site_fract_x
 _atom_site_fract_y
 _atom_site_fract_z
 _atom_site_occupancy
  Na  Na0  1  0.08418891  0.24894015  0.75794977  1
  Na  Na1  1  0.74321366  0.50169523  0.75053394  1
  Li  Li2  1  0.27001146  0.01253443  0.23595623  1
  Li  Li3  1  0.27031147  0.48799216  0.24009464  1
  Li  Li4  1  0.72987678  0.98725428  0.75810609  1
  Li  Li5  1  0.91723128  0.76450456  0.25129564  1
  Fe  Fe6  1  0.34806420  0.74827048  0.78684281  1
  Fe  Fe7  1  0.64869268  0.24466067  0.21420470  1
  P  P8  1  0.41323073  0.24404351  0.70718935  1
  P  P9  1  0.58633394  0.75415270  0.30201301  1
  C  C10  1  0.04540178  0.75824877  0.71757513  1
  C  C11  1  0.95176448  0.24502810  0.27204679  1
  O  O12  1  0.10111632  0.24957432  0.27950274  1
  O  O13  1  0.08813270  0.75227328  0.95922985  1
  O  O14  1  0.14851543  0.74451164  0.52341463  1
  O  O15  1  0.31426996  0.05952694  0.80261837  1
  O  O16  1  0.32383384  0.43777828  0.81880116  1
  O  O17  1  0.42087947  0.25055038  0.40036079  1
  O  O18  1  0.42401880  0.75230653  0.18868060  1
  O  O19  1  0.57666911  0.23143645  0.81214640  1
  O  O20  1  0.57087819  0.77519163  0.60658052  1
  O  O21  1  0.68233811  0.55586038  0.22838351  1
  O  O22  1  0.68713990  0.93135284  0.18795823  1
  O  O23  1  0.86677073  0.23680309  0.48691068  1
  O  O24  1  0.88533195  0.24855452  0.04814909  1
  O  O25  1  0.90178412  0.77695269  0.66345634  1
