# generated using pymatgen
data_NaLi2MnPCO7
_symmetry_space_group_name_H-M   'P 1'
_cell_length_a   8.66856015
_cell_length_b   6.74427602
_cell_length_c   5.02719647
_cell_angle_alpha   90.10839057
_cell_angle_beta   87.91184281
_cell_angle_gamma   88.37393747
_symmetry_Int_Tables_number   1
_chemical_formula_structural   NaLi2MnPCO7
_chemical_formula_sum   'Na2 Li4 Mn2 P2 C2 O14'
_cell_volume   293.59110118
_cell_formula_units_Z   2
loop_
 _symmetry_equiv_pos_site_id
 _symmetry_equiv_pos_as_xyz
  1  'x, y, z'
loop_
 _atom_site_type_symbol
 _atom_site_label
 _atom_site_symmetry_multiplicity
 _atom_site_fract_x
 _atom_site_fract_y
 _atom_site_fract_z
 _atom_site_occupancy
  Na  Na0  1  0.25131255  0.50106434  0.25033239  1
  Na  Na1  1  0.74868745  0.49893566  0.74966761  1
  Li  Li2  1  0.08640436  0.22438974  0.74623360  1
  Li  Li3  1  0.27137313  0.02632227  0.22922095  1
  Li  Li4  1  0.72862687  0.97367773  0.77077905  1
  Li  Li5  1  0.91359564  0.77561026  0.25376640  1
  Mn  Mn6  1  0.35403698  0.75561005  0.77699759  1
  Mn  Mn7  1  0.64596302  0.24438995  0.22300241  1
  P  P8  1  0.40575729  0.24128231  0.70702334  1
  P  P9  1  0.59424271  0.75871769  0.29297666  1
  C  C10  1  0.04146298  0.76280697  0.72796883  1
  C  C11  1  0.95853702  0.23719303  0.27203117  1
  O  O12  1  0.10209210  0.22283671  0.33412546  1
  O  O13  1  0.08143783  0.75282728  0.97508547  1
  O  O14  1  0.14716453  0.75827924  0.53749890  1
  O  O15  1  0.30128068  0.07382854  0.81971786  1
  O  O16  1  0.31790531  0.43839208  0.78294932  1
  O  O17  1  0.42132526  0.22219193  0.39716417  1
  O  O18  1  0.42827126  0.76943851  0.18529741  1
  O  O19  1  0.57172874  0.23056149  0.81470259  1
  O  O20  1  0.57867474  0.77780807  0.60283583  1
  O  O21  1  0.68209469  0.56160792  0.21705068  1
  O  O22  1  0.69871932  0.92617146  0.18028214  1
  O  O23  1  0.85283547  0.24172076  0.46250110  1
  O  O24  1  0.91856217  0.24717272  0.02491453  1
  O  O25  1  0.89790790  0.77716329  0.66587454  1
