# generated using pymatgen
data_Ni4P2O9
_symmetry_space_group_name_H-M   'P 1'
_cell_length_a   6.49467859
_cell_length_b   11.10268970
_cell_length_c   9.23523444
_cell_angle_alpha   90.00000000
_cell_angle_beta   105.89290126
_cell_angle_gamma   90.00000000
_symmetry_Int_Tables_number   1
_chemical_formula_structural   Ni4P2O9
_chemical_formula_sum   'Ni16 P8 O36'
_cell_volume   640.48267206
_cell_formula_units_Z   4
loop_
 _symmetry_equiv_pos_site_id
 _symmetry_equiv_pos_as_xyz
  1  'x, y, z'
loop_
 _atom_site_type_symbol
 _atom_site_label
 _atom_site_symmetry_multiplicity
 _atom_site_fract_x
 _atom_site_fract_y
 _atom_site_fract_z
 _atom_site_occupancy
  Ni  Ni0  1  0.06264744  0.59482784  0.88532271  1
  Ni  Ni1  1  0.06264744  0.90517216  0.38532271  1
  Ni  Ni2  1  0.22995117  0.37903519  0.75163446  1
  Ni  Ni3  1  0.17922210  0.60091850  0.53859314  1
  Ni  Ni4  1  0.22995117  0.12096481  0.25163446  1
  Ni  Ni5  1  0.17922210  0.89908150  0.03859314  1
  Ni  Ni6  1  0.45426797  0.13257775  0.68234539  1
  Ni  Ni7  1  0.54573203  0.63257775  0.81765461  1
  Ni  Ni8  1  0.45426797  0.36742225  0.18234539  1
  Ni  Ni9  1  0.54573203  0.86742225  0.31765461  1
  Ni  Ni10  1  0.82077790  0.10091850  0.96140686  1
  Ni  Ni11  1  0.77004883  0.87903519  0.74836554  1
  Ni  Ni12  1  0.82077790  0.39908150  0.46140686  1
  Ni  Ni13  1  0.77004883  0.62096481  0.24836554  1
  Ni  Ni14  1  0.93735256  0.09482784  0.61467729  1
  Ni  Ni15  1  0.93735256  0.40517216  0.11467729  1
  P  P16  1  0.29452583  0.17072149  0.92382926  1
  P  P17  1  0.24490030  0.86830897  0.68624766  1
  P  P18  1  0.29452583  0.32927851  0.42382926  1
  P  P19  1  0.24490030  0.63169103  0.18624766  1
  P  P20  1  0.75509970  0.36830897  0.81375234  1
  P  P21  1  0.70547417  0.67072149  0.57617074  1
  P  P22  1  0.75509970  0.13169103  0.31375234  1
  P  P23  1  0.70547417  0.82927851  0.07617074  1
  O  O24  1  0.10747201  0.88516688  0.79758612  1
  O  O25  1  0.16501503  0.18965535  0.75410889  1
  O  O26  1  0.13753083  0.78229300  0.55380493  1
  O  O27  1  0.25498999  0.55971021  0.76644332  1
  O  O28  1  0.16361014  0.40541048  0.51075543  1
  O  O29  1  0.33140839  0.30319687  0.97549049  1
  O  O30  1  0.10747201  0.61483312  0.29758612  1
  O  O31  1  0.24294684  0.98976342  0.59827756  1
  O  O32  1  0.16501503  0.31034465  0.25410889  1
  O  O33  1  0.13753083  0.71770700  0.05380493  1
  O  O34  1  0.25498999  0.94028979  0.26644332  1
  O  O35  1  0.16361014  0.09458952  0.01075543  1
  O  O36  1  0.33140839  0.19680313  0.47549049  1
  O  O37  1  0.49595310  0.10358169  0.91450466  1
  O  O38  1  0.24294684  0.51023658  0.09827756  1
  O  O39  1  0.47052518  0.82463347  0.76734839  1
  O  O40  1  0.52947482  0.32463347  0.73265161  1
  O  O41  1  0.50404690  0.60358169  0.58549534  1
  O  O42  1  0.49595310  0.39641831  0.41450466  1
  O  O43  1  0.47052518  0.67536653  0.26734839  1
  O  O44  1  0.52947482  0.17536653  0.23265161  1
  O  O45  1  0.75705316  0.48976342  0.90172244  1
  O  O46  1  0.50404690  0.89641831  0.08549534  1
  O  O47  1  0.66859161  0.80319687  0.52450951  1
  O  O48  1  0.83638986  0.90541048  0.98924457  1
  O  O49  1  0.74501001  0.05971021  0.73355668  1
  O  O50  1  0.86246917  0.28229300  0.94619507  1
  O  O51  1  0.83498497  0.68965535  0.74589111  1
  O  O52  1  0.75705316  0.01023658  0.40172244  1
  O  O53  1  0.89252799  0.38516688  0.70241388  1
  O  O54  1  0.66859161  0.69680313  0.02450951  1
  O  O55  1  0.83638986  0.59458952  0.48924457  1
  O  O56  1  0.74501001  0.44028979  0.23355668  1
  O  O57  1  0.86246917  0.21770700  0.44619507  1
  O  O58  1  0.83498497  0.81034465  0.24589111  1
  O  O59  1  0.89252799  0.11483312  0.20241388  1
