# generated using pymatgen
data_LiNb8O14
_symmetry_space_group_name_H-M   'P 1'
_cell_length_a   9.41469147
_cell_length_b   10.39444706
_cell_length_c   5.98426294
_cell_angle_alpha   90.00000000
_cell_angle_beta   90.00000000
_cell_angle_gamma   90.00000000
_symmetry_Int_Tables_number   1
_chemical_formula_structural   LiNb8O14
_chemical_formula_sum   'Li2 Nb16 O28'
_cell_volume   585.62303568
_cell_formula_units_Z   2
loop_
 _symmetry_equiv_pos_site_id
 _symmetry_equiv_pos_as_xyz
  1  'x, y, z'
loop_
 _atom_site_type_symbol
 _atom_site_label
 _atom_site_symmetry_multiplicity
 _atom_site_fract_x
 _atom_site_fract_y
 _atom_site_fract_z
 _atom_site_occupancy
  Li  Li0  1  0.00000000  0.50000000  0.50000000  1
  Li  Li1  1  0.50000000  0.00000000  0.50000000  1
  Nb  Nb2  1  0.11426243  0.66049209  0.00000000  1
  Nb  Nb3  1  0.11958318  0.16682772  0.50000000  1
  Nb  Nb4  1  0.12748981  0.92317373  0.26488486  1
  Nb  Nb5  1  0.12748981  0.92317373  0.73511514  1
  Nb  Nb6  1  0.37251019  0.42317373  0.26488486  1
  Nb  Nb7  1  0.37251019  0.42317373  0.73511514  1
  Nb  Nb8  1  0.38041682  0.66682672  0.50000000  1
  Nb  Nb9  1  0.38573757  0.16049209  0.00000000  1
  Nb  Nb10  1  0.61426243  0.83950791  0.00000000  1
  Nb  Nb11  1  0.61958318  0.33317228  0.50000000  1
  Nb  Nb12  1  0.62748981  0.57682627  0.26488486  1
  Nb  Nb13  1  0.62748981  0.57682627  0.73511514  1
  Nb  Nb14  1  0.87251019  0.07682627  0.26488486  1
  Nb  Nb15  1  0.87251019  0.07682627  0.73511514  1
  Nb  Nb16  1  0.88041682  0.83317328  0.50000000  1
  Nb  Nb17  1  0.88573757  0.33950791  0.00000000  1
  O  O18  1  0.00000000  0.00000000  0.00000000  1
  O  O19  1  0.00000000  0.50000000  0.00000000  1
  O  O20  1  0.00488367  0.74825567  0.24985672  1
  O  O21  1  0.00488367  0.74825567  0.75014328  1
  O  O22  1  0.23465751  0.82211177  0.00000000  1
  O  O23  1  0.24168980  0.34512574  0.50000000  1
  O  O24  1  0.24519901  0.58908142  0.24888040  1
  O  O25  1  0.24519901  0.58908142  0.75111960  1
  O  O26  1  0.25480099  0.08908142  0.24888040  1
  O  O27  1  0.25480099  0.08908142  0.75111960  1
  O  O28  1  0.25831020  0.84512674  0.50000000  1
  O  O29  1  0.26534249  0.32211177  0.00000000  1
  O  O30  1  0.49511633  0.24825567  0.75014328  1
  O  O31  1  0.49511633  0.24825567  0.24985672  1
  O  O32  1  0.50000000  0.50000000  0.00000000  1
  O  O33  1  0.50000000  0.00000000  0.00000000  1
  O  O34  1  0.50488367  0.75174433  0.24985672  1
  O  O35  1  0.50488367  0.75174433  0.75014328  1
  O  O36  1  0.73465751  0.67788823  0.00000000  1
  O  O37  1  0.74168980  0.15487326  0.50000000  1
  O  O38  1  0.74519901  0.91091858  0.24888040  1
  O  O39  1  0.74519901  0.91091858  0.75111960  1
  O  O40  1  0.75480099  0.41091858  0.24888040  1
  O  O41  1  0.75480099  0.41091858  0.75111960  1
  O  O42  1  0.75831020  0.65487326  0.50000000  1
  O  O43  1  0.76534249  0.17788823  0.00000000  1
  O  O44  1  0.99511633  0.25174433  0.24985672  1
  O  O45  1  0.99511633  0.25174433  0.75014328  1
