# generated using pymatgen
data_LiFePO4F
_symmetry_space_group_name_H-M   'P 1'
_cell_length_a   12.89288986
_cell_length_b   6.32243451
_cell_length_c   10.70229185
_cell_angle_alpha   90.00000000
_cell_angle_beta   90.00000000
_cell_angle_gamma   90.00000000
_symmetry_Int_Tables_number   1
_chemical_formula_structural   LiFePO4F
_chemical_formula_sum   'Li8 Fe8 P8 O32 F8'
_cell_volume   872.39145299
_cell_formula_units_Z   8
loop_
 _symmetry_equiv_pos_site_id
 _symmetry_equiv_pos_as_xyz
  1  'x, y, z'
loop_
 _atom_site_type_symbol
 _atom_site_label
 _atom_site_symmetry_multiplicity
 _atom_site_fract_x
 _atom_site_fract_y
 _atom_site_fract_z
 _atom_site_occupancy
  Li  Li0  1  0.10493024  0.95207406  0.97791727  1
  Li  Li1  1  0.21967545  0.23918974  0.22910934  1
  Li  Li2  1  0.28032455  0.73918974  0.72910934  1
  Li  Li3  1  0.39506976  0.45207406  0.47791727  1
  Li  Li4  1  0.60493024  0.54792594  0.97791727  1
  Li  Li5  1  0.71967545  0.26081026  0.22910934  1
  Li  Li6  1  0.78032455  0.76081026  0.72910934  1
  Li  Li7  1  0.89506976  0.04792594  0.47791727  1
  Fe  Fe8  1  0.11366411  0.99818657  0.49495488  1
  Fe  Fe9  1  0.24802772  0.24733867  0.74661056  1
  Fe  Fe10  1  0.25197228  0.74733867  0.24661056  1
  Fe  Fe11  1  0.38633589  0.49818657  0.99495488  1
  Fe  Fe12  1  0.61366411  0.50181343  0.49495488  1
  Fe  Fe13  1  0.74802772  0.25266133  0.74661056  1
  Fe  Fe14  1  0.75197228  0.75266133  0.24661056  1
  Fe  Fe15  1  0.88633589  0.00181343  0.99495488  1
  P  P16  1  0.00293747  0.83485170  0.24143110  1
  P  P17  1  0.18756749  0.50178300  0.49735077  1
  P  P18  1  0.31243251  0.00178300  0.99735077  1
  P  P19  1  0.49706253  0.33485170  0.74143110  1
  P  P20  1  0.50293747  0.66514830  0.24143110  1
  P  P21  1  0.68756749  0.99821700  0.49735077  1
  P  P22  1  0.81243251  0.49821700  0.99735077  1
  P  P23  1  0.99706253  0.16514830  0.74143110  1
  O  O24  1  0.99848523  0.03007350  0.61819418  1
  O  O25  1  0.00832346  0.98855093  0.35656349  1
  O  O26  1  0.09727016  0.29664409  0.75181020  1
  O  O27  1  0.10003016  0.69260226  0.23808351  1
  O  O28  1  0.12280192  0.30368456  0.47684827  1
  O  O29  1  0.11853362  0.69463220  0.51599626  1
  O  O30  1  0.23633184  0.97540611  0.11151332  1
  O  O31  1  0.23575948  0.02916872  0.88404094  1
  O  O32  1  0.26424052  0.52916872  0.38404094  1
  O  O33  1  0.26366816  0.47540611  0.61151332  1
  O  O34  1  0.38146638  0.19463220  0.01599626  1
  O  O35  1  0.37719808  0.80368456  0.97684827  1
  O  O36  1  0.39996984  0.19260226  0.73808351  1
  O  O37  1  0.40272984  0.79664409  0.25181020  1
  O  O38  1  0.49167654  0.48855093  0.85656349  1
  O  O39  1  0.50151477  0.53007350  0.11819418  1
  O  O40  1  0.49848523  0.46992650  0.61819418  1
  O  O41  1  0.50832346  0.51144907  0.35656349  1
  O  O42  1  0.59727016  0.20335591  0.75181020  1
  O  O43  1  0.60003016  0.80739774  0.23808351  1
  O  O44  1  0.62280192  0.19631544  0.47684827  1
  O  O45  1  0.61853362  0.80536780  0.51599626  1
  O  O46  1  0.73633184  0.52459389  0.11151332  1
  O  O47  1  0.73575948  0.47083128  0.88404094  1
  O  O48  1  0.76424052  0.97083128  0.38404094  1
  O  O49  1  0.76366816  0.02459389  0.61151332  1
  O  O50  1  0.88146638  0.30536780  0.01599626  1
  O  O51  1  0.87719808  0.69631544  0.97684827  1
  O  O52  1  0.89996984  0.30739774  0.73808351  1
  O  O53  1  0.90272984  0.70335591  0.25181020  1
  O  O54  1  0.99167654  0.01144907  0.85656349  1
  O  O55  1  0.00151477  0.96992650  0.11819418  1
  F  F56  1  0.22843479  0.99966006  0.35904118  1
  F  F57  1  0.23077485  0.99563866  0.63081172  1
  F  F58  1  0.26922515  0.49563866  0.13081172  1
  F  F59  1  0.27156521  0.49966006  0.85904118  1
  F  F60  1  0.72843479  0.50033994  0.35904118  1
  F  F61  1  0.73077485  0.50436134  0.63081172  1
  F  F62  1  0.76922515  0.00436134  0.13081172  1
  F  F63  1  0.77156521  0.00033994  0.85904118  1
