# generated using pymatgen
data_Cs2SO4
_symmetry_space_group_name_H-M   'P 1'
_cell_length_a   8.31394365
_cell_length_b   12.97972114
_cell_length_c   6.22904481
_cell_angle_alpha   90.00000000
_cell_angle_beta   90.00000000
_cell_angle_gamma   90.00000000
_symmetry_Int_Tables_number   1
_chemical_formula_structural   Cs2SO4
_chemical_formula_sum   'Cs8 S4 O16'
_cell_volume   672.19285794
_cell_formula_units_Z   4
loop_
 _symmetry_equiv_pos_site_id
 _symmetry_equiv_pos_as_xyz
  1  'x, y, z'
loop_
 _atom_site_type_symbol
 _atom_site_label
 _atom_site_symmetry_multiplicity
 _atom_site_fract_x
 _atom_site_fract_y
 _atom_site_fract_z
 _atom_site_occupancy
  Cs  Cs0  1  0.99150995  0.33238791  0.75000000  1
  Cs  Cs1  1  0.17386684  0.05395200  0.75000000  1
  Cs  Cs2  1  0.32613316  0.55395200  0.75000000  1
  Cs  Cs3  1  0.50849005  0.83238791  0.75000000  1
  Cs  Cs4  1  0.49150995  0.16761209  0.25000000  1
  Cs  Cs5  1  0.67386684  0.44604800  0.25000000  1
  Cs  Cs6  1  0.82613316  0.94604800  0.25000000  1
  Cs  Cs7  1  0.00849005  0.66761209  0.25000000  1
  S  S8  1  0.23491027  0.41407161  0.25000000  1
  S  S9  1  0.26508973  0.91407161  0.25000000  1
  S  S10  1  0.73491027  0.08592839  0.75000000  1
  S  S11  1  0.76508973  0.58592839  0.75000000  1
  O  O12  1  0.05507762  0.41436931  0.25000000  1
  O  O13  1  0.20290858  0.86038888  0.05381655  1
  O  O14  1  0.20290858  0.86038888  0.44618345  1
  O  O15  1  0.20484984  0.02381980  0.25000000  1
  O  O16  1  0.29515016  0.52381980  0.25000000  1
  O  O17  1  0.29709142  0.36038888  0.05381655  1
  O  O18  1  0.29709142  0.36038888  0.44618345  1
  O  O19  1  0.44492238  0.91436931  0.25000000  1
  O  O20  1  0.55507762  0.08563069  0.75000000  1
  O  O21  1  0.70290858  0.63961112  0.55381655  1
  O  O22  1  0.70290858  0.63961112  0.94618345  1
  O  O23  1  0.70484984  0.47618020  0.75000000  1
  O  O24  1  0.79515016  0.97618020  0.75000000  1
  O  O25  1  0.79709142  0.13961112  0.55381655  1
  O  O26  1  0.79709142  0.13961112  0.94618345  1
  O  O27  1  0.94492238  0.58563069  0.75000000  1
