# generated using pymatgen
data_BaLa2Cl8
_symmetry_space_group_name_H-M   'P 1'
_cell_length_a   7.82799833
_cell_length_b   7.82799833
_cell_length_c   5.51976663
_cell_angle_alpha   82.71973668
_cell_angle_beta   97.28026332
_cell_angle_gamma   68.70573519
_symmetry_Int_Tables_number   1
_chemical_formula_structural   BaLa2Cl8
_chemical_formula_sum   'Ba1 La2 Cl8'
_cell_volume   307.09594958
_cell_formula_units_Z   1
loop_
 _symmetry_equiv_pos_site_id
 _symmetry_equiv_pos_as_xyz
  1  'x, y, z'
loop_
 _atom_site_type_symbol
 _atom_site_label
 _atom_site_symmetry_multiplicity
 _atom_site_fract_x
 _atom_site_fract_y
 _atom_site_fract_z
 _atom_site_occupancy
  Ba  Ba0  1  0.00000000  0.00000000  0.00000000  1
  La  La1  1  0.68007177  0.68007177  0.50000000  1
  La  La2  1  0.31992823  0.31992823  0.50000000  1
  Cl  Cl3  1  0.05856928  0.67741681  0.57463137  1
  Cl  Cl4  1  0.32258319  0.94143072  0.57463137  1
  Cl  Cl5  1  0.38141372  0.61858628  0.19966552  1
  Cl  Cl6  1  0.24730615  0.24730615  0.00000000  1
  Cl  Cl7  1  0.75269385  0.75269385  0.00000000  1
  Cl  Cl8  1  0.61858628  0.38141372  0.80033448  1
  Cl  Cl9  1  0.67741681  0.05856928  0.42536863  1
  Cl  Cl10  1  0.94143072  0.32258319  0.42536863  1
