# generated using pymatgen
data_Li2Cr3BiO8
_symmetry_space_group_name_H-M   'P 1'
_cell_length_a   8.70228283
_cell_length_b   8.67136826
_cell_length_c   8.65059896
_cell_angle_alpha   90.39509712
_cell_angle_beta   90.63629080
_cell_angle_gamma   90.25237565
_symmetry_Int_Tables_number   1
_chemical_formula_structural   Li2Cr3BiO8
_chemical_formula_sum   'Li8 Cr12 Bi4 O32'
_cell_volume   652.71791792
_cell_formula_units_Z   4
loop_
 _symmetry_equiv_pos_site_id
 _symmetry_equiv_pos_as_xyz
  1  'x, y, z'
loop_
 _atom_site_type_symbol
 _atom_site_label
 _atom_site_symmetry_multiplicity
 _atom_site_fract_x
 _atom_site_fract_y
 _atom_site_fract_z
 _atom_site_occupancy
  Li  Li0  1  0.99899310  0.99760088  0.00024226  1
  Li  Li1  1  0.24993046  0.24996183  0.24830509  1
  Li  Li2  1  0.25049802  0.75204506  0.75165546  1
  Li  Li3  1  0.50075396  0.99846238  0.49971922  1
  Li  Li4  1  0.50057502  0.49876275  0.99973334  1
  Li  Li5  1  0.75167387  0.25029280  0.75021219  1
  Li  Li6  1  0.75028944  0.75292802  0.24876000  1
  Li  Li7  1  0.99773170  0.49846826  0.50006157  1
  Cr  Cr8  1  0.10976321  0.14018081  0.62559054  1
  Cr  Cr9  1  0.12500633  0.39232355  0.85783432  1
  Cr  Cr10  1  0.13880805  0.62370002  0.11093668  1
  Cr  Cr11  1  0.36052062  0.37676485  0.61349153  1
  Cr  Cr12  1  0.37447699  0.60947926  0.35498399  1
  Cr  Cr13  1  0.39150929  0.86146331  0.12606760  1
  Cr  Cr14  1  0.61401892  0.36295517  0.37465145  1
  Cr  Cr15  1  0.62640390  0.10888357  0.13915918  1
  Cr  Cr16  1  0.63849816  0.87514395  0.88975678  1
  Cr  Cr17  1  0.85690039  0.12526767  0.39208068  1
  Cr  Cr18  1  0.87436669  0.88812174  0.63818983  1
  Cr  Cr19  1  0.88787563  0.63796152  0.87425399  1
  Bi  Bi20  1  0.12297699  0.87555646  0.37414657  1
  Bi  Bi21  1  0.37589561  0.12414702  0.87662107  1
  Bi  Bi22  1  0.62459401  0.62631854  0.62471243  1
  Bi  Bi23  1  0.87476465  0.37429039  0.12334198  1
  O  O24  1  0.08526842  0.13710447  0.39225357  1
  O  O25  1  0.10463755  0.90817868  0.63590181  1
  O  O26  1  0.11778927  0.61147516  0.87708084  1
  O  O27  1  0.11414275  0.16556352  0.85917571  1
  O  O28  1  0.13613338  0.38991365  0.08479544  1
  O  O29  1  0.13220596  0.37348358  0.63795245  1
  O  O30  1  0.14697829  0.61258609  0.34376241  1
  O  O31  1  0.15832847  0.85421869  0.11589020  1
  O  O32  1  0.34175319  0.14625456  0.61389029  1
  O  O33  1  0.35478775  0.38716582  0.84336449  1
  O  O34  1  0.36931032  0.62581286  0.13925472  1
  O  O35  1  0.37459502  0.61320931  0.59195166  1
  O  O36  1  0.38560574  0.83408002  0.36208512  1
  O  O37  1  0.38321861  0.39139496  0.38007754  1
  O  O38  1  0.39492968  0.09200266  0.13800238  1
  O  O39  1  0.40574927  0.86478154  0.89437403  1
  O  O40  1  0.59656867  0.37682942  0.61080897  1
  O  O41  1  0.60923270  0.59819880  0.37341219  1
  O  O42  1  0.61931409  0.88038096  0.11861035  1
  O  O43  1  0.61687003  0.34439778  0.14433564  1
  O  O44  1  0.63548602  0.10720914  0.90647964  1
  O  O45  1  0.63880279  0.13279484  0.37392036  1
  O  O46  1  0.63850158  0.87456181  0.65072108  1
  O  O47  1  0.65176773  0.63794666  0.87436022  1
  O  O48  1  0.84353468  0.35530961  0.38611378  1
  O  O49  1  0.86034475  0.11363373  0.16624927  1
  O  O50  1  0.86769301  0.86723943  0.86752155  1
  O  O51  1  0.86493028  0.89504981  0.40548367  1
  O  O52  1  0.87340219  0.65158966  0.63734197  1
  O  O53  1  0.87766666  0.11817284  0.61159709  1
  O  O54  1  0.89602148  0.40516508  0.86282261  1
  O  O55  1  0.90760867  0.63335202  0.10603724  1
