# generated using pymatgen
data_V5(BO5)2
_symmetry_space_group_name_H-M   'P 1'
_cell_length_a   9.44161104
_cell_length_b   12.40402236
_cell_length_c   3.12255801
_cell_angle_alpha   90.00002628
_cell_angle_beta   90.00003857
_cell_angle_gamma   90.00337158
_symmetry_Int_Tables_number   1
_chemical_formula_structural   V5(BO5)2
_chemical_formula_sum   'V10 B4 O20'
_cell_volume   365.69511595
_cell_formula_units_Z   2
loop_
 _symmetry_equiv_pos_site_id
 _symmetry_equiv_pos_as_xyz
  1  'x, y, z'
loop_
 _atom_site_type_symbol
 _atom_site_label
 _atom_site_symmetry_multiplicity
 _atom_site_fract_x
 _atom_site_fract_y
 _atom_site_fract_z
 _atom_site_occupancy
  V  V0  1  0.99999956  0.99999377  0.00000368  1
  V  V1  1  0.01586727  0.29117504  0.00000264  1
  V  V2  1  0.25463616  0.11108305  0.49999979  1
  V  V3  1  0.24531586  0.61107817  0.49999858  1
  V  V4  1  0.48411216  0.79116741  0.99999927  1
  V  V5  1  0.50000790  0.50000823  0.99999759  1
  V  V6  1  0.51587611  0.20882123  0.00000295  1
  V  V7  1  0.75465442  0.38892226  0.49999884  1
  V  V8  1  0.74533670  0.88892199  0.50000224  1
  V  V9  1  0.98411643  0.70883609  0.99999895  1
  B  B10  1  0.21463504  0.85618462  0.49999946  1
  B  B11  1  0.28539207  0.35617534  0.49999928  1
  B  B12  1  0.71464067  0.64382516  0.49999880  1
  B  B13  1  0.78537391  0.14381058  0.50000111  1
  O  O14  1  0.11284717  0.14826841  0.99999895  1
  O  O15  1  0.12081097  0.59116859  0.99999841  1
  O  O16  1  0.13974515  0.34499481  0.49999941  1
  O  O17  1  0.15184084  0.95701890  0.50000096  1
  O  O18  1  0.13038883  0.76353603  0.49999888  1
  O  O19  1  0.36961992  0.26352721  0.50000134  1
  O  O20  1  0.34818075  0.45701571  0.49999813  1
  O  O21  1  0.36027185  0.84500650  0.49999970  1
  O  O22  1  0.37913306  0.09117857  0.99999955  1
  O  O23  1  0.38711542  0.64827672  0.99999931  1
  O  O24  1  0.61287262  0.35172435  0.99999842  1
  O  O25  1  0.62084181  0.90882388  0.00000269  1
  O  O26  1  0.63974372  0.15498266  0.50000041  1
  O  O27  1  0.65185633  0.54298238  0.49999786  1
  O  O28  1  0.63039959  0.73646800  0.50000005  1
  O  O29  1  0.86962034  0.23647317  0.50000081  1
  O  O30  1  0.84817586  0.04298325  0.50000314  1
  O  O31  1  0.86027351  0.65501265  0.49999899  1
  O  O32  1  0.87915356  0.40882633  0.99999931  1
  O  O33  1  0.88714442  0.85172892  0.00000047  1
