# generated using pymatgen
data_Na3Li3Mn2P2(CO7)2
_symmetry_space_group_name_H-M   'P 1'
_cell_length_a   8.75109605
_cell_length_b   6.76635659
_cell_length_c   10.14992143
_cell_angle_alpha   90.30446456
_cell_angle_beta   88.93559647
_cell_angle_gamma   88.91424247
_symmetry_Int_Tables_number   1
_chemical_formula_structural   Na3Li3Mn2P2(CO7)2
_chemical_formula_sum   'Na6 Li6 Mn4 P4 C4 O28'
_cell_volume   600.78642006
_cell_formula_units_Z   2
loop_
 _symmetry_equiv_pos_site_id
 _symmetry_equiv_pos_as_xyz
  1  'x, y, z'
loop_
 _atom_site_type_symbol
 _atom_site_label
 _atom_site_symmetry_multiplicity
 _atom_site_fract_x
 _atom_site_fract_y
 _atom_site_fract_z
 _atom_site_occupancy
  Na  Na0  1  0.08359739  0.24426002  0.37887219  1
  Na  Na1  1  0.25396315  0.49968028  0.62623262  1
  Na  Na2  1  0.25544131  0.99876936  0.12331047  1
  Na  Na3  1  0.25710127  0.50097813  0.12154267  1
  Na  Na4  1  0.74628424  0.50083607  0.87614463  1
  Na  Na5  1  0.74475036  0.50115545  0.37574272  1
  Li  Li6  1  0.07962255  0.23606317  0.87537436  1
  Li  Li7  1  0.26971268  0.01989743  0.62059761  1
  Li  Li8  1  0.73371202  0.98238957  0.88352977  1
  Li  Li9  1  0.72957662  0.98022302  0.38377491  1
  Li  Li10  1  0.91427662  0.76739544  0.62601853  1
  Li  Li11  1  0.91089444  0.76021439  0.12291187  1
  Mn  Mn12  1  0.35824874  0.75148067  0.88517242  1
  Mn  Mn13  1  0.36017974  0.75221984  0.39090108  1
  Mn  Mn14  1  0.64479595  0.24581430  0.61313894  1
  Mn  Mn15  1  0.64431904  0.24472524  0.10870790  1
  P  P16  1  0.40524826  0.24147577  0.84900797  1
  P  P17  1  0.41506209  0.24479206  0.35362867  1
  P  P18  1  0.59428792  0.75803048  0.64865140  1
  P  P19  1  0.59817278  0.75308197  0.14606292  1
  C  C20  1  0.04498150  0.75996945  0.86552496  1
  C  C21  1  0.04501649  0.75917148  0.36720957  1
  C  C22  1  0.94848819  0.23939322  0.63903267  1
  C  C23  1  0.94877837  0.24840149  0.12988683  1
  O  O24  1  0.09588070  0.22712852  0.65407218  1
  O  O25  1  0.09291025  0.25523029  0.14981850  1
  O  O26  1  0.08984828  0.75305396  0.98721671  1
  O  O27  1  0.09024517  0.75076786  0.48875933  1
  O  O28  1  0.14555787  0.75302495  0.76901845  1
  O  O29  1  0.14651632  0.75266914  0.27106317  1
  O  O30  1  0.30417262  0.06827071  0.89670420  1
  O  O31  1  0.31627069  0.43425766  0.88943381  1
  O  O32  1  0.31668820  0.06802371  0.40127544  1
  O  O33  1  0.32710655  0.43600240  0.39929210  1
  O  O34  1  0.42103488  0.23058223  0.69512043  1
  O  O35  1  0.42820015  0.76787486  0.59508614  1
  O  O36  1  0.42728099  0.24336724  0.20008773  1
  O  O37  1  0.43554656  0.74906472  0.08784289  1
  O  O38  1  0.56963017  0.23337912  0.90523186  1
  O  O39  1  0.58047862  0.77250415  0.80235144  1
  O  O40  1  0.57972111  0.23228303  0.40766144  1
  O  O41  1  0.57982968  0.77128072  0.29954301  1
  O  O42  1  0.68135693  0.56417211  0.60884650  1
  O  O43  1  0.69551401  0.92789330  0.59538108  1
  O  O44  1  0.69376643  0.56370569  0.11009873  1
  O  O45  1  0.69491147  0.92737750  0.09274506  1
  O  O46  1  0.85877508  0.24279214  0.74269832  1
  O  O47  1  0.85278579  0.24247998  0.22976539  1
  O  O48  1  0.88896577  0.24891029  0.52324996  1
  O  O49  1  0.89750468  0.24682672  0.00979194  1
  O  O50  1  0.90129216  0.77314861  0.83765085  1
  O  O51  1  0.90169614  0.77350813  0.33921466  1
