# generated using pymatgen
data_Li2V5B3O13
_symmetry_space_group_name_H-M   'P 1'
_cell_length_a   9.61664909
_cell_length_b   3.23444844
_cell_length_c   15.12135326
_cell_angle_alpha   90.00000000
_cell_angle_beta   106.46637902
_cell_angle_gamma   90.00000000
_symmetry_Int_Tables_number   1
_chemical_formula_structural   Li2V5B3O13
_chemical_formula_sum   'Li4 V10 B6 O26'
_cell_volume   451.05243481
_cell_formula_units_Z   2
loop_
 _symmetry_equiv_pos_site_id
 _symmetry_equiv_pos_as_xyz
  1  'x, y, z'
loop_
 _atom_site_type_symbol
 _atom_site_label
 _atom_site_symmetry_multiplicity
 _atom_site_fract_x
 _atom_site_fract_y
 _atom_site_fract_z
 _atom_site_occupancy
  Li  Li0  1  0.27297363  0.25000000  0.76044613  1
  Li  Li1  1  0.38345914  0.75000000  0.94591114  1
  Li  Li2  1  0.61654086  0.25000000  0.05408886  1
  Li  Li3  1  0.72702637  0.75000000  0.23955387  1
  V  V4  1  0.14134417  0.25000000  0.00316238  1
  V  V5  1  0.04072109  0.25000000  0.36588851  1
  V  V6  1  0.18895483  0.75000000  0.20390775  1
  V  V7  1  0.35791787  0.75000000  0.43572357  1
  V  V8  1  0.47817652  0.75000000  0.68744850  1
  V  V9  1  0.52182348  0.25000000  0.31255150  1
  V  V10  1  0.64208213  0.25000000  0.56427643  1
  V  V11  1  0.81104517  0.25000000  0.79609225  1
  V  V12  1  0.95927891  0.75000000  0.63411149  1
  V  V13  1  0.85865583  0.75000000  0.99683762  1
  B  B14  1  0.08740455  0.75000000  0.81857929  1
  B  B15  1  0.20574218  0.25000000  0.57373260  1
  B  B16  1  0.59173798  0.75000000  0.88323092  1
  B  B17  1  0.40826202  0.25000000  0.11676908  1
  B  B18  1  0.79425782  0.75000000  0.42626740  1
  B  B19  1  0.91259545  0.25000000  0.18142071  1
  O  O20  1  0.16589098  0.75000000  0.91007218  1
  O  O21  1  0.06939932  0.25000000  0.58609534  1
  O  O22  1  0.14913875  0.75000000  0.74788094  1
  O  O23  1  0.06336184  0.25000000  0.21204928  1
  O  O24  1  0.15762248  0.75000000  0.34444022  1
  O  O25  1  0.22709899  0.25000000  0.48629248  1
  O  O26  1  0.33014488  0.25000000  0.64977899  1
  O  O27  1  0.07460377  0.75000000  0.06438066  1
  O  O28  1  0.45553173  0.75000000  0.82201310  1
  O  O29  1  0.62029025  0.75000000  0.97750681  1
  O  O30  1  0.28175902  0.25000000  0.14458821  1
  O  O31  1  0.38782662  0.75000000  0.29407410  1
  O  O32  1  0.51076364  0.75000000  0.56555109  1
  O  O33  1  0.48923636  0.25000000  0.43444891  1
  O  O34  1  0.61217338  0.25000000  0.70592590  1
  O  O35  1  0.71824098  0.75000000  0.85541179  1
  O  O36  1  0.37970975  0.25000000  0.02249319  1
  O  O37  1  0.54446827  0.25000000  0.17798690  1
  O  O38  1  0.92539623  0.25000000  0.93561934  1
  O  O39  1  0.66985512  0.75000000  0.35022101  1
  O  O40  1  0.77290101  0.75000000  0.51370752  1
  O  O41  1  0.84237752  0.25000000  0.65555978  1
  O  O42  1  0.93663816  0.75000000  0.78795072  1
  O  O43  1  0.85086125  0.25000000  0.25211906  1
  O  O44  1  0.93060068  0.75000000  0.41390466  1
  O  O45  1  0.83410902  0.25000000  0.08992782  1
