# generated using pymatgen
data_Al3P3H9C2NO13
_symmetry_space_group_name_H-M   'P 1'
_cell_length_a   8.78287016
_cell_length_b   17.58929324
_cell_length_c   9.26931970
_cell_angle_alpha   90.00000000
_cell_angle_beta   109.71760785
_cell_angle_gamma   90.00000000
_symmetry_Int_Tables_number   1
_chemical_formula_structural   Al3P3H9C2NO13
_chemical_formula_sum   'Al12 P12 H36 C8 N4 O52'
_cell_volume   1348.00542286
_cell_formula_units_Z   4
loop_
 _symmetry_equiv_pos_site_id
 _symmetry_equiv_pos_as_xyz
  1  'x, y, z'
loop_
 _atom_site_type_symbol
 _atom_site_label
 _atom_site_symmetry_multiplicity
 _atom_site_fract_x
 _atom_site_fract_y
 _atom_site_fract_z
 _atom_site_occupancy
  Al  Al0  1  0.06514898  0.20398234  0.79824344  1
  Al  Al1  1  0.13951436  0.38876299  0.66455299  1
  Al  Al2  1  0.01006763  0.33098660  0.19001608  1
  Al  Al3  1  0.36048564  0.88876299  0.83544701  1
  Al  Al4  1  0.43485102  0.70398234  0.70175656  1
  Al  Al5  1  0.51006763  0.16901340  0.69001608  1
  Al  Al6  1  0.48993237  0.83098660  0.30998392  1
  Al  Al7  1  0.56514898  0.29601766  0.29824344  1
  Al  Al8  1  0.63951436  0.11123701  0.16455299  1
  Al  Al9  1  0.98993237  0.66901340  0.80998392  1
  Al  Al10  1  0.86048564  0.61123701  0.33544701  1
  Al  Al11  1  0.93485102  0.79601766  0.20175656  1
  P  P12  1  0.15938063  0.57063073  0.63195353  1
  P  P13  1  0.34061937  0.07063073  0.86804647  1
  P  P14  1  0.25159882  0.83757128  0.49430704  1
  P  P15  1  0.29639071  0.28830105  0.47261278  1
  P  P16  1  0.20360929  0.78830105  0.02738722  1
  P  P17  1  0.24840118  0.33757128  0.00569296  1
  P  P18  1  0.75159882  0.66242872  0.99430704  1
  P  P19  1  0.79639071  0.21169895  0.97261278  1
  P  P20  1  0.70360929  0.71169895  0.52738722  1
  P  P21  1  0.74840118  0.16242872  0.50569296  1
  P  P22  1  0.65938063  0.92936927  0.13195353  1
  P  P23  1  0.84061937  0.42936927  0.36804647  1
  H  H24  1  0.05258201  0.05938685  0.47958577  1
  H  H25  1  0.12348445  0.12272598  0.36638261  1
  H  H26  1  0.25499274  0.04951776  0.47705000  1
  H  H27  1  0.12305109  0.97462469  0.08130143  1
  H  H28  1  0.16352512  0.07357674  0.12911658  1
  H  H29  1  0.20434089  0.50121054  0.26034792  1
  H  H30  1  0.29565911  0.00121054  0.23965208  1
  H  H31  1  0.33647488  0.57357674  0.37088342  1
  H  H32  1  0.55258201  0.44061315  0.97958577  1
  H  H33  1  0.37694891  0.47462469  0.41869857  1
  H  H34  1  0.24500726  0.54951776  0.02295000  1
  H  H35  1  0.62348445  0.37727402  0.86638261  1
  H  H36  1  0.37651555  0.62272598  0.13361739  1
  H  H37  1  0.75499274  0.45048224  0.97705000  1
  H  H38  1  0.62305109  0.52537531  0.58130143  1
  H  H39  1  0.44741799  0.55938685  0.02041423  1
  H  H40  1  0.66352512  0.42642326  0.62911658  1
  H  H41  1  0.70434089  0.99878946  0.76034792  1
  H  H42  1  0.79565911  0.49878946  0.73965208  1
  H  H43  1  0.83647488  0.92642326  0.87088342  1
  H  H44  1  0.87694891  0.02537531  0.91869857  1
  H  H45  1  0.74500726  0.95048224  0.52295000  1
  H  H46  1  0.87651555  0.87727402  0.63361739  1
  H  H47  1  0.94741799  0.94061315  0.52041423  1
  H  H48  1  0.05012036  0.97769214  0.78275441  1
  H  H49  1  0.05882141  0.71249560  0.40610681  1
  H  H50  1  0.07352385  0.95535276  0.31609685  1
  H  H51  1  0.44987964  0.47769214  0.71724559  1
  H  H52  1  0.55882141  0.78750440  0.90610681  1
  H  H53  1  0.57352385  0.54464724  0.81609685  1
  H  H54  1  0.42647615  0.45535276  0.18390315  1
  H  H55  1  0.44117859  0.21249560  0.09389319  1
  H  H56  1  0.55012036  0.52230786  0.28275441  1
  H  H57  1  0.92647615  0.04464724  0.68390315  1
  H  H58  1  0.94117859  0.28750440  0.59389319  1
  H  H59  1  0.94987964  0.02230786  0.21724559  1
  C  C60  1  0.13015327  0.06442946  0.40963051  1
  C  C61  1  0.16990014  0.01565519  0.17429520  1
  C  C62  1  0.33009986  0.51565519  0.32570480  1
  C  C63  1  0.63015327  0.43557054  0.90963051  1
  C  C64  1  0.36984673  0.56442946  0.09036949  1
  C  C65  1  0.66990014  0.48434481  0.67429520  1
  C  C66  1  0.83009986  0.98434481  0.82570480  1
  C  C67  1  0.86984673  0.93557054  0.59036949  1
  N  N68  1  0.07173998  0.01131803  0.27727995  1
  N  N69  1  0.57173998  0.48868197  0.77727995  1
  N  N70  1  0.42826002  0.51131803  0.22272005  1
  N  N71  1  0.92826002  0.98868197  0.72272005  1
  O  O72  1  0.05333055  0.58892039  0.73264639  1
  O  O73  1  0.04356363  0.29033712  0.68050220  1
  O  O74  1  0.16435032  0.71632958  0.92553347  1
  O  O75  1  0.22886821  0.25320547  0.95715947  1
  O  O76  1  0.05966745  0.58400263  0.46200426  1
  O  O77  1  0.22486870  0.85633622  0.93169091  1
  O  O78  1  0.18993227  0.12128217  0.82026835  1
  O  O79  1  0.23389911  0.39121278  0.86997473  1
  O  O80  1  0.08403334  0.84946487  0.37159415  1
  O  O81  1  0.28008568  0.98817677  0.83990577  1
  O  O82  1  0.21991432  0.48817677  0.66009423  1
  O  O83  1  0.13579499  0.27269585  0.33861213  1
  O  O84  1  0.06640942  0.80603216  0.08869516  1
  O  O85  1  0.26610089  0.89121278  0.63002527  1
  O  O86  1  0.31006773  0.62128217  0.67973165  1
  O  O87  1  0.27513130  0.35633622  0.56830909  1
  O  O88  1  0.27113179  0.75320547  0.54284053  1
  O  O89  1  0.11640121  0.36328503  0.07299552  1
  O  O90  1  0.33564968  0.21632958  0.57446653  1
  O  O91  1  0.45643637  0.79033712  0.81949780  1
  O  O92  1  0.44666945  0.08892039  0.76735361  1
  O  O93  1  0.55966745  0.91599737  0.96200426  1
  O  O94  1  0.38359879  0.86328503  0.42700448  1
  O  O95  1  0.58403334  0.65053513  0.87159415  1
  O  O96  1  0.43359058  0.30603216  0.41130484  1
  O  O97  1  0.36420501  0.77269585  0.16138787  1
  O  O98  1  0.63579499  0.22730415  0.83861213  1
  O  O99  1  0.56640942  0.69396784  0.58869516  1
  O  O100  1  0.41596666  0.34946487  0.12840585  1
  O  O101  1  0.61640121  0.13671497  0.57299552  1
  O  O102  1  0.44033255  0.08400263  0.03799574  1
  O  O103  1  0.55333055  0.91107961  0.23264739  1
  O  O104  1  0.54356363  0.20966288  0.18050220  1
  O  O105  1  0.66435032  0.78367042  0.42553347  1
  O  O106  1  0.88359879  0.63671497  0.92700448  1
  O  O107  1  0.72886821  0.24679453  0.45715947  1
  O  O108  1  0.72486870  0.64366378  0.43169091  1
  O  O109  1  0.68993227  0.37871783  0.32026835  1
  O  O110  1  0.73389911  0.10878722  0.36997473  1
  O  O111  1  0.93359058  0.19396784  0.91130484  1
  O  O112  1  0.86420501  0.72730415  0.66138787  1
  O  O113  1  0.78008568  0.51182323  0.33990577  1
  O  O114  1  0.71991432  0.01182323  0.16009423  1
  O  O115  1  0.91596666  0.15053513  0.62840585  1
  O  O116  1  0.76610089  0.60878722  0.13002527  1
  O  O117  1  0.81006773  0.87871783  0.17973165  1
  O  O118  1  0.77513130  0.14366378  0.06830909  1
  O  O119  1  0.94033255  0.41599737  0.53799574  1
  O  O120  1  0.77113179  0.74679453  0.04284053  1
  O  O121  1  0.83564968  0.28367042  0.07446653  1
  O  O122  1  0.95643637  0.70966288  0.31949780  1
  O  O123  1  0.94666945  0.41107961  0.26735361  1
