# generated using pymatgen
data_LiTiCoF6
_symmetry_space_group_name_H-M   'P 1'
_cell_length_a   4.65674804
_cell_length_b   8.80142100
_cell_length_c   8.80142100
_cell_angle_alpha   119.99999909
_cell_angle_beta   90.00000000
_cell_angle_gamma   90.00000000
_symmetry_Int_Tables_number   1
_chemical_formula_structural   LiTiCoF6
_chemical_formula_sum   'Li3 Ti3 Co3 F18'
_cell_volume   312.40571237
_cell_formula_units_Z   3
loop_
 _symmetry_equiv_pos_site_id
 _symmetry_equiv_pos_as_xyz
  1  'x, y, z'
loop_
 _atom_site_type_symbol
 _atom_site_label
 _atom_site_symmetry_multiplicity
 _atom_site_fract_x
 _atom_site_fract_y
 _atom_site_fract_z
 _atom_site_occupancy
  Li  Li0  1  0.50000000  0.31292085  0.31292085  1
  Li  Li1  1  0.50000000  1.00000000  0.68707915  1
  Li  Li2  1  0.50000000  0.68707915  1.00000000  1
  Ti  Ti3  1  0.00000000  0.65464790  0.65464790  1
  Ti  Ti4  1  0.00000000  0.00000000  0.34535210  1
  Ti  Ti5  1  0.00000000  0.34535210  0.00000000  1
  Co  Co6  1  0.00000000  -0.00000000  0.00000000  1
  Co  Co7  1  0.50833226  0.66666700  0.33333300  1
  Co  Co8  1  0.49166774  0.33333300  0.66666700  1
  F  F9  1  0.75882032  0.89937494  0.45139642  1
  F  F10  1  0.75882032  0.55202149  0.10062506  1
  F  F11  1  0.24117968  0.44797851  0.54860358  1
  F  F12  1  0.75882032  0.54860358  0.44797851  1
  F  F13  1  0.24117968  0.45139642  0.89937494  1
  F  F14  1  0.24117968  0.10062506  0.55202149  1
  F  F15  1  0.76256219  0.89019624  0.13112241  1
  F  F16  1  0.76256219  0.24092617  0.10980376  1
  F  F17  1  0.23743781  0.75907383  0.86887759  1
  F  F18  1  0.76256219  0.86887759  0.75907383  1
  F  F19  1  0.23743781  0.13112241  0.89019624  1
  F  F20  1  0.23743781  0.10980376  0.24092617  1
  F  F21  1  0.75164678  0.56115254  0.76418893  1
  F  F22  1  0.75164678  0.20303639  0.43884746  1
  F  F23  1  0.24835322  0.79696361  0.23581107  1
  F  F24  1  0.75164678  0.23581107  0.79696361  1
  F  F25  1  0.24835322  0.76418893  0.56115254  1
  F  F26  1  0.24835322  0.43884746  0.20303639  1
