# generated using pymatgen
data_H12RuSN4(ClO)2
_symmetry_space_group_name_H-M   'P 1'
_cell_length_a   14.17945577
_cell_length_b   7.42255680
_cell_length_c   9.40371521
_cell_angle_alpha   90.00000000
_cell_angle_beta   90.00000000
_cell_angle_gamma   90.00000000
_symmetry_Int_Tables_number   1
_chemical_formula_structural   H12RuSN4(ClO)2
_chemical_formula_sum   'H48 Ru4 S4 N16 Cl8 O8'
_cell_volume   989.72048669
_cell_formula_units_Z   4
loop_
 _symmetry_equiv_pos_site_id
 _symmetry_equiv_pos_as_xyz
  1  'x, y, z'
loop_
 _atom_site_type_symbol
 _atom_site_label
 _atom_site_symmetry_multiplicity
 _atom_site_fract_x
 _atom_site_fract_y
 _atom_site_fract_z
 _atom_site_occupancy
  H  H0  1  0.02320991  0.05782955  0.66352726  1
  H  H1  1  0.02320991  0.44217045  0.66352726  1
  H  H2  1  0.04923172  0.99929138  0.20630533  1
  H  H3  1  0.04923172  0.50070862  0.20630533  1
  H  H4  1  0.05815394  0.09948268  0.36424168  1
  H  H5  1  0.05815394  0.40051732  0.36424168  1
  H  H6  1  0.13518810  0.03459415  0.93669431  1
  H  H7  1  0.13518810  0.46540585  0.93669431  1
  H  H8  1  0.19941340  0.46155303  0.79070866  1
  H  H9  1  0.19941340  0.03844697  0.79070866  1
  H  H10  1  0.22907469  0.59909673  0.92375893  1
  H  H11  1  0.22907469  0.90090327  0.92375893  1
  H  H12  1  0.27092531  0.09909673  0.42375893  1
  H  H13  1  0.27092531  0.40090327  0.42375893  1
  H  H14  1  0.30058660  0.53844697  0.29070866  1
  H  H15  1  0.30058660  0.96155303  0.29070866  1
  H  H16  1  0.36481190  0.96540585  0.43669431  1
  H  H17  1  0.36481190  0.53459415  0.43669431  1
  H  H18  1  0.44184606  0.90051732  0.86424168  1
  H  H19  1  0.44184606  0.59948268  0.86424168  1
  H  H20  1  0.45076828  0.00070862  0.70630533  1
  H  H21  1  0.45076828  0.49929138  0.70630533  1
  H  H22  1  0.47679009  0.55782955  0.16352726  1
  H  H23  1  0.47679009  0.94217045  0.16352726  1
  H  H24  1  0.52320991  0.05782955  0.83647274  1
  H  H25  1  0.52320991  0.44217045  0.83647274  1
  H  H26  1  0.54923172  0.99929138  0.29369467  1
  H  H27  1  0.54923172  0.50070862  0.29369467  1
  H  H28  1  0.55815394  0.09948268  0.13575832  1
  H  H29  1  0.55815394  0.40051732  0.13575832  1
  H  H30  1  0.63518810  0.03459415  0.56330569  1
  H  H31  1  0.63518810  0.46540585  0.56330569  1
  H  H32  1  0.69941340  0.03844697  0.70929134  1
  H  H33  1  0.69941340  0.46155303  0.70929134  1
  H  H34  1  0.72907469  0.59909673  0.57624107  1
  H  H35  1  0.72907469  0.90090327  0.57624107  1
  H  H36  1  0.77092531  0.09909673  0.07624107  1
  H  H37  1  0.77092531  0.40090327  0.07624107  1
  H  H38  1  0.80058660  0.53844697  0.20929134  1
  H  H39  1  0.80058660  0.96155303  0.20929134  1
  H  H40  1  0.86481190  0.53459415  0.06330569  1
  H  H41  1  0.86481190  0.96540585  0.06330569  1
  H  H42  1  0.94184606  0.59948268  0.63575832  1
  H  H43  1  0.94184606  0.90051732  0.63575832  1
  H  H44  1  0.95076828  0.49929138  0.79369467  1
  H  H45  1  0.95076828  0.00070862  0.79369467  1
  H  H46  1  0.97679009  0.55782955  0.33647274  1
  H  H47  1  0.97679009  0.94217045  0.33647274  1
  Ru  Ru48  1  0.08527660  0.75000000  0.78011335  1
  Ru  Ru49  1  0.41472340  0.25000000  0.28011335  1
  Ru  Ru50  1  0.58527660  0.75000000  0.71988665  1
  Ru  Ru51  1  0.91472340  0.25000000  0.21988665  1
  S  S52  1  0.16651179  0.75000000  0.59230323  1
  S  S53  1  0.33348821  0.25000000  0.09230323  1
  S  S54  1  0.66651179  0.75000000  0.90769677  1
  S  S55  1  0.83348821  0.25000000  0.40769677  1
  N  N56  1  0.01143911  0.04938262  0.29053390  1
  N  N57  1  0.01143911  0.45061738  0.29053390  1
  N  N58  1  0.17323440  0.54518472  0.86814462  1
  N  N59  1  0.17323440  0.95481528  0.86814462  1
  N  N60  1  0.32676560  0.04518472  0.36814462  1
  N  N61  1  0.32676560  0.45481528  0.36814462  1
  N  N62  1  0.48856089  0.95061738  0.79053390  1
  N  N63  1  0.48856089  0.54938262  0.79053390  1
  N  N64  1  0.51143911  0.04938262  0.20946610  1
  N  N65  1  0.51143911  0.45061738  0.20946610  1
  N  N66  1  0.67323440  0.54518472  0.63185538  1
  N  N67  1  0.67323440  0.95481528  0.63185538  1
  N  N68  1  0.82676560  0.04518472  0.13185538  1
  N  N69  1  0.82676560  0.45481528  0.13185538  1
  N  N70  1  0.98856089  0.54938262  0.70946610  1
  N  N71  1  0.98856089  0.95061738  0.70946610  1
  Cl  Cl72  1  0.00392627  0.75000000  0.00758470  1
  Cl  Cl73  1  0.15087729  0.25000000  0.56587071  1
  Cl  Cl74  1  0.34912271  0.75000000  0.06587071  1
  Cl  Cl75  1  0.49607373  0.25000000  0.50758470  1
  Cl  Cl76  1  0.50392627  0.75000000  0.49241530  1
  Cl  Cl77  1  0.65087729  0.25000000  0.93412929  1
  Cl  Cl78  1  0.84912271  0.75000000  0.43412929  1
  Cl  Cl79  1  0.99607373  0.25000000  0.99241530  1
  O  O80  1  0.13021763  0.75000000  0.44579676  1
  O  O81  1  0.23007093  0.25000000  0.10160381  1
  O  O82  1  0.26992907  0.75000000  0.60160381  1
  O  O83  1  0.36978237  0.25000000  0.94579676  1
  O  O84  1  0.63021763  0.75000000  0.05420324  1
  O  O85  1  0.73007093  0.25000000  0.39839619  1
  O  O86  1  0.76992907  0.75000000  0.89839619  1
  O  O87  1  0.86978237  0.25000000  0.55420324  1
