# generated using pymatgen
data_Li3Al2FeO6
_symmetry_space_group_name_H-M   'P 1'
_cell_length_a   5.34768949
_cell_length_b   5.85778866
_cell_length_c   7.82028685
_cell_angle_alpha   90.78144526
_cell_angle_beta   98.55856037
_cell_angle_gamma   90.23326056
_symmetry_Int_Tables_number   1
_chemical_formula_structural   Li3Al2FeO6
_chemical_formula_sum   'Li6 Al4 Fe2 O12'
_cell_volume   242.22032929
_cell_formula_units_Z   2
loop_
 _symmetry_equiv_pos_site_id
 _symmetry_equiv_pos_as_xyz
  1  'x, y, z'
loop_
 _atom_site_type_symbol
 _atom_site_label
 _atom_site_symmetry_multiplicity
 _atom_site_fract_x
 _atom_site_fract_y
 _atom_site_fract_z
 _atom_site_occupancy
  Li  Li0  1  0.17629809  0.84307192  0.09439325  1
  Li  Li1  1  0.34717727  0.66352337  0.41968644  1
  Li  Li2  1  0.50222831  0.83458757  0.74424903  1
  Li  Li3  1  0.49777169  0.16541243  0.25575097  1
  Li  Li4  1  0.65282273  0.33647663  0.58031356  1
  Li  Li5  1  0.82370191  0.15692808  0.90560675  1
  Al  Al6  1  0.17525257  0.16774059  0.58916352  1
  Al  Al7  1  0.65802386  0.67209959  0.07793924  1
  Al  Al8  1  0.34197614  0.32790041  0.92206076  1
  Al  Al9  1  0.82474743  0.83225941  0.41083648  1
  Fe  Fe10  1  0.99468581  0.66943511  0.75349754  1
  Fe  Fe11  1  0.00531419  0.33056489  0.24650246  1
  O  O12  1  0.97657016  0.66522988  0.25384682  1
  O  O13  1  0.17304588  0.18753561  0.07459809  1
  O  O14  1  0.14516934  0.85353920  0.58122541  1
  O  O15  1  0.30819301  0.32171152  0.42590739  1
  O  O16  1  0.53238446  0.82784953  0.24522115  1
  O  O17  1  0.34062152  0.64186222  0.92089066  1
  O  O18  1  0.65937848  0.35813778  0.07910934  1
  O  O19  1  0.46761554  0.17215047  0.75477885  1
  O  O20  1  0.69180699  0.67828848  0.57409261  1
  O  O21  1  0.85483066  0.14646080  0.41877459  1
  O  O22  1  0.82695412  0.81246439  0.92540191  1
  O  O23  1  0.02342984  0.33477012  0.74615318  1
