# generated using pymatgen
data_Li3FeSiCO7
_symmetry_space_group_name_H-M   'P 1'
_cell_length_a   8.41370954
_cell_length_b   6.44814587
_cell_length_c   5.02306335
_cell_angle_alpha   90.00000000
_cell_angle_beta   86.75389902
_cell_angle_gamma   90.00000000
_symmetry_Int_Tables_number   1
_chemical_formula_structural   Li3FeSiCO7
_chemical_formula_sum   'Li6 Fe2 Si2 C2 O14'
_cell_volume   272.07814039
_cell_formula_units_Z   2
loop_
 _symmetry_equiv_pos_site_id
 _symmetry_equiv_pos_as_xyz
  1  'x, y, z'
loop_
 _atom_site_type_symbol
 _atom_site_label
 _atom_site_symmetry_multiplicity
 _atom_site_fract_x
 _atom_site_fract_y
 _atom_site_fract_z
 _atom_site_occupancy
  Li  Li0  1  0.10623400  0.25000000  0.75285103  1
  Li  Li1  1  0.27390137  0.02431590  0.23138154  1
  Li  Li2  1  0.27390137  0.47568410  0.23138154  1
  Li  Li3  1  0.72609863  0.52431590  0.76861846  1
  Li  Li4  1  0.72609863  0.97568410  0.76861846  1
  Li  Li5  1  0.89376600  0.75000000  0.24714897  1
  Fe  Fe6  1  0.34083053  0.75000000  0.79484871  1
  Fe  Fe7  1  0.65916947  0.25000000  0.20515129  1
  Si  Si8  1  0.42062078  0.25000000  0.71224846  1
  Si  Si9  1  0.57937922  0.75000000  0.28775154  1
  C  C10  1  0.03398362  0.75000000  0.72585506  1
  C  C11  1  0.96601638  0.25000000  0.27414494  1
  O  O12  1  0.11195255  0.25000000  0.34359126  1
  O  O13  1  0.07068296  0.75000000  0.97263492  1
  O  O14  1  0.15002061  0.75000000  0.54151513  1
  O  O15  1  0.30810229  0.05390479  0.81410582  1
  O  O16  1  0.30810229  0.44609521  0.81410582  1
  O  O17  1  0.44455487  0.25000000  0.38197384  1
  O  O18  1  0.40091161  0.75000000  0.17263719  1
  O  O19  1  0.59908839  0.25000000  0.82736281  1
  O  O20  1  0.55544513  0.75000000  0.61802616  1
  O  O21  1  0.69189771  0.55390479  0.18589418  1
  O  O22  1  0.69189771  0.94609521  0.18589418  1
  O  O23  1  0.84997939  0.25000000  0.45848487  1
  O  O24  1  0.92931704  0.25000000  0.02736508  1
  O  O25  1  0.88804745  0.75000000  0.65640874  1
