# generated using pymatgen
data_CrP4O11
_symmetry_space_group_name_H-M   'P 1'
_cell_length_a   8.50788628
_cell_length_b   12.63133669
_cell_length_c   8.51761586
_cell_angle_alpha   90.00000000
_cell_angle_beta   95.02384853
_cell_angle_gamma   90.00000000
_symmetry_Int_Tables_number   1
_chemical_formula_structural   CrP4O11
_chemical_formula_sum   'Cr4 P16 O44'
_cell_volume   911.83741964
_cell_formula_units_Z   4
loop_
 _symmetry_equiv_pos_site_id
 _symmetry_equiv_pos_as_xyz
  1  'x, y, z'
loop_
 _atom_site_type_symbol
 _atom_site_label
 _atom_site_symmetry_multiplicity
 _atom_site_fract_x
 _atom_site_fract_y
 _atom_site_fract_z
 _atom_site_occupancy
  Cr  Cr0  1  0.22754968  0.46757549  0.73805604  1
  Cr  Cr1  1  0.27245032  0.96757549  0.76194396  1
  Cr  Cr2  1  0.72754968  0.03242451  0.23805604  1
  Cr  Cr3  1  0.77245032  0.53242451  0.26194396  1
  P  P4  1  0.10085370  0.21137760  0.60125246  1
  P  P5  1  0.11850091  0.16584349  0.26393519  1
  P  P6  1  0.18283551  0.49574557  0.34105158  1
  P  P7  1  0.24642912  0.84689758  0.40090595  1
  P  P8  1  0.25357088  0.34689758  0.09909405  1
  P  P9  1  0.31716449  0.99574557  0.15894842  1
  P  P10  1  0.39914630  0.71137760  0.89874754  1
  P  P11  1  0.38149909  0.66584349  0.23606481  1
  P  P12  1  0.61850091  0.33415651  0.76393519  1
  P  P13  1  0.60085370  0.28862240  0.10125246  1
  P  P14  1  0.68283551  0.00425443  0.84105158  1
  P  P15  1  0.74642912  0.65310242  0.90090595  1
  P  P16  1  0.75357088  0.15310242  0.59909405  1
  P  P17  1  0.81716449  0.50425443  0.65894842  1
  P  P18  1  0.88149909  0.83415651  0.73606481  1
  P  P19  1  0.89914630  0.78862240  0.39874754  1
  O  O20  1  0.02754093  0.89605754  0.75710617  1
  O  O21  1  0.01540020  0.46816702  0.29890861  1
  O  O22  1  0.09425640  0.78180971  0.42762058  1
  O  O23  1  0.14963544  0.10310943  0.65136043  1
  O  O24  1  0.15314127  0.30827758  0.68814190  1
  O  O25  1  0.19030777  0.41612660  0.96845985  1
  O  O26  1  0.14407237  0.23318337  0.41989844  1
  O  O27  1  0.12782143  0.25612992  0.13133621  1
  O  O28  1  0.20571341  0.90623486  0.23894574  1
  O  O29  1  0.22219575  0.60076072  0.23647922  1
  O  O30  1  0.25530719  0.51240225  0.50534275  1
  O  O31  1  0.24469281  0.01240225  0.99465725  1
  O  O32  1  0.27780425  0.10076072  0.26352078  1
  O  O33  1  0.30969223  0.91612660  0.53154015  1
  O  O34  1  0.34685873  0.80827758  0.81185810  1
  O  O35  1  0.29428659  0.40623486  0.26105426  1
  O  O36  1  0.35036456  0.60310943  0.84863957  1
  O  O37  1  0.37217857  0.75612992  0.36866379  1
  O  O38  1  0.35592763  0.73318337  0.08010156  1
  O  O39  1  0.40574360  0.28180971  0.07237942  1
  O  O40  1  0.47245907  0.39605754  0.74289383  1
  O  O41  1  0.51540020  0.03183298  0.79890861  1
  O  O42  1  0.48459980  0.96816702  0.20109139  1
  O  O43  1  0.52754093  0.60394246  0.25710617  1
  O  O44  1  0.59425640  0.71819029  0.92762058  1
  O  O45  1  0.64407237  0.26681663  0.91989844  1
  O  O46  1  0.62782143  0.24387008  0.63133621  1
  O  O47  1  0.64963544  0.39689057  0.15136043  1
  O  O48  1  0.70571341  0.59376514  0.73894574  1
  O  O49  1  0.65314127  0.19172242  0.18814190  1
  O  O50  1  0.69030777  0.08387340  0.46845985  1
  O  O51  1  0.72219575  0.89923928  0.73647922  1
  O  O52  1  0.75530719  0.98759775  0.00534275  1
  O  O53  1  0.74469281  0.48759775  0.49465725  1
  O  O54  1  0.77780425  0.39923928  0.76352078  1
  O  O55  1  0.79428659  0.09376514  0.76105426  1
  O  O56  1  0.87217857  0.74387008  0.86866379  1
  O  O57  1  0.85592763  0.76681663  0.58010156  1
  O  O58  1  0.80969223  0.58387340  0.03154015  1
  O  O59  1  0.84685873  0.69172242  0.31185810  1
  O  O60  1  0.85036456  0.89689057  0.34863957  1
  O  O61  1  0.90574360  0.21819029  0.57237942  1
  O  O62  1  0.98459980  0.53183298  0.70109139  1
  O  O63  1  0.97245907  0.10394246  0.24289383  1
