# generated using pymatgen
data_V2Co(PO4)3
_symmetry_space_group_name_H-M   'P 1'
_cell_length_a   8.54212629
_cell_length_b   8.60086691
_cell_length_c   8.60086723
_cell_angle_alpha   59.99999712
_cell_angle_beta   59.77226287
_cell_angle_gamma   59.77225810
_symmetry_Int_Tables_number   1
_chemical_formula_structural   V2Co(PO4)3
_chemical_formula_sum   'V4 Co2 P6 O24'
_cell_volume   445.27865724
_cell_formula_units_Z   2
loop_
 _symmetry_equiv_pos_site_id
 _symmetry_equiv_pos_as_xyz
  1  'x, y, z'
loop_
 _atom_site_type_symbol
 _atom_site_label
 _atom_site_symmetry_multiplicity
 _atom_site_fract_x
 _atom_site_fract_y
 _atom_site_fract_z
 _atom_site_occupancy
  V  V0  1  0.07119448  0.64293484  0.64293484  1
  V  V1  1  0.57119448  0.14293484  0.14293484  1
  V  V2  1  0.42880552  0.85706516  0.85706516  1
  V  V3  1  0.92880552  0.35706516  0.35706516  1
  Co  Co4  1  0.00000000  0.00000000  0.00000000  1
  Co  Co5  1  0.50000000  0.50000000  0.50000000  1
  P  P6  1  0.25000000  0.25000000  0.54259759  1
  P  P7  1  0.25000000  0.95740241  0.25000000  1
  P  P8  1  0.25000000  0.54259759  0.95740241  1
  P  P9  1  0.75000000  0.45740241  0.04259759  1
  P  P10  1  0.75000000  0.04259759  0.75000000  1
  P  P11  1  0.75000000  0.75000000  0.45740241  1
  O  O12  1  0.06683480  0.11718873  0.31074491  1
  O  O13  1  0.06683480  0.50523056  0.11718873  1
  O  O14  1  0.06683480  0.31074491  0.50523056  1
  O  O15  1  0.23202149  0.08673802  0.73888604  1
  O  O16  1  0.43316520  0.18925509  0.38281127  1
  O  O17  1  0.26797851  0.41326198  0.55764556  1
  O  O18  1  0.23202149  0.94235444  0.08673802  1
  O  O19  1  0.26797851  0.76111396  0.41326198  1
  O  O20  1  0.56683480  0.61718873  0.00523056  1
  O  O21  1  0.26797851  0.55764556  0.76111396  1
  O  O22  1  0.76797851  0.26111396  0.05764556  1
  O  O23  1  0.56683480  0.00523056  0.81074491  1
  O  O24  1  0.43316520  0.99476944  0.18925509  1
  O  O25  1  0.23202149  0.73888604  0.94235444  1
  O  O26  1  0.73202149  0.44235444  0.23888604  1
  O  O27  1  0.43316520  0.38281127  0.99476944  1
  O  O28  1  0.73202149  0.23888604  0.58673802  1
  O  O29  1  0.76797851  0.05764556  0.91326198  1
  O  O30  1  0.73202149  0.58673802  0.44235444  1
  O  O31  1  0.56683480  0.81074491  0.61718873  1
  O  O32  1  0.76797851  0.91326198  0.26111396  1
  O  O33  1  0.93316520  0.68925509  0.49476944  1
  O  O34  1  0.93316520  0.49476944  0.88281127  1
  O  O35  1  0.93316520  0.88281127  0.68925509  1
