# generated using pymatgen
data_MnPNO5
_symmetry_space_group_name_H-M   'P 1'
_cell_length_a   5.31201962
_cell_length_b   5.72449301
_cell_length_c   7.96436359
_cell_angle_alpha   90.00000000
_cell_angle_beta   90.00000000
_cell_angle_gamma   90.00000000
_symmetry_Int_Tables_number   1
_chemical_formula_structural   MnPNO5
_chemical_formula_sum   'Mn2 P2 N2 O10'
_cell_volume   242.18529945
_cell_formula_units_Z   2
loop_
 _symmetry_equiv_pos_site_id
 _symmetry_equiv_pos_as_xyz
  1  'x, y, z'
loop_
 _atom_site_type_symbol
 _atom_site_label
 _atom_site_symmetry_multiplicity
 _atom_site_fract_x
 _atom_site_fract_y
 _atom_site_fract_z
 _atom_site_occupancy
  Mn  Mn0  1  0.45700431  -0.00000000  0.49539957  1
  Mn  Mn1  1  0.95700431  0.50000000  0.50460043  1
  P  P2  1  0.00265471  -0.00000000  0.29470217  1
  P  P3  1  0.50265471  0.50000000  0.70529783  1
  N  N4  1  0.30514664  -0.00000000  0.99598894  1
  N  N5  1  0.80514664  0.50000000  0.00401106  1
  O  O6  1  0.71791493  -0.00000000  0.30696466  1
  O  O7  1  0.21791493  0.50000000  0.69303534  1
  O  O8  1  0.03896881  -0.00000000  0.09300424  1
  O  O9  1  0.53896881  0.50000000  0.90699576  1
  O  O10  1  0.25948731  -0.00000000  0.85349175  1
  O  O11  1  0.75948731  0.50000000  0.14650825  1
  O  O12  1  0.13441164  0.21448387  0.37621001  1
  O  O13  1  0.63441164  0.28551613  0.62378999  1
  O  O14  1  0.63441164  0.71448387  0.62378999  1
  O  O15  1  0.13441164  0.78551613  0.37621001  1
