# generated using pymatgen
data_Li5V3P8O29
_symmetry_space_group_name_H-M   'P 1'
_cell_length_a   9.77068622
_cell_length_b   9.81908862
_cell_length_c   14.01688085
_cell_angle_alpha   90.34699640
_cell_angle_beta   90.12559584
_cell_angle_gamma   59.90904193
_symmetry_Int_Tables_number   1
_chemical_formula_structural   Li5V3P8O29
_chemical_formula_sum   'Li10 V6 P16 O58'
_cell_volume   1163.51317088
_cell_formula_units_Z   2
loop_
 _symmetry_equiv_pos_site_id
 _symmetry_equiv_pos_as_xyz
  1  'x, y, z'
loop_
 _atom_site_type_symbol
 _atom_site_label
 _atom_site_symmetry_multiplicity
 _atom_site_fract_x
 _atom_site_fract_y
 _atom_site_fract_z
 _atom_site_occupancy
  Li  Li0  1  0.76859735  0.90796583  0.56263794  1
  Li  Li1  1  0.67887974  0.66867229  0.88701025  1
  Li  Li2  1  0.76462851  0.32485346  0.05954173  1
  Li  Li3  1  0.31730286  0.91283364  0.06076109  1
  Li  Li4  1  0.69319448  0.22351743  0.44090763  1
  Li  Li5  1  0.32056591  0.77248674  0.56051657  1
  Li  Li6  1  0.23204920  0.66173760  0.94170749  1
  Li  Li7  1  0.09343820  0.67757649  0.43864778  1
  Li  Li8  1  0.22661223  0.09272393  0.44489027  1
  Li  Li9  1  0.95076294  0.00236006  0.99034254  1
  V  V10  1  0.56934696  0.43079364  0.25178816  1
  V  V11  1  0.43155318  0.56669604  0.74627590  1
  V  V12  1  0.56681258  0.00391700  0.75751954  1
  V  V13  1  0.43493854  0.00185807  0.24745790  1
  V  V14  1  0.99556070  0.56609973  0.24336641  1
  V  V15  1  0.00585476  0.42509925  0.74838379  1
  P  P16  1  0.91406566  0.77704056  0.84155065  1
  P  P17  1  0.76966178  0.91109577  0.34115198  1
  P  P18  1  0.91714259  0.31689705  0.34532311  1
  P  P19  1  0.66468548  0.66350097  0.12605473  1
  P  P20  1  0.66873681  0.67037373  0.62999070  1
  P  P21  1  0.77621929  0.31644589  0.84135386  1
  P  P22  1  0.68338050  0.22844914  0.65824302  1
  P  P23  1  0.31702088  0.90669324  0.84383354  1
  P  P24  1  0.69329918  0.08408428  0.15692946  1
  P  P25  1  0.32155357  0.76971592  0.34119208  1
  P  P26  1  0.22797338  0.68317541  0.15947452  1
  P  P27  1  0.33036570  0.33639181  0.36893807  1
  P  P28  1  0.32928042  0.33880081  0.87288994  1
  P  P29  1  0.08301011  0.68195920  0.65505881  1
  P  P30  1  0.23337516  0.08403621  0.66109154  1
  P  P31  1  0.08158220  0.22543743  0.15743671  1
  O  O32  1  0.99659821  0.75480418  0.56388549  1
  O  O33  1  0.91768752  0.74413650  0.33829119  1
  O  O34  1  0.79652757  0.00587946  0.07418618  1
  O  O35  1  0.74310163  0.91565771  0.84294882  1
  O  O36  1  0.90787739  0.62243420  0.83461525  1
  O  O37  1  0.81141456  0.66906507  0.17260564  1
  O  O38  1  0.90654018  0.47721441  0.32202382  1
  O  O39  1  0.99101624  0.21996277  0.07364168  1
  O  O40  1  0.92121513  0.34144576  0.83304923  1
  O  O41  1  0.66910381  0.81940690  0.67220181  1
  O  O42  1  0.61962528  0.90003538  0.32005313  1
  O  O43  1  0.81494069  0.52588512  0.68039499  1
  O  O44  1  0.67406735  0.65949876  0.01932367  1
  O  O45  1  0.67800061  0.66599967  0.52424528  1
  O  O46  1  0.67611840  0.50929527  0.16351568  1
  O  O47  1  0.48349886  0.88819756  0.83083268  1
  O  O48  1  0.51056300  0.81038141  0.16291709  1
  O  O49  1  0.74933863  0.33707337  0.34325915  1
  O  O50  1  0.79244215  0.21026906  0.74963778  1
  O  O51  1  0.75261430  0.24177477  0.56770292  1
  O  O52  1  0.78689205  0.22935430  0.93065011  1
  O  O53  1  0.62649481  0.48023432  0.83028269  1
  O  O54  1  0.51372395  0.67329870  0.66636470  1
  O  O55  1  0.65942281  0.25770521  0.16526715  1
  O  O56  1  0.48267956  0.62015589  0.32110997  1
  O  O57  1  0.33840442  0.91781831  0.34140445  1
  O  O58  1  0.79056007  0.00511389  0.25518900  1
  O  O59  1  0.75706147  0.99614780  0.43302118  1
  O  O60  1  0.23886840  0.99750018  0.57135710  1
  O  O61  1  0.66430762  0.08216198  0.66318037  1
  O  O62  1  0.52156729  0.37994805  0.68105942  1
  O  O63  1  0.33823389  0.73838429  0.83618085  1
  O  O64  1  0.48662162  0.32866587  0.33224968  1
  O  O65  1  0.38087708  0.52686504  0.17181838  1
  O  O66  1  0.22174368  0.77140803  0.07056060  1
  O  O67  1  0.24583535  0.75471181  0.43068467  1
  O  O68  1  0.20827510  0.79294218  0.25119171  1
  O  O69  1  0.24914296  0.66624069  0.65634984  1
  O  O70  1  0.47848647  0.18974906  0.83068222  1
  O  O71  1  0.53791072  0.08129195  0.16558697  1
  O  O72  1  0.32575292  0.48923145  0.83356776  1
  O  O73  1  0.31449017  0.34437587  0.97800884  1
  O  O74  1  0.32034207  0.34539665  0.47502850  1
  O  O75  1  0.18336647  0.48578559  0.32299729  1
  O  O76  1  0.38371843  0.09220050  0.67727171  1
  O  O77  1  0.32903596  0.18658547  0.32842625  1
  O  O78  1  0.08266944  0.65893476  0.16598564  1
  O  O79  1  0.98704199  0.79674612  0.74164283  1
  O  O80  1  0.01005516  0.78998233  0.92064612  1
  O  O81  1  0.09551077  0.52263290  0.67639872  1
  O  O82  1  0.18382337  0.33640040  0.82209645  1
  O  O83  1  0.08472145  0.38246598  0.17028515  1
  O  O84  1  0.25422664  0.08520660  0.15944207  1
  O  O85  1  0.23345149  0.98393332  0.93386409  1
  O  O86  1  0.21101289  0.99589073  0.75177013  1
  O  O87  1  0.08630457  0.25246929  0.66450075  1
  O  O88  1  0.01012301  0.23735653  0.43125905  1
  O  O89  1  0.00284548  0.20675005  0.25285142  1
