# generated using pymatgen
data_Li4Ti3V3(FeO8)2
_symmetry_space_group_name_H-M   'P 1'
_cell_length_a   5.95409017
_cell_length_b   5.90953476
_cell_length_c   9.63465919
_cell_angle_alpha   89.70166388
_cell_angle_beta   90.32007067
_cell_angle_gamma   119.87267070
_symmetry_Int_Tables_number   1
_chemical_formula_structural   Li4Ti3V3(FeO8)2
_chemical_formula_sum   'Li4 Ti3 V3 Fe2 O16'
_cell_volume   293.95645912
_cell_formula_units_Z   1
loop_
 _symmetry_equiv_pos_site_id
 _symmetry_equiv_pos_as_xyz
  1  'x, y, z'
loop_
 _atom_site_type_symbol
 _atom_site_label
 _atom_site_symmetry_multiplicity
 _atom_site_fract_x
 _atom_site_fract_y
 _atom_site_fract_z
 _atom_site_occupancy
  Li  Li0  1  0.33705149  0.66898622  0.89434476  1
  Li  Li1  1  0.99647917  0.99925109  0.99448800  1
  Li  Li2  1  0.00450276  0.00251121  0.49704742  1
  Li  Li3  1  0.66524464  0.33238731  0.39380754  1
  Ti  Ti4  1  0.17324693  0.83239315  0.21645909  1
  Ti  Ti5  1  0.17381361  0.34096451  0.21651076  1
  Ti  Ti6  1  0.34193014  0.17181390  0.72161654  1
  V  V7  1  0.66026187  0.83032872  0.21051935  1
  V  V8  1  0.83267469  0.17370324  0.70933595  1
  V  V9  1  0.83681803  0.65546701  0.71057171  1
  Fe  Fe10  1  0.33741031  0.66652048  0.49315107  1
  Fe  Fe11  1  0.66998671  0.33581639  0.99306160  1
  O  O12  1  0.16353623  0.83178534  0.60255312  1
  O  O13  1  0.03793287  0.51783303  0.33492082  1
  O  O14  1  0.31120126  0.65658633  0.10165251  1
  O  O15  1  0.01012175  0.00407949  0.31063828  1
  O  O16  1  0.00693535  0.99640677  0.80870133  1
  O  O17  1  0.16475234  0.32960873  0.60243403  1
  O  O18  1  0.47328667  0.95965492  0.33855679  1
  O  O19  1  0.47276371  0.51183125  0.33814099  1
  O  O20  1  0.32749836  0.16469857  0.10196055  1
  O  O21  1  0.67905086  0.83106091  0.60366580  1
  O  O22  1  0.51740824  0.47952600  0.83686914  1
  O  O23  1  0.51934023  0.04007382  0.83810692  1
  O  O24  1  0.64812708  0.33408481  0.59938683  1
  O  O25  1  0.83789147  0.67315906  0.10227123  1
  O  O26  1  0.96208747  0.49353353  0.83559842  1
  O  O27  1  0.83864377  0.16623321  0.10147049  1
