# generated using pymatgen
data_Li5V3P8O29
_symmetry_space_group_name_H-M   'P 1'
_cell_length_a   9.72092815
_cell_length_b   9.75748927
_cell_length_c   14.09300288
_cell_angle_alpha   90.44016074
_cell_angle_beta   90.30135655
_cell_angle_gamma   60.39203393
_symmetry_Int_Tables_number   1
_chemical_formula_structural   Li5V3P8O29
_chemical_formula_sum   'Li10 V6 P16 O58'
_cell_volume   1162.16735269
_cell_formula_units_Z   2
loop_
 _symmetry_equiv_pos_site_id
 _symmetry_equiv_pos_as_xyz
  1  'x, y, z'
loop_
 _atom_site_type_symbol
 _atom_site_label
 _atom_site_symmetry_multiplicity
 _atom_site_fract_x
 _atom_site_fract_y
 _atom_site_fract_z
 _atom_site_occupancy
  Li  Li0  1  0.76560452  0.90892378  0.55539937  1
  Li  Li1  1  0.90193169  0.33870604  0.55789022  1
  Li  Li2  1  0.76214874  0.33484657  0.06179053  1
  Li  Li3  1  0.33448096  0.89839320  0.06282549  1
  Li  Li4  1  0.33196871  0.76938087  0.55840629  1
  Li  Li5  1  0.67099205  0.09245898  0.94260414  1
  Li  Li6  1  0.09908349  0.66771578  0.43683305  1
  Li  Li7  1  0.09563581  0.22886154  0.94332555  1
  Li  Li8  1  0.01754970  0.92129306  0.01234218  1
  Li  Li9  1  0.97442455  0.04891758  0.49402453  1
  V  V10  1  0.56329697  0.43541387  0.25253865  1
  V  V11  1  0.43326452  0.56637572  0.75177680  1
  V  V12  1  0.56510856  0.99853141  0.74504488  1
  V  V13  1  0.43412727  0.00171853  0.25207211  1
  V  V14  1  0.99728666  0.56808817  0.24527223  1
  V  V15  1  0.00096195  0.43578488  0.75308292  1
  P  P16  1  0.91427553  0.77935843  0.83902678  1
  P  P17  1  0.77880125  0.91329979  0.34174648  1
  P  P18  1  0.91247394  0.31342166  0.34114155  1
  P  P19  1  0.66427582  0.66460606  0.13080624  1
  P  P20  1  0.66684074  0.66366410  0.63106547  1
  P  P21  1  0.77049844  0.31524860  0.84482418  1
  P  P22  1  0.69465291  0.22303988  0.65960293  1
  P  P23  1  0.31378400  0.91365755  0.84335856  1
  P  P24  1  0.68985885  0.08659537  0.15811911  1
  P  P25  1  0.31376248  0.77534894  0.34358313  1
  P  P26  1  0.22152957  0.69257403  0.16081139  1
  P  P27  1  0.32839082  0.33788189  0.36831444  1
  P  P28  1  0.33946575  0.32803854  0.86759990  1
  P  P29  1  0.08662101  0.68601839  0.65604692  1
  P  P30  1  0.21796785  0.08593038  0.66059421  1
  P  P31  1  0.08740334  0.22461314  0.15877247  1
  O  O32  1  0.00463239  0.76910924  0.56574365  1
  O  O33  1  0.92258455  0.74440320  0.33596595  1
  O  O34  1  0.77892862  0.01256588  0.06819541  1
  O  O35  1  0.74026009  0.91652515  0.83492993  1
  O  O36  1  0.91919454  0.61805775  0.82834201  1
  O  O37  1  0.80717979  0.67244400  0.17698609  1
  O  O38  1  0.91890791  0.46565154  0.33016914  1
  O  O39  1  0.99737933  0.22640203  0.07035240  1
  O  O40  1  0.91770250  0.33639599  0.84288739  1
  O  O41  1  0.67862676  0.81004824  0.66796658  1
  O  O42  1  0.62335661  0.91062849  0.32846674  1
  O  O43  1  0.81104007  0.51188387  0.67205749  1
  O  O44  1  0.66859258  0.64902698  0.02535833  1
  O  O45  1  0.65845232  0.66148373  0.52520612  1
  O  O46  1  0.67206135  0.51103932  0.17488665  1
  O  O47  1  0.46993538  0.91169232  0.82819845  1
  O  O48  1  0.50945466  0.81178549  0.16761562  1
  O  O49  1  0.73920933  0.34457983  0.33152634  1
  O  O50  1  0.79041611  0.19893400  0.75871054  1
  O  O51  1  0.80353465  0.20944633  0.58081672  1
  O  O52  1  0.76097928  0.23907577  0.93512600  1
  O  O53  1  0.61837119  0.47489610  0.82547068  1
  O  O54  1  0.51097129  0.67639041  0.67531643  1
  O  O55  1  0.65692542  0.26062463  0.16223427  1
  O  O56  1  0.47131210  0.61878778  0.32785375  1
  O  O57  1  0.34291733  0.91540213  0.33694497  1
  O  O58  1  0.79777101  0.00358765  0.25017623  1
  O  O59  1  0.79169662  0.98960988  0.43185144  1
  O  O60  1  0.20146064  0.99560506  0.57944013  1
  O  O61  1  0.66107904  0.08346927  0.65654186  1
  O  O62  1  0.54091239  0.38360417  0.66931251  1
  O  O63  1  0.33873912  0.74374288  0.83298961  1
  O  O64  1  0.47628160  0.33908487  0.31828029  1
  O  O65  1  0.38407850  0.54130228  0.16907347  1
  O  O66  1  0.20804627  0.79825224  0.08058315  1
  O  O67  1  0.23256110  0.77391608  0.43424195  1
  O  O68  1  0.19804687  0.79214058  0.25805528  1
  O  O69  1  0.25751672  0.66260111  0.66020465  1
  O  O70  1  0.49045166  0.18496805  0.82493580  1
  O  O71  1  0.53533886  0.08128849  0.16971133  1
  O  O72  1  0.33563449  0.47690000  0.81814783  1
  O  O73  1  0.34604985  0.33074378  0.97297731  1
  O  O74  1  0.33841777  0.34265729  0.47325199  1
  O  O75  1  0.18359049  0.49195411  0.32950200  1
  O  O76  1  0.37968279  0.08002156  0.66902180  1
  O  O77  1  0.32731526  0.19271660  0.32301147  1
  O  O78  1  0.08595085  0.65539464  0.16050088  1
  O  O79  1  0.99261205  0.80119644  0.74305357  1
  O  O80  1  0.99883127  0.79377676  0.92225105  1
  O  O81  1  0.09155652  0.52928828  0.67252609  1
  O  O82  1  0.18971512  0.32205538  0.83077068  1
  O  O83  1  0.09305541  0.37777201  0.17218090  1
  O  O84  1  0.25465170  0.07897672  0.15852431  1
  O  O85  1  0.23116719  0.99064728  0.93503152  1
  O  O86  1  0.19539573  0.01326640  0.75870909  1
  O  O87  1  0.08131318  0.25955672  0.66207675  1
  O  O88  1  0.98110585  0.22712840  0.43190801  1
  O  O89  1  0.00197548  0.20146413  0.25098170  1
