# generated using pymatgen
data_Li4Ti3Mn2V3O16
_symmetry_space_group_name_H-M   'P 1'
_cell_length_a   5.94495652
_cell_length_b   5.95470504
_cell_length_c   9.93486092
_cell_angle_alpha   90.50390734
_cell_angle_beta   89.85226027
_cell_angle_gamma   119.96296314
_symmetry_Int_Tables_number   1
_chemical_formula_structural   Li4Ti3Mn2V3O16
_chemical_formula_sum   'Li4 Ti3 Mn2 V3 O16'
_cell_volume   304.68114036
_cell_formula_units_Z   1
loop_
 _symmetry_equiv_pos_site_id
 _symmetry_equiv_pos_as_xyz
  1  'x, y, z'
loop_
 _atom_site_type_symbol
 _atom_site_label
 _atom_site_symmetry_multiplicity
 _atom_site_fract_x
 _atom_site_fract_y
 _atom_site_fract_z
 _atom_site_occupancy
  Li  Li0  1  0.33923016  0.67144660  0.89316491  1
  Li  Li1  1  0.99435401  0.99713977  0.99734086  1
  Li  Li2  1  0.99771383  0.00196126  0.49868663  1
  Li  Li3  1  0.66742428  0.33556154  0.39318946  1
  Ti  Ti4  1  0.17275746  0.83437893  0.21882890  1
  Ti  Ti5  1  0.17016588  0.33753218  0.21664292  1
  Ti  Ti6  1  0.34287635  0.17027670  0.71864927  1
  Mn  Mn7  1  0.33511574  0.66331188  0.49680445  1
  Mn  Mn8  1  0.66489440  0.32679431  0.99653990  1
  V  V9  1  0.66383449  0.82914037  0.21126482  1
  V  V10  1  0.84065474  0.17759204  0.71462874  1
  V  V11  1  0.83553205  0.66843908  0.71195796  1
  O  O12  1  0.14290373  0.83268478  0.60835466  1
  O  O13  1  0.02960251  0.51823794  0.32424299  1
  O  O14  1  0.32496065  0.66304936  0.10540080  1
  O  O15  1  0.99884942  0.99914004  0.31517369  1
  O  O16  1  0.00524725  0.00354433  0.81431301  1
  O  O17  1  0.16192982  0.31194949  0.60751232  1
  O  O18  1  0.48638384  0.96425038  0.32313169  1
  O  O19  1  0.47818478  0.51164771  0.32702172  1
  O  O20  1  0.30680182  0.15129663  0.10768698  1
  O  O21  1  0.69136187  0.85655609  0.61091270  1
  O  O22  1  0.53335250  0.49628742  0.82365099  1
  O  O23  1  0.50942224  0.03276554  0.82705149  1
  O  O24  1  0.66323918  0.33097531  0.60477417  1
  O  O25  1  0.83061032  0.68785781  0.10863599  1
  O  O26  1  0.97068932  0.47297612  0.82464957  1
  O  O27  1  0.84190938  0.15350938  0.10763242  1
