# generated using pymatgen
data_LiFe(SiO3)2
_symmetry_space_group_name_H-M   'P 1'
_cell_length_a   18.46535773
_cell_length_b   9.07203980
_cell_length_c   5.24296399
_cell_angle_alpha   90.00912543
_cell_angle_beta   90.20090800
_cell_angle_gamma   90.00700634
_symmetry_Int_Tables_number   1
_chemical_formula_structural   LiFe(SiO3)2
_chemical_formula_sum   'Li8 Fe8 Si16 O48'
_cell_volume   878.28783660
_cell_formula_units_Z   8
loop_
 _symmetry_equiv_pos_site_id
 _symmetry_equiv_pos_as_xyz
  1  'x, y, z'
loop_
 _atom_site_type_symbol
 _atom_site_label
 _atom_site_symmetry_multiplicity
 _atom_site_fract_x
 _atom_site_fract_y
 _atom_site_fract_z
 _atom_site_occupancy
  Li  Li0  1  0.12422559  0.99868279  0.38071456  1
  Li  Li1  1  0.12385770  0.49950039  0.88208601  1
  Li  Li2  1  0.37402309  0.65742267  0.88081856  1
  Li  Li3  1  0.37628092  0.98898253  0.88123914  1
  Li  Li4  1  0.62318890  0.48967082  0.61974422  1
  Li  Li5  1  0.62461225  0.15674857  0.61853487  1
  Li  Li6  1  0.87547557  0.64605703  0.61979251  1
  Li  Li7  1  0.87539582  0.85158982  0.11837845  1
  Fe  Fe8  1  0.12526502  0.35825070  0.38721403  1
  Fe  Fe9  1  0.12515560  0.14034278  0.88650122  1
  Fe  Fe10  1  0.37440709  0.86776459  0.38477772  1
  Fe  Fe11  1  0.37422070  0.51292876  0.37714612  1
  Fe  Fe12  1  0.62485427  0.01203767  0.12252562  1
  Fe  Fe13  1  0.62326831  0.36709185  0.11556298  1
  Fe  Fe14  1  0.87554173  0.98079609  0.62214563  1
  Fe  Fe15  1  0.87563099  0.51720569  0.12454550  1
  Si  Si16  1  0.02757995  0.66144199  0.29217465  1
  Si  Si17  1  0.02748710  0.83818733  0.79199267  1
  Si  Si18  1  0.22509538  0.66164007  0.56027339  1
  Si  Si19  1  0.22725244  0.84098805  0.06579724  1
  Si  Si20  1  0.27294136  0.15946966  0.57237098  1
  Si  Si21  1  0.27377618  0.33476866  0.07157989  1
  Si  Si22  1  0.47307305  0.16311461  0.28809676  1
  Si  Si23  1  0.47373459  0.33355678  0.78958106  1
  Si  Si24  1  0.52631844  0.66317627  0.21152120  1
  Si  Si25  1  0.52565111  0.83352551  0.70972217  1
  Si  Si26  1  0.72670734  0.65685236  0.92920242  1
  Si  Si27  1  0.72579574  0.83735967  0.43041335  1
  Si  Si28  1  0.77366235  0.16209896  0.92462382  1
  Si  Si29  1  0.77180021  0.34111716  0.41965750  1
  Si  Si30  1  0.97389268  0.16834671  0.21453811  1
  Si  Si31  1  0.97402503  0.33180659  0.71496562  1
  O  O32  1  0.05173155  0.70959784  0.58471234  1
  O  O33  1  0.05160446  0.78969233  0.08383816  1
  O  O34  1  0.06375503  0.16833550  0.20787215  1
  O  O35  1  0.06395591  0.33197900  0.70865770  1
  O  O36  1  0.06879800  0.50926888  0.21386022  1
  O  O37  1  0.06827943  0.99035382  0.71244370  1
  O  O38  1  0.18351460  0.16974500  0.56254445  1
  O  O39  1  0.18435163  0.32973023  0.06543456  1
  O  O40  1  0.18994004  0.00377707  0.05421357  1
  O  O41  1  0.19046762  0.49662142  0.55674899  1
  O  O42  1  0.19462093  0.76905104  0.33232473  1
  O  O43  1  0.19976658  0.73234293  0.83369321  1
  O  O44  1  0.30350465  0.23183633  0.83929098  1
  O  O45  1  0.30505345  0.26591471  0.34408798  1
  O  O46  1  0.31212379  0.49631516  0.07930021  1
  O  O47  1  0.30711479  0.99556023  0.56255080  1
  O  O48  1  0.31505169  0.66242650  0.54712890  1
  O  O49  1  0.31577890  0.84228852  0.07380256  1
  O  O50  1  0.43421304  0.01080052  0.20288092  1
  O  O51  1  0.42934620  0.47542955  0.67862269  1
  O  O52  1  0.43641694  0.66107455  0.22346651  1
  O  O53  1  0.43745143  0.84761700  0.69033363  1
  O  O54  1  0.45306634  0.19837225  0.58813203  1
  O  O55  1  0.44594244  0.29566795  0.08745525  1
  O  O56  1  0.54653132  0.69866834  0.91171035  1
  O  O57  1  0.55363426  0.79547835  0.41218721  1
  O  O58  1  0.56288229  0.16181979  0.27496424  1
  O  O59  1  0.56175765  0.34695098  0.80793353  1
  O  O60  1  0.56509869  0.51129402  0.29818116  1
  O  O61  1  0.57001582  0.97499746  0.82102297  1
  O  O62  1  0.68473835  0.16082663  0.94916648  1
  O  O63  1  0.68385237  0.34147559  0.42289916  1
  O  O64  1  0.68461124  0.99649933  0.42330372  1
  O  O65  1  0.68966668  0.49500659  0.93784481  1
  O  O66  1  0.69780978  0.73056038  0.66077023  1
  O  O67  1  0.69626680  0.76727947  0.15630832  1
  O  O68  1  0.80067272  0.23448193  0.65321954  1
  O  O69  1  0.80564815  0.26766515  0.15367871  1
  O  O70  1  0.81281034  0.49925221  0.41889498  1
  O  O71  1  0.81220935  0.00151130  0.91570269  1
  O  O72  1  0.81514627  0.65366642  0.93977298  1
  O  O73  1  0.81418415  0.84709129  0.43663655  1
  O  O74  1  0.93325908  0.02417032  0.32676479  1
  O  O75  1  0.93357844  0.47559103  0.82766978  1
  O  O76  1  0.93886366  0.65153832  0.29396657  1
  O  O77  1  0.93864934  0.84828924  0.79365886  1
  O  O78  1  0.94897734  0.19461528  0.91065000  1
  O  O79  1  0.94909196  0.30494510  0.41145812  1
