# generated using pymatgen
data_LiMnP2HO7
_symmetry_space_group_name_H-M   'P 1'
_cell_length_a   6.61614617
_cell_length_b   6.63660124
_cell_length_c   6.59711309
_cell_angle_alpha   68.99980872
_cell_angle_beta   92.81466010
_cell_angle_gamma   97.20969817
_symmetry_Int_Tables_number   1
_chemical_formula_structural   LiMnP2HO7
_chemical_formula_sum   'Li2 Mn2 P4 H2 O14'
_cell_volume   268.28982448
_cell_formula_units_Z   2
loop_
 _symmetry_equiv_pos_site_id
 _symmetry_equiv_pos_as_xyz
  1  'x, y, z'
loop_
 _atom_site_type_symbol
 _atom_site_label
 _atom_site_symmetry_multiplicity
 _atom_site_fract_x
 _atom_site_fract_y
 _atom_site_fract_z
 _atom_site_occupancy
  Li  Li0  1  0.13961823  0.25159771  0.77936396  1
  Li  Li1  1  0.86038177  0.74840229  0.22063604  1
  Mn  Mn2  1  0.34393726  0.11045546  0.27117980  1
  Mn  Mn3  1  0.65606274  0.88954454  0.72882020  1
  P  P4  1  0.15972548  0.78201040  0.75810671  1
  P  P5  1  0.38552619  0.63742315  0.18331387  1
  P  P6  1  0.61447381  0.36257685  0.81668613  1
  P  P7  1  0.84027452  0.21798960  0.24189329  1
  H  H8  1  0.17746710  0.67688404  0.47812557  1
  H  H9  1  0.82253290  0.32311596  0.52187443  1
  O  O10  1  0.09407843  0.62324649  0.63012235  1
  O  O11  1  0.01590789  0.11318059  0.19467628  1
  O  O12  1  0.23848466  0.61823268  0.98128398  1
  O  O13  1  0.27273798  0.77333376  0.27990990  1
  O  O14  1  0.33553206  0.94947624  0.64038735  1
  O  O15  1  0.38689890  0.40442150  0.33220524  1
  O  O16  1  0.40921117  0.24251776  0.91674683  1
  O  O17  1  0.59078883  0.75748224  0.08325317  1
  O  O18  1  0.61310110  0.59557850  0.66779476  1
  O  O19  1  0.66446794  0.05052376  0.35961265  1
  O  O20  1  0.72726202  0.22666624  0.72009010  1
  O  O21  1  0.76151534  0.38176732  0.01871602  1
  O  O22  1  0.98409211  0.88681941  0.80532372  1
  O  O23  1  0.90592157  0.37675351  0.36987765  1
