# generated using pymatgen
data_Na3Li3Mn2P2(CO7)2
_symmetry_space_group_name_H-M   'P 1'
_cell_length_a   8.74789116
_cell_length_b   6.76992803
_cell_length_c   10.13898929
_cell_angle_alpha   90.03763292
_cell_angle_beta   88.82604396
_cell_angle_gamma   89.78736237
_symmetry_Int_Tables_number   1
_chemical_formula_structural   Na3Li3Mn2P2(CO7)2
_chemical_formula_sum   'Na6 Li6 Mn4 P4 C4 O28'
_cell_volume   600.32691080
_cell_formula_units_Z   2
loop_
 _symmetry_equiv_pos_site_id
 _symmetry_equiv_pos_as_xyz
  1  'x, y, z'
loop_
 _atom_site_type_symbol
 _atom_site_label
 _atom_site_symmetry_multiplicity
 _atom_site_fract_x
 _atom_site_fract_y
 _atom_site_fract_z
 _atom_site_occupancy
  Na  Na0  1  0.08428149  0.24978631  0.37901169  1
  Na  Na1  1  0.25270945  0.99984307  0.62736972  1
  Na  Na2  1  0.25634089  0.99921328  0.12265318  1
  Na  Na3  1  0.25590950  0.50138817  0.12263322  1
  Na  Na4  1  0.74715489  0.50033088  0.87538446  1
  Na  Na5  1  0.74576789  0.50126837  0.37476207  1
  Li  Li6  1  0.07913115  0.24798422  0.87510874  1
  Li  Li7  1  0.27005901  0.47713679  0.61902979  1
  Li  Li8  1  0.73446387  0.98036567  0.88423595  1
  Li  Li9  1  0.72864964  0.97802713  0.38568242  1
  Li  Li10  1  0.91381072  0.75325181  0.62673470  1
  Li  Li11  1  0.91041762  0.76096767  0.12328929  1
  Mn  Mn12  1  0.35833526  0.74854292  0.88494185  1
  Mn  Mn13  1  0.36041776  0.74620172  0.39105603  1
  Mn  Mn14  1  0.64506653  0.24427550  0.61343265  1
  Mn  Mn15  1  0.64419315  0.24544363  0.10864753  1
  P  P16  1  0.40485138  0.24977757  0.84910312  1
  P  P17  1  0.41459819  0.24382789  0.35430829  1
  P  P18  1  0.59522897  0.74884202  0.64837077  1
  P  P19  1  0.59829644  0.75364497  0.14542420  1
  C  C20  1  0.04518398  0.75755658  0.86525391  1
  C  C21  1  0.04541383  0.75886078  0.36708206  1
  C  C22  1  0.94802059  0.25648420  0.63930969  1
  C  C23  1  0.94795893  0.24865810  0.12973180  1
  O  O24  1  0.09458432  0.27597890  0.65511487  1
  O  O25  1  0.09349616  0.25064463  0.15010145  1
  O  O26  1  0.08872332  0.75200549  0.98749521  1
  O  O27  1  0.08908901  0.75337733  0.48879016  1
  O  O28  1  0.14662950  0.74465622  0.76932903  1
  O  O29  1  0.14774416  0.74532562  0.27137538  1
  O  O30  1  0.30390132  0.06794851  0.88658397  1
  O  O31  1  0.31525432  0.43381145  0.90004297  1
  O  O32  1  0.31681887  0.06201808  0.39670136  1
  O  O33  1  0.32522302  0.42974953  0.40563122  1
  O  O34  1  0.42089506  0.26375164  0.69514889  1
  O  O35  1  0.42939834  0.73387403  0.59525522  1
  O  O36  1  0.42693886  0.25117440  0.20069431  1
  O  O37  1  0.43515129  0.75070086  0.08792098  1
  O  O38  1  0.56886223  0.23429721  0.90490822  1
  O  O39  1  0.58079737  0.77014275  0.80179729  1
  O  O40  1  0.57913732  0.23329732  0.40804990  1
  O  O41  1  0.58032333  0.77074660  0.29921400  1
  O  O42  1  0.69423707  0.56444237  0.61263785  1
  O  O43  1  0.68560591  0.92746242  0.59065639  1
  O  O44  1  0.69273653  0.56548673  0.10969979  1
  O  O45  1  0.69569414  0.92880349  0.09109373  1
  O  O46  1  0.85827027  0.23960381  0.74255226  1
  O  O47  1  0.85224045  0.24444581  0.22992379  1
  O  O48  1  0.88915770  0.25242882  0.52300483  1
  O  O49  1  0.89778493  0.25057524  0.01005208  1
  O  O50  1  0.90236796  0.77508257  0.83623592  1
  O  O51  1  0.90267811  0.77648493  0.33743379  1
