# generated using pymatgen
data_Mn6OF11
_symmetry_space_group_name_H-M   'P 1'
_cell_length_a   4.96352216
_cell_length_b   5.88020504
_cell_length_c   16.22273375
_cell_angle_alpha   90.00000000
_cell_angle_beta   90.00000000
_cell_angle_gamma   89.04640875
_symmetry_Int_Tables_number   1
_chemical_formula_structural   Mn6OF11
_chemical_formula_sum   'Mn12 O2 F22'
_cell_volume   473.41969714
_cell_formula_units_Z   2
loop_
 _symmetry_equiv_pos_site_id
 _symmetry_equiv_pos_as_xyz
  1  'x, y, z'
loop_
 _atom_site_type_symbol
 _atom_site_label
 _atom_site_symmetry_multiplicity
 _atom_site_fract_x
 _atom_site_fract_y
 _atom_site_fract_z
 _atom_site_occupancy
  Mn  Mn0  1  0.00352389  0.16991581  0.41689817  1
  Mn  Mn1  1  0.00729575  0.83043914  0.24558522  1
  Mn  Mn2  1  0.98132095  0.18007720  0.07742410  1
  Mn  Mn3  1  0.01359136  0.14645313  0.75448193  1
  Mn  Mn4  1  0.99792823  0.82807247  0.58490288  1
  Mn  Mn5  1  0.01202559  0.83173469  0.91112646  1
  Mn  Mn6  1  0.50729575  0.33043914  0.58774778  1
  Mn  Mn7  1  0.51202559  0.33173469  0.92220654  1
  Mn  Mn8  1  0.49792823  0.32807247  0.24843012  1
  Mn  Mn9  1  0.51359136  0.64645313  0.07885207  1
  Mn  Mn10  1  0.50352389  0.66991581  0.41643483  1
  Mn  Mn11  1  0.48132095  0.68007720  0.75590890  1
  O  O12  1  0.21034681  0.90634516  0.80124565  1
  O  O13  1  0.71034681  0.40634516  0.03208735  1
  F  F14  1  0.23210330  0.10141590  0.30577224  1
  F  F15  1  0.21941256  0.11238101  0.64261468  1
  F  F16  1  0.21891284  0.11392647  0.97345735  1
  F  F17  1  0.25023234  0.87987854  0.13290984  1
  F  F18  1  0.23064086  0.89415288  0.47578372  1
  F  F19  1  0.26103125  0.39631119  0.14045137  1
  F  F20  1  0.26795977  0.60374153  0.30713894  1
  F  F21  1  0.27442407  0.39418802  0.47538876  1
  F  F22  1  0.28014969  0.60631495  0.64239801  1
  F  F23  1  0.26774520  0.38840517  0.80959511  1
  F  F24  1  0.27135655  0.61624573  0.97647746  1
  F  F25  1  0.71941256  0.61238101  0.19071932  1
  F  F26  1  0.73064086  0.39415288  0.35754928  1
  F  F27  1  0.73210330  0.60141590  0.52756076  1
  F  F28  1  0.71891284  0.61392647  0.85987665  1
  F  F29  1  0.75023234  0.37987854  0.70042316  1
  F  F30  1  0.78014969  0.10631495  0.19093599  1
  F  F31  1  0.76795977  0.10374153  0.52619406  1
  F  F32  1  0.77442407  0.89418802  0.35794424  1
  F  F33  1  0.76774520  0.88840517  0.02373789  1
  F  F34  1  0.77135655  0.11624573  0.85685554  1
  F  F35  1  0.76103125  0.89631119  0.69288163  1
