# generated using pymatgen
data_Co3OF5
_symmetry_space_group_name_H-M   'P 1'
_cell_length_a   7.52107644
_cell_length_b   5.70857706
_cell_length_c   5.67268717
_cell_angle_alpha   70.37802273
_cell_angle_beta   71.55612282
_cell_angle_gamma   71.89066964
_symmetry_Int_Tables_number   1
_chemical_formula_structural   Co3OF5
_chemical_formula_sum   'Co6 O2 F10'
_cell_volume   211.84612465
_cell_formula_units_Z   2
loop_
 _symmetry_equiv_pos_site_id
 _symmetry_equiv_pos_as_xyz
  1  'x, y, z'
loop_
 _atom_site_type_symbol
 _atom_site_label
 _atom_site_symmetry_multiplicity
 _atom_site_fract_x
 _atom_site_fract_y
 _atom_site_fract_z
 _atom_site_occupancy
  Co  Co0  1  0.83331825  0.66666567  0.66669537  1
  Co  Co1  1  0.33333633  0.66666373  0.66666368  1
  Co  Co2  1  0.66638177  0.36331387  0.29964971  1
  Co  Co3  1  0.15986455  0.34412697  0.33653021  1
  Co  Co4  1  0.50680492  0.98920487  0.99680181  1
  Co  Co5  1  0.00028000  0.96997803  0.03373261  1
  O  O6  1  0.67485947  0.63418797  0.01299511  1
  O  O7  1  0.99182073  0.69918243  0.32027499  1
  F  F8  1  0.33564102  0.35843546  0.97241199  1
  F  F9  1  0.66804053  0.04523037  0.61194198  1
  F  F10  1  0.62892518  0.56097098  0.55678004  1
  F  F11  1  0.29625107  0.90084678  0.90234071  1
  F  F12  1  0.96404740  0.23145456  0.23551404  1
  F  F13  1  0.37041912  0.43248541  0.43099019  1
  F  F14  1  0.03774383  0.77236012  0.77654718  1
  F  F15  1  0.70261256  0.10188721  0.09782384  1
  F  F16  1  0.33102651  0.97489920  0.36091904  1
  F  F17  1  0.99862574  0.28810536  0.72138850  1
