# generated using pymatgen
data_Al2CrO5
_symmetry_space_group_name_H-M   'P 1'
_cell_length_a   4.96103859
_cell_length_b   5.38266042
_cell_length_c   6.83265921
_cell_angle_alpha   70.91546119
_cell_angle_beta   89.98676683
_cell_angle_gamma   62.53787470
_symmetry_Int_Tables_number   1
_chemical_formula_structural   Al2CrO5
_chemical_formula_sum   'Al4 Cr2 O10'
_cell_volume   150.51216414
_cell_formula_units_Z   2
loop_
 _symmetry_equiv_pos_site_id
 _symmetry_equiv_pos_as_xyz
  1  'x, y, z'
loop_
 _atom_site_type_symbol
 _atom_site_label
 _atom_site_symmetry_multiplicity
 _atom_site_fract_x
 _atom_site_fract_y
 _atom_site_fract_z
 _atom_site_occupancy
  Al  Al0  1  0.63934210  0.74146576  0.71332281  1
  Al  Al1  1  0.38164090  0.25656726  0.78246423  1
  Al  Al2  1  0.61802966  0.74068002  0.21371531  1
  Al  Al3  1  0.36030529  0.25588389  0.28215710  1
  Cr  Cr4  1  0.99957846  0.99843269  0.49816484  1
  Cr  Cr5  1  0.99885918  0.99955446  0.99764133  1
  O  O6  1  0.03539634  0.62055468  0.65298725  1
  O  O7  1  0.73512443  0.82994418  0.94454643  1
  O  O8  1  0.43272023  0.82947516  0.44464450  1
  O  O9  1  0.65723603  0.37732780  0.84277559  1
  O  O10  1  0.33970186  0.62214566  0.15473670  1
  O  O11  1  0.20052284  0.99830102  0.74811160  1
  O  O12  1  0.56700379  0.16676738  0.55192606  1
  O  O13  1  0.26251352  0.16889482  0.05075236  1
  O  O14  1  0.96332167  0.37544554  0.34216769  1
  O  O15  1  0.79709472  0.99922068  0.24791120  1
