# generated using pymatgen
data_LiMn2F5
_symmetry_space_group_name_H-M   'P 1'
_cell_length_a   8.69422585
_cell_length_b   8.87272321
_cell_length_c   6.51410690
_cell_angle_alpha   90.00000000
_cell_angle_beta   90.00000000
_cell_angle_gamma   90.00000000
_symmetry_Int_Tables_number   1
_chemical_formula_structural   LiMn2F5
_chemical_formula_sum   'Li4 Mn8 F20'
_cell_volume   502.50771355
_cell_formula_units_Z   4
loop_
 _symmetry_equiv_pos_site_id
 _symmetry_equiv_pos_as_xyz
  1  'x, y, z'
loop_
 _atom_site_type_symbol
 _atom_site_label
 _atom_site_symmetry_multiplicity
 _atom_site_fract_x
 _atom_site_fract_y
 _atom_site_fract_z
 _atom_site_occupancy
  Li  Li0  1  0.24440096  0.23872344  0.00000000  1
  Li  Li1  1  0.25559904  0.73872344  0.50000000  1
  Li  Li2  1  0.74440096  0.26127656  0.50000000  1
  Li  Li3  1  0.75559904  0.76127656  0.00000000  1
  Mn  Mn4  1  0.00000000  0.00000000  0.25246121  1
  Mn  Mn5  1  0.00000000  0.00000000  0.74753879  1
  Mn  Mn6  1  0.14111590  0.62827698  0.00000000  1
  Mn  Mn7  1  0.35888410  0.12827698  0.50000000  1
  Mn  Mn8  1  0.50000000  0.50000000  0.24753879  1
  Mn  Mn9  1  0.50000000  0.50000000  0.75246121  1
  Mn  Mn10  1  0.64111590  0.87172302  0.50000000  1
  Mn  Mn11  1  0.85888410  0.37172302  0.00000000  1
  F  F12  1  0.08587173  0.86393534  0.00000000  1
  F  F13  1  0.07633402  0.86135324  0.50000000  1
  F  F14  1  0.09885819  0.39310419  0.00000000  1
  F  F15  1  0.21504017  0.12400272  0.24582958  1
  F  F16  1  0.21504017  0.12400272  0.75417042  1
  F  F17  1  0.28495983  0.62400272  0.25417042  1
  F  F18  1  0.28495983  0.62400272  0.74582958  1
  F  F19  1  0.40114181  0.89310419  0.50000000  1
  F  F20  1  0.42366598  0.36135324  0.00000000  1
  F  F21  1  0.41412827  0.36393534  0.50000000  1
  F  F22  1  0.58587173  0.63606466  0.50000000  1
  F  F23  1  0.57633402  0.63864676  0.00000000  1
  F  F24  1  0.59885819  0.10689581  0.50000000  1
  F  F25  1  0.71504017  0.37599728  0.25417042  1
  F  F26  1  0.71504017  0.37599728  0.74582958  1
  F  F27  1  0.78495983  0.87599728  0.24582958  1
  F  F28  1  0.78495983  0.87599728  0.75417042  1
  F  F29  1  0.90114181  0.60689581  0.00000000  1
  F  F30  1  0.92366598  0.13864676  0.50000000  1
  F  F31  1  0.91412827  0.13606466  0.00000000  1
