# generated using pymatgen
data_V8CuO20
_symmetry_space_group_name_H-M   'P 1'
_cell_length_a   12.01990439
_cell_length_b   9.50358644
_cell_length_c   11.04447685
_cell_angle_alpha   104.55274723
_cell_angle_beta   66.26088071
_cell_angle_gamma   94.78601103
_symmetry_Int_Tables_number   1
_chemical_formula_structural   V8CuO20
_chemical_formula_sum   'V24 Cu3 O60'
_cell_volume   1117.60928042
_cell_formula_units_Z   3
loop_
 _symmetry_equiv_pos_site_id
 _symmetry_equiv_pos_as_xyz
  1  'x, y, z'
loop_
 _atom_site_type_symbol
 _atom_site_label
 _atom_site_symmetry_multiplicity
 _atom_site_fract_x
 _atom_site_fract_y
 _atom_site_fract_z
 _atom_site_occupancy
  V  V0  1  0.02525997  0.91676212  0.11798629  1
  V  V1  1  0.01277214  0.84272929  0.40812750  1
  V  V2  1  0.20039812  0.63294623  0.09193548  1
  V  V3  1  0.45450457  0.88137800  0.09745398  1
  V  V4  1  0.29576835  0.87019964  0.90801553  1
  V  V5  1  0.04799885  0.61917447  0.89869892  1
  V  V6  1  0.52455635  0.41829870  0.11805828  1
  V  V7  1  0.77689314  0.66709863  0.11651738  1
  V  V8  1  0.27686012  0.16606453  0.12416731  1
  V  V9  1  0.74001618  0.90086716  0.59587805  1
  V  V10  1  0.24088289  0.40314916  0.59469943  1
  V  V11  1  0.48746529  0.65605104  0.59399200  1
  V  V12  1  0.51433175  0.34291665  0.40706782  1
  V  V13  1  0.76117718  0.59253352  0.40930903  1
  V  V14  1  0.26021892  0.09838607  0.40486024  1
  V  V15  1  0.22409343  0.32911564  0.88491414  1
  V  V16  1  0.47462594  0.58186166  0.87935289  1
  V  V17  1  0.72410027  0.83348880  0.88218873  1
  V  V18  1  0.70295257  0.13143912  0.09377991  1
  V  V19  1  0.94972671  0.37898991  0.10169111  1
  V  V20  1  0.79894434  0.36922860  0.90025774  1
  V  V21  1  0.54648016  0.12086194  0.90145802  1
  V  V22  1  0.98779936  0.15526680  0.59132340  1
  V  V23  1  0.97467888  0.08445076  0.88378760  1
  Cu  Cu24  1  0.28599266  0.98100173  0.63670831  1
  Cu  Cu25  1  0.21499504  0.51507833  0.35811452  1
  Cu  Cu26  1  0.71438819  0.02601363  0.36551332  1
  O  O27  1  0.17766063  0.99843098  0.08303543  1
  O  O28  1  0.08251802  0.78379350  0.22048683  1
  O  O29  1  0.06921217  0.99961298  0.73091180  1
  O  O30  1  0.08716633  0.50403860  0.04898391  1
  O  O31  1  0.33163566  0.76352448  0.04753457  1
  O  O32  1  0.07217746  0.73247429  0.45649895  1
  O  O33  1  0.31354888  0.98666486  0.46323619  1
  O  O34  1  0.22209647  0.56637913  0.20592570  1
  O  O35  1  0.46919574  0.81135978  0.20843014  1
  O  O36  1  0.03150900  0.69097643  0.79011507  1
  O  O37  1  0.27669468  0.93637153  0.79160583  1
  O  O38  1  0.18735653  0.51294870  0.53481762  1
  O  O39  1  0.43140568  0.76760759  0.54297638  1
  O  O40  1  0.99819109  0.99833484  0.99907480  1
  O  O41  1  0.25124794  0.25035791  0.99553209  1
  O  O42  1  0.50086105  0.50262566  0.00019802  1
  O  O43  1  0.74995959  0.74956947  0.99964986  1
  O  O44  1  0.41696244  0.99805726  0.95145619  1
  O  O45  1  0.16087791  0.73438544  0.95386825  1
  O  O46  1  0.69845747  0.76827716  0.26888557  1
  O  O47  1  0.19929348  0.27528752  0.27544927  1
  O  O48  1  0.42829053  0.50380076  0.26957139  1
  O  O49  1  0.16383197  0.46420436  0.77861738  1
  O  O50  1  0.66567969  0.96550961  0.78107181  1
  O  O51  1  0.41886755  0.71121267  0.77721939  1
  O  O52  1  0.44089046  0.25294027  0.07542136  1
  O  O53  1  0.93513021  0.74548388  0.07624868  1
  O  O54  1  0.68546974  0.49917802  0.08033623  1
  O  O55  1  0.64751174  0.73129119  0.57585728  1
  O  O56  1  0.89760329  0.97889118  0.57612473  1
  O  O57  1  0.14596595  0.23194959  0.57226046  1
  O  O58  1  0.39610837  0.47957352  0.57560668  1
  O  O59  1  0.85528030  0.76689291  0.42834999  1
  O  O60  1  0.10286058  0.01885194  0.42316578  1
  O  O61  1  0.35408447  0.26690692  0.42674485  1
  O  O62  1  0.60379593  0.51945137  0.42645289  1
  O  O63  1  0.31574265  0.50336134  0.91984690  1
  O  O64  1  0.06296184  0.25203811  0.92395745  1
  O  O65  1  0.56392301  0.75258570  0.92131485  1
  O  O66  1  0.83591183  0.53589220  0.22084801  1
  O  O67  1  0.33364577  0.03566611  0.22040893  1
  O  O68  1  0.58262239  0.29033808  0.22450229  1
  O  O69  1  0.30059247  0.22976508  0.72876101  1
  O  O70  1  0.56059841  0.48830951  0.73042119  1
  O  O71  1  0.80794203  0.74256284  0.73029094  1
  O  O72  1  0.57997927  0.00701617  0.05353015  1
  O  O73  1  0.83935300  0.26144614  0.04889712  1
  O  O74  1  0.57047508  0.22988946  0.45650987  1
  O  O75  1  0.81606665  0.48375292  0.46036257  1
  O  O76  1  0.72168611  0.06114571  0.20797022  1
  O  O77  1  0.97010288  0.31034508  0.20990977  1
  O  O78  1  0.53031366  0.18858111  0.79035629  1
  O  O79  1  0.77681308  0.43646952  0.79275367  1
  O  O80  1  0.93252640  0.26255296  0.53886005  1
  O  O81  1  0.68635346  0.01110516  0.53643014  1
  O  O82  1  0.91385725  0.49377471  0.94845615  1
  O  O83  1  0.66749665  0.24063702  0.95263975  1
  O  O84  1  0.92964269  0.00219088  0.26984473  1
  O  O85  1  0.91512447  0.21575747  0.77935416  1
  O  O86  1  0.81563155  0.00084929  0.91719947  1
