# generated using pymatgen
data_Cu2H26C6S7N12O5
_symmetry_space_group_name_H-M   'P 1'
_cell_length_a   11.20107268
_cell_length_b   11.44354471
_cell_length_c   12.35018139
_cell_angle_alpha   64.68038041
_cell_angle_beta   76.35619981
_cell_angle_gamma   66.62434374
_symmetry_Int_Tables_number   1
_chemical_formula_structural   Cu2H26C6S7N12O5
_chemical_formula_sum   'Cu4 H52 C12 S14 N24 O10'
_cell_volume   1309.33512524
_cell_formula_units_Z   2
loop_
 _symmetry_equiv_pos_site_id
 _symmetry_equiv_pos_as_xyz
  1  'x, y, z'
loop_
 _atom_site_type_symbol
 _atom_site_label
 _atom_site_symmetry_multiplicity
 _atom_site_fract_x
 _atom_site_fract_y
 _atom_site_fract_z
 _atom_site_occupancy
  Cu  Cu0  1  0.36416252  0.09554510  0.25258470  1
  Cu  Cu1  1  0.61912890  0.21807745  0.40044361  1
  Cu  Cu2  1  0.38087110  0.78192255  0.59955639  1
  Cu  Cu3  1  0.63583748  0.90445490  0.74741530  1
  H  H4  1  0.12526110  0.02281155  0.33461421  1
  H  H5  1  0.30545108  0.11738557  0.03459903  1
  H  H6  1  0.99837907  0.35950419  0.93066311  1
  H  H7  1  0.11987278  0.33407273  0.50566987  1
  H  H8  1  0.17754064  0.40307093  0.35536896  1
  H  H9  1  0.25575618  0.14724277  0.64270643  1
  H  H10  1  0.23130018  0.55554392  0.17241089  1
  H  H11  1  0.19367305  0.18268450  0.92601981  1
  H  H12  1  0.10382366  0.53718420  0.72121259  1
  H  H13  1  0.04599617  0.59376695  0.94379130  1
  H  H14  1  0.37736638  0.32272148  0.05761344  1
  H  H15  1  0.06125894  0.90064769  0.34543472  1
  H  H16  1  0.40499255  0.04900493  0.59172922  1
  H  H17  1  0.24404566  0.32926264  0.71227577  1
  H  H18  1  0.18912190  0.67394805  0.39823648  1
  H  H19  1  0.37094337  0.44367443  0.18994520  1
  H  H20  1  0.16293222  0.66746979  0.69859055  1
  H  H21  1  0.28931109  0.89450462  0.08525402  1
  H  H22  1  0.35082295  0.71657414  0.14822514  1
  H  H23  1  0.05791545  0.99014678  0.87022696  1
  H  H24  1  0.41156778  0.30346213  0.67684048  1
  H  H25  1  0.35781446  0.62381356  0.41502558  1
  H  H26  1  0.12542458  0.84911365  0.99725453  1
  H  H27  1  0.54462187  0.59799803  0.08209477  1
  H  H28  1  0.29439576  0.65441026  0.97835145  1
  H  H29  1  0.34156642  0.64863495  0.83335146  1
  H  H30  1  0.65843358  0.35136505  0.16664854  1
  H  H31  1  0.70560424  0.34558974  0.02164855  1
  H  H32  1  0.45537813  0.40200197  0.91790523  1
  H  H33  1  0.87457542  0.15088635  0.00274547  1
  H  H34  1  0.64218554  0.37618644  0.58497442  1
  H  H35  1  0.58843222  0.69653787  0.32315952  1
  H  H36  1  0.94208455  0.00985322  0.12977304  1
  H  H37  1  0.64917705  0.28342586  0.85177486  1
  H  H38  1  0.71068891  0.10549538  0.91474598  1
  H  H39  1  0.83706778  0.33253021  0.30140945  1
  H  H40  1  0.62905663  0.55632557  0.81005480  1
  H  H41  1  0.81087810  0.32605195  0.60176352  1
  H  H42  1  0.75595434  0.67073736  0.28772423  1
  H  H43  1  0.59500745  0.95099507  0.40827078  1
  H  H44  1  0.93874106  0.09935231  0.65456528  1
  H  H45  1  0.62263362  0.67727852  0.94238656  1
  H  H46  1  0.95400383  0.40623305  0.05620870  1
  H  H47  1  0.89617634  0.46281580  0.27878741  1
  H  H48  1  0.80632695  0.81731550  0.07398019  1
  H  H49  1  0.76869982  0.44445608  0.82758911  1
  H  H50  1  0.74424382  0.85275723  0.35729357  1
  H  H51  1  0.82245936  0.59692907  0.64463104  1
  H  H52  1  0.88012722  0.66592727  0.49433013  1
  H  H53  1  0.00162093  0.64049581  0.06933689  1
  H  H54  1  0.69454892  0.88261443  0.96540097  1
  H  H55  1  0.87473890  0.97718845  0.66538579  1
  C  C56  1  0.13150144  0.25687680  0.06238931  1
  C  C57  1  0.30893397  0.22753661  0.46223484  1
  C  C58  1  0.30290407  0.48814668  0.69307271  1
  C  C59  1  0.25368683  0.82648627  0.37966129  1
  C  C60  1  0.19686409  0.82363003  0.83607692  1
  C  C61  1  0.45944806  0.80551854  0.00056812  1
  C  C62  1  0.54055194  0.19448146  0.99943188  1
  C  C63  1  0.80313591  0.17636997  0.16392308  1
  C  C64  1  0.74631317  0.17351373  0.62033871  1
  C  C65  1  0.69709593  0.51185332  0.30692729  1
  C  C66  1  0.69106603  0.77246339  0.53776516  1
  C  C67  1  0.86849856  0.74312320  0.93761069  1
  S  S68  1  0.16376895  0.25288802  0.19374859  1
  S  S69  1  0.53613563  0.04683840  0.11773202  1
  S  S70  1  0.43152455  0.20870534  0.34744456  1
  S  S71  1  0.18539070  0.89272459  0.68306896  1
  S  S72  1  0.43491236  0.53938346  0.67190462  1
  S  S73  1  0.61581793  0.13260638  0.61182231  1
  S  S74  1  0.38418207  0.86739362  0.38817769  1
  S  S75  1  0.56508764  0.46061654  0.32809538  1
  S  S76  1  0.81460930  0.10727541  0.31693104  1
  S  S77  1  0.56847545  0.79129466  0.65255544  1
  S  S78  1  0.46386437  0.95316160  0.88226798  1
  S  S79  1  0.83623105  0.74711198  0.80625141  1
  S  S80  1  0.00503596  0.71557304  0.25186270  1
  S  S81  1  0.99496404  0.28442696  0.74813730  1
  N  N82  1  0.02022337  0.34743954  0.01215720  1
  N  N83  1  0.21357202  0.17369384  0.00683419  1
  N  N84  1  0.19569398  0.33135594  0.43948739  1
  N  N85  1  0.32736095  0.13822146  0.57460558  1
  N  N86  1  0.18050576  0.56683311  0.71511283  1
  N  N87  1  0.13740905  0.92369561  0.35230045  1
  N  N88  1  0.31992606  0.36687385  0.69132404  1
  N  N89  1  0.26780331  0.69751008  0.40113738  1
  N  N90  1  0.36463502  0.80656904  0.09056478  1
  N  N91  1  0.12045563  0.89162378  0.90595538  1
  N  N92  1  0.28187503  0.69807393  0.88812770  1
  N  N93  1  0.55021835  0.68313102  0.00924842  1
  N  N94  1  0.44978165  0.31686898  0.99075158  1
  N  N95  1  0.71812497  0.30192607  0.11187230  1
  N  N96  1  0.87954437  0.10837622  0.09404462  1
  N  N97  1  0.63536498  0.19343096  0.90943522  1
  N  N98  1  0.73219669  0.30248992  0.59886262  1
  N  N99  1  0.68007394  0.63312615  0.30867596  1
  N  N100  1  0.86259095  0.07630439  0.64769955  1
  N  N101  1  0.81949424  0.43316689  0.28488717  1
  N  N102  1  0.67263905  0.86177854  0.42539442  1
  N  N103  1  0.80430602  0.66864406  0.56051261  1
  N  N104  1  0.78642798  0.82630616  0.99316581  1
  N  N105  1  0.97977663  0.65256046  0.98784280  1
  O  O106  1  0.06114754  0.58762350  0.22244978  1
  O  O107  1  0.02456483  0.67976776  0.37910799  1
  O  O108  1  0.13818501  0.22491187  0.76502822  1
  O  O109  1  0.07077163  0.81591570  0.16925038  1
  O  O110  1  0.32441115  0.53988169  0.14144622  1
  O  O111  1  0.67558885  0.46011831  0.85855378  1
  O  O112  1  0.92922837  0.18408430  0.83074962  1
  O  O113  1  0.86181499  0.77508813  0.23497178  1
  O  O114  1  0.97543517  0.32023224  0.62089201  1
  O  O115  1  0.93885246  0.41237650  0.77755022  1
