# generated using pymatgen
data_Li5V3P8O29
_symmetry_space_group_name_H-M   'P 1'
_cell_length_a   9.79443329
_cell_length_b   9.78757966
_cell_length_c   13.99000586
_cell_angle_alpha   90.01422023
_cell_angle_beta   90.17950157
_cell_angle_gamma   59.95365574
_symmetry_Int_Tables_number   1
_chemical_formula_structural   Li5V3P8O29
_chemical_formula_sum   'Li10 V6 P16 O58'
_cell_volume   1160.90721519
_cell_formula_units_Z   2
loop_
 _symmetry_equiv_pos_site_id
 _symmetry_equiv_pos_as_xyz
  1  'x, y, z'
loop_
 _atom_site_type_symbol
 _atom_site_label
 _atom_site_symmetry_multiplicity
 _atom_site_fract_x
 _atom_site_fract_y
 _atom_site_fract_z
 _atom_site_occupancy
  Li  Li0  1  0.76953379  0.89394844  0.56099763  1
  Li  Li1  1  0.90493431  0.33397466  0.56148656  1
  Li  Li2  1  0.77204346  0.31826974  0.05804381  1
  Li  Li3  1  0.32015346  0.90619524  0.06006282  1
  Li  Li4  1  0.66701114  0.23559902  0.44121089  1
  Li  Li5  1  0.33716173  0.76505646  0.56127053  1
  Li  Li6  1  0.68481704  0.08663518  0.93792832  1
  Li  Li7  1  0.22446367  0.67855951  0.94089292  1
  Li  Li8  1  0.09595515  0.22861152  0.93817297  1
  Li  Li9  1  0.04005504  0.97176314  0.50159630  1
  V  V10  1  0.56624780  0.43409468  0.24911432  1
  V  V11  1  0.43003592  0.56930021  0.74935726  1
  V  V12  1  0.56784131  0.99766941  0.74887712  1
  V  V13  1  0.43157626  0.00582715  0.25403550  1
  V  V14  1  0.99965106  0.56852678  0.25102174  1
  V  V15  1  0.99988751  0.43574946  0.74925371  1
  P  P16  1  0.91596972  0.76898379  0.84318999  1
  P  P17  1  0.77424630  0.91342522  0.33920904  1
  P  P18  1  0.91337134  0.31395658  0.34391368  1
  P  P19  1  0.66603136  0.66785645  0.13041446  1
  P  P20  1  0.66547624  0.66602532  0.62636336  1
  P  P21  1  0.76792620  0.32038995  0.84050302  1
  P  P22  1  0.68367970  0.22839898  0.65763455  1
  P  P23  1  0.32023736  0.91307218  0.84380805  1
  P  P24  1  0.68070447  0.08822337  0.15482199  1
  P  P25  1  0.31504318  0.77464344  0.34279682  1
  P  P26  1  0.22773068  0.68187370  0.16076715  1
  P  P27  1  0.33319354  0.33463265  0.37150454  1
  P  P28  1  0.33528521  0.33216632  0.87090487  1
  P  P29  1  0.08255395  0.69235580  0.65619945  1
  P  P30  1  0.22436922  0.08480580  0.65930643  1
  P  P31  1  0.08687609  0.23048260  0.15925112  1
  O  O32  1  0.99729555  0.79563489  0.57221176  1
  O  O33  1  0.91502239  0.74358506  0.33605670  1
  O  O34  1  0.75052137  0.00507679  0.06432702  1
  O  O35  1  0.74694250  0.91454592  0.84031724  1
  O  O36  1  0.90652938  0.61731637  0.82225506  1
  O  O37  1  0.81532201  0.66317779  0.17865384  1
  O  O38  1  0.91208440  0.47071915  0.32782838  1
  O  O39  1  0.99889914  0.23980728  0.06900215  1
  O  O40  1  0.91671346  0.33648620  0.84154580  1
  O  O41  1  0.67964224  0.80903952  0.66717821  1
  O  O42  1  0.61744875  0.91139757  0.32726167  1
  O  O43  1  0.80919974  0.50995936  0.66701737  1
  O  O44  1  0.66792152  0.66689501  0.02420288  1
  O  O45  1  0.66373107  0.66748763  0.51935496  1
  O  O46  1  0.67009304  0.51438070  0.16927840  1
  O  O47  1  0.48088735  0.89995454  0.82302726  1
  O  O48  1  0.51595863  0.81779963  0.17144340  1
  O  O49  1  0.74293129  0.34010282  0.33737621  1
  O  O50  1  0.79177879  0.20704020  0.75051093  1
  O  O51  1  0.77346679  0.22463492  0.56882638  1
  O  O52  1  0.75312033  0.24480073  0.93049122  1
  O  O53  1  0.61831206  0.48043232  0.82053058  1
  O  O54  1  0.50908718  0.67990380  0.66698343  1
  O  O55  1  0.66213344  0.25519393  0.15908702  1
  O  O56  1  0.46962503  0.61935375  0.33071374  1
  O  O57  1  0.34370854  0.91667322  0.33002966  1
  O  O58  1  0.79347375  0.99915404  0.24675494  1
  O  O59  1  0.77414121  0.99924070  0.42874948  1
  O  O60  1  0.20837541  0.99407834  0.57838083  1
  O  O61  1  0.66275724  0.08137183  0.65929538  1
  O  O62  1  0.52696630  0.38088882  0.67008353  1
  O  O63  1  0.33551638  0.74809111  0.84266739  1
  O  O64  1  0.48735054  0.32553681  0.33367093  1
  O  O65  1  0.37994359  0.52170355  0.17864361  1
  O  O66  1  0.24021659  0.75784799  0.07089426  1
  O  O67  1  0.22797753  0.79299838  0.43329557  1
  O  O68  1  0.20490538  0.79331282  0.25130700  1
  O  O69  1  0.25472926  0.66293881  0.66070367  1
  O  O70  1  0.48842503  0.18588047  0.82879189  1
  O  O71  1  0.52163524  0.09746412  0.17930493  1
  O  O72  1  0.32668660  0.48729301  0.83082833  1
  O  O73  1  0.33722536  0.33089370  0.97764686  1
  O  O74  1  0.33119267  0.32653551  0.47713229  1
  O  O75  1  0.18624550  0.48123055  0.32493254  1
  O  O76  1  0.38099975  0.08323906  0.66820884  1
  O  O77  1  0.33055019  0.18605182  0.32435032  1
  O  O78  1  0.08342503  0.65851905  0.16510104  1
  O  O79  1  0.00042656  0.79367227  0.75115560  1
  O  O80  1  0.00617194  0.75858387  0.93024253  1
  O  O81  1  0.08318384  0.53636259  0.66605668  1
  O  O82  1  0.18766978  0.32575351  0.83060819  1
  O  O83  1  0.09420998  0.38208615  0.17697467  1
  O  O84  1  0.25476769  0.08348527  0.15930594  1
  O  O85  1  0.24745018  0.00060477  0.93507316  1
  O  O86  1  0.20303440  0.00890970  0.75770413  1
  O  O87  1  0.08248746  0.25679453  0.66120701  1
  O  O88  1  0.98944873  0.22996448  0.43453235  1
  O  O89  1  0.00108468  0.20638250  0.25086695  1
