# generated using pymatgen
data_Mn3Sb(PO4)6
_symmetry_space_group_name_H-M   'P 1'
_cell_length_a   8.73006475
_cell_length_b   8.73006516
_cell_length_c   8.73006514
_cell_angle_alpha   58.08153910
_cell_angle_beta   58.08154057
_cell_angle_gamma   58.08154148
_symmetry_Int_Tables_number   1
_chemical_formula_structural   Mn3Sb(PO4)6
_chemical_formula_sum   'Mn3 Sb1 P6 O24'
_cell_volume   449.78072219
_cell_formula_units_Z   1
loop_
 _symmetry_equiv_pos_site_id
 _symmetry_equiv_pos_as_xyz
  1  'x, y, z'
loop_
 _atom_site_type_symbol
 _atom_site_label
 _atom_site_symmetry_multiplicity
 _atom_site_fract_x
 _atom_site_fract_y
 _atom_site_fract_z
 _atom_site_occupancy
  Mn  Mn0  1  0.14464710  0.14464710  0.14464710  1
  Mn  Mn1  1  0.35536724  0.35536724  0.35536724  1
  Mn  Mn2  1  0.64377485  0.64377485  0.64377485  1
  Sb  Sb3  1  0.85731743  0.85731743  0.85731743  1
  P  P4  1  0.03763372  0.74827958  0.45874599  1
  P  P5  1  0.45874599  0.03763372  0.74827958  1
  P  P6  1  0.74827958  0.45874599  0.03763372  1
  P  P7  1  0.25639534  0.53018531  0.96609986  1
  P  P8  1  0.53018531  0.96609986  0.25639534  1
  P  P9  1  0.96609986  0.25639534  0.53018531  1
  O  O10  1  0.14062411  0.27684742  0.50921529  1
  O  O11  1  0.27684742  0.50921529  0.14062411  1
  O  O12  1  0.06023625  0.92693348  0.27726756  1
  O  O13  1  0.50921529  0.14062411  0.27684742  1
  O  O14  1  0.22099921  0.57236725  0.43704824  1
  O  O15  1  0.01923259  0.77108789  0.63374350  1
  O  O16  1  0.27726756  0.06023625  0.92693348  1
  O  O17  1  0.43704824  0.22099921  0.57236725  1
  O  O18  1  0.57236725  0.43704824  0.22099921  1
  O  O19  1  0.22548853  0.36060873  0.98821760  1
  O  O20  1  0.07815483  0.71772386  0.94402666  1
  O  O21  1  0.36060873  0.98821760  0.22548853  1
  O  O22  1  0.63374350  0.01923259  0.77108789  1
  O  O23  1  0.92693348  0.27726756  0.06023625  1
  O  O24  1  0.77108789  0.63374350  0.01923259  1
  O  O25  1  0.42954912  0.55669176  0.78093648  1
  O  O26  1  0.55669176  0.78093648  0.42954912  1
  O  O27  1  0.71772386  0.94402666  0.07815483  1
  O  O28  1  0.98821760  0.22548853  0.36060873  1
  O  O29  1  0.78093648  0.42954912  0.55669176  1
  O  O30  1  0.48837095  0.86027937  0.72590590  1
  O  O31  1  0.94402666  0.07815483  0.71772386  1
  O  O32  1  0.72590590  0.48837095  0.86027937  1
  O  O33  1  0.86027937  0.72590590  0.48837095  1
