# generated using pymatgen
data_KSm2I5
_symmetry_space_group_name_H-M   'P 1'
_cell_length_a   8.68851048
_cell_length_b   9.69311548
_cell_length_c   14.20313372
_cell_angle_alpha   90.44342689
_cell_angle_beta   90.00000000
_cell_angle_gamma   90.00000000
_symmetry_Int_Tables_number   1
_chemical_formula_structural   KSm2I5
_chemical_formula_sum   'K4 Sm8 I20'
_cell_volume   1196.13413880
_cell_formula_units_Z   4
loop_
 _symmetry_equiv_pos_site_id
 _symmetry_equiv_pos_as_xyz
  1  'x, y, z'
loop_
 _atom_site_type_symbol
 _atom_site_label
 _atom_site_symmetry_multiplicity
 _atom_site_fract_x
 _atom_site_fract_y
 _atom_site_fract_z
 _atom_site_occupancy
  K  K0  1  0.95750630  0.50403450  0.67467933  1
  K  K1  1  0.04249370  0.49596550  0.32532067  1
  K  K2  1  0.45750630  0.49596550  0.82532067  1
  K  K3  1  0.54249370  0.50403450  0.17467933  1
  Sm  Sm4  1  0.94463791  0.99151799  0.67277757  1
  Sm  Sm5  1  0.05536209  0.00848201  0.32722243  1
  Sm  Sm6  1  0.44463791  0.00848201  0.82722243  1
  Sm  Sm7  1  0.55536209  0.99151799  0.17277757  1
  Sm  Sm8  1  0.91275468  0.76722012  0.00260420  1
  Sm  Sm9  1  0.08724532  0.23277988  0.99739580  1
  Sm  Sm10  1  0.41275468  0.23277988  0.49739580  1
  Sm  Sm11  1  0.58724532  0.76722012  0.50260420  1
  I  I12  1  0.83651084  0.46632344  0.91504201  1
  I  I13  1  0.16348916  0.53367656  0.08495799  1
  I  I14  1  0.33651084  0.53367656  0.58495799  1
  I  I15  1  0.66348916  0.46632344  0.41504201  1
  I  I16  1  0.15287275  0.78760568  0.82168655  1
  I  I17  1  0.84712725  0.21239432  0.17831345  1
  I  I18  1  0.65287275  0.21239432  0.67831345  1
  I  I19  1  0.34712725  0.78760568  0.32168655  1
  I  I20  1  0.68208347  0.76871209  0.71846837  1
  I  I21  1  0.31791653  0.23128791  0.28153163  1
  I  I22  1  0.18208347  0.23128791  0.78153163  1
  I  I23  1  0.81791653  0.76871209  0.21846837  1
  I  I24  1  0.53790083  0.78322097  0.99363760  1
  I  I25  1  0.46209917  0.21677903  0.00636240  1
  I  I26  1  0.03790083  0.21677903  0.50636240  1
  I  I27  1  0.96209917  0.78322097  0.49363760  1
  I  I28  1  0.33446248  0.95510876  0.60568457  1
  I  I29  1  0.66553752  0.04489124  0.39431543  1
  I  I30  1  0.83446248  0.04489124  0.89431543  1
  I  I31  1  0.16553752  0.95510876  0.10568457  1
