# generated using pymatgen
data_Na2MnO2
_symmetry_space_group_name_H-M   'P 1'
_cell_length_a   5.84729959
_cell_length_b   6.03053228
_cell_length_c   5.80861980
_cell_angle_alpha   61.20998141
_cell_angle_beta   90.00000000
_cell_angle_gamma   61.00010600
_symmetry_Int_Tables_number   1
_chemical_formula_structural   Na2MnO2
_chemical_formula_sum   'Na4 Mn2 O4'
_cell_volume   149.53965576
_cell_formula_units_Z   2
loop_
 _symmetry_equiv_pos_site_id
 _symmetry_equiv_pos_as_xyz
  1  'x, y, z'
loop_
 _atom_site_type_symbol
 _atom_site_label
 _atom_site_symmetry_multiplicity
 _atom_site_fract_x
 _atom_site_fract_y
 _atom_site_fract_z
 _atom_site_occupancy
  Na  Na0  1  0.34580802  0.30838396  0.24382014  1
  Na  Na1  1  0.84580802  0.30838396  0.44779690  1
  Na  Na2  1  0.15419198  0.69161604  0.55220310  1
  Na  Na3  1  0.65419198  0.69161604  0.75617986  1
  Mn  Mn4  1  0.25000000  0.00000000  0.00000000  1
  Mn  Mn5  1  0.75000000  0.00000000  0.00000000  1
  O  O6  1  0.90398453  0.19203094  0.11916688  1
  O  O7  1  0.59601547  0.80796906  0.31119781  1
  O  O8  1  0.40398453  0.19203094  0.68880219  1
  O  O9  1  0.09601547  0.80796906  0.88083312  1
