# generated using pymatgen
data_Co(IO3)2
_symmetry_space_group_name_H-M   'P 1'
_cell_length_a   5.65941854
_cell_length_b   17.74627794
_cell_length_c   5.37153747
_cell_angle_alpha   90.00000000
_cell_angle_beta   90.00000000
_cell_angle_gamma   90.00000000
_symmetry_Int_Tables_number   1
_chemical_formula_structural   Co(IO3)2
_chemical_formula_sum   'Co4 I8 O24'
_cell_volume   539.48292294
_cell_formula_units_Z   4
loop_
 _symmetry_equiv_pos_site_id
 _symmetry_equiv_pos_as_xyz
  1  'x, y, z'
loop_
 _atom_site_type_symbol
 _atom_site_label
 _atom_site_symmetry_multiplicity
 _atom_site_fract_x
 _atom_site_fract_y
 _atom_site_fract_z
 _atom_site_occupancy
  Co  Co0  1  0.17189454  0.10021271  0.72344833  1
  Co  Co1  1  0.32810546  0.89978729  0.22344833  1
  Co  Co2  1  0.67189454  0.39978729  0.27655167  1
  Co  Co3  1  0.82810546  0.60021271  0.77655167  1
  I  I4  1  0.13967527  0.42487207  0.97656713  1
  I  I5  1  0.21930453  0.20586922  0.25702852  1
  I  I6  1  0.28069547  0.79413078  0.75702852  1
  I  I7  1  0.36032473  0.57512793  0.47656713  1
  I  I8  1  0.63967527  0.07512793  0.02343287  1
  I  I9  1  0.71930453  0.29413078  0.74297148  1
  I  I10  1  0.78069547  0.70586922  0.24297148  1
  I  I11  1  0.86032473  0.92487207  0.52343287  1
  O  O12  1  0.00153397  0.33638563  0.10241192  1
  O  O13  1  0.02172990  0.15792870  0.02897318  1
  O  O14  1  0.01169319  0.20442823  0.52054122  1
  O  O15  1  0.11792273  0.97973949  0.41908699  1
  O  O16  1  0.13076919  0.87786087  0.89308978  1
  O  O17  1  0.16587367  0.54913900  0.74621889  1
  O  O18  1  0.33412633  0.45086100  0.24621889  1
  O  O19  1  0.36923081  0.12213913  0.39308978  1
  O  O20  1  0.38207727  0.02026051  0.91908699  1
  O  O21  1  0.48830681  0.79557177  0.02054122  1
  O  O22  1  0.47827010  0.84207130  0.52897318  1
  O  O23  1  0.49846603  0.66361437  0.60241192  1
  O  O24  1  0.50153397  0.16361437  0.89758808  1
  O  O25  1  0.52172990  0.34207130  0.97102682  1
  O  O26  1  0.51169319  0.29557177  0.47945878  1
  O  O27  1  0.61792273  0.52026051  0.58091301  1
  O  O28  1  0.63076919  0.62213913  0.10691022  1
  O  O29  1  0.66587367  0.95086100  0.25378111  1
  O  O30  1  0.83412633  0.04913900  0.75378111  1
  O  O31  1  0.86923081  0.37786087  0.60691022  1
  O  O32  1  0.88207727  0.47973949  0.08091301  1
  O  O33  1  0.98830681  0.70442823  0.97945878  1
  O  O34  1  0.97827010  0.65792870  0.47102682  1
  O  O35  1  0.99846603  0.83638563  0.39758808  1
