# generated using pymatgen
data_Mn5Sn(PO4)6
_symmetry_space_group_name_H-M   'P 1'
_cell_length_a   8.69729740
_cell_length_b   8.66504596
_cell_length_c   8.66504579
_cell_angle_alpha   60.00000210
_cell_angle_beta   60.12259261
_cell_angle_gamma   60.12259298
_symmetry_Int_Tables_number   1
_chemical_formula_structural   Mn5Sn(PO4)6
_chemical_formula_sum   'Mn5 Sn1 P6 O24'
_cell_volume   462.60819880
_cell_formula_units_Z   1
loop_
 _symmetry_equiv_pos_site_id
 _symmetry_equiv_pos_as_xyz
  1  'x, y, z'
loop_
 _atom_site_type_symbol
 _atom_site_label
 _atom_site_symmetry_multiplicity
 _atom_site_fract_x
 _atom_site_fract_y
 _atom_site_fract_z
 _atom_site_occupancy
  Mn  Mn0  1  0.00867107  0.99710931  0.99710931  1
  Mn  Mn1  1  0.06563378  0.64478907  0.64478907  1
  Mn  Mn2  1  0.50076767  0.49974444  0.49974444  1
  Mn  Mn3  1  0.43538224  0.85487259  0.85487259  1
  Mn  Mn4  1  0.93319402  0.35560199  0.35560199  1
  Sn  Sn5  1  0.56667368  0.14444177  0.14444177  1
  P  P6  1  0.24538789  0.25186109  0.54886323  1
  P  P7  1  0.24538789  0.95388879  0.25186109  1
  P  P8  1  0.24538789  0.54886323  0.95388879  1
  P  P9  1  0.75130219  0.46197986  0.04065706  1
  P  P10  1  0.75130219  0.04065706  0.74606089  1
  P  P11  1  0.75130219  0.74606089  0.46197986  1
  O  O12  1  0.06847708  0.11477365  0.30385507  1
  O  O13  1  0.06847708  0.51289520  0.11477365  1
  O  O14  1  0.06847708  0.30385507  0.51289520  1
  O  O15  1  0.23598983  0.08581156  0.74048975  1
  O  O16  1  0.43043948  0.19483820  0.39192509  1
  O  O17  1  0.26094737  0.41606580  0.56333221  1
  O  O18  1  0.23598983  0.93770886  0.08581156  1
  O  O19  1  0.26094737  0.75965363  0.41606580  1
  O  O20  1  0.56875840  0.61531448  0.00888666  1
  O  O21  1  0.26094737  0.56333221  0.75965363  1
  O  O22  1  0.76871561  0.26383462  0.05675367  1
  O  O23  1  0.56875840  0.00888666  0.80704046  1
  O  O24  1  0.43043948  0.98279724  0.19483820  1
  O  O25  1  0.23598983  0.74048975  0.93770886  1
  O  O26  1  0.73403613  0.44368750  0.23675397  1
  O  O27  1  0.43043948  0.39192509  0.98279724  1
  O  O28  1  0.73403613  0.23675397  0.58552240  1
  O  O29  1  0.76871561  0.05675367  0.91069610  1
  O  O30  1  0.73403613  0.58552240  0.44368750  1
  O  O31  1  0.56875840  0.80704046  0.61531448  1
  O  O32  1  0.76871561  0.91069610  0.26383462  1
  O  O33  1  0.93250521  0.68788792  0.49462069  1
  O  O34  1  0.93250521  0.49462069  0.88498717  1
  O  O35  1  0.93250521  0.88498717  0.68788792  1
