# generated using pymatgen
data_Li4Cr(WO4)3
_symmetry_space_group_name_H-M   'P 1'
_cell_length_a   5.14736487
_cell_length_b   5.02265382
_cell_length_c   8.63672132
_cell_angle_alpha   90.00000000
_cell_angle_beta   90.00000000
_cell_angle_gamma   90.37617383
_symmetry_Int_Tables_number   1
_chemical_formula_structural   Li4Cr(WO4)3
_chemical_formula_sum   'Li4 Cr1 W3 O12'
_cell_volume   223.28407354
_cell_formula_units_Z   1
loop_
 _symmetry_equiv_pos_site_id
 _symmetry_equiv_pos_as_xyz
  1  'x, y, z'
loop_
 _atom_site_type_symbol
 _atom_site_label
 _atom_site_symmetry_multiplicity
 _atom_site_fract_x
 _atom_site_fract_y
 _atom_site_fract_z
 _atom_site_occupancy
  Li  Li0  1  0.00000000  0.00000000  0.70064436  1
  Li  Li1  1  0.00000000  0.50000000  0.83875622  1
  Li  Li2  1  0.50000000  0.00000000  0.30761289  1
  Li  Li3  1  0.50000000  0.50000000  0.18392008  1
  Cr  Cr4  1  0.00000000  0.00000000  0.09619590  1
  W  W5  1  0.50000000  0.50000000  0.60743971  1
  W  W6  1  0.00000000  0.50000000  0.39565286  1
  W  W7  1  0.50000000  0.00000000  0.92543716  1
  O  O8  1  0.15032248  0.25801262  0.25874185  1
  O  O9  1  0.17746983  0.30037917  0.58251393  1
  O  O10  1  0.17975548  0.19879863  0.92454637  1
  O  O11  1  0.31464899  0.70713331  0.42764883  1
  O  O12  1  0.33065951  0.79589759  0.08601420  1
  O  O13  1  0.36132274  0.75471674  0.76324623  1
  O  O14  1  0.63867726  0.24528326  0.76324623  1
  O  O15  1  0.66934049  0.20410241  0.08601420  1
  O  O16  1  0.68535101  0.29286669  0.42764883  1
  O  O17  1  0.82024452  0.80120137  0.92454637  1
  O  O18  1  0.82253017  0.69962083  0.58251393  1
  O  O19  1  0.84967752  0.74198738  0.25874185  1
