# generated using pymatgen
data_Li2VF4
_symmetry_space_group_name_H-M   'P 1'
_cell_length_a   9.76009667
_cell_length_b   3.19269007
_cell_length_c   11.47797016
_cell_angle_alpha   90.59991726
_cell_angle_beta   27.17199128
_cell_angle_gamma   90.56707784
_symmetry_Int_Tables_number   1
_chemical_formula_structural   Li2VF4
_chemical_formula_sum   'Li4 V2 F8'
_cell_volume   163.32313949
_cell_formula_units_Z   2
loop_
 _symmetry_equiv_pos_site_id
 _symmetry_equiv_pos_as_xyz
  1  'x, y, z'
loop_
 _atom_site_type_symbol
 _atom_site_label
 _atom_site_symmetry_multiplicity
 _atom_site_fract_x
 _atom_site_fract_y
 _atom_site_fract_z
 _atom_site_occupancy
  Li  Li0  1  0.68573705  0.07906107  0.73716831  1
  Li  Li1  1  0.31307213  0.94292340  0.25904887  1
  Li  Li2  1  0.68562788  0.93844944  0.23598258  1
  Li  Li3  1  0.31333165  0.06806059  0.76009723  1
  V  V4  1  0.99904292  0.56534058  0.24831807  1
  V  V5  1  0.99989971  0.44979528  0.74738381  1
  F  F6  1  0.00112827  0.05852774  0.11957311  1
  F  F7  1  0.99668992  0.06859617  0.37741251  1
  F  F8  1  0.46834948  0.58049147  0.89785477  1
  F  F9  1  0.00199716  0.94781756  0.61848646  1
  F  F10  1  0.99769231  0.95578434  0.87620586  1
  F  F11  1  0.53048703  0.44153695  0.09692194  1
  F  F12  1  0.46917825  0.43613480  0.39660939  1
  F  F13  1  0.52968624  0.57041061  0.59807609  1
