# generated using pymatgen
data_Li4Nb2V3Ni3O16
_symmetry_space_group_name_H-M   'P 1'
_cell_length_a   5.94215585
_cell_length_b   5.96657025
_cell_length_c   9.71042239
_cell_angle_alpha   90.06491436
_cell_angle_beta   90.36709803
_cell_angle_gamma   120.16939329
_symmetry_Int_Tables_number   1
_chemical_formula_structural   Li4Nb2V3Ni3O16
_chemical_formula_sum   'Li4 Nb2 V3 Ni3 O16'
_cell_volume   297.63177300
_cell_formula_units_Z   1
loop_
 _symmetry_equiv_pos_site_id
 _symmetry_equiv_pos_as_xyz
  1  'x, y, z'
loop_
 _atom_site_type_symbol
 _atom_site_label
 _atom_site_symmetry_multiplicity
 _atom_site_fract_x
 _atom_site_fract_y
 _atom_site_fract_z
 _atom_site_occupancy
  Li  Li0  1  0.32322612  0.66141960  0.89840885  1
  Li  Li1  1  0.00432037  0.00028735  0.98791713  1
  Li  Li2  1  0.00636088  0.00223289  0.49455443  1
  Li  Li3  1  0.66459721  0.33416269  0.40372683  1
  Nb  Nb4  1  0.33065371  0.66404837  0.50152786  1
  Nb  Nb5  1  0.69581808  0.34815239  0.98740215  1
  V  V6  1  0.18834481  0.84301481  0.22029347  1
  V  V7  1  0.18586266  0.34691070  0.21878953  1
  V  V8  1  0.34986822  0.17400319  0.72636247  1
  Ni  Ni9  1  0.66366883  0.83190925  0.20758274  1
  Ni  Ni10  1  0.82534938  0.65933680  0.71173064  1
  Ni  Ni11  1  0.82513903  0.16552326  0.71173101  1
  O  O12  1  0.17389601  0.83291277  0.59163040  1
  O  O13  1  0.03883310  0.52019905  0.33534177  1
  O  O14  1  0.30526576  0.65296791  0.10498508  1
  O  O15  1  0.01119326  0.00672620  0.30499056  1
  O  O16  1  0.01954431  0.00962990  0.79909009  1
  O  O17  1  0.17337066  0.33967013  0.59186040  1
  O  O18  1  0.46588358  0.96413704  0.33775669  1
  O  O19  1  0.46423575  0.50231200  0.33799687  1
  O  O20  1  0.33034693  0.16495899  0.10293163  1
  O  O21  1  0.66611435  0.83255120  0.58380143  1
  O  O22  1  0.50342380  0.46872823  0.85025622  1
  O  O23  1  0.50330037  0.03357799  0.84982025  1
  O  O24  1  0.63156642  0.31582505  0.60825024  1
  O  O25  1  0.84519329  0.66975272  0.09601477  1
  O  O26  1  0.95764724  0.47888500  0.84768080  1
  O  O27  1  0.84697689  0.17646552  0.09540568  1
