# generated using pymatgen
data_Li2FeF6
_symmetry_space_group_name_H-M   'P 1'
_cell_length_a   8.67525911
_cell_length_b   8.76081314
_cell_length_c   4.50803215
_cell_angle_alpha   89.29903877
_cell_angle_beta   90.00000000
_cell_angle_gamma   119.67748109
_symmetry_Int_Tables_number   1
_chemical_formula_structural   Li2FeF6
_chemical_formula_sum   'Li6 Fe3 F18'
_cell_volume   297.64851232
_cell_formula_units_Z   3
loop_
 _symmetry_equiv_pos_site_id
 _symmetry_equiv_pos_as_xyz
  1  'x, y, z'
loop_
 _atom_site_type_symbol
 _atom_site_label
 _atom_site_symmetry_multiplicity
 _atom_site_fract_x
 _atom_site_fract_y
 _atom_site_fract_z
 _atom_site_occupancy
  Li  Li0  1  0.99284182  0.65181562  0.00514151  1
  Li  Li1  1  0.00734604  0.34807719  0.99115409  1
  Li  Li2  1  0.34102621  0.34818438  0.99485849  1
  Li  Li3  1  0.34885077  0.00000000  0.00000000  1
  Li  Li4  1  0.65926885  0.65192281  0.00884591  1
  Li  Li5  1  0.65100230  0.00000000  0.00000000  1
  Fe  Fe6  1  0.33301274  0.66617324  0.49424109  1
  Fe  Fe7  1  0.00006125  0.00000000  0.00000000  1
  Fe  Fe8  1  0.66683950  0.33382676  0.50575891  1
  F  F9  1  0.10557196  0.89756578  0.21857240  1
  F  F10  1  0.12836735  0.56497838  0.25386006  1
  F  F11  1  0.22740875  0.76495938  0.73009928  1
  F  F12  1  0.22794845  0.45527894  0.74460320  1
  F  F13  1  0.10301797  0.20668082  0.21704630  1
  F  F14  1  0.43808819  0.87612198  0.24205855  1
  F  F15  1  0.20800618  0.10243422  0.78142760  1
  F  F16  1  0.53727195  0.76487859  0.72915799  1
  F  F17  1  0.43701279  0.56487364  0.25319206  1
  F  F18  1  0.56338897  0.43502162  0.74613994  1
  F  F19  1  0.46244936  0.23504062  0.26990072  1
  F  F20  1  0.79161102  0.89760985  0.21872707  1
  F  F21  1  0.89633715  0.79331918  0.78295370  1
  F  F22  1  0.77266951  0.54472106  0.25539680  1
  F  F23  1  0.56196622  0.12387802  0.75794145  1
  F  F24  1  0.77239336  0.23512141  0.27084201  1
  F  F25  1  0.87213915  0.43512636  0.74680794  1
  F  F26  1  0.89400117  0.10239015  0.78127293  1
