# generated using pymatgen
data_LiLa7(CuO7)2
_symmetry_space_group_name_H-M   'P 1'
_cell_length_a   11.61559920
_cell_length_b   11.61559920
_cell_length_c   11.87668605
_cell_angle_alpha   65.81788666
_cell_angle_beta   114.18211334
_cell_angle_gamma   111.09523628
_symmetry_Int_Tables_number   1
_chemical_formula_structural   LiLa7(CuO7)2
_chemical_formula_sum   'Li4 La28 Cu8 O56'
_cell_volume   1297.51407177
_cell_formula_units_Z   4
loop_
 _symmetry_equiv_pos_site_id
 _symmetry_equiv_pos_as_xyz
  1  'x, y, z'
loop_
 _atom_site_type_symbol
 _atom_site_label
 _atom_site_symmetry_multiplicity
 _atom_site_fract_x
 _atom_site_fract_y
 _atom_site_fract_z
 _atom_site_occupancy
  Li  Li0  1  0.92858786  0.07141214  0.64346931  1
  Li  Li1  1  0.35712614  0.64287386  0.78510169  1
  Li  Li2  1  0.21429486  0.78570514  0.07183345  1
  Li  Li3  1  0.07141914  0.92858086  0.35673755  1
  La  La4  1  0.71818690  0.00710166  0.78849293  1
  La  La5  1  0.99289834  0.28181310  0.78849293  1
  La  La6  1  0.92841631  0.35203627  0.43233353  1
  La  La7  1  0.20924517  0.06682859  0.85674727  1
  La  La8  1  0.64796373  0.07158369  0.43233353  1
  La  La9  1  0.50881294  0.22309794  0.71428600  1
  La  La10  1  0.77690206  0.49118706  0.71428600  1
  La  La11  1  0.93317141  0.79075483  0.85674727  1
  La  La12  1  0.57669850  0.14245597  0.06603216  1
  La  La13  1  0.42816997  0.29098450  0.36253884  1
  La  La14  1  0.86217931  0.86119872  0.50028067  1
  La  La15  1  0.29281566  0.43247290  0.64007807  1
  La  La16  1  0.14691272  0.57646531  0.92829033  1
  La  La17  1  0.85754403  0.42330150  0.06603216  1
  La  La18  1  0.13880128  0.13782069  0.50028067  1
  La  La19  1  0.70901550  0.57183003  0.36253884  1
  La  La20  1  0.56752710  0.70718434  0.64007807  1
  La  La21  1  0.42353569  0.85308728  0.92829033  1
  La  La22  1  0.79035266  0.93786974  0.13907743  1
  La  La23  1  0.22358374  0.50463866  0.28949457  1
  La  La24  1  0.35254259  0.92353017  0.57182473  1
  La  La25  1  0.49536134  0.77641626  0.28949457  1
  La  La26  1  0.06213026  0.20964734  0.13907743  1
  La  La27  1  0.07646983  0.64745741  0.57182473  1
  La  La28  1  0.35729769  0.36224973  0.99623747  1
  La  La29  1  0.63775027  0.64270231  0.99623747  1
  La  La30  1  0.00311072  0.71739672  0.21428600  1
  La  La31  1  0.28260328  0.99688928  0.21428600  1
  Cu  Cu32  1  0.85734026  0.14265974  0.28626398  1
  Cu  Cu33  1  0.71453216  0.28546784  0.57106538  1
  Cu  Cu34  1  0.57118184  0.42881816  0.85750662  1
  Cu  Cu35  1  0.64285700  0.35714300  0.21428600  1
  Cu  Cu36  1  0.00037350  0.99962650  0.00002585  1
  Cu  Cu37  1  0.42837474  0.57162526  0.14230702  1
  Cu  Cu38  1  0.28534050  0.71465950  0.42854515  1
  Cu  Cu39  1  0.14285700  0.85714300  0.71428600  1
  O  O40  1  0.96484744  0.03515256  0.82532091  1
  O  O41  1  0.89596092  0.10403908  0.96472225  1
  O  O42  1  0.60072299  0.02839736  0.93048089  1
  O  O43  1  0.97160264  0.39927701  0.93048089  1
  O  O44  1  0.96251212  0.03748788  0.32013421  1
  O  O45  1  0.67540551  0.32459449  0.89187921  1
  O  O46  1  0.89210973  0.10789027  0.46144311  1
  O  O47  1  0.81970523  0.18029477  0.60708101  1
  O  O48  1  0.74927005  0.25072995  0.74589922  1
  O  O49  1  0.89837414  0.46989961  0.57020257  1
  O  O50  1  0.53010039  0.10162586  0.57020257  1
  O  O51  1  0.32890387  0.04318987  0.71428600  1
  O  O52  1  0.95681013  0.67109613  0.71428600  1
  O  O53  1  0.38733986  0.24438639  0.85836843  1
  O  O54  1  0.75561361  0.61266014  0.85836843  1
  O  O55  1  0.53644395  0.46355605  0.68267278  1
  O  O56  1  0.39360427  0.60639573  0.96712789  1
  O  O57  1  0.46600877  0.53399123  0.82148999  1
  O  O58  1  0.82223825  0.17776175  0.11212579  1
  O  O59  1  0.67830545  0.32169455  0.39323532  1
  O  O60  1  0.75082261  0.24917739  0.24963340  1
  O  O61  1  0.61030849  0.38969151  0.53669279  1
  O  O62  1  0.10851847  0.25168491  0.64183156  1
  O  O63  1  0.82198029  0.53626529  0.21428600  1
  O  O64  1  0.31411236  0.31500799  0.49809111  1
  O  O65  1  0.89240964  0.74837368  0.35799945  1
  O  O66  1  0.46373471  0.17801971  0.21428600  1
  O  O67  1  0.74831509  0.89148153  0.64183156  1
  O  O68  1  0.68499201  0.68588764  0.49809111  1
  O  O69  1  0.53739891  0.82280447  0.78673944  1
  O  O70  1  0.25162632  0.10759036  0.35799945  1
  O  O71  1  0.17719553  0.46260109  0.78673944  1
  O  O72  1  0.32086656  0.67913344  0.60325109  1
  O  O73  1  0.17765711  0.82234289  0.88866130  1
  O  O74  1  0.53489239  0.46510761  0.17893860  1
  O  O75  1  0.38975308  0.61024692  0.46384875  1
  O  O76  1  0.24737643  0.75262357  0.74861670  1
  O  O77  1  0.60740855  0.39259145  0.03533568  1
  O  O78  1  0.46347575  0.53652425  0.31644521  1
  O  O79  1  0.81495887  0.81493973  0.00001005  1
  O  O80  1  0.10065373  0.52924487  0.42856095  1
  O  O81  1  0.24509250  0.38616348  0.14360834  1
  O  O82  1  0.67187748  0.95937850  0.28496366  1
  O  O83  1  0.18506027  0.18504113  0.00001005  1
  O  O84  1  0.61383652  0.75490750  0.14360834  1
  O  O85  1  0.47075513  0.89934627  0.42856095  1
  O  O86  1  0.04062150  0.32812252  0.28496366  1
  O  O87  1  0.25071912  0.74928088  0.25416485  1
  O  O88  1  0.18018351  0.81981649  0.39272128  1
  O  O89  1  0.03833757  0.96166243  0.67995430  1
  O  O90  1  0.32320288  0.67679712  0.10843779  1
  O  O91  1  0.10805689  0.89194311  0.53991070  1
  O  O92  1  0.39330436  0.96591132  0.07057255  1
  O  O93  1  0.03408868  0.60669564  0.07057255  1
  O  O94  1  0.03499588  0.96500412  0.17440615  1
  O  O95  1  0.10553149  0.89446851  0.03585072  1
