# generated using pymatgen
data_Sn2N2O
_symmetry_space_group_name_H-M   'P 1'
_cell_length_a   6.45457908
_cell_length_b   6.45457730
_cell_length_c   15.80929768
_cell_angle_alpha   90.00086344
_cell_angle_beta   89.99917139
_cell_angle_gamma   119.99977067
_symmetry_Int_Tables_number   1
_chemical_formula_structural   Sn2N2O
_chemical_formula_sum   'Sn16 N16 O8'
_cell_volume   570.40056126
_cell_formula_units_Z   8
loop_
 _symmetry_equiv_pos_site_id
 _symmetry_equiv_pos_as_xyz
  1  'x, y, z'
loop_
 _atom_site_type_symbol
 _atom_site_label
 _atom_site_symmetry_multiplicity
 _atom_site_fract_x
 _atom_site_fract_y
 _atom_site_fract_z
 _atom_site_occupancy
  Sn  Sn0  1  0.16666914  0.83333102  0.95507056  1
  Sn  Sn1  1  0.16668355  0.83331637  0.33137802  1
  Sn  Sn2  1  0.00000000  0.50000000  0.50000000  1
  Sn  Sn3  1  0.33191452  0.66808606  0.16521464  1
  Sn  Sn4  1  0.16381785  0.33191351  0.83477985  1
  Sn  Sn5  1  0.66808633  0.83618271  0.83477958  1
  Sn  Sn6  1  0.49997901  0.50002232  0.62867786  1
  Sn  Sn7  1  0.00000000  0.00000000  0.50000000  1
  Sn  Sn8  1  0.50002099  0.49997768  0.37132214  1
  Sn  Sn9  1  0.50000000  0.50000000  0.00000000  1
  Sn  Sn10  1  0.33191367  0.16381729  0.16522042  1
  Sn  Sn11  1  0.83618215  0.66808649  0.16522015  1
  Sn  Sn12  1  0.66808548  0.33191394  0.83478536  1
  Sn  Sn13  1  0.50000000  0.00000000  0.50000000  1
  Sn  Sn14  1  0.83331645  0.16668363  0.66862198  1
  Sn  Sn15  1  0.83333086  0.16666898  0.04492944  1
  N  N16  1  0.16667089  0.83332725  0.08855940  1
  N  N17  1  0.32151446  0.67848527  0.41762054  1
  N  N18  1  0.34526923  0.65472920  0.91270267  1
  N  N19  1  0.67849017  0.85700243  0.58237994  1
  N  N20  1  0.14299735  0.32150973  0.58237972  1
  N  N21  1  0.19053073  0.34525507  0.08729914  1
  N  N22  1  0.65474565  0.80946876  0.08729890  1
  N  N23  1  0.49999692  0.50000368  0.76138657  1
  N  N24  1  0.50000308  0.49999632  0.23861343  1
  N  N25  1  0.34525435  0.19053124  0.91270110  1
  N  N26  1  0.80946927  0.65474493  0.91270086  1
  N  N27  1  0.32150983  0.14299757  0.41762006  1
  N  N28  1  0.85700265  0.67849027  0.41762028  1
  N  N29  1  0.65473077  0.34527080  0.08729733  1
  N  N30  1  0.67848554  0.32151473  0.58237946  1
  N  N31  1  0.83332911  0.16667275  0.91144060  1
  O  O32  1  0.02320793  0.97679189  0.24249065  1
  O  O33  1  0.16666167  0.83333823  0.56366008  1
  O  O34  1  0.02319279  0.54636716  0.24247993  1
  O  O35  1  0.45363304  0.97680783  0.24248022  1
  O  O36  1  0.54636696  0.02319217  0.75751978  1
  O  O37  1  0.97680721  0.45363284  0.75752007  1
  O  O38  1  0.83333833  0.16666177  0.43633992  1
  O  O39  1  0.97679207  0.02320811  0.75750935  1
