# generated using pymatgen
data_Li5Mn6(BO3)6
_symmetry_space_group_name_H-M   'P 1'
_cell_length_a   8.34151742
_cell_length_b   8.78478724
_cell_length_c   6.34747471
_cell_angle_alpha   68.98383002
_cell_angle_beta   90.00602139
_cell_angle_gamma   61.81253284
_symmetry_Int_Tables_number   1
_chemical_formula_structural   Li5Mn6(BO3)6
_chemical_formula_sum   'Li5 Mn6 B6 O18'
_cell_volume   374.49019855
_cell_formula_units_Z   1
loop_
 _symmetry_equiv_pos_site_id
 _symmetry_equiv_pos_as_xyz
  1  'x, y, z'
loop_
 _atom_site_type_symbol
 _atom_site_label
 _atom_site_symmetry_multiplicity
 _atom_site_fract_x
 _atom_site_fract_y
 _atom_site_fract_z
 _atom_site_occupancy
  Li  Li0  1  0.98882126  0.71482204  0.38888275  1
  Li  Li1  1  0.98208900  0.71408768  0.89970342  1
  Li  Li2  1  0.71594629  0.30473858  0.09200567  1
  Li  Li3  1  0.71352380  0.30257814  0.60359363  1
  Li  Li4  1  0.29312763  0.98191690  0.25196018  1
  Mn  Mn5  1  0.35918595  0.64567658  0.68324746  1
  Mn  Mn6  1  0.36262784  0.63775585  0.18034886  1
  Mn  Mn7  1  0.60598250  0.01626999  0.98921910  1
  Mn  Mn8  1  0.63112195  0.00932137  0.49714314  1
  Mn  Mn9  1  0.01888767  0.34661719  0.82022169  1
  Mn  Mn10  1  0.02408547  0.33504190  0.33542951  1
  B  B11  1  0.98534714  0.00266313  0.00375348  1
  B  B12  1  0.99142834  0.00062324  0.49533524  1
  B  B13  1  0.68204725  0.65895117  0.93070198  1
  B  B14  1  0.67272690  0.66547730  0.41019684  1
  B  B15  1  0.33254455  0.33859589  0.58639129  1
  B  B16  1  0.33596199  0.33200164  0.07583904  1
  O  O17  1  0.89755092  0.89529485  0.05439515  1
  O  O18  1  0.91830307  0.88016396  0.56276718  1
  O  O19  1  0.86285819  0.55923776  0.46741352  1
  O  O20  1  0.87225741  0.54178648  0.98325757  1
  O  O21  1  0.61026244  0.85487587  0.83993091  1
  O  O22  1  0.58264276  0.86532656  0.30128873  1
  O  O23  1  0.87663458  0.19991343  0.89826237  1
  O  O24  1  0.86927394  0.19689081  0.40127966  1
  O  O25  1  0.56325020  0.58783939  0.95875447  1
  O  O26  1  0.56129273  0.58628237  0.45880901  1
  O  O27  1  0.17484770  0.91801240  0.05965891  1
  O  O28  1  0.17912327  0.93030855  0.51617076  1
  O  O29  1  0.53237671  0.21347449  0.11969366  1
  O  O30  1  0.52906134  0.21511904  0.65987165  1
  O  O31  1  0.26299986  0.53135305  0.48673348  1
  O  O32  1  0.26068773  0.52517559  0.99078934  1
  O  O33  1  0.22166007  0.26095252  0.61828113  1
  O  O34  1  0.22951459  0.24718232  0.12050722  1
