# generated using pymatgen
data_Ni6OF11
_symmetry_space_group_name_H-M   'P 1'
_cell_length_a   13.91462365
_cell_length_b   4.73515555
_cell_length_c   3.09575047
_cell_angle_alpha   90.00000000
_cell_angle_beta   90.00000000
_cell_angle_gamma   89.59329167
_symmetry_Int_Tables_number   1
_chemical_formula_structural   Ni6OF11
_chemical_formula_sum   'Ni6 O1 F11'
_cell_volume   203.96738159
_cell_formula_units_Z   1
loop_
 _symmetry_equiv_pos_site_id
 _symmetry_equiv_pos_as_xyz
  1  'x, y, z'
loop_
 _atom_site_type_symbol
 _atom_site_label
 _atom_site_symmetry_multiplicity
 _atom_site_fract_x
 _atom_site_fract_y
 _atom_site_fract_z
 _atom_site_occupancy
  Ni  Ni0  1  0.00456164  0.98804567  0.00000000  1
  Ni  Ni1  1  0.16390415  0.51280992  0.50000000  1
  Ni  Ni2  1  0.33251703  0.00443837  0.00000000  1
  Ni  Ni3  1  0.49999266  0.50075665  0.50000000  1
  Ni  Ni4  1  0.66687405  0.99916529  0.00000000  1
  Ni  Ni5  1  0.83381451  0.49590450  0.50000000  1
  O  O6  1  0.06927159  0.81245490  0.50000000  1
  F  F7  1  0.09721912  0.31699397  0.00000000  1
  F  F8  1  0.23800828  0.68303194  0.00000000  1
  F  F9  1  0.26069957  0.18769663  0.50000000  1
  F  F10  1  0.40298474  0.82027913  0.50000000  1
  F  F11  1  0.42973257  0.31793755  0.00000000  1
  F  F12  1  0.57005074  0.68258958  0.00000000  1
  F  F13  1  0.59633831  0.18174902  0.50000000  1
  F  F14  1  0.73693868  0.81636503  0.50000000  1
  F  F15  1  0.76275689  0.31737394  0.00000000  1
  F  F16  1  0.90270278  0.68242128  0.00000000  1
  F  F17  1  0.93163369  0.17998563  0.50000000  1
