# generated using pymatgen
data_LiMg3(WO4)3
_symmetry_space_group_name_H-M   'P 1'
_cell_length_a   5.23807980
_cell_length_b   10.72290988
_cell_length_c   17.32878550
_cell_angle_alpha   90.00000000
_cell_angle_beta   90.00000000
_cell_angle_gamma   90.00000000
_symmetry_Int_Tables_number   1
_chemical_formula_structural   LiMg3(WO4)3
_chemical_formula_sum   'Li4 Mg12 W12 O48'
_cell_volume   973.31382552
_cell_formula_units_Z   4
loop_
 _symmetry_equiv_pos_site_id
 _symmetry_equiv_pos_as_xyz
  1  'x, y, z'
loop_
 _atom_site_type_symbol
 _atom_site_label
 _atom_site_symmetry_multiplicity
 _atom_site_fract_x
 _atom_site_fract_y
 _atom_site_fract_z
 _atom_site_occupancy
  Li  Li0  1  0.27743885  0.25000000  0.69513666  1
  Li  Li1  1  0.72256115  0.75000000  0.30486334  1
  Li  Li2  1  0.22256115  0.75000000  0.19513666  1
  Li  Li3  1  0.77743885  0.25000000  0.80486334  1
  Mg  Mg4  1  0.10215835  0.25000000  0.25103108  1
  Mg  Mg5  1  0.89784165  0.75000000  0.74896892  1
  Mg  Mg6  1  0.39784165  0.75000000  0.75103108  1
  Mg  Mg7  1  0.60215835  0.25000000  0.24896892  1
  Mg  Mg8  1  0.24205094  0.07038901  0.52761871  1
  Mg  Mg9  1  0.75794906  0.92961099  0.47238129  1
  Mg  Mg10  1  0.25794906  0.92961099  0.02761871  1
  Mg  Mg11  1  0.75794906  0.57038901  0.47238129  1
  Mg  Mg12  1  0.74205094  0.07038901  0.97238129  1
  Mg  Mg13  1  0.24205094  0.42961099  0.52761871  1
  Mg  Mg14  1  0.74205094  0.42961099  0.97238129  1
  Mg  Mg15  1  0.25794906  0.57038901  0.02761871  1
  W  W16  1  0.28269333  0.25000000  0.05494078  1
  W  W17  1  0.71730667  0.75000000  0.94505922  1
  W  W18  1  0.21730667  0.75000000  0.55494078  1
  W  W19  1  0.78269333  0.25000000  0.44505922  1
  W  W20  1  0.27794785  0.53609430  0.33124127  1
  W  W21  1  0.72205215  0.46390570  0.66875873  1
  W  W22  1  0.22205215  0.46390570  0.83124127  1
  W  W23  1  0.72205215  0.03609430  0.66875873  1
  W  W24  1  0.77794785  0.53609430  0.16875873  1
  W  W25  1  0.27794785  0.96390570  0.33124127  1
  W  W26  1  0.77794785  0.96390570  0.16875873  1
  W  W27  1  0.22205215  0.03609430  0.83124127  1
  O  O28  1  0.35464174  0.12282318  0.29336991  1
  O  O29  1  0.64535826  0.87717682  0.70663009  1
  O  O30  1  0.14535826  0.87717682  0.79336991  1
  O  O31  1  0.64535826  0.62282318  0.70663009  1
  O  O32  1  0.85464174  0.12282318  0.20663009  1
  O  O33  1  0.35464174  0.37717682  0.29336991  1
  O  O34  1  0.85464174  0.37717682  0.20663009  1
  O  O35  1  0.14535826  0.62282318  0.79336991  1
  O  O36  1  0.01646195  0.61256733  0.27516652  1
  O  O37  1  0.98353805  0.38743267  0.72483348  1
  O  O38  1  0.48353805  0.38743267  0.77516652  1
  O  O39  1  0.98353805  0.11256733  0.72483348  1
  O  O40  1  0.51646195  0.61256733  0.22483348  1
  O  O41  1  0.01646195  0.88743267  0.27516652  1
  O  O42  1  0.51646195  0.88743267  0.22483348  1
  O  O43  1  0.48353805  0.11256733  0.77516652  1
  O  O44  1  0.06916988  0.25000000  0.50672242  1
  O  O45  1  0.93083012  0.75000000  0.49327758  1
  O  O46  1  0.43083012  0.75000000  0.00672242  1
  O  O47  1  0.56916988  0.25000000  0.99327758  1
  O  O48  1  0.08525497  0.11519377  0.03443212  1
  O  O49  1  0.91474503  0.88480623  0.96556788  1
  O  O50  1  0.41474503  0.88480623  0.53443212  1
  O  O51  1  0.91474503  0.61519377  0.96556788  1
  O  O52  1  0.58525497  0.11519377  0.46556788  1
  O  O53  1  0.08525497  0.38480623  0.03443212  1
  O  O54  1  0.58525497  0.38480623  0.46556788  1
  O  O55  1  0.41474503  0.61519377  0.53443212  1
  O  O56  1  0.35330696  0.25000000  0.15731734  1
  O  O57  1  0.64669304  0.75000000  0.84268266  1
  O  O58  1  0.14669304  0.75000000  0.65731734  1
  O  O59  1  0.85330696  0.25000000  0.34268266  1
  O  O60  1  0.08436330  0.00603044  0.42187156  1
  O  O61  1  0.91563670  0.99396956  0.57812844  1
  O  O62  1  0.41563670  0.99396956  0.92187156  1
  O  O63  1  0.91563670  0.50603044  0.57812844  1
  O  O64  1  0.58436330  0.00603044  0.07812844  1
  O  O65  1  0.08436330  0.49396956  0.42187156  1
  O  O66  1  0.58436330  0.49396956  0.07812844  1
  O  O67  1  0.41563670  0.50603044  0.92187156  1
  O  O68  1  0.04648094  0.61644203  0.12127028  1
  O  O69  1  0.95351906  0.38355797  0.87872972  1
  O  O70  1  0.45351906  0.38355797  0.62127028  1
  O  O71  1  0.95351906  0.11644203  0.87872972  1
  O  O72  1  0.54648094  0.61644203  0.37872972  1
  O  O73  1  0.04648094  0.88355797  0.12127028  1
  O  O74  1  0.54648094  0.88355797  0.37872972  1
  O  O75  1  0.45351906  0.11644203  0.62127028  1
