# generated using pymatgen
data_Na3CoO3
_symmetry_space_group_name_H-M   'P 1'
_cell_length_a   6.89606517
_cell_length_b   9.63011726
_cell_length_c   6.44379940
_cell_angle_alpha   90.00000000
_cell_angle_beta   116.15701456
_cell_angle_gamma   90.00000000
_symmetry_Int_Tables_number   1
_chemical_formula_structural   Na3CoO3
_chemical_formula_sum   'Na12 Co4 O12'
_cell_volume   384.10736584
_cell_formula_units_Z   4
loop_
 _symmetry_equiv_pos_site_id
 _symmetry_equiv_pos_as_xyz
  1  'x, y, z'
loop_
 _atom_site_type_symbol
 _atom_site_label
 _atom_site_symmetry_multiplicity
 _atom_site_fract_x
 _atom_site_fract_y
 _atom_site_fract_z
 _atom_site_occupancy
  Na  Na0  1  0.99129248  0.78993267  0.96405659  1
  Na  Na1  1  0.99129248  0.71006733  0.46405659  1
  Na  Na2  1  0.23833340  0.94213949  0.75060834  1
  Na  Na3  1  0.46387811  0.21922621  0.79083467  1
  Na  Na4  1  0.23833340  0.55786051  0.25060834  1
  Na  Na5  1  0.53612189  0.71922621  0.70916533  1
  Na  Na6  1  0.46387811  0.28077379  0.29083467  1
  Na  Na7  1  0.76166660  0.44213949  0.74939166  1
  Na  Na8  1  0.53612189  0.78077379  0.20916533  1
  Na  Na9  1  0.76166660  0.05786051  0.24939166  1
  Na  Na10  1  0.00870752  0.28993267  0.53594341  1
  Na  Na11  1  0.00870752  0.21006733  0.03594341  1
  Co  Co12  1  0.27045279  0.51335011  0.81787165  1
  Co  Co13  1  0.27045279  0.98664989  0.31787165  1
  Co  Co14  1  0.72954721  0.01335011  0.68212835  1
  Co  Co15  1  0.72954721  0.48664989  0.18212835  1
  O  O16  1  0.17264597  0.39028541  0.95367368  1
  O  O17  1  0.26055537  0.69596611  0.86107843  1
  O  O18  1  0.17264597  0.10971459  0.45367368  1
  O  O19  1  0.33515671  0.44574316  0.60031928  1
  O  O20  1  0.26055537  0.80403389  0.36107843  1
  O  O21  1  0.66484329  0.94574316  0.89968072  1
  O  O22  1  0.33515671  0.05425684  0.10031928  1
  O  O23  1  0.73944463  0.19596611  0.63892157  1
  O  O24  1  0.66484329  0.55425684  0.39968072  1
  O  O25  1  0.82735403  0.89028541  0.54632632  1
  O  O26  1  0.73944463  0.30403389  0.13892157  1
  O  O27  1  0.82735403  0.60971459  0.04632632  1
