# generated using pymatgen
data_Li6WO6
_symmetry_space_group_name_H-M   'P 1'
_cell_length_a   5.80008445
_cell_length_b   5.69379842
_cell_length_c   5.79048879
_cell_angle_alpha   120.55447098
_cell_angle_beta   120.09856929
_cell_angle_gamma   59.38187372
_symmetry_Int_Tables_number   1
_chemical_formula_structural   Li6WO6
_chemical_formula_sum   'Li6 W1 O6'
_cell_volume   133.90956315
_cell_formula_units_Z   1
loop_
 _symmetry_equiv_pos_site_id
 _symmetry_equiv_pos_as_xyz
  1  'x, y, z'
loop_
 _atom_site_type_symbol
 _atom_site_label
 _atom_site_symmetry_multiplicity
 _atom_site_fract_x
 _atom_site_fract_y
 _atom_site_fract_z
 _atom_site_occupancy
  Li  Li0  1  0.28031881  0.31537552  0.51226527  1
  Li  Li1  1  0.08529276  0.68355766  0.28019189  1
  Li  Li2  1  0.50975211  0.68570594  0.91359129  1
  Li  Li3  1  0.49024789  0.31429406  0.08640871  1
  Li  Li4  1  0.91470724  0.31644234  0.71980811  1
  Li  Li5  1  0.71968119  0.68462448  0.48773473  1
  W  W6  1  0.00000000  0.00000000  0.00000000  1
  O  O7  1  0.09737172  0.75478110  0.64936897  1
  O  O8  1  0.20383460  0.24492501  0.09921937  1
  O  O9  1  0.65026756  0.24714727  0.79781542  1
  O  O10  1  0.34973244  0.75285273  0.20218458  1
  O  O11  1  0.79616540  0.75507499  0.90078063  1
  O  O12  1  0.90262828  0.24521890  0.35063103  1
