# generated using pymatgen
data_Li2Fe2OF6
_symmetry_space_group_name_H-M   'P 1'
_cell_length_a   7.28996828
_cell_length_b   5.69348793
_cell_length_c   7.05750375
_cell_angle_alpha   76.74128137
_cell_angle_beta   115.73990798
_cell_angle_gamma   109.41713923
_symmetry_Int_Tables_number   1
_chemical_formula_structural   Li2Fe2OF6
_chemical_formula_sum   'Li4 Fe4 O2 F12'
_cell_volume   247.60331173
_cell_formula_units_Z   2
loop_
 _symmetry_equiv_pos_site_id
 _symmetry_equiv_pos_as_xyz
  1  'x, y, z'
loop_
 _atom_site_type_symbol
 _atom_site_label
 _atom_site_symmetry_multiplicity
 _atom_site_fract_x
 _atom_site_fract_y
 _atom_site_fract_z
 _atom_site_occupancy
  Li  Li0  1  0.77185597  0.32295103  0.38817928  1
  Li  Li1  1  0.91688711  0.78764091  0.13261802  1
  Li  Li2  1  0.08311289  0.21235909  0.86738198  1
  Li  Li3  1  0.22814403  0.67704897  0.61182072  1
  Fe  Fe4  1  0.58545218  0.24046530  0.86722817  1
  Fe  Fe5  1  0.27364802  0.32304602  0.41643571  1
  Fe  Fe6  1  0.72635198  0.67695398  0.58356429  1
  Fe  Fe7  1  0.41454782  0.75953470  0.13277183  1
  O  O8  1  0.51505906  0.48674161  0.32531708  1
  O  O9  1  0.48494094  0.51325839  0.67468292  1
  F  F10  1  0.37759325  0.03576294  0.61057692  1
  F  F11  1  0.76812261  0.41932517  0.10705600  1
  F  F12  1  0.09318283  0.14081469  0.17493349  1
  F  F13  1  0.80035118  0.33389450  0.73757062  1
  F  F14  1  0.35557042  0.09292985  0.97960769  1
  F  F15  1  0.06826257  0.29162243  0.53839623  1
  F  F16  1  0.93173743  0.70837757  0.46160377  1
  F  F17  1  0.64442958  0.90707015  0.02039231  1
  F  F18  1  0.19964882  0.66610550  0.26242938  1
  F  F19  1  0.90681717  0.85918531  0.82506651  1
  F  F20  1  0.23187739  0.58067483  0.89294400  1
  F  F21  1  0.62240675  0.96423706  0.38942308  1
