# generated using pymatgen
data_Ge2N2O
_symmetry_space_group_name_H-M   'P 1'
_cell_length_a   5.41171852
_cell_length_b   5.67128542
_cell_length_c   5.97426716
_cell_angle_alpha   62.21404745
_cell_angle_beta   90.00000000
_cell_angle_gamma   61.50280233
_symmetry_Int_Tables_number   1
_chemical_formula_structural   Ge2N2O
_chemical_formula_sum   'Ge4 N4 O2'
_cell_volume   136.60479694
_cell_formula_units_Z   2
loop_
 _symmetry_equiv_pos_site_id
 _symmetry_equiv_pos_as_xyz
  1  'x, y, z'
loop_
 _atom_site_type_symbol
 _atom_site_label
 _atom_site_symmetry_multiplicity
 _atom_site_fract_x
 _atom_site_fract_y
 _atom_site_fract_z
 _atom_site_occupancy
  Ge  Ge0  1  0.62296884  0.92524614  0.63281626  1
  Ge  Ge1  1  0.45178502  0.92524614  0.13281626  1
  Ge  Ge2  1  0.28672302  0.57708617  0.62390044  1
  Ge  Ge3  1  0.13619081  0.57708617  0.12390044  1
  N  N4  1  0.52327397  0.73518142  0.49846029  1
  N  N5  1  0.74154461  0.73518142  0.99846029  1
  N  N6  1  0.30681175  0.33959315  0.48406942  1
  N  N7  1  0.35359510  0.33959315  0.98406942  1
  O  O8  1  0.92631074  0.92309312  0.51075359  1
  O  O9  1  0.15059614  0.92309312  0.01075359  1
