# generated using pymatgen
data_Li3Cu2(SO4)3
_symmetry_space_group_name_H-M   'P 1'
_cell_length_a   8.67724969
_cell_length_b   12.39155562
_cell_length_c   8.86443334
_cell_angle_alpha   90.00000000
_cell_angle_beta   90.00000000
_cell_angle_gamma   93.01162939
_symmetry_Int_Tables_number   1
_chemical_formula_structural   Li3Cu2(SO4)3
_chemical_formula_sum   'Li12 Cu8 S12 O48'
_cell_volume   951.82844932
_cell_formula_units_Z   4
loop_
 _symmetry_equiv_pos_site_id
 _symmetry_equiv_pos_as_xyz
  1  'x, y, z'
loop_
 _atom_site_type_symbol
 _atom_site_label
 _atom_site_symmetry_multiplicity
 _atom_site_fract_x
 _atom_site_fract_y
 _atom_site_fract_z
 _atom_site_occupancy
  Li  Li0  1  0.08560624  0.68999897  0.07356606  1
  Li  Li1  1  0.04478718  0.34615106  0.51493112  1
  Li  Li2  1  0.18094146  0.17344245  0.77611164  1
  Li  Li3  1  0.31905854  0.32655755  0.27611164  1
  Li  Li4  1  0.41439376  0.81000103  0.57356606  1
  Li  Li5  1  0.45521282  0.15384894  0.01493112  1
  Li  Li6  1  0.54478718  0.84615106  0.98506888  1
  Li  Li7  1  0.58560624  0.18999897  0.42643394  1
  Li  Li8  1  0.68094146  0.67344245  0.72388836  1
  Li  Li9  1  0.81905854  0.82655755  0.22388836  1
  Li  Li10  1  0.95521282  0.65384894  0.48506888  1
  Li  Li11  1  0.91439376  0.31000103  0.92643394  1
  Cu  Cu12  1  0.23054279  0.91402136  0.03894448  1
  Cu  Cu13  1  0.26945721  0.58597864  0.53894448  1
  Cu  Cu14  1  0.25452729  0.39811783  0.95639821  1
  Cu  Cu15  1  0.24547271  0.10188217  0.45639821  1
  Cu  Cu16  1  0.75452729  0.89811783  0.54360179  1
  Cu  Cu17  1  0.74547271  0.60188217  0.04360179  1
  Cu  Cu18  1  0.73054279  0.41402136  0.46105552  1
  Cu  Cu19  1  0.76945721  0.08597864  0.96105552  1
  S  S20  1  0.06536419  0.49473010  0.25379960  1
  S  S21  1  0.11662332  0.85132230  0.36977221  1
  S  S22  1  0.12013688  0.16025436  0.10478983  1
  S  S23  1  0.38337668  0.64867770  0.86977221  1
  S  S24  1  0.37986312  0.33974564  0.60478983  1
  S  S25  1  0.43463581  0.00526990  0.75379960  1
  S  S26  1  0.56536419  0.99473010  0.24620040  1
  S  S27  1  0.62013688  0.66025436  0.39521017  1
  S  S28  1  0.61662332  0.35132230  0.13022779  1
  S  S29  1  0.87986312  0.83974564  0.89521017  1
  S  S30  1  0.88337668  0.14867770  0.63022779  1
  S  S31  1  0.93463581  0.50526990  0.74620040  1
  O  O32  1  0.01909906  0.44566838  0.86188822  1
  O  O33  1  0.03182738  0.89689760  0.88893453  1
  O  O34  1  0.03416531  0.59249754  0.67614641  1
  O  O35  1  0.04242395  0.19653938  0.59139161  1
  O  O36  1  0.11515969  0.57785074  0.37094943  1
  O  O37  1  0.13324628  0.82612279  0.20281205  1
  O  O38  1  0.12219059  0.96896852  0.39033949  1
  O  O39  1  0.11543049  0.25393561  0.99339569  1
  O  O40  1  0.17026860  0.20123045  0.25582828  1
  O  O41  1  0.20586910  0.44769271  0.18840865  1
  O  O42  1  0.23188463  0.79714379  0.45981621  1
  O  O43  1  0.26811537  0.70285621  0.95981621  1
  O  O44  1  0.24139389  0.08986577  0.04221754  1
  O  O45  1  0.25860611  0.41013423  0.54221754  1
  O  O46  1  0.29413090  0.05230729  0.68840865  1
  O  O47  1  0.32973140  0.29876955  0.75582828  1
  O  O48  1  0.37780941  0.53103148  0.89033949  1
  O  O49  1  0.38456951  0.24606439  0.49339569  1
  O  O50  1  0.36675372  0.67387721  0.70281205  1
  O  O51  1  0.38484031  0.92214926  0.87094943  1
  O  O52  1  0.46583469  0.90750246  0.17614641  1
  O  O53  1  0.46817262  0.60310240  0.38893453  1
  O  O54  1  0.45757605  0.30346062  0.09139161  1
  O  O55  1  0.48090094  0.05433162  0.36188822  1
  O  O56  1  0.51909906  0.94566838  0.63811178  1
  O  O57  1  0.54242395  0.69653938  0.90860839  1
  O  O58  1  0.53182738  0.39689760  0.61106547  1
  O  O59  1  0.53416531  0.09249754  0.82385359  1
  O  O60  1  0.61515969  0.07785074  0.12905057  1
  O  O61  1  0.63324628  0.32612279  0.29718795  1
  O  O62  1  0.61543049  0.75393561  0.50660431  1
  O  O63  1  0.62219059  0.46896852  0.10966051  1
  O  O64  1  0.67026860  0.70123045  0.24417172  1
  O  O65  1  0.70586910  0.94769271  0.31159135  1
  O  O66  1  0.74139389  0.58986577  0.45778246  1
  O  O67  1  0.75860611  0.91013423  0.95778246  1
  O  O68  1  0.73188463  0.29714379  0.04018379  1
  O  O69  1  0.76811537  0.20285621  0.54018379  1
  O  O70  1  0.79413090  0.55230729  0.81159135  1
  O  O71  1  0.82973140  0.79876955  0.74417172  1
  O  O72  1  0.88456951  0.74606439  0.00660431  1
  O  O73  1  0.87780941  0.03103148  0.60966051  1
  O  O74  1  0.86675372  0.17387721  0.79718795  1
  O  O75  1  0.88484031  0.42214926  0.62905057  1
  O  O76  1  0.95757605  0.80346062  0.40860839  1
  O  O77  1  0.96583469  0.40750246  0.32385359  1
  O  O78  1  0.96817262  0.10310240  0.11106547  1
  O  O79  1  0.98090094  0.55433162  0.13811178  1
