# generated using pymatgen
data_Li3VF6
_symmetry_space_group_name_H-M   'P 1'
_cell_length_a   5.15527972
_cell_length_b   5.15310961
_cell_length_c   9.70422681
_cell_angle_alpha   89.91140519
_cell_angle_beta   90.07309969
_cell_angle_gamma   120.07896024
_symmetry_Int_Tables_number   1
_chemical_formula_structural   Li3VF6
_chemical_formula_sum   'Li6 V2 F12'
_cell_volume   223.08300903
_cell_formula_units_Z   2
loop_
 _symmetry_equiv_pos_site_id
 _symmetry_equiv_pos_as_xyz
  1  'x, y, z'
loop_
 _atom_site_type_symbol
 _atom_site_label
 _atom_site_symmetry_multiplicity
 _atom_site_fract_x
 _atom_site_fract_y
 _atom_site_fract_z
 _atom_site_occupancy
  Li  Li0  1  0.33388972  0.66567448  0.94704609  1
  Li  Li1  1  0.99966475  0.99996730  0.25000662  1
  Li  Li2  1  -0.00000949  0.00161022  0.74999628  1
  Li  Li3  1  0.33324401  0.66716749  0.55283677  1
  Li  Li4  1  0.66536508  0.33324269  0.05292555  1
  Li  Li5  1  0.66796254  0.33323771  0.44704480  1
  V  V6  1  0.33338558  0.66631938  0.25022051  1
  V  V7  1  0.66700597  0.33347041  0.75004236  1
  F  F8  1  0.02841286  0.67243366  0.36910641  1
  F  F9  1  0.32753155  0.97562621  0.13164915  1
  F  F10  1  0.02691883  0.35457497  0.13048281  1
  F  F11  1  0.32816667  0.35243667  0.36832281  1
  F  F12  1  0.64520251  0.97260943  0.36977981  1
  F  F13  1  0.35506071  0.32671837  0.86922759  1
  F  F14  1  0.64367594  0.67204094  0.13059837  1
  F  F15  1  0.35208026  0.02443952  0.63164405  1
  F  F16  1  0.67273526  0.64499791  0.63066269  1
  F  F17  1  0.97530464  0.64727599  0.86863144  1
  F  F18  1  0.67192320  0.02738713  0.86944776  1
  F  F19  1  0.97228043  0.32877151  0.63032814  1
