# generated using pymatgen
data_LiMnF3
_symmetry_space_group_name_H-M   'P 1'
_cell_length_a   5.45321992
_cell_length_b   7.72458770
_cell_length_c   5.12361679
_cell_angle_alpha   90.00000000
_cell_angle_beta   90.00000000
_cell_angle_gamma   90.00000000
_symmetry_Int_Tables_number   1
_chemical_formula_structural   LiMnF3
_chemical_formula_sum   'Li4 Mn4 F12'
_cell_volume   215.82659587
_cell_formula_units_Z   4
loop_
 _symmetry_equiv_pos_site_id
 _symmetry_equiv_pos_as_xyz
  1  'x, y, z'
loop_
 _atom_site_type_symbol
 _atom_site_label
 _atom_site_symmetry_multiplicity
 _atom_site_fract_x
 _atom_site_fract_y
 _atom_site_fract_z
 _atom_site_occupancy
  Li  Li0  1  0.00000000  0.00000000  0.50000000  1
  Li  Li1  1  0.00000000  0.50000000  0.50000000  1
  Li  Li2  1  0.50000000  0.50000000  0.00000000  1
  Li  Li3  1  0.50000000  0.00000000  0.00000000  1
  Mn  Mn4  1  0.07815726  0.25000000  0.96936592  1
  Mn  Mn5  1  0.42184274  0.75000000  0.46936592  1
  Mn  Mn6  1  0.57815726  0.25000000  0.53063408  1
  Mn  Mn7  1  0.92184274  0.75000000  0.03063408  1
  F  F8  1  0.06609868  0.75000000  0.64273334  1
  F  F9  1  0.18680371  0.92573267  0.18691377  1
  F  F10  1  0.18680371  0.57426733  0.18691377  1
  F  F11  1  0.31319629  0.07426733  0.68691377  1
  F  F12  1  0.31319629  0.42573267  0.68691377  1
  F  F13  1  0.43390132  0.25000000  0.14273334  1
  F  F14  1  0.56609868  0.75000000  0.85726666  1
  F  F15  1  0.68680371  0.92573267  0.31308623  1
  F  F16  1  0.68680371  0.57426733  0.31308623  1
  F  F17  1  0.81319629  0.07426733  0.81308623  1
  F  F18  1  0.81319629  0.42573267  0.81308623  1
  F  F19  1  0.93390132  0.25000000  0.35726666  1
