# generated using pymatgen
data_LiMnF3
_symmetry_space_group_name_H-M   'P 1'
_cell_length_a   19.71679985
_cell_length_b   9.31454483
_cell_length_c   5.73988611
_cell_angle_alpha   90.00000000
_cell_angle_beta   90.00000000
_cell_angle_gamma   90.00000000
_symmetry_Int_Tables_number   1
_chemical_formula_structural   LiMnF3
_chemical_formula_sum   'Li16 Mn16 F48'
_cell_volume   1054.14739621
_cell_formula_units_Z   16
loop_
 _symmetry_equiv_pos_site_id
 _symmetry_equiv_pos_as_xyz
  1  'x, y, z'
loop_
 _atom_site_type_symbol
 _atom_site_label
 _atom_site_symmetry_multiplicity
 _atom_site_fract_x
 _atom_site_fract_y
 _atom_site_fract_z
 _atom_site_occupancy
  Li  Li0  1  0.03112979  0.66677275  0.33132932  1
  Li  Li1  1  0.03112979  0.83322725  0.83132932  1
  Li  Li2  1  0.22688393  0.66482573  0.54470177  1
  Li  Li3  1  0.22688393  0.83517427  0.04470177  1
  Li  Li4  1  0.27311607  0.16482573  0.54470177  1
  Li  Li5  1  0.27311607  0.33517427  0.04470177  1
  Li  Li6  1  0.46887021  0.16677275  0.33132932  1
  Li  Li7  1  0.46887021  0.33322725  0.83132932  1
  Li  Li8  1  0.53112979  0.66677275  0.16867068  1
  Li  Li9  1  0.53112979  0.83322725  0.66867068  1
  Li  Li10  1  0.72688393  0.66482573  0.95529823  1
  Li  Li11  1  0.72688393  0.83517427  0.45529823  1
  Li  Li12  1  0.77311607  0.16482573  0.95529823  1
  Li  Li13  1  0.77311607  0.33517427  0.45529823  1
  Li  Li14  1  0.96887021  0.16677275  0.16867068  1
  Li  Li15  1  0.96887021  0.33322725  0.66867068  1
  Mn  Mn16  1  0.12050444  0.96261689  0.33786668  1
  Mn  Mn17  1  0.12050444  0.53738311  0.83786668  1
  Mn  Mn18  1  0.12177384  0.34457734  0.34251786  1
  Mn  Mn19  1  0.12177384  0.15542266  0.84251786  1
  Mn  Mn20  1  0.37822616  0.65542266  0.84251786  1
  Mn  Mn21  1  0.37822616  0.84457734  0.34251786  1
  Mn  Mn22  1  0.37949556  0.03738311  0.83786668  1
  Mn  Mn23  1  0.37949556  0.46261689  0.33786668  1
  Mn  Mn24  1  0.62050444  0.53738311  0.66213332  1
  Mn  Mn25  1  0.62050444  0.96261689  0.16213332  1
  Mn  Mn26  1  0.62177384  0.15542266  0.65748214  1
  Mn  Mn27  1  0.62177384  0.34457734  0.15748214  1
  Mn  Mn28  1  0.87822616  0.65542266  0.65748214  1
  Mn  Mn29  1  0.87822616  0.84457734  0.15748214  1
  Mn  Mn30  1  0.87949556  0.03738311  0.66213332  1
  Mn  Mn31  1  0.87949556  0.46261689  0.16213332  1
  F  F32  1  0.05156837  0.66587714  0.65533788  1
  F  F33  1  0.05156837  0.83412286  0.15533788  1
  F  F34  1  0.06795719  0.16472657  0.18105355  1
  F  F35  1  0.06795719  0.33527343  0.68105355  1
  F  F36  1  0.07234329  0.51377140  0.16453397  1
  F  F37  1  0.07234329  0.98622860  0.66453397  1
  F  F38  1  0.17502421  0.15908996  0.50999239  1
  F  F39  1  0.17502421  0.34091004  0.00999239  1
  F  F40  1  0.18040932  0.01468437  0.03245530  1
  F  F41  1  0.18040932  0.48531563  0.53245630  1
  F  F42  1  0.19408422  0.80594921  0.35296429  1
  F  F43  1  0.19408422  0.69405079  0.85296429  1
  F  F44  1  0.30591578  0.19405079  0.85296429  1
  F  F45  1  0.30591578  0.30594921  0.35296429  1
  F  F46  1  0.31959068  0.51468437  0.03245530  1
  F  F47  1  0.31959068  0.98531563  0.53245630  1
  F  F48  1  0.32497579  0.65908996  0.50999239  1
  F  F49  1  0.32497579  0.84091004  0.00999239  1
  F  F50  1  0.42765671  0.01377140  0.16453397  1
  F  F51  1  0.42765671  0.48622860  0.66453397  1
  F  F52  1  0.43204281  0.66472657  0.18105355  1
  F  F53  1  0.43204281  0.83527343  0.68105355  1
  F  F54  1  0.44843163  0.16587714  0.65533788  1
  F  F55  1  0.44843163  0.33412286  0.15533788  1
  F  F56  1  0.55156837  0.66587714  0.84466212  1
  F  F57  1  0.55156837  0.83412286  0.34466212  1
  F  F58  1  0.56795719  0.16472657  0.31894645  1
  F  F59  1  0.56795719  0.33527343  0.81894645  1
  F  F60  1  0.57234329  0.51377140  0.33546603  1
  F  F61  1  0.57234329  0.98622860  0.83546603  1
  F  F62  1  0.67502421  0.15908996  0.99000761  1
  F  F63  1  0.67502421  0.34091004  0.49000761  1
  F  F64  1  0.68040932  0.01468437  0.46754470  1
  F  F65  1  0.68040932  0.48531563  0.96754370  1
  F  F66  1  0.69408422  0.69405079  0.64703571  1
  F  F67  1  0.69408422  0.80594921  0.14703571  1
  F  F68  1  0.80591578  0.19405079  0.64703571  1
  F  F69  1  0.80591578  0.30594921  0.14703571  1
  F  F70  1  0.81959068  0.51468437  0.46754470  1
  F  F71  1  0.81959068  0.98531563  0.96754370  1
  F  F72  1  0.82497579  0.65908996  0.99000761  1
  F  F73  1  0.82497579  0.84091004  0.49000761  1
  F  F74  1  0.92765671  0.01377140  0.33546603  1
  F  F75  1  0.92765671  0.48622860  0.83546603  1
  F  F76  1  0.93204281  0.66472657  0.31894645  1
  F  F77  1  0.93204281  0.83527343  0.81894645  1
  F  F78  1  0.94843163  0.16587714  0.84466212  1
  F  F79  1  0.94843163  0.33412286  0.34466212  1
