# generated using pymatgen
data_Li4Cr3Co3(SnO8)2
_symmetry_space_group_name_H-M   'P 1'
_cell_length_a   5.85325636
_cell_length_b   5.85952765
_cell_length_c   9.63616924
_cell_angle_alpha   89.91295669
_cell_angle_beta   89.24799410
_cell_angle_gamma   119.68701560
_symmetry_Int_Tables_number   1
_chemical_formula_structural   Li4Cr3Co3(SnO8)2
_chemical_formula_sum   'Li4 Cr3 Co3 Sn2 O16'
_cell_volume   287.07829803
_cell_formula_units_Z   1
loop_
 _symmetry_equiv_pos_site_id
 _symmetry_equiv_pos_as_xyz
  1  'x, y, z'
loop_
 _atom_site_type_symbol
 _atom_site_label
 _atom_site_symmetry_multiplicity
 _atom_site_fract_x
 _atom_site_fract_y
 _atom_site_fract_z
 _atom_site_occupancy
  Li  Li0  1  0.33964754  0.66726306  0.89100194  1
  Li  Li1  1  0.98969501  0.99641879  0.99449496  1
  Li  Li2  1  0.99429895  0.99530477  0.49511451  1
  Li  Li3  1  0.66751097  0.33438915  0.39333850  1
  Cr  Cr4  1  0.16767845  0.82393122  0.21748752  1
  Cr  Cr5  1  0.16813355  0.33967798  0.21455332  1
  Cr  Cr6  1  0.33876632  0.16817802  0.71524743  1
  Co  Co7  1  0.65947506  0.83093577  0.21481328  1
  Co  Co8  1  0.83100314  0.66039353  0.71522654  1
  Co  Co9  1  0.82902061  0.16863508  0.71503825  1
  Sn  Sn10  1  0.33606640  0.66990303  0.49493910  1
  Sn  Sn11  1  0.66827545  0.33580242  0.99127619  1
  O  O12  1  0.15488637  0.83995668  0.60017629  1
  O  O13  1  0.03192977  0.52571160  0.33843328  1
  O  O14  1  0.33937751  0.68024985  0.10796174  1
  O  O15  1  0.99335887  0.98828964  0.30624549  1
  O  O16  1  0.98379794  0.99504549  0.80735378  1
  O  O17  1  0.14969615  0.31458110  0.60195968  1
  O  O18  1  0.48633663  0.96782749  0.33460541  1
  O  O19  1  0.48883193  0.52353706  0.33668723  1
  O  O20  1  0.31551278  0.15135943  0.09977000  1
  O  O21  1  0.68406165  0.84480322  0.60698376  1
  O  O22  1  0.52386613  0.48807501  0.83665356  1
  O  O23  1  0.52904326  0.03229431  0.83433906  1
  O  O24  1  0.68353332  0.33827635  0.61240648  1
  O  O25  1  0.84127513  0.68075417  0.10277321  1
  O  O26  1  0.96779137  0.48115139  0.82756663  1
  O  O27  1  0.83712771  0.15755337  0.10139286  1
