# generated using pymatgen
data_Li3Mn4(BO3)4
_symmetry_space_group_name_H-M   'P 1'
_cell_length_a   9.08460090
_cell_length_b   9.11669100
_cell_length_c   10.42094638
_cell_angle_alpha   89.75761897
_cell_angle_beta   91.58470806
_cell_angle_gamma   60.06349492
_symmetry_Int_Tables_number   1
_chemical_formula_structural   Li3Mn4(BO3)4
_chemical_formula_sum   'Li9 Mn12 B12 O36'
_cell_volume   747.47755004
_cell_formula_units_Z   3
loop_
 _symmetry_equiv_pos_site_id
 _symmetry_equiv_pos_as_xyz
  1  'x, y, z'
loop_
 _atom_site_type_symbol
 _atom_site_label
 _atom_site_symmetry_multiplicity
 _atom_site_fract_x
 _atom_site_fract_y
 _atom_site_fract_z
 _atom_site_occupancy
  Li  Li0  1  0.22531674  0.38866281  0.88964663  1
  Li  Li1  1  0.43749088  0.28560871  0.66759375  1
  Li  Li2  1  0.10527245  0.95451498  0.16914086  1
  Li  Li3  1  0.44203553  0.30393629  0.15062778  1
  Li  Li4  1  0.88857914  0.04505492  0.92176631  1
  Li  Li5  1  0.56666110  0.71644901  0.41866496  1
  Li  Li6  1  0.90230542  0.03428385  0.41812985  1
  Li  Li7  1  0.76429158  0.59505523  0.67118976  1
  Li  Li8  1  0.77898248  0.62181852  0.16950250  1
  Mn  Mn9  1  0.22543368  0.03370191  0.87998951  1
  Mn  Mn10  1  0.12241021  0.27686504  0.13179625  1
  Mn  Mn11  1  0.08423686  0.63943569  0.63003171  1
  Mn  Mn12  1  0.52574490  0.08422604  0.37706146  1
  Mn  Mn13  1  0.24099494  0.69460495  0.37912581  1
  Mn  Mn14  1  0.57549037  0.40586744  0.87831354  1
  Mn  Mn15  1  0.44068787  0.63262902  0.12289087  1
  Mn  Mn16  1  0.42503998  0.95792236  0.63255089  1
  Mn  Mn17  1  0.80589089  0.24736708  0.63195482  1
  Mn  Mn18  1  0.91056762  0.38690862  0.38703870  1
  Mn  Mn19  1  0.86366989  0.71621243  0.88900969  1
  Mn  Mn20  1  0.76205815  0.95436051  0.13522367  1
  B  B21  1  0.22234787  0.04818721  0.38180057  1
  B  B22  1  0.11144383  0.28921730  0.63371520  1
  B  B23  1  0.11208430  0.61334743  0.12130926  1
  B  B24  1  0.20478059  0.71472788  0.87200923  1
  B  B25  1  0.55191214  0.06474182  0.86541569  1
  B  B26  1  0.45347047  0.59963635  0.63130236  1
  B  B27  1  0.57675517  0.39245655  0.36619564  1
  B  B28  1  0.44134051  0.95156778  0.12675226  1
  B  B29  1  0.78639555  0.28374480  0.11866769  1
  B  B30  1  0.89788621  0.36920507  0.87526631  1
  B  B31  1  0.76763429  0.93880639  0.62154621  1
  B  B32  1  0.87287433  0.74278454  0.38409367  1
  O  O33  1  0.06638227  0.29317753  0.91518458  1
  O  O34  1  0.18198670  0.11535876  0.66233032  1
  O  O35  1  0.15947872  0.21372128  0.34058698  1
  O  O36  1  0.26973535  0.01652804  0.09099598  1
  O  O37  1  0.03517470  0.67273143  0.44399189  1
  O  O38  1  0.20033627  0.37223969  0.64067759  1
  O  O39  1  0.12430346  0.62768699  0.82085397  1
  O  O40  1  0.21013007  0.44455240  0.09408407  1
  O  O41  1  0.18524139  0.70461947  0.17304296  1
  O  O42  1  0.11639802  0.88443856  0.88463027  1
  O  O43  1  0.49622512  0.06458079  0.16420992  1
  O  O44  1  0.47002615  0.23781851  0.85775415  1
  O  O45  1  0.59262739  0.03990740  0.59298043  1
  O  O46  1  0.13779176  0.96083790  0.36235910  1
  O  O47  1  0.28999413  0.65431199  0.58526297  1
  O  O48  1  0.48297707  0.31766427  0.33517790  1
  O  O49  1  0.37384362  0.62067578  0.91605194  1
  O  O50  1  0.54497461  0.43459636  0.68784386  1
  O  O51  1  0.50452059  0.56616181  0.33634169  1
  O  O52  1  0.61432745  0.37516528  0.06942597  1
  O  O53  1  0.39018806  0.96565126  0.43998464  1
  O  O54  1  0.87490694  0.00057609  0.60773245  1
  O  O55  1  0.53079395  0.69431166  0.61590891  1
  O  O56  1  0.73937422  0.30036982  0.42358246  1
  O  O57  1  0.55102956  0.78165204  0.12604021  1
  O  O58  1  0.47274965  0.97281668  0.81868389  1
  O  O59  1  0.87111825  0.10997635  0.11510238  1
  O  O60  1  0.82388770  0.26493090  0.84949908  1
  O  O61  1  0.85883032  0.37597016  0.16554268  1
  O  O62  1  0.79412996  0.53870916  0.85664748  1
  O  O63  1  0.79718448  0.64694196  0.36351195  1
  O  O64  1  0.93783904  0.37584045  0.59724134  1
  O  O65  1  0.71542420  0.97291101  0.91950283  1
  O  O66  1  0.83323445  0.76842565  0.66127767  1
  O  O67  1  0.79359017  0.91144820  0.34282725  1
  O  O68  1  0.93632125  0.69650886  0.09378984  1
