# generated using pymatgen
data_LaTa2NO5
_symmetry_space_group_name_H-M   'P 1'
_cell_length_a   11.31722637
_cell_length_b   7.74141327
_cell_length_c   5.52784417
_cell_angle_alpha   89.96225378
_cell_angle_beta   89.59579955
_cell_angle_gamma   89.96765895
_symmetry_Int_Tables_number   1
_chemical_formula_structural   LaTa2NO5
_chemical_formula_sum   'La4 Ta8 N4 O20'
_cell_volume   484.28952789
_cell_formula_units_Z   4
loop_
 _symmetry_equiv_pos_site_id
 _symmetry_equiv_pos_as_xyz
  1  'x, y, z'
loop_
 _atom_site_type_symbol
 _atom_site_label
 _atom_site_symmetry_multiplicity
 _atom_site_fract_x
 _atom_site_fract_y
 _atom_site_fract_z
 _atom_site_occupancy
  La  La0  1  0.03485959  0.74778529  0.55392073  1
  La  La1  1  0.46343134  0.25240219  0.04924538  1
  La  La2  1  0.54541821  0.74767148  0.95635097  1
  La  La3  1  0.95862464  0.25375917  0.44888567  1
  Ta  Ta4  1  0.14109867  0.99589851  0.03748050  1
  Ta  Ta5  1  0.14063060  0.50254005  0.04018071  1
  Ta  Ta6  1  0.35677477  0.99639905  0.54349819  1
  Ta  Ta7  1  0.35791975  0.50450573  0.54171669  1
  Ta  Ta8  1  0.64372901  0.99271489  0.46380529  1
  Ta  Ta9  1  0.65015661  0.49537279  0.46385929  1
  Ta  Ta10  1  0.85323131  0.49653225  0.95010122  1
  Ta  Ta11  1  0.85702169  0.00651782  0.96298758  1
  N  N12  1  0.14771908  0.75086233  0.95286754  1
  N  N13  1  0.64043654  0.75143202  0.54617757  1
  N  N14  1  0.79237485  0.44410818  0.62644756  1
  N  N15  1  0.85551363  0.24907303  0.05075318  1
  O  O16  1  0.02402726  0.03561023  0.77108882  1
  O  O17  1  0.02667453  0.46414230  0.77079566  1
  O  O18  1  0.12532925  0.24976985  0.15072166  1
  O  O19  1  0.21360255  0.55261940  0.37346306  1
  O  O20  1  0.21382637  0.94830056  0.37187228  1
  O  O21  1  0.28920522  0.05819381  0.86666744  1
  O  O22  1  0.28925864  0.44206840  0.86641727  1
  O  O23  1  0.35650252  0.24970210  0.45546592  1
  O  O24  1  0.37631342  0.75084043  0.64697325  1
  O  O25  1  0.46860696  0.53448425  0.26606116  1
  O  O26  1  0.47375194  0.96693438  0.27217856  1
  O  O27  1  0.52097964  0.03721578  0.72959148  1
  O  O28  1  0.52079427  0.46397202  0.72762560  1
  O  O29  1  0.61632280  0.25092291  0.34557251  1
  O  O30  1  0.70821087  0.55699413  0.12659747  1
  O  O31  1  0.70956537  0.94446439  0.12831688  1
  O  O32  1  0.78869332  0.05517783  0.63007071  1
  O  O33  1  0.88008498  0.75107409  0.85409886  1
  O  O34  1  0.98144228  0.53586814  0.22828328  1
  O  O35  1  0.97786653  0.96406724  0.22985805  1
