# generated using pymatgen
data_Na6Fe2P(CO4)4
_symmetry_space_group_name_H-M   'P 1'
_cell_length_a   10.20194618
_cell_length_b   10.20194632
_cell_length_c   10.20194599
_cell_angle_alpha   90.00000463
_cell_angle_beta   60.00000293
_cell_angle_gamma   60.00000401
_symmetry_Int_Tables_number   1
_chemical_formula_structural   Na6Fe2P(CO4)4
_chemical_formula_sum   'Na12 Fe4 P2 C8 O32'
_cell_volume   750.81702573
_cell_formula_units_Z   2
loop_
 _symmetry_equiv_pos_site_id
 _symmetry_equiv_pos_as_xyz
  1  'x, y, z'
loop_
 _atom_site_type_symbol
 _atom_site_label
 _atom_site_symmetry_multiplicity
 _atom_site_fract_x
 _atom_site_fract_y
 _atom_site_fract_z
 _atom_site_occupancy
  Na  Na0  1  0.75000000  0.91657974  0.66657974  1
  Na  Na1  1  0.66684151  0.66657974  0.91657974  1
  Na  Na2  1  0.75000000  0.33342026  0.66657974  1
  Na  Na3  1  0.75000000  0.91657974  0.08342026  1
  Na  Na4  1  0.25000000  0.66657974  0.91657974  1
  Na  Na5  1  0.83315849  0.08342026  0.33342026  1
  Na  Na6  1  0.16684151  0.91657974  0.66657974  1
  Na  Na7  1  0.75000000  0.33342026  0.08342026  1
  Na  Na8  1  0.25000000  0.66657974  0.33342026  1
  Na  Na9  1  0.25000000  0.08342026  0.91657974  1
  Na  Na10  1  0.33315849  0.33342026  0.08342026  1
  Na  Na11  1  0.25000000  0.08342026  0.33342026  1
  Fe  Fe12  1  0.50000000  0.50000000  0.50000000  1
  Fe  Fe13  1  0.50000000  0.00000000  0.50000000  1
  Fe  Fe14  1  0.00000000  0.50000000  0.50000000  1
  Fe  Fe15  1  0.00000000  0.50000000  0.00000000  1
  P  P16  1  0.75000000  0.12500000  0.87500000  1
  P  P17  1  0.25000000  0.87500000  0.12500000  1
  C  C18  1  0.93210603  0.71605351  0.28394649  1
  C  C19  1  0.93210603  0.35184046  0.28394649  1
  C  C20  1  0.56789397  0.71605351  0.64815954  1
  C  C21  1  0.56789397  0.71605351  0.28394649  1
  C  C22  1  0.43210603  0.28394649  0.71605351  1
  C  C23  1  0.43210603  0.28394649  0.35184046  1
  C  C24  1  0.06789397  0.64815954  0.71605351  1
  C  C25  1  0.06789397  0.28394649  0.71605351  1
  O  O26  1  0.95234768  0.65054919  0.69251783  1
  O  O27  1  0.95234768  0.39710313  0.85513449  1
  O  O28  1  0.95803037  0.69251783  0.39710313  1
  O  O29  1  0.79541470  0.85513449  0.30748217  1
  O  O30  1  0.87526135  0.06236933  0.93763067  1
  O  O31  1  0.70458530  0.60289687  0.65054919  1
  O  O32  1  0.54196963  0.85513449  0.65054919  1
  O  O33  1  0.87526135  0.06236933  0.68710698  1
  O  O34  1  0.62473865  0.31289302  0.93763067  1
  O  O35  1  0.95803037  0.34945081  0.14486551  1
  O  O36  1  0.79541470  0.34945081  0.39710313  1
  O  O37  1  0.62473865  0.06236933  0.93763067  1
  O  O38  1  0.70458530  0.69251783  0.14486551  1
  O  O39  1  0.45234768  0.69251783  0.65054919  1
  O  O40  1  0.45234768  0.85513449  0.39710313  1
  O  O41  1  0.45803037  0.39710313  0.69251783  1
  O  O42  1  0.54196963  0.60289687  0.30748217  1
  O  O43  1  0.54765232  0.14486551  0.60289687  1
  O  O44  1  0.54765232  0.30748217  0.34945081  1
  O  O45  1  0.29541470  0.30748217  0.85513449  1
  O  O46  1  0.37526135  0.93763067  0.06236933  1
  O  O47  1  0.20458530  0.65054919  0.60289687  1
  O  O48  1  0.04196963  0.65054919  0.85513449  1
  O  O49  1  0.37526135  0.68710698  0.06236933  1
  O  O50  1  0.12473865  0.93763067  0.31289302  1
  O  O51  1  0.45803037  0.14486551  0.34945081  1
  O  O52  1  0.29541470  0.39710313  0.34945081  1
  O  O53  1  0.12473865  0.93763067  0.06236933  1
  O  O54  1  0.20458530  0.14486551  0.69251783  1
  O  O55  1  0.04196963  0.30748217  0.60289687  1
  O  O56  1  0.04765232  0.60289687  0.14486551  1
  O  O57  1  0.04765232  0.34945081  0.30748217  1
