# generated using pymatgen
data_Ti3V2P6WO24
_symmetry_space_group_name_H-M   'P 1'
_cell_length_a   8.66316683
_cell_length_b   8.72856705
_cell_length_c   8.72856687
_cell_angle_alpha   59.99999891
_cell_angle_beta   59.74995516
_cell_angle_gamma   59.74995798
_symmetry_Int_Tables_number   1
_chemical_formula_structural   Ti3V2P6WO24
_chemical_formula_sum   'Ti3 V2 P6 W1 O24'
_cell_volume   464.93882813
_cell_formula_units_Z   1
loop_
 _symmetry_equiv_pos_site_id
 _symmetry_equiv_pos_as_xyz
  1  'x, y, z'
loop_
 _atom_site_type_symbol
 _atom_site_label
 _atom_site_symmetry_multiplicity
 _atom_site_fract_x
 _atom_site_fract_y
 _atom_site_fract_z
 _atom_site_occupancy
  Ti  Ti0  1  0.06347144  0.64550985  0.64550985  1
  Ti  Ti1  1  0.43267218  0.85577594  0.85577594  1
  Ti  Ti2  1  0.93470179  0.35509940  0.35509940  1
  V  V3  1  0.00999448  0.99666884  0.99666884  1
  V  V4  1  0.49633736  0.50122055  0.50122055  1
  P  P5  1  0.24675744  0.25195957  0.54728898  1
  P  P6  1  0.24675744  0.95399401  0.25195957  1
  P  P7  1  0.24675744  0.54728898  0.95399401  1
  P  P8  1  0.75167666  0.46052898  0.04372373  1
  P  P9  1  0.75167666  0.04372373  0.74407163  1
  P  P10  1  0.75167666  0.74407163  0.46052898  1
  W  W11  1  0.57759236  0.14080221  0.14080221  1
  O  O12  1  0.06976467  0.11661300  0.31408784  1
  O  O13  1  0.06976467  0.49953448  0.11661300  1
  O  O14  1  0.06976467  0.31408784  0.49953448  1
  O  O15  1  0.22854264  0.09001555  0.74074244  1
  O  O16  1  0.42957819  0.19089679  0.39730082  1
  O  O17  1  0.25633191  0.41415597  0.56915220  1
  O  O18  1  0.22854264  0.94070036  0.09001555  1
  O  O19  1  0.25633191  0.76035891  0.41415597  1
  O  O20  1  0.57071582  0.61448302  0.99974075  1
  O  O21  1  0.25633191  0.56915220  0.76035891  1
  O  O22  1  0.78456889  0.26420226  0.05321424  1
  O  O23  1  0.57071582  0.99974075  0.81506041  1
  O  O24  1  0.42957819  0.98222420  0.19089679  1
  O  O25  1  0.22854264  0.74074244  0.94070036  1
  O  O26  1  0.73022893  0.44614084  0.23826811  1
  O  O27  1  0.42957819  0.39730082  0.98222420  1
  O  O28  1  0.73022893  0.23826811  0.58536213  1
  O  O29  1  0.78456889  0.05321424  0.89801362  1
  O  O30  1  0.73022893  0.58536213  0.44614084  1
  O  O31  1  0.57071582  0.81506041  0.61448302  1
  O  O32  1  0.78456889  0.89801362  0.26420226  1
  O  O33  1  0.92691065  0.67431618  0.51202277  1
  O  O34  1  0.92691065  0.51202277  0.88675041  1
  O  O35  1  0.92691065  0.88675041  0.67431618  1
