# generated using pymatgen
data_LiCrP2H5O9
_symmetry_space_group_name_H-M   'P 1'
_cell_length_a   15.11590918
_cell_length_b   7.76430760
_cell_length_c   6.77738485
_cell_angle_alpha   90.00000000
_cell_angle_beta   90.00000000
_cell_angle_gamma   90.00000000
_symmetry_Int_Tables_number   1
_chemical_formula_structural   LiCrP2H5O9
_chemical_formula_sum   'Li4 Cr4 P8 H20 O36'
_cell_volume   795.42484866
_cell_formula_units_Z   4
loop_
 _symmetry_equiv_pos_site_id
 _symmetry_equiv_pos_as_xyz
  1  'x, y, z'
loop_
 _atom_site_type_symbol
 _atom_site_label
 _atom_site_symmetry_multiplicity
 _atom_site_fract_x
 _atom_site_fract_y
 _atom_site_fract_z
 _atom_site_occupancy
  Li  Li0  1  0.05916344  0.74004792  0.75590305  1
  Li  Li1  1  0.44083656  0.24004792  0.25590305  1
  Li  Li2  1  0.55916344  0.74004792  0.74409695  1
  Li  Li3  1  0.94083656  0.24004792  0.24409695  1
  Cr  Cr4  1  0.18729054  0.25026560  0.06334956  1
  Cr  Cr5  1  0.31270946  0.75026560  0.56334956  1
  Cr  Cr6  1  0.68729054  0.25026560  0.43665044  1
  Cr  Cr7  1  0.81270946  0.75026560  0.93665044  1
  P  P8  1  0.13826532  0.56052970  0.37358875  1
  P  P9  1  0.13804569  0.93638371  0.36671676  1
  P  P10  1  0.36173468  0.06052970  0.87358875  1
  P  P11  1  0.36195431  0.43638371  0.86671676  1
  P  P12  1  0.63826532  0.56052970  0.12641125  1
  P  P13  1  0.63804569  0.93638371  0.13328324  1
  P  P14  1  0.86173468  0.06052970  0.62641125  1
  P  P15  1  0.86195431  0.43638371  0.63328324  1
  H  H16  1  0.00642520  0.99390145  0.50448015  1
  H  H17  1  0.08877734  0.15009151  0.71125227  1
  H  H18  1  0.08830247  0.35342347  0.70865283  1
  H  H19  1  0.21009369  0.64741843  0.90709124  1
  H  H20  1  0.20890798  0.85496961  0.90486799  1
  H  H21  1  0.28990631  0.14741843  0.40709124  1
  H  H22  1  0.29109202  0.35496961  0.40486799  1
  H  H23  1  0.41122266  0.65009151  0.21125227  1
  H  H24  1  0.41169753  0.85342347  0.20865283  1
  H  H25  1  0.49357480  0.49390145  0.00448015  1
  H  H26  1  0.50642520  0.99390145  0.99551985  1
  H  H27  1  0.58877734  0.15009151  0.78874773  1
  H  H28  1  0.58830247  0.35342347  0.79134717  1
  H  H29  1  0.71009369  0.64741843  0.59290876  1
  H  H30  1  0.70890798  0.85496961  0.59513201  1
  H  H31  1  0.78990631  0.14741843  0.09290776  1
  H  H32  1  0.79109202  0.35496961  0.09513201  1
  H  H33  1  0.91122266  0.65009151  0.28874773  1
  H  H34  1  0.91169753  0.85342347  0.29134717  1
  H  H35  1  0.99357480  0.49390145  0.49551985  1
  O  O36  1  0.07410332  0.54949705  0.55303297  1
  O  O37  1  0.07267176  0.94926572  0.55096423  1
  O  O38  1  0.08892250  0.25229829  0.79676348  1
  O  O39  1  0.11972120  0.74858539  0.27370765  1
  O  O40  1  0.11143314  0.06581941  0.21188219  1
  O  O41  1  0.11317168  0.43079647  0.21608677  1
  O  O42  1  0.18096444  0.74984505  0.84949944  1
  O  O43  1  0.23512599  0.55596949  0.43819131  1
  O  O44  1  0.23293728  0.94475372  0.44058734  1
  O  O45  1  0.26487401  0.05596949  0.93819131  1
  O  O46  1  0.26706272  0.44475372  0.94058734  1
  O  O47  1  0.31903556  0.24984505  0.34949944  1
  O  O48  1  0.38682832  0.93079647  0.71608677  1
  O  O49  1  0.38856686  0.56581941  0.71188219  1
  O  O50  1  0.38027880  0.24858539  0.77370765  1
  O  O51  1  0.41107750  0.75229829  0.29676348  1
  O  O52  1  0.42589668  0.04949705  0.05303297  1
  O  O53  1  0.42732824  0.44926572  0.05096423  1
  O  O54  1  0.57410332  0.54949705  0.94696703  1
  O  O55  1  0.57267176  0.94926572  0.94903577  1
  O  O56  1  0.58892250  0.25229829  0.70323652  1
  O  O57  1  0.61972120  0.74858539  0.22629235  1
  O  O58  1  0.61143314  0.06581941  0.28811781  1
  O  O59  1  0.61317168  0.43079647  0.28391323  1
  O  O60  1  0.68096444  0.74984505  0.65050056  1
  O  O61  1  0.73512599  0.55596949  0.06180869  1
  O  O62  1  0.73293728  0.94475372  0.05941266  1
  O  O63  1  0.76487401  0.05596949  0.56180869  1
  O  O64  1  0.76706272  0.44475372  0.55941266  1
  O  O65  1  0.81903556  0.24984505  0.15050056  1
  O  O66  1  0.88856686  0.56581941  0.78811781  1
  O  O67  1  0.88682832  0.93079647  0.78391323  1
  O  O68  1  0.88027880  0.24858539  0.72629235  1
  O  O69  1  0.91107750  0.75229829  0.20323652  1
  O  O70  1  0.92589668  0.04949705  0.44696703  1
  O  O71  1  0.92732824  0.44926572  0.44903577  1
