# generated using pymatgen
data_LaAlO3
_symmetry_space_group_name_H-M   'P 1'
_cell_length_a   16.24774815
_cell_length_b   7.93888801
_cell_length_c   7.36760527
_cell_angle_alpha   90.00000000
_cell_angle_beta   97.21804968
_cell_angle_gamma   90.00000000
_symmetry_Int_Tables_number   1
_chemical_formula_structural   LaAlO3
_chemical_formula_sum   'La12 Al12 O36'
_cell_volume   942.80913875
_cell_formula_units_Z   12
loop_
 _symmetry_equiv_pos_site_id
 _symmetry_equiv_pos_as_xyz
  1  'x, y, z'
loop_
 _atom_site_type_symbol
 _atom_site_label
 _atom_site_symmetry_multiplicity
 _atom_site_fract_x
 _atom_site_fract_y
 _atom_site_fract_z
 _atom_site_occupancy
  La  La0  1  0.09663350  0.12580250  0.26411948  1
  La  La1  1  0.09537206  0.62588744  0.26437359  1
  La  La2  1  0.24314007  0.37539973  0.96869790  1
  La  La3  1  0.25685993  0.87539973  0.03130210  1
  La  La4  1  0.40462794  0.12588744  0.73562641  1
  La  La5  1  0.40336650  0.62580250  0.73588052  1
  La  La6  1  0.59663350  0.37419750  0.26411948  1
  La  La7  1  0.59537206  0.87411256  0.26437359  1
  La  La8  1  0.74314007  0.12460027  0.96869790  1
  La  La9  1  0.75685993  0.62460027  0.03130210  1
  La  La10  1  0.90462794  0.37411256  0.73562641  1
  La  La11  1  0.90336650  0.87419750  0.73588052  1
  Al  Al12  1  0.09327755  0.59458582  0.76382570  1
  Al  Al13  1  0.09334588  0.15550807  0.76477678  1
  Al  Al14  1  0.20137113  0.87581772  0.55597424  1
  Al  Al15  1  0.29862887  0.37581772  0.44402576  1
  Al  Al16  1  0.40665412  0.65550807  0.23522322  1
  Al  Al17  1  0.40672245  0.09458582  0.23617430  1
  Al  Al18  1  0.59327755  0.90541418  0.76382570  1
  Al  Al19  1  0.59334588  0.34449193  0.76477678  1
  Al  Al20  1  0.70137113  0.62418228  0.55597424  1
  Al  Al21  1  0.79862887  0.12418228  0.44402576  1
  Al  Al22  1  0.90665412  0.84449193  0.23522322  1
  Al  Al23  1  0.90672245  0.40541418  0.23617430  1
  O  O24  1  0.01285920  0.88123777  0.22663626  1
  O  O25  1  0.01386919  0.37034216  0.23503672  1
  O  O26  1  0.10846485  0.37526665  0.74523663  1
  O  O27  1  0.15416980  0.64379512  0.97829938  1
  O  O28  1  0.13718227  0.69558986  0.58433326  1
  O  O29  1  0.15622398  0.10809260  0.97782423  1
  O  O30  1  0.13728324  0.05551150  0.58452385  1
  O  O31  1  0.19740848  0.87367281  0.31206603  1
  O  O32  1  0.20533588  0.37708165  0.28884544  1
  O  O33  1  0.29466412  0.87708165  0.71115456  1
  O  O34  1  0.30259152  0.37367281  0.68793397  1
  O  O35  1  0.36271676  0.55551150  0.41547615  1
  O  O36  1  0.34377602  0.60809260  0.02217577  1
  O  O37  1  0.36281773  0.19558986  0.41566674  1
  O  O38  1  0.34583020  0.14379512  0.02170062  1
  O  O39  1  0.39153515  0.87526665  0.25476337  1
  O  O40  1  0.48613081  0.87034216  0.76496328  1
  O  O41  1  0.48714080  0.38123777  0.77336374  1
  O  O42  1  0.51285920  0.61876223  0.22663626  1
  O  O43  1  0.51386919  0.12965784  0.23503672  1
  O  O44  1  0.60846485  0.12473335  0.74523663  1
  O  O45  1  0.65416980  0.85620488  0.97829938  1
  O  O46  1  0.63718227  0.80441014  0.58433326  1
  O  O47  1  0.65622398  0.39190740  0.97782423  1
  O  O48  1  0.63728324  0.44448850  0.58452385  1
  O  O49  1  0.69740848  0.62632719  0.31206603  1
  O  O50  1  0.70533588  0.12291835  0.28884544  1
  O  O51  1  0.79466412  0.62291835  0.71115456  1
  O  O52  1  0.80259152  0.12632719  0.68793397  1
  O  O53  1  0.86271676  0.94448850  0.41547615  1
  O  O54  1  0.84377602  0.89190740  0.02217577  1
  O  O55  1  0.86281773  0.30441014  0.41566674  1
  O  O56  1  0.84583020  0.35620488  0.02170062  1
  O  O57  1  0.89153515  0.62473335  0.25476337  1
  O  O58  1  0.98613081  0.62965784  0.76496328  1
  O  O59  1  0.98714080  0.11876223  0.77336374  1
