# generated using pymatgen
data_Li3Mn4(BO3)4
_symmetry_space_group_name_H-M   'P 1'
_cell_length_a   15.73732614
_cell_length_b   5.28839947
_cell_length_c   6.19252416
_cell_angle_alpha   87.59347442
_cell_angle_beta   101.90665743
_cell_angle_gamma   88.39854426
_symmetry_Int_Tables_number   1
_chemical_formula_structural   Li3Mn4(BO3)4
_chemical_formula_sum   'Li6 Mn8 B8 O24'
_cell_volume   503.48804344
_cell_formula_units_Z   2
loop_
 _symmetry_equiv_pos_site_id
 _symmetry_equiv_pos_as_xyz
  1  'x, y, z'
loop_
 _atom_site_type_symbol
 _atom_site_label
 _atom_site_symmetry_multiplicity
 _atom_site_fract_x
 _atom_site_fract_y
 _atom_site_fract_z
 _atom_site_occupancy
  Li  Li0  1  0.90681187  0.57382197  0.77536103  1
  Li  Li1  1  0.60322400  0.41213888  0.74201849  1
  Li  Li2  1  0.84318813  0.92617803  0.47463897  1
  Li  Li3  1  0.34501261  0.93077961  0.97330824  1
  Li  Li4  1  0.14677600  0.08786112  0.50798151  1
  Li  Li5  1  0.40498739  0.56922039  0.27669176  1
  Mn  Mn6  1  0.83466702  0.08537182  0.92122970  1
  Mn  Mn7  1  0.91533298  0.41462818  0.32877030  1
  Mn  Mn8  1  0.41490043  0.42154077  0.83124587  1
  Mn  Mn9  1  0.65751641  0.91162483  0.58999477  1
  Mn  Mn10  1  0.33509957  0.07845923  0.41875413  1
  Mn  Mn11  1  0.59290589  0.57880433  0.16769286  1
  Mn  Mn12  1  0.09248359  0.58837517  0.66000523  1
  Mn  Mn13  1  0.15709411  0.92119567  0.08230714  1
  B  B14  1  0.75317181  0.57595564  0.97035926  1
  B  B15  1  0.74967187  0.42550624  0.51265611  1
  B  B16  1  0.99682819  0.92404436  0.27964074  1
  B  B17  1  0.49829299  0.92456253  0.75693276  1
  B  B18  1  0.50227240  0.07408641  0.25517260  1
  B  B19  1  0.00032813  0.07449376  0.73734389  1
  B  B20  1  0.25170701  0.57543747  0.49306724  1
  B  B21  1  0.24772760  0.42591359  0.99482740  1
  O  O22  1  0.99206429  0.33384038  0.68924991  1
  O  O23  1  0.83892564  0.47616015  0.99627295  1
  O  O24  1  0.93170840  0.93245301  0.76841484  1
  O  O25  1  0.91107436  0.02383985  0.25372705  1
  O  O26  1  0.75793571  0.16615962  0.56075009  1
  O  O27  1  0.73716208  0.82499457  0.87794018  1
  O  O28  1  0.56059032  0.07860755  0.70277607  1
  O  O29  1  0.81829160  0.56754699  0.48158516  1
  O  O30  1  0.41569608  0.03117382  0.75749318  1
  O  O31  1  0.66841558  0.54433996  0.51164969  1
  O  O32  1  0.51610091  0.66775568  0.81392607  1
  O  O33  1  0.31834851  0.57187858  0.98313801  1
  O  O34  1  0.68911247  0.43488033  0.02086223  1
  O  O35  1  0.49144526  0.33028865  0.19139789  1
  O  O36  1  0.33430392  0.46882618  0.49250682  1
  O  O37  1  0.58538332  0.95329978  0.29099202  1
  O  O38  1  0.18940968  0.42139245  0.54722393  1
  O  O39  1  0.43165149  0.92812142  0.26686199  1
  O  O40  1  0.25855474  0.16971135  0.05860211  1
  O  O41  1  0.23389909  0.83224432  0.43607393  1
  O  O42  1  0.08158442  0.95566004  0.73835031  1
  O  O43  1  0.06088753  0.06511967  0.22913777  1
  O  O44  1  0.16461668  0.54670022  0.95900798  1
  O  O45  1  0.01283792  0.67500543  0.37205982  1
