# generated using pymatgen
data_Li2FeBO4
_symmetry_space_group_name_H-M   'P 1'
_cell_length_a   10.21600177
_cell_length_b   4.88883846
_cell_length_c   6.19376041
_cell_angle_alpha   90.00008849
_cell_angle_beta   89.99941842
_cell_angle_gamma   89.99985675
_symmetry_Int_Tables_number   1
_chemical_formula_structural   Li2FeBO4
_chemical_formula_sum   'Li8 Fe4 B4 O16'
_cell_volume   309.34353816
_cell_formula_units_Z   4
loop_
 _symmetry_equiv_pos_site_id
 _symmetry_equiv_pos_as_xyz
  1  'x, y, z'
loop_
 _atom_site_type_symbol
 _atom_site_label
 _atom_site_symmetry_multiplicity
 _atom_site_fract_x
 _atom_site_fract_y
 _atom_site_fract_z
 _atom_site_occupancy
  Li  Li0  1  0.07940297  0.71157791  0.86856747  1
  Li  Li1  1  0.15815581  0.18927590  0.11641967  1
  Li  Li2  1  0.34184370  0.68927779  0.61642080  1
  Li  Li3  1  0.42059801  0.21157736  0.36856634  1
  Li  Li4  1  0.57940029  0.78842146  0.86856726  1
  Li  Li5  1  0.65815507  0.31072388  0.11641952  1
  Li  Li6  1  0.84184570  0.81071995  0.61642040  1
  Li  Li7  1  0.92059879  0.28842299  0.36856749  1
  Fe  Fe8  1  0.16223113  0.18638339  0.62015036  1
  Fe  Fe9  1  0.33776187  0.68637753  0.12014634  1
  Fe  Fe10  1  0.66223123  0.31361384  0.62015354  1
  Fe  Fe11  1  0.83777371  0.81362080  0.12014843  1
  B  B12  1  0.09097369  0.68339684  0.36686606  1
  B  B13  1  0.40902796  0.18339355  0.86686974  1
  B  B14  1  0.59096837  0.81660564  0.36686632  1
  B  B15  1  0.90903296  0.31660653  0.86686830  1
  O  O16  1  0.05231874  0.25205176  0.86106768  1
  O  O17  1  0.10496999  0.37730904  0.37434935  1
  O  O18  1  0.15261621  0.79944936  0.56740406  1
  O  O19  1  0.15803373  0.78655451  0.16727623  1
  O  O20  1  0.34196740  0.28656161  0.66727344  1
  O  O21  1  0.34738424  0.29944600  0.06740500  1
  O  O22  1  0.39503127  0.87730243  0.87435005  1
  O  O23  1  0.44768730  0.75206073  0.36107035  1
  O  O24  1  0.55232037  0.24794516  0.86106592  1
  O  O25  1  0.60496919  0.12269275  0.37435044  1
  O  O26  1  0.65261580  0.70055688  0.56739522  1
  O  O27  1  0.65803313  0.71344238  0.16727446  1
  O  O28  1  0.84196397  0.21343865  0.66727253  1
  O  O29  1  0.84738169  0.20055275  0.06740951  1
  O  O30  1  0.89502857  0.62269717  0.87435596  1
  O  O31  1  0.94767714  0.74794348  0.36106174  1
