# generated using pymatgen
data_LiVP2HO8
_symmetry_space_group_name_H-M   'P 1'
_cell_length_a   9.36242136
_cell_length_b   9.34636251
_cell_length_c   7.48070695
_cell_angle_alpha   97.96877476
_cell_angle_beta   97.92932612
_cell_angle_gamma   117.49468633
_symmetry_Int_Tables_number   1
_chemical_formula_structural   LiVP2HO8
_chemical_formula_sum   'Li4 V4 P8 H4 O32'
_cell_volume   559.65325374
_cell_formula_units_Z   4
loop_
 _symmetry_equiv_pos_site_id
 _symmetry_equiv_pos_as_xyz
  1  'x, y, z'
loop_
 _atom_site_type_symbol
 _atom_site_label
 _atom_site_symmetry_multiplicity
 _atom_site_fract_x
 _atom_site_fract_y
 _atom_site_fract_z
 _atom_site_occupancy
  Li  Li0  1  0.26677334  0.13724420  0.85463870  1
  Li  Li1  1  0.63753502  0.26875779  0.35463538  1
  Li  Li2  1  0.13897241  0.76955484  0.35094516  1
  Li  Li3  1  0.72775216  0.85656145  0.14475982  1
  V  V4  1  0.99769125  0.49424150  0.99465942  1
  V  V5  1  0.49561145  0.50159166  0.50018315  1
  V  V6  1  0.99597676  0.00180858  0.50063254  1
  V  V7  1  0.49821627  0.99526358  0.99517146  1
  P  P8  1  0.26102168  0.11033515  0.23229316  1
  P  P9  1  0.23854787  0.39510473  0.76373749  1
  P  P10  1  0.60744292  0.26415449  0.73489108  1
  P  P11  1  0.10724281  0.76046054  0.73674087  1
  P  P12  1  0.39185742  0.73944146  0.26867902  1
  P  P13  1  0.89291344  0.24221927  0.26580067  1
  P  P14  1  0.75932859  0.60585059  0.23065892  1
  P  P15  1  0.73613466  0.89006983  0.76228486  1
  H  H16  1  0.50422014  0.00788827  0.50531647  1
  H  H17  1  0.00375584  0.50695484  0.50372912  1
  H  H18  1  0.48248231  0.49023476  0.99066470  1
  H  H19  1  0.98346956  0.98956893  0.98991731  1
  O  O20  1  0.15420522  0.20790581  0.65350492  1
  O  O21  1  0.10761462  0.43460636  0.81702721  1
  O  O22  1  0.14826586  0.08699994  0.05064728  1
  O  O23  1  0.00067670  0.33006281  0.13650412  1
  O  O24  1  0.49118302  0.16469846  0.85470387  1
  O  O25  1  0.35248575  0.39801697  0.93778641  1
  O  O26  1  0.40529451  0.08295784  0.18903599  1
  O  O27  1  0.34350897  0.29160990  0.35152667  1
  O  O28  1  0.59327150  0.14966207  0.55514604  1
  O  O29  1  0.08992926  0.65056945  0.55213332  1
  O  O30  1  0.83313192  0.00161646  0.64007161  1
  O  O31  1  0.33090825  0.50409202  0.63810056  1
  O  O32  1  0.56960989  0.39704335  0.68284729  1
  O  O33  1  0.08083700  0.90394377  0.68886786  1
  O  O34  1  0.29113857  0.84636164  0.85326338  1
  O  O35  1  0.78788414  0.34556633  0.85438371  1
  O  O36  1  0.20774741  0.65606611  0.15501956  1
  O  O37  1  0.70552511  0.15597086  0.15553536  1
  O  O38  1  0.92233575  0.09986576  0.31225493  1
  O  O39  1  0.43430547  0.60838434  0.31808651  1
  O  O40  1  0.66655129  0.49169448  0.35540839  1
  O  O41  1  0.16495675  0.99440163  0.35518666  1
  O  O42  1  0.40128208  0.85808287  0.43925449  1
  O  O43  1  0.90469230  0.35684720  0.44142980  1
  O  O44  1  0.65303597  0.70775783  0.65087366  1
  O  O45  1  0.60493150  0.93098905  0.81687454  1
  O  O46  1  0.64622794  0.60116936  0.06103486  1
  O  O47  1  0.50586556  0.83223596  0.14143318  1
  O  O48  1  0.99754676  0.66521525  0.85913189  1
  O  O49  1  0.84940281  0.90935478  0.94738476  1
  O  O50  1  0.90269020  0.57925600  0.18800620  1
  O  O51  1  0.84411203  0.79177088  0.35105070  1
