# generated using pymatgen
data_Li2Mn2(PO4)3
_symmetry_space_group_name_H-M   'P 1'
_cell_length_a   8.59917649
_cell_length_b   8.80041177
_cell_length_c   8.59917651
_cell_angle_alpha   59.41610394
_cell_angle_beta   60.68197828
_cell_angle_gamma   59.41610509
_symmetry_Int_Tables_number   1
_chemical_formula_structural   Li2Mn2(PO4)3
_chemical_formula_sum   'Li4 Mn4 P6 O24'
_cell_volume   458.31003367
_cell_formula_units_Z   2
loop_
 _symmetry_equiv_pos_site_id
 _symmetry_equiv_pos_as_xyz
  1  'x, y, z'
loop_
 _atom_site_type_symbol
 _atom_site_label
 _atom_site_symmetry_multiplicity
 _atom_site_fract_x
 _atom_site_fract_y
 _atom_site_fract_z
 _atom_site_occupancy
  Li  Li0  1  0.32574575  0.44709601  0.67424517  1
  Li  Li1  1  0.82575483  0.05290399  0.17425425  1
  Li  Li2  1  0.17424517  0.94709601  0.82574575  1
  Li  Li3  1  0.67425425  0.55290399  0.32575483  1
  Mn  Mn4  1  0.14038555  0.14452478  0.13856395  1
  Mn  Mn5  1  0.36143605  0.35547522  0.35961445  1
  Mn  Mn6  1  0.63856395  0.64452478  0.64038555  1
  Mn  Mn7  1  0.85961445  0.85547522  0.86143605  1
  P  P8  1  0.03275177  0.75000000  0.46724823  1
  P  P9  1  0.96724823  0.25000000  0.53275177  1
  P  P10  1  0.46046146  0.03608837  0.75188204  1
  P  P11  1  0.74811796  0.46391163  0.03953854  1
  P  P12  1  0.25188204  0.53608837  0.96046146  1
  P  P13  1  0.53953854  0.96391163  0.24811796  1
  O  O14  1  0.13872840  0.28118653  0.51173178  1
  O  O15  1  0.29541017  0.49581718  0.13201659  1
  O  O16  1  0.04417600  0.92132390  0.27926255  1
  O  O17  1  0.53207924  0.11685490  0.29260427  1
  O  O18  1  0.01173178  0.78118653  0.63872840  1
  O  O19  1  0.22073745  0.57867610  0.45582400  1
  O  O20  1  0.27031452  0.05709531  0.91797556  1
  O  O21  1  0.44280165  0.23001987  0.58549044  1
  O  O22  1  0.58202444  0.44290469  0.22968548  1
  O  O23  1  0.20739573  0.38314510  0.96792076  1
  O  O24  1  0.08549044  0.73001987  0.94280165  1
  O  O25  1  0.36798341  0.00418282  0.20458983  1
  O  O26  1  0.63201659  0.99581718  0.79541017  1
  O  O27  1  0.91450956  0.26998113  0.05719835  1
  O  O28  1  0.79260427  0.61685490  0.03207924  1
  O  O29  1  0.41797556  0.55709531  0.77031452  1
  O  O30  1  0.55719835  0.76998013  0.41450956  1
  O  O31  1  0.72968548  0.94290469  0.08202444  1
  O  O32  1  0.77926255  0.42132390  0.54417600  1
  O  O33  1  0.98826822  0.21881347  0.36127160  1
  O  O34  1  0.46792076  0.88314510  0.70739573  1
  O  O35  1  0.95582400  0.07867610  0.72073745  1
  O  O36  1  0.70458983  0.50418282  0.86798341  1
  O  O37  1  0.86127160  0.71881347  0.48826822  1
