# generated using pymatgen
data_Li4FeSb(TeO6)2
_symmetry_space_group_name_H-M   'P 1'
_cell_length_a   5.42808486
_cell_length_b   10.85040393
_cell_length_c   9.54663144
_cell_angle_alpha   28.50105577
_cell_angle_beta   51.75377524
_cell_angle_gamma   57.07538996
_symmetry_Int_Tables_number   1
_chemical_formula_structural   Li4FeSb(TeO6)2
_chemical_formula_sum   'Li4 Fe1 Sb1 Te2 O12'
_cell_volume   210.71113481
_cell_formula_units_Z   1
loop_
 _symmetry_equiv_pos_site_id
 _symmetry_equiv_pos_as_xyz
  1  'x, y, z'
loop_
 _atom_site_type_symbol
 _atom_site_label
 _atom_site_symmetry_multiplicity
 _atom_site_fract_x
 _atom_site_fract_y
 _atom_site_fract_z
 _atom_site_occupancy
  Li  Li0  1  0.25578663  0.99643125  0.30487305  1
  Li  Li1  1  0.31208150  0.50324146  0.26147092  1
  Li  Li2  1  0.77710998  0.00384449  0.74862054  1
  Li  Li3  1  0.78558999  0.49692185  0.80954555  1
  Fe  Fe4  1  0.01424446  0.49891465  0.00347934  1
  Sb  Sb5  1  0.99639705  0.00036470  0.00280542  1
  Te  Te6  1  0.50101091  -0.00040064  0.50118715  1
  Te  Te7  1  0.50118663  0.49968760  0.50137341  1
  O  O8  1  0.38215409  0.29509353  0.13553321  1
  O  O9  1  0.23088511  0.13238198  0.61891786  1
  O  O10  1  0.11377540  0.32615868  0.73834045  1
  O  O11  1  0.85902098  0.19236388  0.24569225  1
  O  O12  1  0.38512167  0.80435510  0.11674340  1
  O  O13  1  0.71418339  0.37827474  0.38320493  1
  O  O14  1  0.24736138  0.62571224  0.61297287  1
  O  O15  1  0.60774758  0.17869779  0.88576320  1
  O  O16  1  0.13833037  0.82756968  0.72035599  1
  O  O17  1  0.88418964  0.68649468  0.23579251  1
  O  O18  1  0.73662899  0.86285319  0.38674019  1
  O  O19  1  0.62839227  0.69103619  0.85778675  1
