# generated using pymatgen
data_Dy2WO6
_symmetry_space_group_name_H-M   'P 1'
_cell_length_a   5.40824739
_cell_length_b   9.89402100
_cell_length_c   9.89402100
_cell_angle_alpha   68.40722719
_cell_angle_beta   75.81729221
_cell_angle_gamma   75.81729221
_symmetry_Int_Tables_number   1
_chemical_formula_structural   Dy2WO6
_chemical_formula_sum   'Dy8 W4 O24'
_cell_volume   470.17072286
_cell_formula_units_Z   4
loop_
 _symmetry_equiv_pos_site_id
 _symmetry_equiv_pos_as_xyz
  1  'x, y, z'
loop_
 _atom_site_type_symbol
 _atom_site_label
 _atom_site_symmetry_multiplicity
 _atom_site_fract_x
 _atom_site_fract_y
 _atom_site_fract_z
 _atom_site_occupancy
  Dy  Dy0  1  0.61720153  0.05596728  0.28498810  1
  Dy  Dy1  1  0.11720153  0.28498810  0.05596728  1
  Dy  Dy2  1  0.75000000  0.63396234  0.36603766  1
  Dy  Dy3  1  0.75000000  0.10543213  0.89456787  1
  Dy  Dy4  1  0.25000000  0.89456787  0.10543213  1
  Dy  Dy5  1  0.25000000  0.36603766  0.63396234  1
  Dy  Dy6  1  0.88279847  0.71501190  0.94403272  1
  Dy  Dy7  1  0.38279847  0.94403272  0.71501190  1
  W  W8  1  0.93359731  0.19964082  0.49417371  1
  W  W9  1  0.43359731  0.49417371  0.19964082  1
  W  W10  1  0.56640269  0.50582629  0.80035918  1
  W  W11  1  0.06640269  0.80035918  0.50582629  1
  O  O12  1  0.92181827  0.10737615  0.07547854  1
  O  O13  1  0.42181827  0.07547854  0.10737615  1
  O  O14  1  0.73864175  0.47343110  0.06085225  1
  O  O15  1  0.85285618  0.21569602  0.31636890  1
  O  O16  1  0.23864175  0.06085225  0.47343110  1
  O  O17  1  0.35285618  0.31636890  0.21569602  1
  O  O18  1  0.61486657  0.17604238  0.62022441  1
  O  O19  1  0.11486657  0.62022441  0.17604238  1
  O  O20  1  0.97966869  0.38867179  0.45544981  1
  O  O21  1  0.57897532  0.68792935  0.15972319  1
  O  O22  1  0.47966869  0.45544981  0.38867179  1
  O  O23  1  0.07897532  0.15972319  0.68792935  1
  O  O24  1  0.92102468  0.84027681  0.31207065  1
  O  O25  1  0.52033131  0.54455019  0.61132821  1
  O  O26  1  0.42102468  0.31207065  0.84027681  1
  O  O27  1  0.02033131  0.61132821  0.54455019  1
  O  O28  1  0.88513343  0.37977559  0.82395762  1
  O  O29  1  0.38513343  0.82395762  0.37977559  1
  O  O30  1  0.64714382  0.68363110  0.78430398  1
  O  O31  1  0.76135825  0.93914775  0.52656890  1
  O  O32  1  0.14714382  0.78430398  0.68363110  1
  O  O33  1  0.26135825  0.52656890  0.93914775  1
  O  O34  1  0.57818173  0.92452146  0.89262385  1
  O  O35  1  0.07818173  0.89262385  0.92452146  1
