# generated using pymatgen
data_Li2V3P4(HO4)4
_symmetry_space_group_name_H-M   'P 1'
_cell_length_a   9.15540593
_cell_length_b   8.25067488
_cell_length_c   8.86804665
_cell_angle_alpha   90.00000000
_cell_angle_beta   98.58576420
_cell_angle_gamma   90.00000000
_symmetry_Int_Tables_number   1
_chemical_formula_structural   Li2V3P4(HO4)4
_chemical_formula_sum   'Li4 V6 P8 H8 O32'
_cell_volume   662.36999722
_cell_formula_units_Z   2
loop_
 _symmetry_equiv_pos_site_id
 _symmetry_equiv_pos_as_xyz
  1  'x, y, z'
loop_
 _atom_site_type_symbol
 _atom_site_label
 _atom_site_symmetry_multiplicity
 _atom_site_fract_x
 _atom_site_fract_y
 _atom_site_fract_z
 _atom_site_occupancy
  Li  Li0  1  0.03351252  0.33250238  0.99729012  1
  Li  Li1  1  0.53351252  0.16749762  0.99729012  1
  Li  Li2  1  0.46648748  0.83250238  0.00270988  1
  Li  Li3  1  0.96648748  0.66749762  0.00270988  1
  V  V4  1  0.00000000  0.50000000  0.50000000  1
  V  V5  1  0.00407420  0.13875598  0.35321195  1
  V  V6  1  0.49592580  0.63875598  0.64678805  1
  V  V7  1  0.50000000  0.00000000  0.50000000  1
  V  V8  1  0.50407420  0.36124402  0.35321195  1
  V  V9  1  0.99592580  0.86124402  0.64678805  1
  P  P10  1  0.22690137  0.56485426  0.82207203  1
  P  P11  1  0.20450203  0.80214058  0.38669923  1
  P  P12  1  0.29549797  0.30214058  0.61330077  1
  P  P13  1  0.27309863  0.06485426  0.17792797  1
  P  P14  1  0.72690137  0.93514574  0.82207203  1
  P  P15  1  0.70450203  0.69785942  0.38669923  1
  P  P16  1  0.79549797  0.19785942  0.61330077  1
  P  P17  1  0.77309863  0.43514574  0.17792797  1
  H  H18  1  0.21142364  0.99888618  0.88757590  1
  H  H19  1  0.23371300  0.04184560  0.72243732  1
  H  H20  1  0.26628700  0.54184560  0.27756268  1
  H  H21  1  0.28857636  0.49888618  0.11242410  1
  H  H22  1  0.71142364  0.50111382  0.88757590  1
  H  H23  1  0.73371300  0.45815440  0.72243732  1
  H  H24  1  0.76628700  0.95815440  0.27756268  1
  H  H25  1  0.78857636  0.00111382  0.11242410  1
  O  O26  1  0.11968869  0.63324794  0.68684334  1
  O  O27  1  0.15634681  0.00493697  0.78310997  1
  O  O28  1  0.10740676  0.92419821  0.45472787  1
  O  O29  1  0.14761479  0.53903075  0.96119669  1
  O  O30  1  0.14304244  0.29164157  0.51490411  1
  O  O31  1  0.13092875  0.63791963  0.34851733  1
  O  O32  1  0.12854537  0.16187816  0.14680164  1
  O  O33  1  0.26972370  0.37966942  0.77773760  1
  O  O34  1  0.23027630  0.87966942  0.22226240  1
  O  O35  1  0.37145463  0.66187816  0.85319836  1
  O  O36  1  0.36907125  0.13791963  0.65148267  1
  O  O37  1  0.35695756  0.79164157  0.48509589  1
  O  O38  1  0.35238521  0.03903075  0.03880331  1
  O  O39  1  0.39259324  0.42419821  0.54527213  1
  O  O40  1  0.34365319  0.50493697  0.21689003  1
  O  O41  1  0.38031131  0.13324794  0.31315666  1
  O  O42  1  0.61968869  0.86675206  0.68684334  1
  O  O43  1  0.65634681  0.49506303  0.78310997  1
  O  O44  1  0.60740676  0.57580179  0.45472787  1
  O  O45  1  0.64761479  0.96096925  0.96119669  1
  O  O46  1  0.64304244  0.20835843  0.51490411  1
  O  O47  1  0.63092875  0.86208037  0.34851733  1
  O  O48  1  0.62854537  0.33812184  0.14680164  1
  O  O49  1  0.76972370  0.12033058  0.77773760  1
  O  O50  1  0.73027630  0.62033058  0.22226240  1
  O  O51  1  0.87145463  0.83812184  0.85319836  1
  O  O52  1  0.86907125  0.36208037  0.65148267  1
  O  O53  1  0.85695756  0.70835843  0.48509589  1
  O  O54  1  0.85238521  0.46096925  0.03880331  1
  O  O55  1  0.89259324  0.07580179  0.54527213  1
  O  O56  1  0.84365319  0.99506303  0.21689003  1
  O  O57  1  0.88031131  0.36675206  0.31315666  1
