# generated using pymatgen
data_Li8La4TiNb7O28
_symmetry_space_group_name_H-M   'P 1'
_cell_length_a   5.65805917
_cell_length_b   5.65805917
_cell_length_c   18.45094314
_cell_angle_alpha   90.01903738
_cell_angle_beta   89.98096262
_cell_angle_gamma   90.04808553
_symmetry_Int_Tables_number   1
_chemical_formula_structural   Li8La4TiNb7O28
_chemical_formula_sum   'Li8 La4 Ti1 Nb7 O28'
_cell_volume   590.68146018
_cell_formula_units_Z   1
loop_
 _symmetry_equiv_pos_site_id
 _symmetry_equiv_pos_as_xyz
  1  'x, y, z'
loop_
 _atom_site_type_symbol
 _atom_site_label
 _atom_site_symmetry_multiplicity
 _atom_site_fract_x
 _atom_site_fract_y
 _atom_site_fract_z
 _atom_site_occupancy
  Li  Li0  1  0.00334818  0.99665182  0.23875292  1
  Li  Li1  1  0.00412550  0.50476158  0.25385842  1
  Li  Li2  1  0.00085657  0.99914343  0.76321275  1
  Li  Li3  1  0.00096495  0.50094576  0.74853115  1
  Li  Li4  1  0.49523842  0.99587450  0.25385842  1
  Li  Li5  1  0.49331087  0.50668913  0.26771275  1
  Li  Li6  1  0.49905424  0.99903505  0.74853115  1
  Li  Li7  1  0.49876294  0.50123706  0.73458522  1
  La  La8  1  0.24020605  0.75979395  0.00012393  1
  La  La9  1  0.25841313  0.26094705  0.49422481  1
  La  La10  1  0.73905295  0.74158687  0.49422481  1
  La  La11  1  0.75977668  0.24022332  0.00011750  1
  Ti  Ti12  1  0.24821910  0.75178090  0.38449877  1
  Nb  Nb13  1  0.24778844  0.75221156  0.61340068  1
  Nb  Nb14  1  0.25232706  0.25232171  0.11592695  1
  Nb  Nb15  1  0.25235797  0.25226492  0.88443345  1
  Nb  Nb16  1  0.74767829  0.74767294  0.11592695  1
  Nb  Nb17  1  0.74773508  0.74764203  0.88443345  1
  Nb  Nb18  1  0.75205181  0.24794819  0.38408996  1
  Nb  Nb19  1  0.75196644  0.24803356  0.61501232  1
  O  O20  1  0.00032968  0.99967032  0.11942038  1
  O  O21  1  0.00008529  0.50005784  0.09539857  1
  O  O22  1  0.00075345  0.99924655  0.41548538  1
  O  O23  1  0.00177757  0.50088582  0.40304305  1
  O  O24  1  0.99968326  0.00031674  0.58292617  1
  O  O25  1  0.99957765  0.49934067  0.59744350  1
  O  O26  1  0.00010979  0.99989021  0.87999044  1
  O  O27  1  0.00004139  0.49998251  0.90419939  1
  O  O28  1  0.19896780  0.19896614  0.99985947  1
  O  O29  1  0.22868075  0.77131925  0.28626962  1
  O  O30  1  0.22664573  0.77335427  0.71670039  1
  O  O31  1  0.27388410  0.27377429  0.21763974  1
  O  O32  1  0.27396920  0.27369005  0.78242473  1
  O  O33  1  0.30098365  0.69901635  0.50036964  1
  O  O34  1  0.49992164  0.50007836  0.08246910  1
  O  O35  1  0.49994216  0.99991471  0.09539857  1
  O  O36  1  0.49911418  0.99822243  0.40304305  1
  O  O37  1  0.49918479  0.50081521  0.38245861  1
  O  O38  1  0.50001749  0.99995861  0.90419939  1
  O  O39  1  0.50002838  0.49997162  0.91732614  1
  O  O40  1  0.50065933  0.00042235  0.59744350  1
  O  O41  1  0.50065775  0.49934225  0.62125287  1
  O  O42  1  0.70080239  0.29919761  0.50015248  1
  O  O43  1  0.72622571  0.72611590  0.21763974  1
  O  O44  1  0.72630995  0.72603080  0.78242473  1
  O  O45  1  0.77304607  0.22695393  0.28203546  1
  O  O46  1  0.77433027  0.22566973  0.71767109  1
  O  O47  1  0.80103386  0.80103220  0.99985947  1
