# generated using pymatgen
data_Li2VPO4F
_symmetry_space_group_name_H-M   'P 1'
_cell_length_a   13.21788437
_cell_length_b   5.11042809
_cell_length_c   13.30999545
_cell_angle_alpha   90.00000000
_cell_angle_beta   121.00534929
_cell_angle_gamma   90.00000000
_symmetry_Int_Tables_number   1
_chemical_formula_structural   Li2VPO4F
_chemical_formula_sum   'Li16 V8 P8 O32 F8'
_cell_volume   770.61661113
_cell_formula_units_Z   8
loop_
 _symmetry_equiv_pos_site_id
 _symmetry_equiv_pos_as_xyz
  1  'x, y, z'
loop_
 _atom_site_type_symbol
 _atom_site_label
 _atom_site_symmetry_multiplicity
 _atom_site_fract_x
 _atom_site_fract_y
 _atom_site_fract_z
 _atom_site_occupancy
  Li  Li0  1  0.17155612  0.73455352  0.83457648  1
  Li  Li1  1  0.16910714  0.73297922  0.58711458  1
  Li  Li2  1  0.33089286  0.23297922  0.91288542  1
  Li  Li3  1  0.16529408  0.71733132  0.32863436  1
  Li  Li4  1  0.32844388  0.23455352  0.66542352  1
  Li  Li5  1  0.08400223  0.27352586  0.16731159  1
  Li  Li6  1  0.41599777  0.77352586  0.33268841  1
  Li  Li7  1  0.66529408  0.78266868  0.82863436  1
  Li  Li8  1  0.33470592  0.21733132  0.17136564  1
  Li  Li9  1  0.58400223  0.22647414  0.66731159  1
  Li  Li10  1  0.91599777  0.72647414  0.83268841  1
  Li  Li11  1  0.67155612  0.76544648  0.33457648  1
  Li  Li12  1  0.83470592  0.28266868  0.67136564  1
  Li  Li13  1  0.66910714  0.76702078  0.08711458  1
  Li  Li14  1  0.83089286  0.26702078  0.41288542  1
  Li  Li15  1  0.82844388  0.26544648  0.16542352  1
  V  V16  1  0.10573736  0.28034269  0.67719893  1
  V  V17  1  0.39426264  0.78034269  0.82280107  1
  V  V18  1  0.32260095  0.22472721  0.39401303  1
  V  V19  1  0.17739905  0.72472721  0.10598697  1
  V  V20  1  0.82260095  0.27527279  0.89401303  1
  V  V21  1  0.67739905  0.77527279  0.60598697  1
  V  V22  1  0.60573736  0.21965731  0.17719893  1
  V  V23  1  0.89426264  0.71965731  0.32280107  1
  P  P24  1  0.08668102  0.21567756  0.92065429  1
  P  P25  1  0.08186015  0.21156164  0.41490532  1
  P  P26  1  0.58186015  0.28843836  0.91490532  1
  P  P27  1  0.41331898  0.71567756  0.57934571  1
  P  P28  1  0.58668102  0.28432244  0.42065429  1
  P  P29  1  0.41813985  0.71156164  0.08509468  1
  P  P30  1  0.91813985  0.78843836  0.58509468  1
  P  P31  1  0.91331898  0.78432244  0.07934571  1
  O  O32  1  0.08216822  0.90916232  0.92596133  1
  O  O33  1  0.04441421  0.67364590  0.64877895  1
  O  O34  1  0.15167824  0.30027031  0.85660040  1
  O  O35  1  0.07358384  0.90486732  0.41205904  1
  O  O36  1  0.15134872  0.31116390  0.54353670  1
  O  O37  1  0.34865128  0.81116390  0.95646330  1
  O  O38  1  0.14651707  0.30878677  0.35239159  1
  O  O39  1  0.04028726  0.66937479  0.14643838  1
  O  O40  1  0.34832176  0.80027031  0.64339960  1
  O  O41  1  0.45558579  0.17364590  0.85122105  1
  O  O42  1  0.57358384  0.59513268  0.91205904  1
  O  O43  1  0.34447494  0.82627400  0.45312472  1
  O  O44  1  0.41783178  0.40916232  0.57403867  1
  O  O45  1  0.15552506  0.32627400  0.04687528  1
  O  O46  1  0.64651707  0.19121323  0.85239159  1
  O  O47  1  0.54028726  0.83062521  0.64643838  1
  O  O48  1  0.45971274  0.16937479  0.35356162  1
  O  O49  1  0.35348293  0.80878677  0.14760841  1
  O  O50  1  0.84447494  0.67372600  0.95312472  1
  O  O51  1  0.58216822  0.59083768  0.42596133  1
  O  O52  1  0.65552506  0.17372600  0.54687528  1
  O  O53  1  0.42641616  0.40486732  0.08794096  1
  O  O54  1  0.54441421  0.82635410  0.14877895  1
  O  O55  1  0.65167824  0.19972969  0.35660040  1
  O  O56  1  0.95971274  0.33062521  0.85356162  1
  O  O57  1  0.85348293  0.69121323  0.64760841  1
  O  O58  1  0.65134872  0.18883610  0.04353670  1
  O  O59  1  0.84865128  0.68883610  0.45646330  1
  O  O60  1  0.92641616  0.09513268  0.58794096  1
  O  O61  1  0.84832176  0.69972969  0.14339960  1
  O  O62  1  0.95558579  0.32635410  0.35122105  1
  O  O63  1  0.91783178  0.09083768  0.07403867  1
  F  F64  1  0.22715291  0.96993517  0.73652638  1
  F  F65  1  0.27284709  0.46993517  0.76347362  1
  F  F66  1  0.22132079  0.02939984  0.23068966  1
  F  F67  1  0.27867921  0.52939984  0.26931034  1
  F  F68  1  0.72132079  0.47060016  0.73068966  1
  F  F69  1  0.77867921  0.97060016  0.76931034  1
  F  F70  1  0.72715291  0.53006483  0.23652638  1
  F  F71  1  0.77284709  0.03006483  0.26347362  1
