# generated using pymatgen
data_LiFeOF2
_symmetry_space_group_name_H-M   'P 1'
_cell_length_a   6.65241592
_cell_length_b   6.65241592
_cell_length_c   5.28015414
_cell_angle_alpha   83.50499865
_cell_angle_beta   96.49500135
_cell_angle_gamma   95.25804631
_symmetry_Int_Tables_number   1
_chemical_formula_structural   LiFeOF2
_chemical_formula_sum   'Li4 Fe4 O4 F8'
_cell_volume   229.94447693
_cell_formula_units_Z   4
loop_
 _symmetry_equiv_pos_site_id
 _symmetry_equiv_pos_as_xyz
  1  'x, y, z'
loop_
 _atom_site_type_symbol
 _atom_site_label
 _atom_site_symmetry_multiplicity
 _atom_site_fract_x
 _atom_site_fract_y
 _atom_site_fract_z
 _atom_site_occupancy
  Li  Li0  1  0.21995330  0.60276101  0.67715281  1
  Li  Li1  1  0.39723899  0.78004670  0.17715281  1
  Li  Li2  1  0.60276101  0.21995330  0.82284719  1
  Li  Li3  1  0.78004670  0.39723899  0.32284719  1
  Fe  Fe4  1  0.07289641  0.07289641  0.75000000  1
  Fe  Fe5  1  0.74215425  0.74215425  0.75000000  1
  Fe  Fe6  1  0.25784575  0.25784575  0.25000000  1
  Fe  Fe7  1  0.92710359  0.92710359  0.25000000  1
  O  O8  1  0.01218239  0.80400759  0.60877427  1
  O  O9  1  0.19599241  0.98781761  0.10877427  1
  O  O10  1  0.80400759  0.01218239  0.89122573  1
  O  O11  1  0.98781761  0.19599241  0.39122573  1
  F  F12  1  0.46540605  0.71256929  0.85558512  1
  F  F13  1  0.13963758  0.36004565  0.89014900  1
  F  F14  1  0.28743071  0.53459395  0.35558512  1
  F  F15  1  0.63995435  0.86036242  0.39014900  1
  F  F16  1  0.36004565  0.13963758  0.60985100  1
  F  F17  1  0.71256929  0.46540605  0.64441488  1
  F  F18  1  0.86036242  0.63995435  0.10985100  1
  F  F19  1  0.53459395  0.28743071  0.14441488  1
