# generated using pymatgen
data_V6O7F5
_symmetry_space_group_name_H-M   'P 1'
_cell_length_a   4.75274023
_cell_length_b   7.77784612
_cell_length_c   5.59910358
_cell_angle_alpha   95.01863148
_cell_angle_beta   92.85585187
_cell_angle_gamma   89.13494830
_symmetry_Int_Tables_number   1
_chemical_formula_structural   V6O7F5
_chemical_formula_sum   'V6 O7 F5'
_cell_volume   205.91537028
_cell_formula_units_Z   1
loop_
 _symmetry_equiv_pos_site_id
 _symmetry_equiv_pos_as_xyz
  1  'x, y, z'
loop_
 _atom_site_type_symbol
 _atom_site_label
 _atom_site_symmetry_multiplicity
 _atom_site_fract_x
 _atom_site_fract_y
 _atom_site_fract_z
 _atom_site_occupancy
  V  V0  1  0.50548695  0.67278988  0.17891678  1
  V  V1  1  0.46873457  0.99167901  0.52113076  1
  V  V2  1  0.54597464  0.32505411  0.80807137  1
  V  V3  1  0.98339967  0.67379669  0.65660989  1
  V  V4  1  0.98529571  0.33497154  0.34166535  1
  V  V5  1  0.01891317  0.99846184  0.99465235  1
  O  O6  1  0.80700338  0.43481509  0.62122033  1
  O  O7  1  0.70659768  0.10301669  0.80456508  1
  O  O8  1  0.69095836  0.76559367  0.46834043  1
  O  O9  1  0.68757075  0.42886006  0.10906064  1
  O  O10  1  0.30737322  0.24679628  0.54744740  1
  O  O11  1  0.30005892  0.89505075  0.20310894  1
  O  O12  1  0.19395652  0.89307831  0.70952230  1
  F  F13  1  0.80111646  0.09746871  0.30064482  1
  F  F14  1  0.80349966  0.76675230  0.96967168  1
  F  F15  1  0.30078215  0.56643097  0.86306294  1
  F  F16  1  0.20148165  0.23735997  0.03877236  1
  F  F17  1  0.19179753  0.56802515  0.36353760  1
