# generated using pymatgen
data_Lu(HO)3
_symmetry_space_group_name_H-M   'P 1'
_cell_length_a   10.41873201
_cell_length_b   6.07258234
_cell_length_c   10.56146233
_cell_angle_alpha   90.00000000
_cell_angle_beta   93.06958227
_cell_angle_gamma   90.00000000
_symmetry_Int_Tables_number   1
_chemical_formula_structural   Lu(HO)3
_chemical_formula_sum   'Lu8 H24 O24'
_cell_volume   667.25030045
_cell_formula_units_Z   8
loop_
 _symmetry_equiv_pos_site_id
 _symmetry_equiv_pos_as_xyz
  1  'x, y, z'
loop_
 _atom_site_type_symbol
 _atom_site_label
 _atom_site_symmetry_multiplicity
 _atom_site_fract_x
 _atom_site_fract_y
 _atom_site_fract_z
 _atom_site_occupancy
  Lu  Lu0  1  0.16772850  0.53409323  0.99799686  1
  Lu  Lu1  1  0.16605986  0.52548772  0.50216488  1
  Lu  Lu2  1  0.33394014  0.02548772  0.99783512  1
  Lu  Lu3  1  0.33227150  0.03409323  0.50200314  1
  Lu  Lu4  1  0.66772850  0.96590677  0.49799686  1
  Lu  Lu5  1  0.66605986  0.97451228  0.00216488  1
  Lu  Lu6  1  0.83394014  0.47451228  0.49783512  1
  Lu  Lu7  1  0.83227150  0.46590677  0.00200314  1
  H  H8  1  0.00074478  0.37009917  0.29873182  1
  H  H9  1  0.03430299  0.20700318  0.11333474  1
  H  H10  1  0.09879894  0.14875137  0.86885735  1
  H  H11  1  0.09250016  0.92773899  0.39368566  1
  H  H12  1  0.20288963  0.22469107  0.70789309  1
  H  H13  1  0.18646109  0.84602002  0.19959382  1
  H  H14  1  0.29711037  0.72469107  0.79210691  1
  H  H15  1  0.31353891  0.34602002  0.30040618  1
  H  H16  1  0.40120106  0.64875137  0.63114265  1
  H  H17  1  0.40749984  0.42773899  0.10631434  1
  H  H18  1  0.50074478  0.12990083  0.79873182  1
  H  H19  1  0.46569701  0.70700318  0.38666526  1
  H  H20  1  0.53430299  0.29299682  0.61333474  1
  H  H21  1  0.49925522  0.87009917  0.20126818  1
  H  H22  1  0.59250016  0.57226101  0.89368566  1
  H  H23  1  0.59879894  0.35124863  0.36885735  1
  H  H24  1  0.68646109  0.65397998  0.69959382  1
  H  H25  1  0.70288963  0.27530893  0.20789309  1
  H  H26  1  0.81353891  0.15397998  0.80040618  1
  H  H27  1  0.79711037  0.77530893  0.29210691  1
  H  H28  1  0.90749984  0.07226101  0.60631434  1
  H  H29  1  0.90120106  0.85124863  0.13114265  1
  H  H30  1  0.96569701  0.79299682  0.88666526  1
  H  H31  1  0.99925522  0.62990083  0.70126818  1
  O  O32  1  0.99946110  0.61451791  0.60891167  1
  O  O33  1  0.01607425  0.36317616  0.10650755  1
  O  O34  1  0.18087248  0.22126593  0.88586825  1
  O  O35  1  0.17385015  0.84886873  0.39702503  1
  O  O36  1  0.21101613  0.23083200  0.61561515  1
  O  O37  1  0.18768631  0.84456106  0.10676034  1
  O  O38  1  0.28898387  0.73083200  0.88438485  1
  O  O39  1  0.31912752  0.72126593  0.61413175  1
  O  O40  1  0.31231369  0.34456106  0.39323966  1
  O  O41  1  0.32614985  0.34886873  0.10297497  1
  O  O42  1  0.50053890  0.11451791  0.89108833  1
  O  O43  1  0.48392575  0.86317616  0.39349245  1
  O  O44  1  0.51607425  0.13682384  0.60650755  1
  O  O45  1  0.49946110  0.88548209  0.10891167  1
  O  O46  1  0.67385015  0.65113127  0.89702503  1
  O  O47  1  0.68768631  0.65543894  0.60676034  1
  O  O48  1  0.68087248  0.27873407  0.38586825  1
  O  O49  1  0.71101613  0.26916800  0.11561515  1
  O  O50  1  0.81231369  0.15543894  0.89323966  1
  O  O51  1  0.78898387  0.76916800  0.38438485  1
  O  O52  1  0.82614985  0.15113127  0.60297497  1
  O  O53  1  0.81912752  0.77873407  0.11413175  1
  O  O54  1  0.98392575  0.63682384  0.89349245  1
  O  O55  1  0.00053890  0.38548209  0.39108833  1
