# generated using pymatgen
data_Ti3Mn2Co(PO4)6
_symmetry_space_group_name_H-M   'P 1'
_cell_length_a   8.65672608
_cell_length_b   8.65672652
_cell_length_c   8.65672625
_cell_angle_alpha   60.04098734
_cell_angle_beta   60.04098372
_cell_angle_gamma   60.04098860
_symmetry_Int_Tables_number   1
_chemical_formula_structural   Ti3Mn2Co(PO4)6
_chemical_formula_sum   'Ti3 Mn2 Co1 P6 O24'
_cell_volume   459.14445480
_cell_formula_units_Z   1
loop_
 _symmetry_equiv_pos_site_id
 _symmetry_equiv_pos_as_xyz
  1  'x, y, z'
loop_
 _atom_site_type_symbol
 _atom_site_label
 _atom_site_symmetry_multiplicity
 _atom_site_fract_x
 _atom_site_fract_y
 _atom_site_fract_z
 _atom_site_occupancy
  Ti  Ti0  1  0.14391376  0.14391376  0.14391376  1
  Ti  Ti1  1  0.35422517  0.35422517  0.35422517  1
  Ti  Ti2  1  0.64680243  0.64680243  0.64680243  1
  Mn  Mn3  1  0.99610970  0.99610970  0.99610970  1
  Mn  Mn4  1  0.49947082  0.49947082  0.49947082  1
  Co  Co5  1  0.85569879  0.85569879  0.85569879  1
  P  P6  1  0.25035903  0.54234298  0.95716426  1
  P  P7  1  0.54234298  0.95716426  0.25035903  1
  P  P8  1  0.95716426  0.25035903  0.54234298  1
  P  P9  1  0.04390404  0.75154012  0.45858544  1
  P  P10  1  0.45858544  0.04390404  0.75154012  1
  P  P11  1  0.75154012  0.45858544  0.04390404  1
  O  O12  1  0.11919870  0.31350722  0.49377367  1
  O  O13  1  0.31350722  0.49377367  0.11919870  1
  O  O14  1  0.05846753  0.91392031  0.26278558  1
  O  O15  1  0.49377367  0.11919870  0.31350722  1
  O  O16  1  0.01262447  0.80591386  0.61422257  1
  O  O17  1  0.23581701  0.58396153  0.43569655  1
  O  O18  1  0.26278558  0.05846753  0.91392031  1
  O  O19  1  0.43569655  0.23581701  0.58396153  1
  O  O20  1  0.19389284  0.37748637  0.99990471  1
  O  O21  1  0.58396153  0.43569655  0.23581701  1
  O  O22  1  0.09052543  0.73311546  0.94616934  1
  O  O23  1  0.37748637  0.99990471  0.19389284  1
  O  O24  1  0.61422257  0.01262447  0.80591386  1
  O  O25  1  0.91392031  0.26278558  0.05846753  1
  O  O26  1  0.41740686  0.55423771  0.76525376  1
  O  O27  1  0.80591386  0.61422257  0.01262447  1
  O  O28  1  0.55423771  0.76525376  0.41740686  1
  O  O29  1  0.73311546  0.94616934  0.09052543  1
  O  O30  1  0.76525376  0.41740686  0.55423771  1
  O  O31  1  0.99990471  0.19389284  0.37748637  1
  O  O32  1  0.50016097  0.87845655  0.69338543  1
  O  O33  1  0.94616934  0.09052543  0.73311546  1
  O  O34  1  0.69338543  0.50016097  0.87845655  1
  O  O35  1  0.87845655  0.69338543  0.50016097  1
