# generated using pymatgen
data_Li3Mn4(BO3)4
_symmetry_space_group_name_H-M   'P 1'
_cell_length_a   7.85630634
_cell_length_b   10.55406334
_cell_length_c   6.19297069
_cell_angle_alpha   87.91727541
_cell_angle_beta   79.36462203
_cell_angle_gamma   87.45256768
_symmetry_Int_Tables_number   1
_chemical_formula_structural   Li3Mn4(BO3)4
_chemical_formula_sum   'Li6 Mn8 B8 O24'
_cell_volume   503.96918893
_cell_formula_units_Z   2
loop_
 _symmetry_equiv_pos_site_id
 _symmetry_equiv_pos_as_xyz
  1  'x, y, z'
loop_
 _atom_site_type_symbol
 _atom_site_label
 _atom_site_symmetry_multiplicity
 _atom_site_fract_x
 _atom_site_fract_y
 _atom_site_fract_z
 _atom_site_occupancy
  Li  Li0  1  0.81119689  0.28329240  0.86984417  1
  Li  Li1  1  0.69051013  0.46184456  0.62400384  1
  Li  Li2  1  0.29875256  0.04192839  0.35917491  1
  Li  Li3  1  0.70124744  0.95807161  0.64082509  1
  Li  Li4  1  0.30948987  0.53815544  0.37599616  1
  Li  Li5  1  0.18880311  0.71670760  0.13015583  1
  Mn  Mn6  1  0.83708527  0.20803378  0.40825207  1
  Mn  Mn7  1  0.68192583  0.03121125  0.08176709  1
  Mn  Mn8  1  0.32241018  0.45126167  0.92699488  1
  Mn  Mn9  1  0.81053396  0.70898395  0.43754681  1
  Mn  Mn10  1  0.18946604  0.29101605  0.56245319  1
  Mn  Mn11  1  0.67758982  0.54873833  0.07300512  1
  Mn  Mn12  1  0.31807417  0.96878875  0.91823291  1
  Mn  Mn13  1  0.16291473  0.79196622  0.59174793  1
  B  B14  1  0.50182706  0.20987467  0.74275060  1
  B  B15  1  0.00238503  0.46764565  0.27926510  1
  B  B16  1  0.48742549  0.71188614  0.76275692  1
  B  B17  1  0.98921872  0.95577781  0.26808899  1
  B  B18  1  0.01078128  0.04422219  0.73191101  1
  B  B19  1  0.51257451  0.28811386  0.23724308  1
  B  B20  1  0.99761497  0.53235435  0.72073490  1
  B  B21  1  0.49817294  0.79012533  0.25724940  1
  O  O22  1  0.98950131  0.17482712  0.69127465  1
  O  O23  1  0.86547851  0.46267040  0.83290828  1
  O  O24  1  0.82652921  0.01366122  0.34750079  1
  O  O25  1  0.52582280  0.08308818  0.79820584  1
  O  O26  1  0.96868570  0.65798704  0.65036277  1
  O  O27  1  0.63930726  0.28451676  0.65828536  1
  O  O28  1  0.87623703  0.97339290  0.83043248  1
  O  O29  1  0.33343637  0.26825339  0.79085455  1
  O  O30  1  0.83349514  0.51999024  0.33735121  1
  O  O31  1  0.52010643  0.58270112  0.80232642  1
  O  O32  1  0.67574804  0.23217824  0.15691164  1
  O  O33  1  0.61644395  0.78645180  0.65083759  1
  O  O34  1  0.38355605  0.21354820  0.34916241  1
  O  O35  1  0.32425196  0.76782176  0.84308836  1
  O  O36  1  0.47989357  0.41729888  0.19767358  1
  O  O37  1  0.16650486  0.48000976  0.66264879  1
  O  O38  1  0.66656363  0.73174661  0.20914545  1
  O  O39  1  0.12376297  0.02660710  0.16956752  1
  O  O40  1  0.36069274  0.71548324  0.34171464  1
  O  O41  1  0.03131430  0.34201296  0.34963723  1
  O  O42  1  0.47417720  0.91691182  0.20179416  1
  O  O43  1  0.17347079  0.98633878  0.65249921  1
  O  O44  1  0.13452149  0.53732960  0.16709172  1
  O  O45  1  0.01049869  0.82517288  0.30872535  1
