# generated using pymatgen
data_LiVOF3
_symmetry_space_group_name_H-M   'P 1'
_cell_length_a   7.94031410
_cell_length_b   7.86128542
_cell_length_c   11.13385049
_cell_angle_alpha   101.73339552
_cell_angle_beta   65.79325397
_cell_angle_gamma   81.73731290
_symmetry_Int_Tables_number   1
_chemical_formula_structural   LiVOF3
_chemical_formula_sum   'Li8 V8 O8 F24'
_cell_volume   600.22945893
_cell_formula_units_Z   8
loop_
 _symmetry_equiv_pos_site_id
 _symmetry_equiv_pos_as_xyz
  1  'x, y, z'
loop_
 _atom_site_type_symbol
 _atom_site_label
 _atom_site_symmetry_multiplicity
 _atom_site_fract_x
 _atom_site_fract_y
 _atom_site_fract_z
 _atom_site_occupancy
  Li  Li0  1  0.58935918  0.09658742  0.96377039  1
  Li  Li1  1  0.08559982  0.09322644  0.46513527  1
  Li  Li2  1  0.13052821  0.78476602  0.71613355  1
  Li  Li3  1  0.62879508  0.30035083  0.71477322  1
  Li  Li4  1  0.13494799  0.27792691  0.21752555  1
  Li  Li5  1  0.58601227  0.59832077  0.46648424  1
  Li  Li6  1  0.07035577  0.43943294  0.02066171  1
  Li  Li7  1  0.63466905  0.79372789  0.21313683  1
  V  V8  1  0.47773086  0.01983526  0.51736574  1
  V  V9  1  0.99929651  0.24458305  0.76443361  1
  V  V10  1  0.50144034  0.74771723  0.76759534  1
  V  V11  1  0.50365349  0.24846387  0.26752959  1
  V  V12  1  0.97944056  0.52077867  0.51704739  1
  V  V13  1  0.98089364  0.01113775  0.01384863  1
  V  V14  1  0.47723662  0.51993407  0.01747666  1
  V  V15  1  0.00218942  0.74830000  0.26620059  1
  O  O16  1  0.23906526  0.06377163  0.62411374  1
  O  O17  1  0.93793195  0.11638379  0.87615747  1
  O  O18  1  0.44663723  0.61846858  0.87699750  1
  O  O19  1  0.43950372  0.11881025  0.37676405  1
  O  O20  1  0.74069825  0.56589382  0.62576366  1
  O  O21  1  0.74371559  0.07042355  0.12834497  1
  O  O22  1  0.23675275  0.55650820  0.12317122  1
  O  O23  1  0.94042894  0.62204607  0.37834668  1
  F  F24  1  0.13099421  0.37751905  0.83777810  1
  F  F25  1  0.49781990  0.28542647  0.90249176  1
  F  F26  1  0.07513920  0.38843588  0.61803373  1
  F  F27  1  0.76671786  0.44210546  0.86798476  1
  F  F28  1  0.26753569  0.94612109  0.87094663  1
  F  F29  1  0.04196310  0.72514433  0.58847849  1
  F  F30  1  0.53843982  0.22538176  0.58968601  1
  F  F31  1  0.63383357  0.88486595  0.83677628  1
  F  F32  1  0.88143103  0.15341380  0.65022290  1
  F  F33  1  0.38590871  0.65361811  0.65220222  1
  F  F34  1  0.99533717  0.78956962  0.90270114  1
  F  F35  1  0.27004093  0.44490570  0.36763600  1
  F  F36  1  0.57439964  0.88996889  0.61836225  1
  F  F37  1  0.04661852  0.22995506  0.08493628  1
  F  F38  1  0.13915444  0.88008651  0.33492577  1
  F  F39  1  0.63511893  0.38382248  0.33883203  1
  F  F40  1  0.38991306  0.15091822  0.15062690  1
  F  F41  1  0.00224995  0.28436126  0.40293154  1
  F  F42  1  0.50383048  0.78531684  0.40113470  1
  F  F43  1  0.57696002  0.38984475  0.11763593  1
  F  F44  1  0.07095122  0.89294868  0.12345180  1
  F  F45  1  0.76943175  0.94638592  0.36830391  1
  F  F46  1  0.53687351  0.72416403  0.09137001  1
  F  F47  1  0.87981884  0.64396913  0.15806927  1
