# generated using pymatgen
data_Li3Mn2(P2O7)2
_symmetry_space_group_name_H-M   'P 1'
_cell_length_a   9.82939169
_cell_length_b   9.84099556
_cell_length_c   11.38173024
_cell_angle_alpha   90.27763112
_cell_angle_beta   103.21080051
_cell_angle_gamma   89.56618496
_symmetry_Int_Tables_number   1
_chemical_formula_structural   Li3Mn2(P2O7)2
_chemical_formula_sum   'Li12 Mn8 P16 O56'
_cell_volume   1071.79379396
_cell_formula_units_Z   4
loop_
 _symmetry_equiv_pos_site_id
 _symmetry_equiv_pos_as_xyz
  1  'x, y, z'
loop_
 _atom_site_type_symbol
 _atom_site_label
 _atom_site_symmetry_multiplicity
 _atom_site_fract_x
 _atom_site_fract_y
 _atom_site_fract_z
 _atom_site_occupancy
  Li  Li0  1  0.11536163  0.71881552  0.44772469  1
  Li  Li1  1  0.18090577  0.41422306  0.54976335  1
  Li  Li2  1  0.08769936  0.10874716  0.02672402  1
  Li  Li3  1  0.34329591  0.90309783  0.95811749  1
  Li  Li4  1  0.41248005  0.60587113  0.97033727  1
  Li  Li5  1  0.34881828  0.93265677  0.46773375  1
  Li  Li6  1  0.65118172  0.06734323  0.53226625  1
  Li  Li7  1  0.58751995  0.39412887  0.02966273  1
  Li  Li8  1  0.65670409  0.09690217  0.04188251  1
  Li  Li9  1  0.91230064  0.89125284  0.97327598  1
  Li  Li10  1  0.81909423  0.58577694  0.45023665  1
  Li  Li11  1  0.88463837  0.28118448  0.55227531  1
  Mn  Mn12  1  0.20226250  0.92520886  0.67166511  1
  Mn  Mn13  1  0.25698948  0.21732276  0.82525078  1
  Mn  Mn14  1  0.24167856  0.71069115  0.17388613  1
  Mn  Mn15  1  0.29533439  0.42044182  0.32283110  1
  Mn  Mn16  1  0.70466561  0.57955818  0.67716890  1
  Mn  Mn17  1  0.75832144  0.28930885  0.82611387  1
  Mn  Mn18  1  0.74301052  0.78267724  0.17474922  1
  Mn  Mn19  1  0.79773750  0.07479114  0.32833489  1
  P  P20  1  0.02413181  0.45208597  0.75367672  1
  P  P21  1  0.11805113  0.70984255  0.88823867  1
  P  P22  1  0.06128275  0.93095351  0.24244431  1
  P  P23  1  0.12196318  0.14966559  0.42435607  1
  P  P24  1  0.38043528  0.64682916  0.57801093  1
  P  P25  1  0.43840364  0.43041587  0.75838131  1
  P  P26  1  0.52331132  0.05017440  0.75613013  1
  P  P27  1  0.38195349  0.20753672  0.10986308  1
  P  P28  1  0.61804651  0.79246328  0.89013692  1
  P  P29  1  0.47668868  0.94982560  0.24386987  1
  P  P30  1  0.56159636  0.56958413  0.24161869  1
  P  P31  1  0.61956472  0.35317084  0.42198907  1
  P  P32  1  0.87803682  0.85033441  0.57564393  1
  P  P33  1  0.93871725  0.06904649  0.75755569  1
  P  P34  1  0.88194887  0.29015745  0.11176133  1
  P  P35  1  0.97586819  0.54791403  0.24632328  1
  O  O36  1  0.02292691  0.41985925  0.62302174  1
  O  O37  1  0.03065487  0.83790011  0.56145098  1
  O  O38  1  0.08526099  0.08714293  0.73138535  1
  O  O39  1  0.10573040  0.34964408  0.84471037  1
  O  O40  1  0.09807978  0.59624912  0.78043684  1
  O  O41  1  0.18438646  0.82961132  0.83417700  1
  O  O42  1  0.22968674  0.65304627  0.99640441  1
  O  O43  1  0.02025733  0.26514241  0.08240935  1
  O  O44  1  0.11667161  0.07817232  0.29522656  1
  O  O45  1  0.06494778  0.93524219  0.11063332  1
  O  O46  1  0.12938279  0.53651731  0.22620932  1
  O  O47  1  0.17987294  0.29166463  0.41322824  1
  O  O48  1  0.16537791  0.82294196  0.31011441  1
  O  O49  1  0.21310327  0.05787032  0.51859011  1
  O  O50  1  0.27949171  0.56388995  0.48111648  1
  O  O51  1  0.32855115  0.32563525  0.69568426  1
  O  O52  1  0.31880871  0.79029592  0.58295876  1
  O  O53  1  0.37078928  0.04005880  0.78279147  1
  O  O54  1  0.37742358  0.57746208  0.70577647  1
  O  O55  1  0.44110075  0.43560969  0.89121756  1
  O  O56  1  0.47937319  0.77452543  0.92358041  1
  O  O57  1  0.27694099  0.13985850  0.00031961  1
  O  O58  1  0.32229319  0.32939292  0.16326792  1
  O  O59  1  0.40579275  0.09723556  0.21861177  1
  O  O60  1  0.41720073  0.58732146  0.27264137  1
  O  O61  1  0.39116750  0.85514843  0.14682699  1
  O  O62  1  0.51973793  0.07971090  0.62701091  1
  O  O63  1  0.46756925  0.35029622  0.43255732  1
  O  O64  1  0.53243075  0.64970378  0.56744268  1
  O  O65  1  0.48026207  0.92028910  0.37298909  1
  O  O66  1  0.60883250  0.14485157  0.85317301  1
  O  O67  1  0.58279927  0.41267854  0.72735863  1
  O  O68  1  0.59420725  0.90276444  0.78138823  1
  O  O69  1  0.67770681  0.67060708  0.83673208  1
  O  O70  1  0.72305901  0.86014150  0.99968039  1
  O  O71  1  0.52062681  0.22547457  0.07641959  1
  O  O72  1  0.55889925  0.56439031  0.10878244  1
  O  O73  1  0.62257642  0.42253792  0.29422353  1
  O  O74  1  0.62921072  0.95994120  0.21720853  1
  O  O75  1  0.68119129  0.20970408  0.41704124  1
  O  O76  1  0.67144885  0.67436475  0.30431574  1
  O  O77  1  0.72050829  0.43611005  0.51888352  1
  O  O78  1  0.78689673  0.94212968  0.48140989  1
  O  O79  1  0.83462209  0.17705804  0.68988559  1
  O  O80  1  0.82012706  0.70833537  0.58677176  1
  O  O81  1  0.87061721  0.46348269  0.77379068  1
  O  O82  1  0.93505222  0.06475781  0.88936668  1
  O  O83  1  0.88332839  0.92182768  0.70477344  1
  O  O84  1  0.97974267  0.73485759  0.91759065  1
  O  O85  1  0.77031326  0.34695373  0.00359559  1
  O  O86  1  0.81561354  0.17038868  0.16582300  1
  O  O87  1  0.90192022  0.40375088  0.21956316  1
  O  O88  1  0.89426960  0.65035592  0.15528963  1
  O  O89  1  0.91473901  0.91285707  0.26861465  1
  O  O90  1  0.96934513  0.16209989  0.43854902  1
  O  O91  1  0.97707309  0.58014075  0.37697826  1
