# generated using pymatgen
data_CuH10(ClO6)3
_symmetry_space_group_name_H-M   'P 1'
_cell_length_a   10.31631053
_cell_length_b   10.31631053
_cell_length_c   13.23106006
_cell_angle_alpha   90.00000000
_cell_angle_beta   90.00000000
_cell_angle_gamma   119.99999864
_symmetry_Int_Tables_number   1
_chemical_formula_structural   CuH10(ClO6)3
_chemical_formula_sum   'Cu3 H30 Cl9 O54'
_cell_volume   1219.47834015
_cell_formula_units_Z   3
loop_
 _symmetry_equiv_pos_site_id
 _symmetry_equiv_pos_as_xyz
  1  'x, y, z'
loop_
 _atom_site_type_symbol
 _atom_site_label
 _atom_site_symmetry_multiplicity
 _atom_site_fract_x
 _atom_site_fract_y
 _atom_site_fract_z
 _atom_site_occupancy
  Cu  Cu0  1  0.30398707  0.30398707  0.66666700  1
  Cu  Cu1  1  0.00000000  0.69601293  0.33333300  1
  Cu  Cu2  1  0.69601293  0.00000000  0.00000000  1
  H  H3  1  0.67337018  0.76993294  0.90141547  1
  H  H4  1  0.09656276  0.32662982  0.56808247  1
  H  H5  1  0.90343724  0.23006706  0.09858453  1
  H  H6  1  0.23006706  0.90343724  0.23474847  1
  H  H7  1  0.76993294  0.67337018  0.43191753  1
  H  H8  1  0.32662982  0.09656276  0.76525153  1
  H  H9  1  0.73514948  0.10881437  0.81452278  1
  H  H10  1  0.37366489  0.26485052  0.48118978  1
  H  H11  1  0.62633511  0.89118563  0.18547722  1
  H  H12  1  0.89118563  0.62633511  0.14785578  1
  H  H13  1  0.10881437  0.73514948  0.51881022  1
  H  H14  1  0.26485052  0.37366489  0.85214422  1
  H  H15  1  0.56238047  0.81616163  0.85330441  1
  H  H16  1  0.25378115  0.43761953  0.51997141  1
  H  H17  1  0.74621885  0.18383837  0.14669559  1
  H  H18  1  0.18383837  0.74621885  0.18663741  1
  H  H19  1  0.81616163  0.56238047  0.48002859  1
  H  H20  1  0.43761953  0.25378115  0.81336259  1
  H  H21  1  0.52815162  0.61653870  0.66929348  1
  H  H22  1  0.08838708  0.47184838  0.33596048  1
  H  H23  1  0.91161292  0.38346130  0.33070652  1
  H  H24  1  0.38346130  0.91161292  0.00262648  1
  H  H25  1  0.61653870  0.52815162  0.66403952  1
  H  H26  1  0.47184838  0.08838708  0.99737352  1
  H  H27  1  0.85076225  0.23285250  0.88883035  1
  H  H28  1  0.38209025  0.14923775  0.55549735  1
  H  H29  1  0.61790975  0.76714750  0.11116965  1
  H  H30  1  0.76714750  0.61790975  0.22216335  1
  H  H31  1  0.23285250  0.85076225  0.44450265  1
  H  H32  1  0.14923775  0.38209025  0.77783665  1
  Cl  Cl33  1  0.82488683  0.36944192  0.64508495  1
  Cl  Cl34  1  0.54455508  0.17511317  0.31175195  1
  Cl  Cl35  1  0.45544492  0.63055808  0.35491505  1
  Cl  Cl36  1  0.63055808  0.45544492  0.97841795  1
  Cl  Cl37  1  0.36944192  0.82488683  0.68824805  1
  Cl  Cl38  1  0.17511317  0.54455508  0.02158205  1
  Cl  Cl39  1  0.91640424  0.91640424  0.66666700  1
  Cl  Cl40  1  1.00000000  0.08359576  0.33333300  1
  Cl  Cl41  1  0.08359576  1.00000000  0.00000000  1
  O  O42  1  0.93288690  0.38965426  0.72402559  1
  O  O43  1  0.45676737  0.06711310  0.39069259  1
  O  O44  1  0.54323263  0.61034574  0.27597441  1
  O  O45  1  0.61034574  0.54323263  0.05735859  1
  O  O46  1  0.38965426  0.93288690  0.60930741  1
  O  O47  1  0.06711310  0.45676737  0.94264141  1
  O  O48  1  0.93064081  0.06318154  0.67844637  1
  O  O49  1  0.13254073  0.06935919  0.34511337  1
  O  O50  1  0.86745927  0.93681846  0.32155363  1
  O  O51  1  0.93681846  0.86745927  0.01177937  1
  O  O52  1  0.06318154  0.93064081  0.65488663  1
  O  O53  1  0.06935919  0.13254073  0.98822063  1
  O  O54  1  0.61124492  0.81490963  0.91682503  1
  O  O55  1  0.20366472  0.38875508  0.58349203  1
  O  O56  1  0.79633528  0.18509037  0.08317497  1
  O  O57  1  0.18509037  0.79633528  0.25015803  1
  O  O58  1  0.81490963  0.61124492  0.41650797  1
  O  O59  1  0.38875508  0.20366472  0.74984197  1
  O  O60  1  0.76235180  0.44378959  0.00119698  1
  O  O61  1  0.68143779  0.23764820  0.66786398  1
  O  O62  1  0.31856221  0.55621041  0.99880302  1
  O  O63  1  0.55621041  0.31856221  0.33452998  1
  O  O64  1  0.44378959  0.76235180  0.33213602  1
  O  O65  1  0.23764820  0.68143779  0.66547002  1
  O  O66  1  0.87991670  0.35390835  0.54658606  1
  O  O67  1  0.47399166  0.12008330  0.21325306  1
  O  O68  1  0.52600834  0.64609165  0.45341394  1
  O  O69  1  0.64609165  0.52600834  0.87991906  1
  O  O70  1  0.35390835  0.87991670  0.78674694  1
  O  O71  1  0.12008330  0.47399166  0.12008094  1
  O  O72  1  0.82348937  0.84234732  0.57767953  1
  O  O73  1  0.01885795  0.17651063  0.24434653  1
  O  O74  1  0.98114205  0.15765268  0.42232047  1
  O  O75  1  0.15765268  0.98114205  0.91101253  1
  O  O76  1  0.84234732  0.82348937  0.75565347  1
  O  O77  1  0.17651063  0.01885795  0.08898747  1
  O  O78  1  0.32517358  0.32517358  0.16666700  1
  O  O79  1  0.00000000  0.67482642  0.83333300  1
  O  O80  1  0.67482642  0.00000000  0.50000000  1
  O  O81  1  0.50352781  0.80758447  0.69246334  1
  O  O82  1  0.30405665  0.49647219  0.35913034  1
  O  O83  1  0.69594335  0.19241553  0.30753666  1
  O  O84  1  0.19241553  0.69594335  0.02579634  1
  O  O85  1  0.80758447  0.50352781  0.64086966  1
  O  O86  1  0.49647219  0.30405665  0.97420366  1
  O  O87  1  0.78645132  0.12478570  0.87929529  1
  O  O88  1  0.33833438  0.21354868  0.54596229  1
  O  O89  1  0.66166562  0.87521430  0.12070471  1
  O  O90  1  0.87521430  0.66166562  0.21262829  1
  O  O91  1  0.12478570  0.78645132  0.45403771  1
  O  O92  1  0.21354868  0.33833438  0.78737171  1
  O  O93  1  0.51655805  0.51655805  0.66666700  1
  O  O94  1  1.00000000  0.48344195  0.33333300  1
  O  O95  1  0.48344195  1.00000000  0.00000000  1
