# generated using pymatgen
data_SrCaI4
_symmetry_space_group_name_H-M   'P 1'
_cell_length_a   9.02147353
_cell_length_b   9.02147353
_cell_length_c   9.02147353
_cell_angle_alpha   106.68667458
_cell_angle_beta   106.68377242
_cell_angle_gamma   115.19960298
_symmetry_Int_Tables_number   1
_chemical_formula_structural   SrCaI4
_chemical_formula_sum   'Sr2 Ca2 I8'
_cell_volume   560.93124150
_cell_formula_units_Z   2
loop_
 _symmetry_equiv_pos_site_id
 _symmetry_equiv_pos_as_xyz
  1  'x, y, z'
loop_
 _atom_site_type_symbol
 _atom_site_label
 _atom_site_symmetry_multiplicity
 _atom_site_fract_x
 _atom_site_fract_y
 _atom_site_fract_z
 _atom_site_occupancy
  Sr  Sr0  1  0.50000000  0.00000000  0.50000000  1
  Sr  Sr1  1  0.00000000  0.50000000  0.50000000  1
  Ca  Ca2  1  0.26525372  0.25000000  0.01525372  1
  Ca  Ca3  1  0.73474628  0.75000000  0.98474628  1
  I  I4  1  0.72746876  0.04484183  0.27231059  1
  I  I5  1  0.70519471  0.51486811  0.19032660  1
  I  I6  1  0.82454151  0.01486811  0.80967340  1
  I  I7  1  0.72746876  0.45515817  0.68262692  1
  I  I8  1  0.27253124  0.54484183  0.31737308  1
  I  I9  1  0.29480529  0.48513189  0.80967340  1
  I  I10  1  0.17545849  0.98513189  0.19032660  1
  I  I11  1  0.27253124  0.95515817  0.72768941  1
