# generated using pymatgen
data_LiVP2HO8
_symmetry_space_group_name_H-M   'P 1'
_cell_length_a   9.75459228
_cell_length_b   7.96969612
_cell_length_c   7.78885572
_cell_angle_alpha   90.10794556
_cell_angle_beta   67.59009347
_cell_angle_gamma   90.42914205
_symmetry_Int_Tables_number   1
_chemical_formula_structural   LiVP2HO8
_chemical_formula_sum   'Li4 V4 P8 H4 O32'
_cell_volume   559.77010858
_cell_formula_units_Z   4
loop_
 _symmetry_equiv_pos_site_id
 _symmetry_equiv_pos_as_xyz
  1  'x, y, z'
loop_
 _atom_site_type_symbol
 _atom_site_label
 _atom_site_symmetry_multiplicity
 _atom_site_fract_x
 _atom_site_fract_y
 _atom_site_fract_z
 _atom_site_occupancy
  Li  Li0  1  0.22759371  0.36741671  0.65140336  1
  Li  Li1  1  0.27298779  0.87177911  0.85024207  1
  Li  Li2  1  0.77708425  0.63649668  0.34568667  1
  Li  Li3  1  0.72901446  0.36613131  0.65439981  1
  V  V4  1  0.24756816  0.49701093  0.01399361  1
  V  V5  1  0.25356619  0.99694863  0.48627562  1
  V  V6  1  0.74890033  0.50173946  0.00227838  1
  V  V7  1  0.75066058  0.00289640  0.49569101  1
  P  P8  1  0.06864857  0.84699522  0.23079145  1
  P  P9  1  0.06868798  0.65134827  0.73842975  1
  P  P10  1  0.43173616  0.35030088  0.26842485  1
  P  P11  1  0.57022054  0.85465332  0.22768737  1
  P  P12  1  0.43139205  0.15430193  0.76488436  1
  P  P13  1  0.56564205  0.65917076  0.73884159  1
  P  P14  1  0.93207269  0.34780738  0.26656785  1
  P  P15  1  0.93068537  0.15191961  0.76491977  1
  H  H16  1  0.01225039  0.50943981  0.51134692  1
  H  H17  1  0.50935481  0.51017445  0.50983572  1
  H  H18  1  0.49572560  0.00283791  0.99575300  1
  H  H19  1  0.98579235  0.01168791  0.98728832  1
  O  O20  1  0.09483756  0.94134978  0.05274535  1
  O  O21  1  0.09828200  0.33145732  0.14056542  1
  O  O22  1  0.13899018  0.67131612  0.18614090  1
  O  O23  1  0.14146276  0.94296189  0.35265970  1
  O  O24  1  0.09645403  0.54787533  0.55897331  1
  O  O25  1  0.09857550  0.17394188  0.64487769  1
  O  O26  1  0.14263993  0.82460926  0.69051814  1
  O  O27  1  0.14625696  0.54856433  0.84576286  1
  O  O28  1  0.35731911  0.44616281  0.15062130  1
  O  O29  1  0.36431859  0.17341154  0.31203145  1
  O  O30  1  0.40492516  0.83280173  0.36174820  1
  O  O31  1  0.40654135  0.44417328  0.44820359  1
  O  O32  1  0.35566390  0.05209962  0.65181744  1
  O  O33  1  0.35386984  0.32604575  0.81277309  1
  O  O34  1  0.58866758  0.94647772  0.05080596  1
  O  O35  1  0.59893399  0.34517607  0.14000895  1
  O  O36  1  0.39817222  0.67547367  0.85555434  1
  O  O37  1  0.40625849  0.05009311  0.93951080  1
  O  O38  1  0.64875783  0.68034352  0.18619140  1
  O  O39  1  0.64699350  0.94796565  0.34683328  1
  O  O40  1  0.59524513  0.55688942  0.55375874  1
  O  O41  1  0.59875012  0.17862006  0.64175827  1
  O  O42  1  0.64108829  0.82907216  0.68074069  1
  O  O43  1  0.63995308  0.54891195  0.84135971  1
  O  O44  1  0.85664618  0.45388929  0.15891433  1
  O  O45  1  0.86173349  0.17290528  0.31447457  1
  O  O46  1  0.90147741  0.82744977  0.35756260  1
  O  O47  1  0.90412264  0.44771496  0.44643779  1
  O  O48  1  0.85729627  0.05704318  0.64661662  1
  O  O49  1  0.85088387  0.32408450  0.81373701  1
  O  O50  1  0.90103298  0.66005358  0.85901578  1
  O  O51  1  0.90267900  0.05742977  0.94700123  1
