# generated using pymatgen
data_Mn3(OF2)2
_symmetry_space_group_name_H-M   'P 1'
_cell_length_a   4.87434910
_cell_length_b   4.87434910
_cell_length_c   9.44580549
_cell_angle_alpha   90.00000000
_cell_angle_beta   90.00000000
_cell_angle_gamma   90.00000000
_symmetry_Int_Tables_number   1
_chemical_formula_structural   Mn3(OF2)2
_chemical_formula_sum   'Mn6 O4 F8'
_cell_volume   224.42552942
_cell_formula_units_Z   2
loop_
 _symmetry_equiv_pos_site_id
 _symmetry_equiv_pos_as_xyz
  1  'x, y, z'
loop_
 _atom_site_type_symbol
 _atom_site_label
 _atom_site_symmetry_multiplicity
 _atom_site_fract_x
 _atom_site_fract_y
 _atom_site_fract_z
 _atom_site_occupancy
  Mn  Mn0  1  0.00000000  0.00000000  0.01552945  1
  Mn  Mn1  1  0.00000000  0.00000000  0.31780355  1
  Mn  Mn2  1  0.00000000  0.00000000  0.66666700  1
  Mn  Mn3  1  0.50000000  0.50000000  0.81780355  1
  Mn  Mn4  1  0.50000000  0.50000000  0.16666700  1
  Mn  Mn5  1  0.50000000  0.50000000  0.51552945  1
  O  O6  1  0.18500321  0.81499679  0.16666700  1
  O  O7  1  0.31499679  0.31499679  0.66666700  1
  O  O8  1  0.68500321  0.68500321  0.66666700  1
  O  O9  1  0.81499679  0.18500321  0.16666700  1
  F  F10  1  0.18578970  0.81421030  0.48180711  1
  F  F11  1  0.18578970  0.81421030  0.85152689  1
  F  F12  1  0.31421030  0.31421030  0.98180711  1
  F  F13  1  0.31421030  0.31421030  0.35152689  1
  F  F14  1  0.68578970  0.68578970  0.98180711  1
  F  F15  1  0.68578970  0.68578970  0.35152689  1
  F  F16  1  0.81421030  0.18578970  0.48180711  1
  F  F17  1  0.81421030  0.18578970  0.85152689  1
