# generated using pymatgen
data_Li5Mn6(BO3)6
_symmetry_space_group_name_H-M   'P 1'
_cell_length_a   8.24527383
_cell_length_b   8.28778715
_cell_length_c   12.73864475
_cell_angle_alpha   90.00000000
_cell_angle_beta   90.00000000
_cell_angle_gamma   60.09856331
_symmetry_Int_Tables_number   1
_chemical_formula_structural   Li5Mn6(BO3)6
_chemical_formula_sum   'Li10 Mn12 B12 O36'
_cell_volume   754.61947805
_cell_formula_units_Z   2
loop_
 _symmetry_equiv_pos_site_id
 _symmetry_equiv_pos_as_xyz
  1  'x, y, z'
loop_
 _atom_site_type_symbol
 _atom_site_label
 _atom_site_symmetry_multiplicity
 _atom_site_fract_x
 _atom_site_fract_y
 _atom_site_fract_z
 _atom_site_occupancy
  Li  Li0  1  0.27986520  0.69946970  0.12500000  1
  Li  Li1  1  0.28072607  0.70217395  0.37290450  1
  Li  Li2  1  0.28072607  0.70217395  0.87709550  1
  Li  Li3  1  0.01689468  0.28144647  0.62500000  1
  Li  Li4  1  0.01738984  0.28095966  0.37626176  1
  Li  Li5  1  0.01738984  0.28095966  0.87373824  1
  Li  Li6  1  0.70253993  0.01655376  0.12500000  1
  Li  Li7  1  0.70222760  0.01640062  0.37574212  1
  Li  Li8  1  0.70000127  0.02105651  0.62500000  1
  Li  Li9  1  0.70222760  0.01640062  0.87425788  1
  Mn  Mn10  1  0.36430607  0.99761959  0.00082797  1
  Mn  Mn11  1  0.36430607  0.99761959  0.24917203  1
  Mn  Mn12  1  0.36840350  0.98098319  0.50140732  1
  Mn  Mn13  1  0.36840350  0.98098319  0.74859268  1
  Mn  Mn14  1  0.65173433  0.36716322  0.00165084  1
  Mn  Mn15  1  0.65173433  0.36716322  0.24834916  1
  Mn  Mn16  1  0.63029857  0.38268021  0.50107685  1
  Mn  Mn17  1  0.63029857  0.38268021  0.74892315  1
  Mn  Mn18  1  0.99929360  0.63905530  0.50118283  1
  Mn  Mn19  1  0.98782833  0.63054590  0.00116178  1
  Mn  Mn20  1  0.98782833  0.63054590  0.24883822  1
  Mn  Mn21  1  0.99929360  0.63905530  0.74881717  1
  B  B22  1  0.99407297  0.00668629  0.49654393  1
  B  B23  1  0.00047559  0.99307210  0.99647927  1
  B  B24  1  0.00047559  0.99307210  0.25352073  1
  B  B25  1  0.99407297  0.00668629  0.75345607  1
  B  B26  1  0.33558004  0.33121749  0.87494464  1
  B  B27  1  0.33803346  0.32484578  0.62500000  1
  B  B28  1  0.33558004  0.33121749  0.37505536  1
  B  B29  1  0.33654855  0.33774672  0.12500000  1
  B  B30  1  0.66729003  0.66675164  0.37494363  1
  B  B31  1  0.65936928  0.67337987  0.12500000  1
  B  B32  1  0.67211381  0.66842844  0.62500000  1
  B  B33  1  0.66729003  0.66675164  0.87505637  1
  O  O34  1  0.11031871  0.79911302  0.24716105  1
  O  O35  1  0.10126680  0.81725599  0.76456111  1
  O  O36  1  0.11031871  0.79911302  0.00283895  1
  O  O37  1  0.10126680  0.81725599  0.48543889  1
  O  O38  1  0.46522340  0.79055622  0.12500000  1
  O  O39  1  0.48158365  0.78100810  0.62500000  1
  O  O40  1  0.47403310  0.77945556  0.37466980  1
  O  O41  1  0.47403310  0.77945556  0.87533020  1
  O  O42  1  0.14460782  0.45680190  0.12500000  1
  O  O43  1  0.14128186  0.44022362  0.87550943  1
  O  O44  1  0.14128186  0.44022362  0.37449057  1
  O  O45  1  0.14518428  0.43859659  0.62500000  1
  O  O46  1  0.07715736  0.11820411  0.50218780  1
  O  O47  1  0.08304075  0.10078841  0.98529642  1
  O  O48  1  0.08304075  0.10078841  0.26470358  1
  O  O49  1  0.07715736  0.11820411  0.74781220  1
  O  O50  1  0.44407655  0.41668074  0.87594047  1
  O  O51  1  0.45707990  0.39715842  0.62500000  1
  O  O52  1  0.44407655  0.41668074  0.37405953  1
  O  O53  1  0.45189641  0.41526272  0.12500000  1
  O  O54  1  0.77720740  0.74998953  0.12500000  1
  O  O55  1  0.78287554  0.74441605  0.37250862  1
  O  O56  1  0.78287554  0.74441605  0.87749138  1
  O  O57  1  0.78998166  0.74488017  0.62500000  1
  O  O58  1  0.73697884  0.48315526  0.12500000  1
  O  O59  1  0.74681668  0.47308808  0.37769889  1
  O  O60  1  0.74888068  0.47444988  0.62500000  1
  O  O61  1  0.74681668  0.47308808  0.87230111  1
  O  O62  1  0.41505213  0.14602819  0.12500000  1
  O  O63  1  0.41536996  0.13274972  0.62500000  1
  O  O64  1  0.41899993  0.13865311  0.87336015  1
  O  O65  1  0.41899993  0.13865311  0.37663985  1
  O  O66  1  0.80494080  0.07679499  0.99952999  1
  O  O67  1  0.80494080  0.07679499  0.25047001  1
  O  O68  1  0.79839072  0.09138767  0.50018645  1
  O  O69  1  0.79839072  0.09138767  0.74981355  1
