# generated using pymatgen
data_Ni6OF11
_symmetry_space_group_name_H-M   'P 1'
_cell_length_a   7.35858246
_cell_length_b   5.63113465
_cell_length_c   5.63113465
_cell_angle_alpha   72.01130282
_cell_angle_beta   72.27675868
_cell_angle_gamma   72.27675868
_symmetry_Int_Tables_number   1
_chemical_formula_structural   Ni6OF11
_chemical_formula_sum   'Ni6 O1 F11'
_cell_volume   205.61871326
_cell_formula_units_Z   1
loop_
 _symmetry_equiv_pos_site_id
 _symmetry_equiv_pos_as_xyz
  1  'x, y, z'
loop_
 _atom_site_type_symbol
 _atom_site_label
 _atom_site_symmetry_multiplicity
 _atom_site_fract_x
 _atom_site_fract_y
 _atom_site_fract_z
 _atom_site_occupancy
  Ni  Ni0  1  0.83894220  0.65551187  0.66686419  1
  Ni  Ni1  1  0.33330501  0.66597527  0.66976890  1
  Ni  Ni2  1  0.66669499  0.33023110  0.33402473  1
  Ni  Ni3  1  0.16105780  0.33313581  0.34448813  1
  Ni  Ni4  1  0.50000000  -0.00087131  0.00087131  1
  Ni  Ni5  1  0.00000000  0.00733505  0.99266495  1
  O  O6  1  0.00000000  0.30861224  0.69138776  1
  F  F7  1  0.67066112  0.02260400  0.63742251  1
  F  F8  1  0.32933888  0.36257749  0.97739600  1
  F  F9  1  0.29790270  0.90076434  0.89832167  1
  F  F10  1  0.63107059  0.56465381  0.56424841  1
  F  F11  1  0.96435737  0.23431305  0.23061029  1
  F  F12  1  0.70209730  0.10167833  0.09923566  1
  F  F13  1  0.03564263  0.76938971  0.76568695  1
  F  F14  1  0.36892941  0.43575159  0.43534619  1
  F  F15  1  0.33282396  0.97009652  0.36542835  1
  F  F16  1  0.66717604  0.63457165  0.02990348  1
  F  F17  1  0.00000000  0.70367047  0.29632953  1
