# generated using pymatgen
data_Li5Mn6(BO3)6
_symmetry_space_group_name_H-M   'P 1'
_cell_length_a   8.28562304
_cell_length_b   10.42830137
_cell_length_c   10.42830133
_cell_angle_alpha   75.36806622
_cell_angle_beta   66.80119022
_cell_angle_gamma   66.80118878
_symmetry_Int_Tables_number   1
_chemical_formula_structural   Li5Mn6(BO3)6
_chemical_formula_sum   'Li10 Mn12 B12 O36'
_cell_volume   756.15586548
_cell_formula_units_Z   2
loop_
 _symmetry_equiv_pos_site_id
 _symmetry_equiv_pos_as_xyz
  1  'x, y, z'
loop_
 _atom_site_type_symbol
 _atom_site_label
 _atom_site_symmetry_multiplicity
 _atom_site_fract_x
 _atom_site_fract_y
 _atom_site_fract_z
 _atom_site_occupancy
  Li  Li0  1  0.98932552  0.73268364  0.98268364  1
  Li  Li1  1  0.98461131  0.98511696  0.73202352  1
  Li  Li2  1  0.71996963  0.52309024  0.77309024  1
  Li  Li3  1  0.71862899  0.77277473  0.52692076  1
  Li  Li4  1  0.98461131  0.48202352  0.23511696  1
  Li  Li5  1  0.96907606  0.23710255  0.48710255  1
  Li  Li6  1  0.71862899  0.27692076  0.02277473  1
  Li  Li7  1  0.30518611  0.86630459  0.11630459  1
  Li  Li8  1  0.29786698  0.11312459  0.86931948  1
  Li  Li9  1  0.29786698  0.61931948  0.36312459  1
  Mn  Mn10  1  0.36821012  0.81281777  0.81212271  1
  Mn  Mn11  1  0.63750311  0.76154183  0.25625805  1
  Mn  Mn12  1  0.61193006  0.25811591  0.75848300  1
  Mn  Mn13  1  0.61193006  0.50848300  0.50811591  1
  Mn  Mn14  1  0.01724270  0.42644500  0.92326260  1
  Mn  Mn15  1  0.01724270  0.67326260  0.67644500  1
  Mn  Mn16  1  0.00355448  0.93034934  0.42983889  1
  Mn  Mn17  1  0.35997173  0.06867590  0.56439822  1
  Mn  Mn18  1  0.35997173  0.31439822  0.31867590  1
  Mn  Mn19  1  0.36821012  0.56212271  0.06281777  1
  Mn  Mn20  1  0.63750311  0.00625705  0.01154283  1
  Mn  Mn21  1  0.00355448  0.17983889  0.18034934  1
  B  B22  1  0.66908248  0.95876092  0.70840605  1
  B  B23  1  0.67358467  0.70747487  0.95747487  1
  B  B24  1  0.99005139  0.24470242  0.75483003  1
  B  B25  1  0.99005139  0.50483003  0.49470242  1
  B  B26  1  0.66347777  0.21187980  0.46187980  1
  B  B27  1  0.66908248  0.45840605  0.20876092  1
  B  B28  1  0.33252493  0.54390306  0.79390306  1
  B  B29  1  0.33344764  0.79173603  0.54173067  1
  B  B30  1  0.01020386  0.00009292  0.99266182  1
  B  B31  1  0.01020386  0.74266182  0.25009292  1
  B  B32  1  0.33344764  0.29173067  0.04173603  1
  B  B33  1  0.32370606  0.04352522  0.29352522  1
  O  O34  1  0.92854600  0.94004601  0.93929931  1
  O  O35  1  0.86600723  0.65340136  0.90340136  1
  O  O36  1  0.86157230  0.90350756  0.65478147  1
  O  O37  1  0.90090171  0.82382886  0.35836614  1
  O  O38  1  0.88246214  0.34978359  0.84427596  1
  O  O39  1  0.88246214  0.59427596  0.59978359  1
  O  O40  1  0.92854600  0.68929931  0.19004601  1
  O  O41  1  0.90230928  0.19542341  0.69656608  1
  O  O42  1  0.90230928  0.44656608  0.44542341  1
  O  O43  1  0.56602495  0.66413603  0.91413603  1
  O  O44  1  0.56028220  0.91660690  0.66561994  1
  O  O45  1  0.20343378  0.95121386  0.96108984  1
  O  O46  1  0.86157230  0.40478147  0.15350756  1
  O  O47  1  0.85374782  0.15036470  0.40036470  1
  O  O48  1  0.52692382  0.48525854  0.73525854  1
  O  O49  1  0.52754099  0.24029736  0.97896967  1
  O  O50  1  0.52754099  0.72896967  0.49029736  1
  O  O51  1  0.51407206  0.98598115  0.23598115  1
  O  O52  1  0.60630872  0.30692101  0.55692101  1
  O  O53  1  0.25936079  0.64043105  0.89043105  1
  O  O54  1  0.25658792  0.89057828  0.63558083  1
  O  O55  1  0.58317395  0.05648104  0.80519785  1
  O  O56  1  0.58317395  0.55519785  0.30648104  1
  O  O57  1  0.58818315  0.80434679  0.05434679  1
  O  O58  1  0.90090171  0.10836614  0.07382886  1
  O  O59  1  0.56028220  0.41561994  0.16660690  1
  O  O60  1  0.53460361  0.18302129  0.43302129  1
  O  O61  1  0.21910197  0.50563919  0.75563919  1
  O  O62  1  0.22135879  0.75292472  0.49971564  1
  O  O63  1  0.20343378  0.71108984  0.20121386  1
  O  O64  1  0.17941148  0.18740846  0.72582828  1
  O  O65  1  0.17941148  0.47582828  0.43740846  1
  O  O66  1  0.25658792  0.38558083  0.14057828  1
  O  O67  1  0.24472784  0.14082027  0.39082027  1
  O  O68  1  0.22135879  0.24971564  0.00292472  1
  O  O69  1  0.20800354  0.00399848  0.25399848  1
