# generated using pymatgen
data_Li5Mn6(BO3)6
_symmetry_space_group_name_H-M   'P 1'
_cell_length_a   8.23458321
_cell_length_b   8.80916880
_cell_length_c   6.35332937
_cell_angle_alpha   68.74751289
_cell_angle_beta   89.78507438
_cell_angle_gamma   116.73834045
_symmetry_Int_Tables_number   1
_chemical_formula_structural   Li5Mn6(BO3)6
_chemical_formula_sum   'Li5 Mn6 B6 O18'
_cell_volume   375.81260710
_cell_formula_units_Z   1
loop_
 _symmetry_equiv_pos_site_id
 _symmetry_equiv_pos_as_xyz
  1  'x, y, z'
loop_
 _atom_site_type_symbol
 _atom_site_label
 _atom_site_symmetry_multiplicity
 _atom_site_fract_x
 _atom_site_fract_y
 _atom_site_fract_z
 _atom_site_occupancy
  Li  Li0  1  0.70541403  0.72444032  0.38488990  1
  Li  Li1  1  0.01462167  0.29967745  0.09504439  1
  Li  Li2  1  0.01541733  0.30082259  0.60419890  1
  Li  Li3  1  0.28573322  0.98091413  0.25484368  1
  Li  Li4  1  0.28447103  0.98146299  0.76488897  1
  Mn  Mn5  1  0.97765059  0.64291325  0.68521681  1
  Mn  Mn6  1  0.97819946  0.63122682  0.18308698  1
  Mn  Mn7  1  0.64233442  0.99829569  0.50260569  1
  Mn  Mn8  1  0.63635198  0.99770157  0.99702319  1
  Mn  Mn9  1  0.39271091  0.37680407  0.81240371  1
  Mn  Mn10  1  0.37073713  0.36029475  0.31608371  1
  B  B11  1  0.66632192  0.32852753  0.08028817  1
  B  B12  1  0.66535949  0.33266681  0.59110115  1
  B  B13  1  0.01293742  0.00951046  0.00011517  1
  B  B14  1  0.00970763  0.00983323  0.49088341  1
  B  B15  1  0.32438324  0.66170208  0.42656572  1
  B  B16  1  0.32126252  0.65946942  0.91024075  1
  O  O17  1  0.73751978  0.20663798  0.14521139  1
  O  O18  1  0.73998533  0.21447224  0.64106786  1
  O  O19  1  0.77504500  0.51701439  0.99549077  1
  O  O20  1  0.77317146  0.52413546  0.49259054  1
  O  O21  1  0.82211006  0.89365988  0.53456224  1
  O  O22  1  0.82330008  0.90440558  0.06688598  1
  O  O23  1  0.46956667  0.25361489  0.10282432  1
  O  O24  1  0.46951941  0.25628634  0.64253029  1
  O  O25  1  0.41237407  0.54975078  0.48806463  1
  O  O26  1  0.39390915  0.53630180  0.96228758  1
  O  O27  1  0.43807607  0.84963845  0.82267616  1
  O  O28  1  0.43861620  0.85190097  0.32490539  1
  O  O29  1  0.08389841  0.20353431  0.40031449  1
  O  O30  1  0.10116229  0.20502393  0.89449241  1
  O  O31  1  0.13417803  0.58064687  0.46453182  1
  O  O32  1  0.13116155  0.58436300  0.95518941  1
  O  O33  1  0.12181765  0.92111623  0.04156775  1
  O  O34  1  0.13097379  0.93485773  0.53351667  1
