# generated using pymatgen
data_LiMnH8(SO6)2
_symmetry_space_group_name_H-M   'P 1'
_cell_length_a   9.31911280
_cell_length_b   11.73788279
_cell_length_c   11.60569499
_cell_angle_alpha   65.21807545
_cell_angle_beta   90.11619931
_cell_angle_gamma   113.27090649
_symmetry_Int_Tables_number   1
_chemical_formula_structural   LiMnH8(SO6)2
_chemical_formula_sum   'Li4 Mn4 H32 S8 O48'
_cell_volume   1038.26849056
_cell_formula_units_Z   4
loop_
 _symmetry_equiv_pos_site_id
 _symmetry_equiv_pos_as_xyz
  1  'x, y, z'
loop_
 _atom_site_type_symbol
 _atom_site_label
 _atom_site_symmetry_multiplicity
 _atom_site_fract_x
 _atom_site_fract_y
 _atom_site_fract_z
 _atom_site_occupancy
  Li  Li0  1  0.24588445  0.27566455  0.78660599  1
  Li  Li1  1  0.42997342  0.72971686  0.20871574  1
  Li  Li2  1  0.97342572  0.72506601  0.71307459  1
  Li  Li3  1  0.69423603  0.26373485  0.30009201  1
  Mn  Mn4  1  0.00266769  0.49844184  0.00024449  1
  Mn  Mn5  1  0.24883295  0.00012122  0.24995713  1
  Mn  Mn6  1  0.50326536  0.50217767  0.49806138  1
  Mn  Mn7  1  0.74653186  0.00042635  0.75043361  1
  H  H8  1  0.99832737  0.96223345  0.83198019  1
  H  H9  1  0.09162412  0.72964773  0.46056679  1
  H  H10  1  0.11133832  0.72601025  0.32457239  1
  H  H11  1  0.25875920  0.73767598  0.95557014  1
  H  H12  1  0.02087244  0.25769518  0.03037941  1
  H  H13  1  0.46479378  0.97284886  0.83021626  1
  H  H14  1  0.28946810  0.60554491  0.04015204  1
  H  H15  1  0.19224579  0.38913428  0.47374128  1
  H  H16  1  0.19210354  0.38762491  0.95979911  1
  H  H17  1  0.31143868  0.60781760  0.52703873  1
  H  H18  1  0.49869284  0.95810255  0.33268086  1
  H  H19  1  0.03615282  0.03877203  0.66826836  1
  H  H20  1  0.23999492  0.26434040  0.52823685  1
  H  H21  1  0.47788637  0.73631077  0.46055406  1
  H  H22  1  0.36278568  0.26980023  0.03731677  1
  H  H23  1  0.59224264  0.72785483  0.82681098  1
  H  H24  1  0.38728787  0.27518574  0.17238499  1
  H  H25  1  0.64175607  0.73077523  0.96014451  1
  H  H26  1  0.52212220  0.26182218  0.54432601  1
  H  H27  1  0.76217562  0.74151161  0.47029629  1
  H  H28  1  0.96815418  0.97703748  0.32906160  1
  H  H29  1  0.49338058  0.02808008  0.67078763  1
  H  H30  1  0.68398273  0.39387686  0.45967864  1
  H  H31  1  0.80583333  0.61256874  0.02454607  1
  H  H32  1  0.80335805  0.61106781  0.54028638  1
  H  H33  1  0.70657794  0.39488634  0.96699634  1
  H  H34  1  0.54141185  0.04268109  0.16834395  1
  H  H35  1  0.97691283  0.73730814  0.97093719  1
  H  H36  1  0.74312733  0.26509255  0.03613978  1
  H  H37  1  0.86529258  0.27358569  0.67311634  1
  H  H38  1  0.91256815  0.27037177  0.53994682  1
  H  H39  1  0.98947897  0.02229664  0.17199376  1
  S  S40  1  0.22385759  0.96910440  0.96776378  1
  S  S41  1  0.01838766  0.51498511  0.71022877  1
  S  S42  1  0.50655613  0.52333751  0.20980293  1
  S  S43  1  0.25620010  0.03222703  0.53136693  1
  S  S44  1  0.72214460  0.97157138  0.46789079  1
  S  S45  1  0.50216155  0.48585805  0.78818978  1
  S  S46  1  0.98261743  0.47653654  0.28868657  1
  S  S47  1  0.74965876  0.02710231  0.03434888  1
  O  O48  1  0.05675734  0.89134643  0.95607719  1
  O  O49  1  0.17043800  0.88492714  0.62484420  1
  O  O50  1  0.01889321  0.56450406  0.81583397  1
  O  O51  1  0.22090506  0.94953075  0.10311644  1
  O  O52  1  0.15536860  0.78309056  0.37068734  1
  O  O53  1  0.08218863  0.62642947  0.23774656  1
  O  O54  1  0.03826425  0.39300419  0.39750828  1
  O  O55  1  0.32482307  0.90439693  0.94656362  1
  O  O56  1  0.18038081  0.54059271  0.66779691  1
  O  O57  1  0.23643978  0.64250263  0.96772975  1
  O  O58  1  0.09004832  0.35371998  0.01686096  1
  O  O59  1  0.04158604  0.99822005  0.25076716  1
  O  O60  1  0.26106106  0.35450035  0.53098839  1
  O  O61  1  0.40525835  0.64704442  0.45715945  1
  O  O62  1  0.37611044  0.56637448  0.17061327  1
  O  O63  1  0.16807754  0.11059371  0.54403363  1
  O  O64  1  0.55864192  0.88699492  0.45491390  1
  O  O65  1  0.35307931  0.38527615  0.89132842  1
  O  O66  1  0.53119529  0.63033251  0.74084769  1
  O  O67  1  0.28432926  0.11620447  0.87441399  1
  O  O68  1  0.45178659  0.43770025  0.68190599  1
  O  O69  1  0.62976403  0.78723119  0.87168396  1
  O  O70  1  0.27005539  0.05144713  0.39610927  1
  O  O71  1  0.71573155  0.94806740  0.60461652  1
  O  O72  1  0.37188622  0.21636881  0.12783915  1
  O  O73  1  0.55891645  0.57057775  0.31471996  1
  O  O74  1  0.65241342  0.88007254  0.12479304  1
  O  O75  1  0.45716111  0.37386998  0.26047037  1
  O  O76  1  0.64599626  0.60755093  0.10187562  1
  O  O77  1  0.42252521  0.09613493  0.55152099  1
  O  O78  1  0.83238754  0.91565608  0.44450538  1
  O  O79  1  0.63880226  0.45891139  0.82983193  1
  O  O80  1  0.59346431  0.35782699  0.53057202  1
  O  O81  1  0.73493558  0.64543527  0.48324811  1
  O  O82  1  0.45996720  0.00234759  0.25025607  1
  O  O83  1  0.54139268  0.00232898  0.75055805  1
  O  O84  1  0.90857057  0.64788524  0.96695382  1
  O  O85  1  0.76217389  0.35619034  0.03678876  1
  O  O86  1  0.80963808  0.43366542  0.32741994  1
  O  O87  1  0.67086495  0.11290241  0.04494180  1
  O  O88  1  0.96814806  0.61543489  0.60725397  1
  O  O89  1  0.90286638  0.37047949  0.75906474  1
  O  O90  1  0.84539254  0.21386594  0.62865938  1
  O  O91  1  0.76883725  0.04994577  0.89789653  1
  O  O92  1  0.98931170  0.43000605  0.18382155  1
  O  O93  1  0.77258246  0.11914786  0.37771022  1
  O  O94  1  0.91528922  0.08291019  0.05901294  1
  O  O95  1  0.95530861  0.99876875  0.74998395  1
