# generated using pymatgen
data_Ca2ScReO6
_symmetry_space_group_name_H-M   'P 1'
_cell_length_a   5.64664357
_cell_length_b   5.69479473
_cell_length_c   8.00900609
_cell_angle_alpha   90.00000000
_cell_angle_beta   90.00000000
_cell_angle_gamma   90.00000000
_symmetry_Int_Tables_number   1
_chemical_formula_structural   Ca2ScReO6
_chemical_formula_sum   'Ca4 Sc2 Re2 O12'
_cell_volume   257.54141247
_cell_formula_units_Z   2
loop_
 _symmetry_equiv_pos_site_id
 _symmetry_equiv_pos_as_xyz
  1  'x, y, z'
loop_
 _atom_site_type_symbol
 _atom_site_label
 _atom_site_symmetry_multiplicity
 _atom_site_fract_x
 _atom_site_fract_y
 _atom_site_fract_z
 _atom_site_occupancy
  Ca  Ca0  1  0.00334051  0.46312936  0.25226062  1
  Ca  Ca1  1  0.00334051  0.53687064  0.74773938  1
  Ca  Ca2  1  0.50334051  0.96312936  0.24773938  1
  Ca  Ca3  1  0.50334051  0.03687064  0.75226062  1
  Sc  Sc4  1  0.00298485  -0.00000000  -0.00000000  1
  Sc  Sc5  1  0.50298485  0.50000000  0.50000000  1
  Re  Re6  1  0.00341619  -0.00000000  0.50000000  1
  Re  Re7  1  0.50341619  0.50000000  -0.00000000  1
  O  O8  1  0.50028203  0.51315053  0.24388610  1
  O  O9  1  0.50028203  0.48684947  0.75611390  1
  O  O10  1  0.00028203  0.01315053  0.25611390  1
  O  O11  1  0.00028203  0.98684947  0.74388610  1
  O  O12  1  0.24823478  0.24318325  0.49881338  1
  O  O13  1  0.24823478  0.75681675  0.50118662  1
  O  O14  1  0.74823478  0.74318325  0.00118662  1
  O  O15  1  0.74823478  0.25681675  0.99881338  1
  O  O16  1  0.26104216  0.25431645  0.00540283  1
  O  O17  1  0.26104216  0.74568355  0.99459717  1
  O  O18  1  0.76104216  0.75431645  0.49459717  1
  O  O19  1  0.76104216  0.24568355  0.50540283  1
