# generated using pymatgen
data_Pu2HgSb
_symmetry_space_group_name_H-M   'P 1'
_cell_length_a   5.33947963
_cell_length_b   5.33947690
_cell_length_c   5.33943551
_cell_angle_alpha   60.00074942
_cell_angle_beta   60.00056898
_cell_angle_gamma   59.99887384
_symmetry_Int_Tables_number   1
_chemical_formula_structural   Pu2HgSb
_chemical_formula_sum   'Pu2 Hg1 Sb1'
_cell_volume   107.64122308
_cell_formula_units_Z   1
loop_
 _symmetry_equiv_pos_site_id
 _symmetry_equiv_pos_as_xyz
  1  'x, y, z'
loop_
 _atom_site_type_symbol
 _atom_site_label
 _atom_site_symmetry_multiplicity
 _atom_site_fract_x
 _atom_site_fract_y
 _atom_site_fract_z
 _atom_site_occupancy
  Pu  Pu0  1  -0.00000112  0.99999791  0.00000019  1
  Pu  Pu1  1  0.49999983  0.50000529  0.49999319  1
  Hg  Hg2  1  0.25000085  0.24999838  0.25000427  1
  Sb  Sb3  1  0.75000044  0.74999842  0.75000236  1
