# generated using pymatgen
data_Li3Mn4(BO3)4
_symmetry_space_group_name_H-M   'P 1'
_cell_length_a   7.84272779
_cell_length_b   5.29149444
_cell_length_c   6.20734276
_cell_angle_alpha   87.53834419
_cell_angle_beta   79.14850963
_cell_angle_gamma   87.42971106
_symmetry_Int_Tables_number   1
_chemical_formula_structural   Li3Mn4(BO3)4
_chemical_formula_sum   'Li3 Mn4 B4 O12'
_cell_volume   252.58593253
_cell_formula_units_Z   1
loop_
 _symmetry_equiv_pos_site_id
 _symmetry_equiv_pos_as_xyz
  1  'x, y, z'
loop_
 _atom_site_type_symbol
 _atom_site_label
 _atom_site_symmetry_multiplicity
 _atom_site_fract_x
 _atom_site_fract_y
 _atom_site_fract_z
 _atom_site_occupancy
  Li  Li0  1  0.81161903  0.57455205  0.87158665  1
  Li  Li1  1  0.68767339  0.93143518  0.63224031  1
  Li  Li2  1  0.20485303  0.41229845  0.14039448  1
  Mn  Mn3  1  0.82785514  0.42159545  0.41779637  1
  Mn  Mn4  1  0.66793977  0.08464743  0.08868144  1
  Mn  Mn5  1  0.31362389  0.91277387  0.93350084  1
  Mn  Mn6  1  0.18505708  0.58013063  0.57560649  1
  B  B7  1  0.49788579  0.42722714  0.76449266  1
  B  B8  1  0.99477970  0.92372683  0.25938957  1
  B  B9  1  0.00326833  0.07651946  0.75480405  1
  B  B10  1  0.50433956  0.57516241  0.21714205  1
  O  O11  1  0.98252652  0.33249292  0.70102288  1
  O  O12  1  0.86162105  0.93232523  0.83734678  1
  O  O13  1  0.82870181  0.02929238  0.34226539  1
  O  O14  1  0.51422021  0.16740861  0.80246189  1
  O  O15  1  0.63476674  0.57110388  0.66556990  1
  O  O16  1  0.33524163  0.54566682  0.84532636  1
  O  O17  1  0.67482796  0.47444085  0.15689414  1
  O  O18  1  0.37627142  0.43500380  0.33311161  1
  O  O19  1  0.47244949  0.82551916  0.14134929  1
  O  O20  1  0.16958745  0.95420630  0.70789416  1
  O  O21  1  0.11962086  0.07863523  0.14355552  1
  O  O22  1  0.03138116  0.66773093  0.29894315  1
