# generated using pymatgen
data_Li5V3P8O29
_symmetry_space_group_name_H-M   'P 1'
_cell_length_a   9.75520250
_cell_length_b   9.79583162
_cell_length_c   14.01834064
_cell_angle_alpha   90.16505844
_cell_angle_beta   90.02115101
_cell_angle_gamma   60.14490598
_symmetry_Int_Tables_number   1
_chemical_formula_structural   Li5V3P8O29
_chemical_formula_sum   'Li10 V6 P16 O58'
_cell_volume   1161.80971804
_cell_formula_units_Z   2
loop_
 _symmetry_equiv_pos_site_id
 _symmetry_equiv_pos_as_xyz
  1  'x, y, z'
loop_
 _atom_site_type_symbol
 _atom_site_label
 _atom_site_symmetry_multiplicity
 _atom_site_fract_x
 _atom_site_fract_y
 _atom_site_fract_z
 _atom_site_occupancy
  Li  Li0  1  0.77271439  0.91323741  0.55787358  1
  Li  Li1  1  0.90450264  0.32326939  0.55725039  1
  Li  Li2  1  0.76441944  0.33746766  0.06273558  1
  Li  Li3  1  0.33272551  0.90521796  0.06111771  1
  Li  Li4  1  0.31873918  0.77382274  0.55931911  1
  Li  Li5  1  0.67010874  0.09343639  0.94175855  1
  Li  Li6  1  0.23616761  0.66272574  0.94172787  1
  Li  Li7  1  0.09162138  0.67713964  0.43734899  1
  Li  Li8  1  0.22591939  0.09668213  0.43982785  1
  Li  Li9  1  0.99725713  0.00214502  0.00467815  1
  V  V10  1  0.56833594  0.43063302  0.25486176  1
  V  V11  1  0.43361188  0.56546512  0.74675074  1
  V  V12  1  0.56718164  0.99984192  0.75028355  1
  V  V13  1  0.43430146  0.00087439  0.25066713  1
  V  V14  1  0.99541343  0.56805838  0.24177003  1
  V  V15  1  0.00356329  0.43134722  0.75720054  1
  P  P16  1  0.91683637  0.77634433  0.84105192  1
  P  P17  1  0.77244144  0.91067892  0.33978123  1
  P  P18  1  0.91247796  0.32054270  0.34366809  1
  P  P19  1  0.66348461  0.66442995  0.12765249  1
  P  P20  1  0.67102686  0.66529728  0.63047083  1
  P  P21  1  0.77091210  0.31446005  0.84308868  1
  P  P22  1  0.68498088  0.22844100  0.65873454  1
  P  P23  1  0.31513117  0.91055589  0.84324663  1
  P  P24  1  0.68686699  0.08850754  0.15686961  1
  P  P25  1  0.31996340  0.76935866  0.34224588  1
  P  P26  1  0.22959993  0.68454327  0.15928310  1
  P  P27  1  0.32712443  0.33717382  0.36818091  1
  P  P28  1  0.33505473  0.33492309  0.87259652  1
  P  P29  1  0.08545810  0.67954422  0.65498092  1
  P  P30  1  0.22884493  0.08960880  0.66079430  1
  P  P31  1  0.08436012  0.22183733  0.15917412  1
  O  O32  1  0.99776686  0.75166138  0.56430270  1
  O  O33  1  0.92029326  0.74204256  0.33425148  1
  O  O34  1  0.77718692  0.01366683  0.06664638  1
  O  O35  1  0.74567800  0.91680748  0.84151199  1
  O  O36  1  0.91671169  0.61773382  0.83095352  1
  O  O37  1  0.81141972  0.67118557  0.17387632  1
  O  O38  1  0.90582344  0.47864394  0.32115006  1
  O  O39  1  0.99189580  0.20988868  0.07761512  1
  O  O40  1  0.91679641  0.33896921  0.83506494  1
  O  O41  1  0.67462533  0.81415598  0.67050439  1
  O  O42  1  0.62051832  0.90032876  0.32003516  1
  O  O43  1  0.81702004  0.51652657  0.67755851  1
  O  O44  1  0.67335725  0.65960506  0.02138288  1
  O  O45  1  0.68120548  0.65751973  0.52423285  1
  O  O46  1  0.67693415  0.51009024  0.16855679  1
  O  O47  1  0.47157638  0.90966419  0.83016870  1
  O  O48  1  0.51044582  0.81044160  0.16664794  1
  O  O49  1  0.74670048  0.34173013  0.34103504  1
  O  O50  1  0.78844178  0.20153826  0.75525005  1
  O  O51  1  0.77130371  0.23873084  0.57474343  1
  O  O52  1  0.77954909  0.22696717  0.93366593  1
  O  O53  1  0.61894531  0.47068348  0.83020054  1
  O  O54  1  0.51466170  0.67267214  0.66699350  1
  O  O55  1  0.66190632  0.25745044  0.16384870  1
  O  O56  1  0.48115760  0.62290670  0.32384746  1
  O  O57  1  0.33478820  0.91928661  0.34327356  1
  O  O58  1  0.79371000  0.99934024  0.24941756  1
  O  O59  1  0.76588016  0.98885263  0.43162203  1
  O  O60  1  0.23946309  0.00181273  0.57036708  1
  O  O61  1  0.66173363  0.08311984  0.65828793  1
  O  O62  1  0.52288063  0.37988934  0.67675991  1
  O  O63  1  0.34030463  0.74086196  0.83388136  1
  O  O64  1  0.47767771  0.33055019  0.32539966  1
  O  O65  1  0.38448256  0.53082091  0.16931823  1
  O  O66  1  0.21980149  0.77782276  0.07070953  1
  O  O67  1  0.24114361  0.75638778  0.43154587  1
  O  O68  1  0.20727968  0.79320974  0.25151635  1
  O  O69  1  0.25075276  0.66470520  0.65600865  1
  O  O70  1  0.48892812  0.18905428  0.83370207  1
  O  O71  1  0.53067845  0.08846059  0.16830354  1
  O  O72  1  0.32311700  0.48887885  0.83210746  1
  O  O73  1  0.32442828  0.33914222  0.97861485  1
  O  O74  1  0.31484588  0.34812736  0.47433146  1
  O  O75  1  0.17948465  0.48638752  0.32199588  1
  O  O76  1  0.37875332  0.10109790  0.67875077  1
  O  O77  1  0.32315092  0.18658694  0.33055049  1
  O  O78  1  0.08579490  0.65739251  0.16261667  1
  O  O79  1  0.98974703  0.79643446  0.74184936  1
  O  O80  1  0.01085837  0.78590088  0.92227760  1
  O  O81  1  0.09643369  0.52037203  0.67828571  1
  O  O82  1  0.18793294  0.32834423  0.82474072  1
  O  O83  1  0.08382633  0.38050851  0.16802710  1
  O  O84  1  0.25617559  0.08224862  0.15939292  1
  O  O85  1  0.22820641  0.98229784  0.93431988  1
  O  O86  1  0.20613649  0.00157475  0.75141290  1
  O  O87  1  0.08016750  0.25631765  0.66163364  1
  O  O88  1  0.00137617  0.24802337  0.43424715  1
  O  O89  1  0.01057383  0.20230381  0.25759744  1
