# generated using pymatgen
data_Li3Mn4(BO3)4
_symmetry_space_group_name_H-M   'P 1'
_cell_length_a   9.67224316
_cell_length_b   9.07713556
_cell_length_c   6.19275187
_cell_angle_alpha   72.81904584
_cell_angle_beta   80.14275150
_cell_angle_gamma   78.03873336
_symmetry_Int_Tables_number   1
_chemical_formula_structural   Li3Mn4(BO3)4
_chemical_formula_sum   'Li6 Mn8 B8 O24'
_cell_volume   504.63056538
_cell_formula_units_Z   2
loop_
 _symmetry_equiv_pos_site_id
 _symmetry_equiv_pos_as_xyz
  1  'x, y, z'
loop_
 _atom_site_type_symbol
 _atom_site_label
 _atom_site_symmetry_multiplicity
 _atom_site_fract_x
 _atom_site_fract_y
 _atom_site_fract_z
 _atom_site_occupancy
  Li  Li0  1  0.00114366  0.38126580  0.68078388  1
  Li  Li1  1  0.75748092  0.10729800  0.58612999  1
  Li  Li2  1  0.49987680  0.61783278  0.81422868  1
  Li  Li3  1  0.50012320  0.38216722  0.18577132  1
  Li  Li4  1  0.24251908  0.89270200  0.41387001  1
  Li  Li5  1  0.99885634  0.61873420  0.31921612  1
  Mn  Mn6  1  0.77668974  0.18781603  0.98794941  1
  Mn  Mn7  1  0.46662041  0.29256909  0.78169445  1
  Mn  Mn8  1  0.97927824  0.29111649  0.26477185  1
  Mn  Mn9  1  0.28369909  0.20444856  0.46467605  1
  Mn  Mn10  1  0.71630091  0.79555144  0.53532395  1
  Mn  Mn11  1  0.02072176  0.70888351  0.73522815  1
  Mn  Mn12  1  0.53337959  0.70743091  0.21830555  1
  Mn  Mn13  1  0.22331026  0.81218397  0.01205059  1
  B  B14  1  0.76767725  0.52961439  0.95260143  1
  B  B15  1  0.73073312  0.45925936  0.53390148  1
  B  B16  1  0.02962104  0.03945220  0.71343949  1
  B  B17  1  0.52266081  0.03329822  0.24240152  1
  B  B18  1  0.47733919  0.96670178  0.75759848  1
  B  B19  1  0.97037896  0.96054780  0.28656051  1
  B  B20  1  0.26926688  0.54074064  0.46609852  1
  B  B21  1  0.23232275  0.47038561  0.04739857  1
  O  O22  1  0.89321151  0.03431552  0.81332817  1
  O  O23  1  0.86848717  0.39414832  0.96123457  1
  O  O24  1  0.37758751  0.10585803  0.74537887  1
  O  O25  1  0.87631441  0.09989008  0.29662401  1
  O  O26  1  0.68011220  0.31987402  0.64492481  1
  O  O27  1  0.80719103  0.67161984  0.81362639  1
  O  O28  1  0.36716526  0.47398201  0.93338468  1
  O  O29  1  0.86780329  0.46440857  0.42943597  1
  O  O30  1  0.38666920  0.02292224  0.34724520  1
  O  O31  1  0.63663634  0.60115499  0.53865799  1
  O  O32  1  0.43940850  0.82385687  0.88623146  1
  O  O33  1  0.07740159  0.18160768  0.60393711  1
  O  O34  1  0.92259841  0.81839232  0.39606289  1
  O  O35  1  0.56059150  0.17614313  0.11376854  1
  O  O36  1  0.36336366  0.39884501  0.46134201  1
  O  O37  1  0.61333080  0.97707776  0.65275480  1
  O  O38  1  0.13219671  0.53559143  0.57056403  1
  O  O39  1  0.63283474  0.52601799  0.06661532  1
  O  O40  1  0.19280897  0.32838016  0.18637361  1
  O  O41  1  0.31988780  0.68012598  0.35507519  1
  O  O42  1  0.12368559  0.90010992  0.70337599  1
  O  O43  1  0.62241249  0.89414197  0.25462113  1
  O  O44  1  0.13151283  0.60585168  0.03876543  1
  O  O45  1  0.10678849  0.96568448  0.18667183  1
