# generated using pymatgen
data_MnPO4F
_symmetry_space_group_name_H-M   'P 1'
_cell_length_a   12.70208165
_cell_length_b   4.96952717
_cell_length_c   12.76979787
_cell_angle_alpha   90.00000000
_cell_angle_beta   119.72207717
_cell_angle_gamma   90.00000000
_symmetry_Int_Tables_number   1
_chemical_formula_structural   MnPO4F
_chemical_formula_sum   'Mn8 P8 O32 F8'
_cell_volume   700.02585605
_cell_formula_units_Z   8
loop_
 _symmetry_equiv_pos_site_id
 _symmetry_equiv_pos_as_xyz
  1  'x, y, z'
loop_
 _atom_site_type_symbol
 _atom_site_label
 _atom_site_symmetry_multiplicity
 _atom_site_fract_x
 _atom_site_fract_y
 _atom_site_fract_z
 _atom_site_occupancy
  Mn  Mn0  1  0.12117236  0.27373196  0.68836941  1
  Mn  Mn1  1  0.37882764  0.77373196  0.81163059  1
  Mn  Mn2  1  0.31158626  0.22725631  0.37862851  1
  Mn  Mn3  1  0.18841374  0.72725631  0.12137149  1
  Mn  Mn4  1  0.81158626  0.27274369  0.87862851  1
  Mn  Mn5  1  0.68841374  0.77274369  0.62137149  1
  Mn  Mn6  1  0.62117236  0.22626804  0.18836941  1
  Mn  Mn7  1  0.87882764  0.72626804  0.31163059  1
  P  P8  1  0.08819477  0.22240297  0.93225123  1
  P  P9  1  0.06927775  0.21822438  0.41342706  1
  P  P10  1  0.56927775  0.28177562  0.91342806  1
  P  P11  1  0.41180523  0.72240297  0.56774877  1
  P  P12  1  0.58819477  0.27759703  0.43225123  1
  P  P13  1  0.43072225  0.71822438  0.08657194  1
  P  P14  1  0.93072225  0.78177562  0.58657194  1
  P  P15  1  0.91180523  0.77759703  0.06774877  1
  O  O16  1  0.10448041  0.92187177  0.97407417  1
  O  O17  1  0.04594103  0.61154528  0.65901348  1
  O  O18  1  0.13764811  0.25952995  0.84534882  1
  O  O19  1  0.02713826  0.91720916  0.39185130  1
  O  O20  1  0.13880246  0.28739433  0.54894033  1
  O  O21  1  0.36119754  0.78739433  0.95105967  1
  O  O22  1  0.15506921  0.27252635  0.36385587  1
  O  O23  1  0.04621216  0.69335469  0.13471969  1
  O  O24  1  0.36235189  0.75952995  0.65465118  1
  O  O25  1  0.45405897  0.11154528  0.84098652  1
  O  O26  1  0.52713826  0.58279084  0.89185130  1
  O  O27  1  0.33295239  0.89157580  0.45375600  1
  O  O28  1  0.39551959  0.42187177  0.52592583  1
  O  O29  1  0.16704761  0.39157580  0.04624400  1
  O  O30  1  0.65506921  0.22747365  0.86385587  1
  O  O31  1  0.54621216  0.80664531  0.63471969  1
  O  O32  1  0.45378784  0.19335469  0.36528031  1
  O  O33  1  0.34493079  0.77252635  0.13614413  1
  O  O34  1  0.83295239  0.60842420  0.95375600  1
  O  O35  1  0.60448041  0.57812823  0.47407417  1
  O  O36  1  0.66704761  0.10842420  0.54624400  1
  O  O37  1  0.47286174  0.41720916  0.10814870  1
  O  O38  1  0.54594103  0.88845472  0.15901348  1
  O  O39  1  0.63764811  0.24047005  0.34534882  1
  O  O40  1  0.95378784  0.30664531  0.86528031  1
  O  O41  1  0.84493079  0.72747365  0.63614413  1
  O  O42  1  0.63880246  0.21260567  0.04894033  1
  O  O43  1  0.86119754  0.71260567  0.45105967  1
  O  O44  1  0.97286174  0.08279084  0.60814870  1
  O  O45  1  0.86235189  0.74047005  0.15465118  1
  O  O46  1  0.95405897  0.38845472  0.34098652  1
  O  O47  1  0.89551959  0.07812823  0.02592583  1
  F  F48  1  0.22044730  0.96162826  0.73208395  1
  F  F49  1  0.27955270  0.46162826  0.76791605  1
  F  F50  1  0.22423765  0.03825739  0.22186755  1
  F  F51  1  0.27576235  0.53825739  0.27813245  1
  F  F52  1  0.72423765  0.46174261  0.72186755  1
  F  F53  1  0.77576235  0.96174261  0.77813245  1
  F  F54  1  0.72044730  0.53837174  0.23208395  1
  F  F55  1  0.77955270  0.03837174  0.26791605  1
