# generated using pymatgen
data_Li2V2P2(H4O5)3
_symmetry_space_group_name_H-M   'P 1'
_cell_length_a   5.06168852
_cell_length_b   11.48264329
_cell_length_c   10.51878892
_cell_angle_alpha   78.88875147
_cell_angle_beta   89.97744156
_cell_angle_gamma   77.21014001
_symmetry_Int_Tables_number   1
_chemical_formula_structural   Li2V2P2(H4O5)3
_chemical_formula_sum   'Li4 V4 P4 H24 O30'
_cell_volume   584.45265061
_cell_formula_units_Z   2
loop_
 _symmetry_equiv_pos_site_id
 _symmetry_equiv_pos_as_xyz
  1  'x, y, z'
loop_
 _atom_site_type_symbol
 _atom_site_label
 _atom_site_symmetry_multiplicity
 _atom_site_fract_x
 _atom_site_fract_y
 _atom_site_fract_z
 _atom_site_occupancy
  Li  Li0  1  0.07700061  0.52340891  0.86412004  1
  Li  Li1  1  0.59943249  0.47769675  0.63556802  1
  Li  Li2  1  0.39899856  0.52289602  0.36437488  1
  Li  Li3  1  0.92542401  0.47670108  0.13630508  1
  V  V4  1  0.98087324  0.75117604  0.97130410  1
  V  V5  1  0.26827618  0.75142339  0.47161206  1
  V  V6  1  0.73253379  0.24829394  0.52900553  1
  V  V7  1  0.02124579  0.24886065  0.02864452  1
  P  P8  1  0.49089250  0.68542324  0.77392289  1
  P  P9  1  0.82288403  0.68669858  0.27357952  1
  P  P10  1  0.17666651  0.31488307  0.72639010  1
  P  P11  1  0.51087974  0.31400172  0.22635669  1
  H  H12  1  0.58472926  0.95636442  0.85264421  1
  H  H13  1  0.25492518  0.92424551  0.76772995  1
  H  H14  1  0.46105850  0.95620741  0.35586542  1
  H  H15  1  0.03667478  0.81526093  0.67489527  1
  H  H16  1  0.81628749  0.92518721  0.26569937  1
  H  H17  1  0.14844453  0.81583535  0.17346392  1
  H  H18  1  0.78651795  0.79516611  0.59465886  1
  H  H19  1  0.42081233  0.79439404  0.09420430  1
  H  H20  1  0.67720652  0.44420395  0.91590483  1
  H  H21  1  0.12030712  0.55549402  0.58539875  1
  H  H22  1  0.87723979  0.44408220  0.41421772  1
  H  H23  1  0.32188203  0.55449053  0.08636248  1
  H  H24  1  0.58019388  0.20816033  0.90602107  1
  H  H25  1  0.21529246  0.20563379  0.40439608  1
  H  H26  1  0.85012024  0.18604538  0.82596196  1
  H  H27  1  0.18472010  0.07678226  0.73456801  1
  H  H28  1  0.96495058  0.18330251  0.32610374  1
  H  H29  1  0.53935395  0.04234845  0.64393004  1
  H  H30  1  0.78998774  0.00343035  0.93407623  1
  H  H31  1  0.73738560  0.07803108  0.23193542  1
  H  H32  1  0.79606476  0.99596751  0.56479977  1
  H  H33  1  0.41585106  0.04274272  0.14678387  1
  H  H34  1  0.20769128  0.00351865  0.43648801  1
  H  H35  1  0.21046784  0.99656218  0.06437865  1
  O  O36  1  0.75884430  0.92944318  0.90763597  1
  O  O37  1  0.31537704  0.92907375  0.41132749  1
  O  O38  1  0.95272064  0.83253906  0.58439713  1
  O  O39  1  0.23439133  0.77757307  0.81383210  1
  O  O40  1  0.21669947  0.83192047  0.08328257  1
  O  O41  1  0.52854730  0.73822692  0.62617704  1
  O  O42  1  0.98584049  0.77896117  0.31384682  1
  O  O43  1  0.74879560  0.68740161  0.84931497  1
  O  O44  1  0.73364822  0.74017859  0.12568800  1
  O  O45  1  0.56217826  0.68803942  0.34839885  1
  O  O46  1  0.43790635  0.55754589  0.78918869  1
  O  O47  1  0.24862729  0.58665996  0.52433135  1
  O  O48  1  0.00332863  0.55858004  0.28885450  1
  O  O49  1  0.83696103  0.41374717  0.97678087  1
  O  O50  1  0.16358474  0.58603764  0.02465036  1
  O  O51  1  0.99463605  0.44263497  0.71092271  1
  O  O52  1  0.75014472  0.41316736  0.47600843  1
  O  O53  1  0.56366294  0.44184292  0.21121963  1
  O  O54  1  0.43668594  0.31278330  0.65109434  1
  O  O55  1  0.26752294  0.26283650  0.87426207  1
  O  O56  1  0.25252655  0.31202745  0.15149555  1
  O  O57  1  0.01341495  0.22218068  0.68705832  1
  O  O58  1  0.47365868  0.26108734  0.37416986  1
  O  O59  1  0.78367244  0.16924982  0.91637139  1
  O  O60  1  0.76652379  0.22157636  0.18614645  1
  O  O61  1  0.05006755  0.16739616  0.41612428  1
  O  O62  1  0.68485518  0.07021988  0.58905393  1
  O  O63  1  0.32874310  0.99955289  0.75072025  1
  O  O64  1  0.24430170  0.07061325  0.09000958  1
  O  O65  1  0.66876036  0.00110886  0.25017714  1
