# generated using pymatgen
data_Zn3In2O6
_symmetry_space_group_name_H-M   'P 1'
_cell_length_a   14.51476483
_cell_length_b   6.83546361
_cell_length_c   5.91031636
_cell_angle_alpha   89.91008438
_cell_angle_beta   85.97606334
_cell_angle_gamma   83.11668312
_symmetry_Int_Tables_number   1
_chemical_formula_structural   Zn3In2O6
_chemical_formula_sum   'Zn12 In8 O24'
_cell_volume   580.71735081
_cell_formula_units_Z   4
loop_
 _symmetry_equiv_pos_site_id
 _symmetry_equiv_pos_as_xyz
  1  'x, y, z'
loop_
 _atom_site_type_symbol
 _atom_site_label
 _atom_site_symmetry_multiplicity
 _atom_site_fract_x
 _atom_site_fract_y
 _atom_site_fract_z
 _atom_site_occupancy
  Zn  Zn0  1  0.21427129  0.19303541  0.12964016  1
  Zn  Zn1  1  0.59550651  0.10157093  0.06246209  1
  Zn  Zn2  1  0.21470586  0.44881290  0.62752629  1
  Zn  Zn3  1  0.59451414  0.35071168  0.56699610  1
  Zn  Zn4  1  0.78859033  0.30772983  0.86882096  1
  Zn  Zn5  1  0.21251225  0.70007780  0.13413123  1
  Zn  Zn6  1  0.39479266  0.65836404  0.43289076  1
  Zn  Zn7  1  0.78512745  0.55325741  0.37184903  1
  Zn  Zn8  1  0.21488629  0.94309445  0.63308170  1
  Zn  Zn9  1  0.59212202  0.85137776  0.56995661  1
  Zn  Zn10  1  0.39467048  0.89494378  0.93236568  1
  Zn  Zn11  1  0.78511865  0.79971348  0.86802232  1
  In  In12  1  0.00202051  0.99923061  0.99656398  1
  In  In13  1  0.40811243  0.13805906  0.43326677  1
  In  In14  1  0.00258408  0.25065431  0.50038591  1
  In  In15  1  0.77720189  0.05578208  0.36982641  1
  In  In16  1  0.99986141  0.50041187  0.00119819  1
  In  In17  1  0.40575912  0.40510561  0.93133367  1
  In  In18  1  0.59382419  0.60674118  0.07155486  1
  In  In19  1  0.00151805  0.74744453  0.50103465  1
  O  O20  1  0.42362839  0.13157876  0.08493556  1
  O  O21  1  0.07503624  0.23044883  0.15413979  1
  O  O22  1  0.25452980  0.18514438  0.45855343  1
  O  O23  1  0.74599048  0.06688524  0.02735636  1
  O  O24  1  0.57976019  0.10515850  0.39998711  1
  O  O25  1  0.92576027  0.01947497  0.34529285  1
  O  O26  1  0.42464784  0.40368027  0.58019957  1
  O  O27  1  0.07572146  0.48088681  0.65634064  1
  O  O28  1  0.25434099  0.43861183  0.95875649  1
  O  O29  1  0.74484032  0.32130269  0.55208045  1
  O  O30  1  0.56636029  0.35273876  0.90091427  1
  O  O31  1  0.92712935  0.26811175  0.84549877  1
  O  O32  1  0.43160538  0.65532725  0.10579569  1
  O  O33  1  0.07364677  0.73130626  0.15445144  1
  O  O34  1  0.74799801  0.56072130  0.04420947  1
  O  O35  1  0.25224523  0.68756554  0.45588976  1
  O  O36  1  0.92571601  0.51765275  0.34777780  1
  O  O37  1  0.58371717  0.60377230  0.41857003  1
  O  O38  1  0.42682738  0.87880670  0.60715636  1
  O  O39  1  0.07514209  0.98017918  0.65107964  1
  O  O40  1  0.25182232  0.93490320  0.95855990  1
  O  O41  1  0.74676522  0.80466102  0.54698230  1
  O  O42  1  0.58361699  0.86547923  0.89666043  1
  O  O43  1  0.92545220  0.76948375  0.84590453  1
