# generated using pymatgen
data_Li5Mn2Co3O10
_symmetry_space_group_name_H-M   'P 1'
_cell_length_a   5.08861395
_cell_length_b   5.08838636
_cell_length_c   7.68389669
_cell_angle_alpha   71.50036750
_cell_angle_beta   109.06025941
_cell_angle_gamma   99.70519799
_symmetry_Int_Tables_number   1
_chemical_formula_structural   Li5Mn2Co3O10
_chemical_formula_sum   'Li5 Mn2 Co3 O10'
_cell_volume   177.86380055
_cell_formula_units_Z   1
loop_
 _symmetry_equiv_pos_site_id
 _symmetry_equiv_pos_as_xyz
  1  'x, y, z'
loop_
 _atom_site_type_symbol
 _atom_site_label
 _atom_site_symmetry_multiplicity
 _atom_site_fract_x
 _atom_site_fract_y
 _atom_site_fract_z
 _atom_site_occupancy
  Li  Li0  1  0.21602283  0.49558252  0.40570118  1
  Li  Li1  1  0.40237922  0.51341005  0.78590130  1
  Li  Li2  1  0.50182136  0.99949167  0.50068075  1
  Li  Li3  1  0.78217533  0.49799692  0.58891676  1
  Li  Li4  1  0.59799202  0.49751137  0.20804801  1
  Mn  Mn5  1  0.10120788  0.00535679  0.69540236  1
  Mn  Mn6  1  0.89672184  0.99348817  0.30212044  1
  Co  Co7  1  0.00485672  0.50035432  0.00052613  1
  Co  Co8  1  0.69620774  0.99916568  0.89715899  1
  Co  Co9  1  0.30424853  0.99946848  0.10943009  1
  O  O10  1  0.02850833  0.22322868  0.84598882  1
  O  O11  1  0.13035279  0.77587169  0.54247285  1
  O  O12  1  0.34818553  0.77385267  0.92941255  1
  O  O13  1  0.22631344  0.24227194  0.24856803  1
  O  O14  1  0.44171982  0.22468420  0.66980676  1
  O  O15  1  0.57037818  0.76434210  0.34421553  1
  O  O16  1  0.77406205  0.77172097  0.76151594  1
  O  O17  1  0.67142605  0.22579141  0.05646404  1
  O  O18  1  0.87142116  0.22289390  0.45710758  1
  O  O19  1  0.92720417  0.77046946  0.14065190  1
