# generated using pymatgen
data_CaTi2(CuO4)2
_symmetry_space_group_name_H-M   'P 1'
_cell_length_a   6.40749150
_cell_length_b   8.81998996
_cell_length_c   12.50329043
_cell_angle_alpha   90.00000000
_cell_angle_beta   84.16042747
_cell_angle_gamma   90.00000000
_symmetry_Int_Tables_number   1
_chemical_formula_structural   CaTi2(CuO4)2
_chemical_formula_sum   'Ca4 Ti8 Cu8 O32'
_cell_volume   702.94425459
_cell_formula_units_Z   4
loop_
 _symmetry_equiv_pos_site_id
 _symmetry_equiv_pos_as_xyz
  1  'x, y, z'
loop_
 _atom_site_type_symbol
 _atom_site_label
 _atom_site_symmetry_multiplicity
 _atom_site_fract_x
 _atom_site_fract_y
 _atom_site_fract_z
 _atom_site_occupancy
  Ca  Ca0  1  0.15055284  0.16579472  0.01828087  1
  Ca  Ca1  1  0.84944716  0.83420528  0.98171913  1
  Ca  Ca2  1  0.84944716  0.66579472  0.48171913  1
  Ca  Ca3  1  0.15055284  0.33420528  0.51828087  1
  Ti  Ti4  1  0.08761838  0.45912310  0.82952379  1
  Ti  Ti5  1  0.08761838  0.04087690  0.32952379  1
  Ti  Ti6  1  0.59692262  0.09031805  0.15148934  1
  Ti  Ti7  1  0.91238162  0.95912310  0.67047621  1
  Ti  Ti8  1  0.40307738  0.90968195  0.84851066  1
  Ti  Ti9  1  0.40307738  0.59031805  0.34851066  1
  Ti  Ti10  1  0.59692262  0.40968195  0.65148934  1
  Ti  Ti11  1  0.91238162  0.54087690  0.17047621  1
  Cu  Cu12  1  0.75934856  0.18327699  0.84428336  1
  Cu  Cu13  1  0.39053016  0.05630719  0.62928107  1
  Cu  Cu14  1  0.60946984  0.94369281  0.37071893  1
  Cu  Cu15  1  0.24065144  0.81672301  0.15571664  1
  Cu  Cu16  1  0.75934856  0.31672301  0.34428336  1
  Cu  Cu17  1  0.39053016  0.44369281  0.12928107  1
  Cu  Cu18  1  0.24065144  0.68327699  0.65571664  1
  Cu  Cu19  1  0.60946984  0.55630719  0.87071893  1
  O  O20  1  0.02308737  0.24020921  0.36214543  1
  O  O21  1  0.67184758  0.00408656  0.61499509  1
  O  O22  1  0.18789403  0.58147914  0.44680465  1
  O  O23  1  0.81210597  0.08147914  0.05319535  1
  O  O24  1  0.02308737  0.25979079  0.86214543  1
  O  O25  1  0.97691263  0.75979079  0.63785457  1
  O  O26  1  0.11144705  0.09481319  0.60954770  1
  O  O27  1  0.50918644  0.89131293  0.14302711  1
  O  O28  1  0.50918644  0.60868707  0.64302711  1
  O  O29  1  0.31283018  0.87917672  0.70453017  1
  O  O30  1  0.68716982  0.37917672  0.79546983  1
  O  O31  1  0.49081356  0.10868707  0.85697289  1
  O  O32  1  0.88855295  0.90518681  0.39045230  1
  O  O33  1  0.85495444  0.51252540  0.31777743  1
  O  O34  1  0.44096774  0.25737389  0.60189691  1
  O  O35  1  0.44096774  0.24262611  0.10189691  1
  O  O36  1  0.14504556  0.01252540  0.18222257  1
  O  O37  1  0.49081356  0.39131293  0.35697289  1
  O  O38  1  0.14504556  0.48747460  0.68222257  1
  O  O39  1  0.81210597  0.41852086  0.55319535  1
  O  O40  1  0.67184758  0.49591344  0.11499509  1
  O  O41  1  0.68716982  0.12082328  0.29546983  1
  O  O42  1  0.97691263  0.74020921  0.13785457  1
  O  O43  1  0.11144705  0.40518681  0.10954770  1
  O  O44  1  0.18789403  0.91852086  0.94680465  1
  O  O45  1  0.55903226  0.75737389  0.89810309  1
  O  O46  1  0.32815242  0.99591344  0.38500491  1
  O  O47  1  0.32815242  0.50408656  0.88500491  1
  O  O48  1  0.88855295  0.59481319  0.89045230  1
  O  O49  1  0.55903226  0.74262611  0.39810309  1
  O  O50  1  0.31283018  0.62082328  0.20453017  1
  O  O51  1  0.85495444  0.98747460  0.81777743  1
