# generated using pymatgen
data_MgIn3
_symmetry_space_group_name_H-M   'P 1'
_cell_length_a   3.37947949
_cell_length_b   6.32772312
_cell_length_c   5.68171229
_cell_angle_alpha   63.32342655
_cell_angle_beta   90.00000000
_cell_angle_gamma   74.51193975
_symmetry_Int_Tables_number   1
_chemical_formula_structural   MgIn3
_chemical_formula_sum   'Mg1 In3'
_cell_volume   103.60554710
_cell_formula_units_Z   1
loop_
 _symmetry_equiv_pos_site_id
 _symmetry_equiv_pos_as_xyz
  1  'x, y, z'
loop_
 _atom_site_type_symbol
 _atom_site_label
 _atom_site_symmetry_multiplicity
 _atom_site_fract_x
 _atom_site_fract_y
 _atom_site_fract_z
 _atom_site_occupancy
  Mg  Mg0  1  0.75000100  0.50000000  0.08134904  1
  In  In1  1  0.00375705  0.99248789  0.00321550  1
  In  In2  1  0.49624395  0.00751211  0.49570339  1
  In  In3  1  0.25000100  0.50000000  0.58640106  1
