# generated using pymatgen
data_LaB2Pt2C
_symmetry_space_group_name_H-M   'P 1'
_cell_length_a   3.89879951
_cell_length_b   3.89879952
_cell_length_c   6.05759830
_cell_angle_alpha   108.77246184
_cell_angle_beta   108.77246184
_cell_angle_gamma   89.99999998
_symmetry_Int_Tables_number   1
_chemical_formula_structural   LaB2Pt2C
_chemical_formula_sum   'La1 B2 Pt2 C1'
_cell_volume   81.99074929
_cell_formula_units_Z   1
loop_
 _symmetry_equiv_pos_site_id
 _symmetry_equiv_pos_as_xyz
  1  'x, y, z'
loop_
 _atom_site_type_symbol
 _atom_site_label
 _atom_site_symmetry_multiplicity
 _atom_site_fract_x
 _atom_site_fract_y
 _atom_site_fract_z
 _atom_site_occupancy
  B  B0  1  0.36218540  0.36218540  0.72437081  1
  B  B1  1  0.63781460  0.63781460  0.27562919  1
  C  C2  1  0.50000000  0.50000000  0.00000000  1
  La  La3  1  0.00000000  0.00000000  0.00000000  1
  Pt  Pt4  1  0.25000000  0.75000000  0.50000000  1
  Pt  Pt5  1  0.75000000  0.25000000  0.50000000  1
