# generated using pymatgen
data_Li4V5Sn3O16
_symmetry_space_group_name_H-M   'P 1'
_cell_length_a   6.15505869
_cell_length_b   6.11463422
_cell_length_c   9.73347986
_cell_angle_alpha   89.70248120
_cell_angle_beta   89.65281728
_cell_angle_gamma   119.89959911
_symmetry_Int_Tables_number   1
_chemical_formula_structural   Li4V5Sn3O16
_chemical_formula_sum   'Li4 V5 Sn3 O16'
_cell_volume   317.55025884
_cell_formula_units_Z   1
loop_
 _symmetry_equiv_pos_site_id
 _symmetry_equiv_pos_as_xyz
  1  'x, y, z'
loop_
 _atom_site_type_symbol
 _atom_site_label
 _atom_site_symmetry_multiplicity
 _atom_site_fract_x
 _atom_site_fract_y
 _atom_site_fract_z
 _atom_site_occupancy
  Li  Li0  1  0.34809468  0.67598243  0.89088295  1
  Li  Li1  1  0.97492671  0.98722719  0.99240966  1
  Li  Li2  1  0.98785763  0.99288284  0.49972084  1
  Li  Li3  1  0.66851357  0.33513166  0.39578744  1
  V  V4  1  0.33653940  0.66479828  0.49019539  1
  V  V5  1  0.66221985  0.83123309  0.21433497  1
  V  V6  1  0.67287013  0.33871276  0.98598089  1
  V  V7  1  0.83116953  0.16928553  0.71140940  1
  V  V8  1  0.83434465  0.65949452  0.71354048  1
  Sn  Sn9  1  0.17004199  0.83091557  0.21356896  1
  Sn  Sn10  1  0.16956386  0.33835110  0.21326109  1
  Sn  Sn11  1  0.33991350  0.16973849  0.71420002  1
  O  O12  1  0.15812410  0.82761986  0.59972407  1
  O  O13  1  0.03609537  0.51657762  0.34620526  1
  O  O14  1  0.33446652  0.66808381  0.09701056  1
  O  O15  1  0.99936162  0.99841658  0.31650650  1
  O  O16  1  0.99488824  0.98814953  0.80983926  1
  O  O17  1  0.15744056  0.32694405  0.59986648  1
  O  O18  1  0.48431808  0.95925794  0.34241673  1
  O  O19  1  0.48284081  0.52322745  0.34207737  1
  O  O20  1  0.32419814  0.16273305  0.09135256  1
  O  O21  1  0.67931230  0.82735216  0.60959653  1
  O  O22  1  0.53063943  0.48983395  0.84069427  1
  O  O23  1  0.53272568  0.04471878  0.84114501  1
  O  O24  1  0.67111386  0.34824219  0.60126919  1
  O  O25  1  0.83003165  0.67170021  0.10184624  1
  O  O26  1  0.95629372  0.49385668  0.83260113  1
  O  O27  1  0.83209644  0.15983367  0.10039676  1
