# generated using pymatgen
data_Li4UC3O11
_symmetry_space_group_name_H-M   'P 1'
_cell_length_a   8.91790411
_cell_length_b   8.91790459
_cell_length_c   12.53410923
_cell_angle_alpha   90.00000000
_cell_angle_beta   90.00000000
_cell_angle_gamma   120.00000131
_symmetry_Int_Tables_number   1
_chemical_formula_structural   Li4UC3O11
_chemical_formula_sum   'Li16 U4 C12 O44'
_cell_volume   863.27610724
_cell_formula_units_Z   4
loop_
 _symmetry_equiv_pos_site_id
 _symmetry_equiv_pos_as_xyz
  1  'x, y, z'
loop_
 _atom_site_type_symbol
 _atom_site_label
 _atom_site_symmetry_multiplicity
 _atom_site_fract_x
 _atom_site_fract_y
 _atom_site_fract_z
 _atom_site_occupancy
  Li  Li0  1  0.68920445  0.12286006  0.87331760  1
  Li  Li1  1  0.87713994  0.56634538  0.87331760  1
  Li  Li2  1  0.43365462  0.31079555  0.87331760  1
  Li  Li3  1  0.56634538  0.87713994  0.62668240  1
  Li  Li4  1  0.31079555  0.43365462  0.62668240  1
  Li  Li5  1  0.12286006  0.68920445  0.62668240  1
  Li  Li6  1  0.31079555  0.87713994  0.12668240  1
  Li  Li7  1  0.12286006  0.43365462  0.12668240  1
  Li  Li8  1  0.56634538  0.68920445  0.12668240  1
  Li  Li9  1  0.43365462  0.12286006  0.37331760  1
  Li  Li10  1  0.68920445  0.56634538  0.37331760  1
  Li  Li11  1  0.87713994  0.31079555  0.37331760  1
  Li  Li12  1  0.00000000  0.00000000  0.50000000  1
  Li  Li13  1  0.00000000  0.00000000  0.00000000  1
  Li  Li14  1  0.00000000  0.00000000  0.75000000  1
  Li  Li15  1  0.00000000  0.00000000  0.25000000  1
  U  U16  1  0.66666700  0.33333300  0.62983934  1
  U  U17  1  0.33333300  0.66666700  0.87016066  1
  U  U18  1  0.33333300  0.66666700  0.37016066  1
  U  U19  1  0.66666700  0.33333300  0.12983934  1
  C  C20  1  0.25143207  0.93551807  0.87271086  1
  C  C21  1  0.06448193  0.31591399  0.87271086  1
  C  C22  1  0.68408601  0.74856793  0.87271086  1
  C  C23  1  0.31591399  0.06448193  0.62728914  1
  C  C24  1  0.74856793  0.68408601  0.62728914  1
  C  C25  1  0.93551807  0.25143207  0.62728914  1
  C  C26  1  0.74856793  0.06448193  0.12728914  1
  C  C27  1  0.93551807  0.68408601  0.12728914  1
  C  C28  1  0.31591399  0.25143207  0.12728914  1
  C  C29  1  0.68408601  0.93551807  0.37271086  1
  C  C30  1  0.25143207  0.31591399  0.37271086  1
  C  C31  1  0.06448193  0.74856793  0.37271086  1
  O  O32  1  0.63632857  0.86483278  0.85969376  1
  O  O33  1  0.13516722  0.77149578  0.85969376  1
  O  O34  1  0.22850422  0.36367143  0.85969376  1
  O  O35  1  0.77149578  0.13516722  0.64030624  1
  O  O36  1  0.36367143  0.22850422  0.64030624  1
  O  O37  1  0.86483278  0.63632857  0.64030624  1
  O  O38  1  0.36367143  0.13516722  0.14030624  1
  O  O39  1  0.86483278  0.22850422  0.14030624  1
  O  O40  1  0.77149578  0.63632857  0.14030624  1
  O  O41  1  0.22850422  0.86483278  0.35969376  1
  O  O42  1  0.63632857  0.77149578  0.35969376  1
  O  O43  1  0.13516722  0.36367143  0.35969376  1
  O  O44  1  0.41071292  0.96572334  0.88002603  1
  O  O45  1  0.03427666  0.44498858  0.88002603  1
  O  O46  1  0.55501142  0.58928708  0.88002603  1
  O  O47  1  0.44498858  0.03427666  0.61997397  1
  O  O48  1  0.58928708  0.55501142  0.61997397  1
  O  O49  1  0.96572334  0.41071292  0.61997397  1
  O  O50  1  0.58928708  0.03427666  0.11997397  1
  O  O51  1  0.96572334  0.55501142  0.11997397  1
  O  O52  1  0.44498858  0.41071292  0.11997397  1
  O  O53  1  0.55501142  0.96572334  0.38002603  1
  O  O54  1  0.41071292  0.44498858  0.38002603  1
  O  O55  1  0.03427666  0.58928708  0.38002603  1
  O  O56  1  0.21445902  0.05545442  0.87801558  1
  O  O57  1  0.94454558  0.15900560  0.87801558  1
  O  O58  1  0.84099440  0.78554098  0.87801558  1
  O  O59  1  0.15900560  0.94454558  0.62198442  1
  O  O60  1  0.78554098  0.84099440  0.62198442  1
  O  O61  1  0.05545442  0.21445902  0.62198442  1
  O  O62  1  0.78554098  0.94454558  0.12198442  1
  O  O63  1  0.05545442  0.84099440  0.12198442  1
  O  O64  1  0.15900560  0.21445902  0.12198442  1
  O  O65  1  0.84099440  0.05545442  0.37801558  1
  O  O66  1  0.21445902  0.15900560  0.37801558  1
  O  O67  1  0.94454558  0.78554098  0.37801558  1
  O  O68  1  0.66666700  0.33333300  0.48164845  1
  O  O69  1  0.33333300  0.66666700  0.01835155  1
  O  O70  1  0.33333300  0.66666700  0.51835155  1
  O  O71  1  0.66666700  0.33333300  0.98164845  1
  O  O72  1  0.66666700  0.33333300  0.77898869  1
  O  O73  1  0.33333300  0.66666700  0.72101131  1
  O  O74  1  0.33333300  0.66666700  0.22101131  1
  O  O75  1  0.66666700  0.33333300  0.27898869  1
