# generated using pymatgen
data_C5Cl4
_symmetry_space_group_name_H-M   'P 1'
_cell_length_a   7.77797900
_cell_length_b   9.92924101
_cell_length_c   18.61230542
_cell_angle_alpha   97.83913527
_cell_angle_beta   90.00000000
_cell_angle_gamma   90.00000000
_symmetry_Int_Tables_number   1
_chemical_formula_structural   C5Cl4
_chemical_formula_sum   'C40 Cl32'
_cell_volume   1423.98490486
_cell_formula_units_Z   8
loop_
 _symmetry_equiv_pos_site_id
 _symmetry_equiv_pos_as_xyz
  1  'x, y, z'
loop_
 _atom_site_type_symbol
 _atom_site_label
 _atom_site_symmetry_multiplicity
 _atom_site_fract_x
 _atom_site_fract_y
 _atom_site_fract_z
 _atom_site_occupancy
  C  C0  1  0.11186926  0.91192083  0.65421861  1
  C  C1  1  0.88813074  0.08807917  0.34578139  1
  C  C2  1  0.61186926  0.58807917  0.84578139  1
  C  C3  1  0.38813074  0.41192083  0.15421861  1
  C  C4  1  0.13022746  0.93036940  0.80725903  1
  C  C5  1  0.86977254  0.06963060  0.19274097  1
  C  C6  1  0.63022746  0.56963060  0.69274097  1
  C  C7  1  0.36977254  0.43036940  0.30725903  1
  C  C8  1  0.13521895  0.79384413  0.68600391  1
  C  C9  1  0.86478105  0.20615587  0.31399609  1
  C  C10  1  0.63521895  0.70615587  0.81399609  1
  C  C11  1  0.36478105  0.29384413  0.18600391  1
  C  C12  1  0.64214438  0.80588967  0.62344407  1
  C  C13  1  0.35785562  0.19411033  0.37655593  1
  C  C14  1  0.14214438  0.69411033  0.87655593  1
  C  C15  1  0.85785562  0.30588967  0.12344407  1
  C  C16  1  0.68262664  0.67796149  0.58363844  1
  C  C17  1  0.31737336  0.32203851  0.41636156  1
  C  C18  1  0.18262664  0.82203851  0.91636156  1
  C  C19  1  0.81737336  0.17796149  0.08363844  1
  C  C20  1  0.07423657  0.03667109  0.69774695  1
  C  C21  1  0.92576343  0.96332891  0.30225305  1
  C  C22  1  0.57423657  0.46332891  0.80225305  1
  C  C23  1  0.42576343  0.53667109  0.19774695  1
  C  C24  1  0.17866652  0.93844351  0.88217777  1
  C  C25  1  0.82133348  0.06155649  0.11782223  1
  C  C26  1  0.67866652  0.56155649  0.61782223  1
  C  C27  1  0.32133348  0.43844351  0.38217777  1
  C  C28  1  0.08177838  0.04579877  0.77285133  1
  C  C29  1  0.91822162  0.95420123  0.22714867  1
  C  C30  1  0.58177838  0.45420123  0.72714867  1
  C  C31  1  0.41822162  0.54579877  0.27285133  1
  C  C32  1  0.62144206  0.81958250  0.69851686  1
  C  C33  1  0.37855794  0.18041750  0.30148314  1
  C  C34  1  0.12144206  0.68041750  0.80148314  1
  C  C35  1  0.87855794  0.31958250  0.19851686  1
  C  C36  1  0.12914955  0.79755655  0.76360644  1
  C  C37  1  0.87085045  0.20244345  0.23639356  1
  C  C38  1  0.62914955  0.70244345  0.73639356  1
  C  C39  1  0.37085045  0.29755655  0.26360644  1
  Cl  Cl40  1  0.12303960  0.55530210  0.92186437  1
  Cl  Cl41  1  0.87696040  0.44469790  0.07813563  1
  Cl  Cl42  1  0.62303960  0.94469790  0.57813563  1
  Cl  Cl43  1  0.37696040  0.05530210  0.42186437  1
  Cl  Cl44  1  0.01690876  0.17510897  0.65689608  1
  Cl  Cl45  1  0.98309124  0.82489103  0.34310392  1
  Cl  Cl46  1  0.51690876  0.32489103  0.84310392  1
  Cl  Cl47  1  0.48309124  0.67510897  0.15689608  1
  Cl  Cl48  1  0.25213646  0.08699987  0.93105021  1
  Cl  Cl49  1  0.74786354  0.91300013  0.06894979  1
  Cl  Cl50  1  0.75213646  0.41300013  0.56894979  1
  Cl  Cl51  1  0.24786354  0.58699987  0.43105021  1
  Cl  Cl52  1  0.57378898  0.98020807  0.74102601  1
  Cl  Cl53  1  0.42621102  0.01979193  0.25897399  1
  Cl  Cl54  1  0.07378898  0.51979193  0.75897399  1
  Cl  Cl55  1  0.92621102  0.48020807  0.24102601  1
  Cl  Cl56  1  0.18583701  0.64902474  0.62798198  1
  Cl  Cl57  1  0.81416299  0.35097526  0.37201802  1
  Cl  Cl58  1  0.68583701  0.85097526  0.87201802  1
  Cl  Cl59  1  0.31416299  0.14902474  0.12798198  1
  Cl  Cl60  1  0.01011703  0.19423564  0.82223475  1
  Cl  Cl61  1  0.98988297  0.80576436  0.17776525  1
  Cl  Cl62  1  0.51011703  0.30576436  0.67776525  1
  Cl  Cl63  1  0.48988297  0.69423564  0.32223475  1
  Cl  Cl64  1  0.76511165  0.16805014  0.99359764  1
  Cl  Cl65  1  0.23488835  0.83194986  0.00640236  1
  Cl  Cl66  1  0.26511165  0.33194986  0.50640236  1
  Cl  Cl67  1  0.73488835  0.66805014  0.49359764  1
  Cl  Cl68  1  0.12319622  0.90783710  0.56183904  1
  Cl  Cl69  1  0.87680378  0.09216290  0.43816096  1
  Cl  Cl70  1  0.62319622  0.59216290  0.93816096  1
  Cl  Cl71  1  0.37680378  0.40783710  0.06183904  1
