# generated using pymatgen
data_H6PbCBr3N
_symmetry_space_group_name_H-M   'P 1'
_cell_length_a   6.03853091
_cell_length_b   6.05967989
_cell_length_c   6.12817896
_cell_angle_alpha   90.00113438
_cell_angle_beta   90.07179375
_cell_angle_gamma   90.00067262
_symmetry_Int_Tables_number   1
_chemical_formula_structural   H6PbCBr3N
_chemical_formula_sum   'H6 Pb1 C1 Br3 N1'
_cell_volume   224.23947845
_cell_formula_units_Z   1
loop_
 _symmetry_equiv_pos_site_id
 _symmetry_equiv_pos_as_xyz
  1  'x, y, z'
loop_
 _atom_site_type_symbol
 _atom_site_label
 _atom_site_symmetry_multiplicity
 _atom_site_fract_x
 _atom_site_fract_y
 _atom_site_fract_z
 _atom_site_occupancy
  H  H0  1  0.21825810  0.13789965  0.96818977  1
  H  H1  1  0.17778590  0.99996459  0.19863604  1
  H  H2  1  0.82509533  0.14805713  0.06161877  1
  H  H3  1  0.86934059  0.99977337  0.81171536  1
  H  H4  1  0.82484678  0.85221658  0.06199649  1
  H  H5  1  0.21805293  0.86150575  0.96846044  1
  Pb  Pb6  1  0.47526613  0.50000088  0.47799446  1
  C  C7  1  0.89731104  0.99997892  0.98851963  1
  Br  Br8  1  0.43002843  0.49988595  0.97274827  1
  Br  Br9  1  0.43485243  0.00001147  0.51270798  1
  Br  Br10  1  0.96653768  0.50017674  0.44073597  1
  N  N11  1  0.14060568  0.99983096  0.03246482  1
