# generated using pymatgen
data_CaH8C6S2(NO4)2
_symmetry_space_group_name_H-M   'P 1'
_cell_length_a   7.44109241
_cell_length_b   8.26071812
_cell_length_c   11.74213887
_cell_angle_alpha   93.81229442
_cell_angle_beta   100.40812529
_cell_angle_gamma   115.13724952
_symmetry_Int_Tables_number   1
_chemical_formula_structural   CaH8C6S2(NO4)2
_chemical_formula_sum   'Ca2 H16 C12 S4 N4 O16'
_cell_volume   634.29678745
_cell_formula_units_Z   2
loop_
 _symmetry_equiv_pos_site_id
 _symmetry_equiv_pos_as_xyz
  1  'x, y, z'
loop_
 _atom_site_type_symbol
 _atom_site_label
 _atom_site_symmetry_multiplicity
 _atom_site_fract_x
 _atom_site_fract_y
 _atom_site_fract_z
 _atom_site_occupancy
  Ca  Ca0  1  0.07870525  0.21755528  0.92425345  1
  Ca  Ca1  1  0.92129475  0.78244472  0.07574655  1
  H  H2  1  0.33629958  0.80255775  0.21211184  1
  H  H3  1  0.66370042  0.19744225  0.78788816  1
  H  H4  1  0.58269747  0.61492777  0.21611064  1
  H  H5  1  0.41730253  0.38507223  0.78388936  1
  H  H6  1  0.36299609  0.05698918  0.06482586  1
  H  H7  1  0.63700391  0.94301082  0.93517414  1
  H  H8  1  0.32884492  0.17660598  0.76145089  1
  H  H9  1  0.67115508  0.82339402  0.23854911  1
  H  H10  1  0.25042408  0.60847182  0.02663885  1
  H  H11  1  0.74957592  0.39152818  0.97336115  1
  H  H12  1  0.73143516  0.05226058  0.06141103  1
  H  H13  1  0.26856484  0.94773942  0.93858897  1
  H  H14  1  0.16633772  0.59882975  0.19386384  1
  H  H15  1  0.83366228  0.40117025  0.80613616  1
  H  H16  1  0.72363236  0.36805902  0.10267174  1
  H  H17  1  0.27636764  0.63194098  0.89732826  1
  C  C18  1  0.47101476  0.43596651  0.53789312  1
  C  C19  1  0.52898524  0.56403349  0.46210688  1
  C  C20  1  0.64454956  0.11783016  0.26663491  1
  C  C21  1  0.35545044  0.88216984  0.73336509  1
  C  C22  1  0.78818249  0.27266104  0.36191416  1
  C  C23  1  0.21181751  0.72733896  0.63808584  1
  C  C24  1  0.30544441  0.33253154  0.33221559  1
  C  C25  1  0.69455559  0.66746846  0.66778441  1
  C  C26  1  0.17677192  0.22026357  0.21570318  1
  C  C27  1  0.82322808  0.77973643  0.78429682  1
  C  C28  1  0.01431706  0.54177695  0.44981794  1
  C  C29  1  0.98568294  0.45822305  0.55018206  1
  S  S30  1  0.28984957  0.23049613  0.45787937  1
  S  S31  1  0.71015043  0.76950387  0.54212063  1
  S  S32  1  0.19154377  0.76521490  0.49222348  1
  S  S33  1  0.80845623  0.23478510  0.50777652  1
  N  N34  1  0.43561661  0.50569868  0.34667357  1
  N  N35  1  0.56438339  0.49430132  0.65332643  1
  N  N36  1  0.09594612  0.56215693  0.65549819  1
  N  N37  1  0.90405388  0.43784307  0.34450181  1
  O  O38  1  0.17864768  0.30445963  0.12909584  1
  O  O39  1  0.82135232  0.69554037  0.87090416  1
  O  O40  1  0.43732760  0.03592834  0.70135907  1
  O  O41  1  0.56267240  0.96407166  0.29864093  1
  O  O42  1  0.23436336  0.00468184  0.00268513  1
  O  O43  1  0.76563664  0.99531816  0.99731487  1
  O  O44  1  0.30773232  0.27535007  0.79908221  1
  O  O45  1  0.69226768  0.72464993  0.20091779  1
  O  O46  1  0.76043577  0.45805301  0.04922592  1
  O  O47  1  0.23956423  0.54194699  0.95077408  1
  O  O48  1  0.20277951  0.71089875  0.16071615  1
  O  O49  1  0.79722049  0.28910125  0.83928385  1
  O  O50  1  0.07958461  0.05179638  0.21592838  1
  O  O51  1  0.92041539  0.94820362  0.78407162  1
  O  O52  1  0.61603100  0.15031838  0.16175978  1
  O  O53  1  0.38396900  0.84968162  0.83824022  1
