# generated using pymatgen
data_LaTaN3
_symmetry_space_group_name_H-M   'P 1'
_cell_length_a   5.76324651
_cell_length_b   17.85148221
_cell_length_c   7.13698879
_cell_angle_alpha   157.78034692
_cell_angle_beta   90.00000000
_cell_angle_gamma   90.00000000
_symmetry_Int_Tables_number   1
_chemical_formula_structural   LaTaN3
_chemical_formula_sum   'La4 Ta4 N12'
_cell_volume   277.67078252
_cell_formula_units_Z   4
loop_
 _symmetry_equiv_pos_site_id
 _symmetry_equiv_pos_as_xyz
  1  'x, y, z'
loop_
 _atom_site_type_symbol
 _atom_site_label
 _atom_site_symmetry_multiplicity
 _atom_site_fract_x
 _atom_site_fract_y
 _atom_site_fract_z
 _atom_site_occupancy
  La  La0  1  0.75552955  0.61648810  0.61027221  1
  La  La1  1  0.24447045  0.38351190  0.38972779  1
  La  La2  1  0.74447045  0.11648810  0.11027221  1
  La  La3  1  0.25552955  0.88351190  0.88972779  1
  Ta  Ta4  1  0.27442536  0.36911544  0.87939260  1
  Ta  Ta5  1  0.77442536  0.13088456  0.62060740  1
  Ta  Ta6  1  0.72557464  0.63088456  0.12060740  1
  Ta  Ta7  1  0.22557464  0.86911544  0.37939260  1
  N  N8  1  0.76578745  0.36734840  0.37140841  1
  N  N9  1  0.73421255  0.86734840  0.87140841  1
  N  N10  1  0.46333162  0.22983858  0.75103831  1
  N  N11  1  0.96333162  0.27016142  0.74896169  1
  N  N12  1  0.53666838  0.77016142  0.24896169  1
  N  N13  1  0.23421255  0.63265160  0.62859159  1
  N  N14  1  0.09931624  0.04128429  0.54471668  1
  N  N15  1  0.90068376  0.95871571  0.45528332  1
  N  N16  1  0.26578745  0.13265160  0.12859159  1
  N  N17  1  0.03666838  0.72983858  0.25103831  1
  N  N18  1  0.40068376  0.54128429  0.04471668  1
  N  N19  1  0.59931624  0.45871571  0.95528332  1
