# generated using pymatgen
data_Y(Mg4Al3)4
_symmetry_space_group_name_H-M   'P 1'
_cell_length_a   8.90745424
_cell_length_b   9.23914174
_cell_length_c   9.23914263
_cell_angle_alpha   110.18700685
_cell_angle_beta   108.74558559
_cell_angle_gamma   108.74558600
_symmetry_Int_Tables_number   1
_chemical_formula_structural   Y(Mg4Al3)4
_chemical_formula_sum   'Y1 Mg16 Al12'
_cell_volume   590.48124929
_cell_formula_units_Z   1
loop_
 _symmetry_equiv_pos_site_id
 _symmetry_equiv_pos_as_xyz
  1  'x, y, z'
loop_
 _atom_site_type_symbol
 _atom_site_label
 _atom_site_symmetry_multiplicity
 _atom_site_fract_x
 _atom_site_fract_y
 _atom_site_fract_z
 _atom_site_occupancy
  Y  Y0  1  0.37074362  0.99999900  0.99999900  1
  Mg  Mg1  1  0.99566126  0.34143080  0.00000000  1
  Mg  Mg2  1  0.31543598  0.59778017  0.00000000  1
  Mg  Mg3  1  0.99811393  0.00000000  0.00000000  1
  Mg  Mg4  1  0.61047074  0.33037403  0.00000100  1
  Mg  Mg5  1  0.68875052  0.68743768  0.29449233  1
  Mg  Mg6  1  0.00131285  0.60705465  0.31256232  1
  Mg  Mg7  1  0.61047174  0.00000100  0.33037403  1
  Mg  Mg8  1  0.99566126  0.00000000  0.34143080  1
  Mg  Mg9  1  0.39425919  0.70550767  0.39294535  1
  Mg  Mg10  1  0.71765681  0.40222083  0.40222183  1
  Mg  Mg11  1  0.31543598  1.00000000  0.59778017  1
  Mg  Mg12  1  0.00131285  0.31256132  0.60705465  1
  Mg  Mg13  1  0.65422946  0.65856820  0.65856820  1
  Mg  Mg14  1  0.28009671  0.66962497  0.66962597  1
  Mg  Mg15  1  0.68875152  0.29449333  0.68743868  1
  Mg  Mg16  1  0.39425919  0.39294635  0.70550767  1
  Al  Al17  1  0.62782386  0.81694361  0.99999900  1
  Al  Al18  1  0.81037724  0.63632268  0.00000000  1
  Al  Al19  1  0.36521027  0.36370124  0.17890538  1
  Al  Al20  1  0.81087825  0.18305639  0.18305639  1
  Al  Al21  1  0.18630289  0.82109362  0.18479385  1
  Al  Al22  1  0.17405356  0.36367732  0.36367732  1
  Al  Al23  1  0.36521027  0.17890538  0.36370024  1
  Al  Al24  1  0.00150903  0.81520515  0.63630076  1
  Al  Al25  1  0.81037724  0.00000000  0.63632268  1
  Al  Al26  1  0.00150903  0.63629976  0.81520515  1
  Al  Al27  1  0.62782286  0.99999900  0.81694461  1
  Al  Al28  1  0.18630289  0.18479385  0.82109362  1
