# generated using pymatgen
data_NiS2
_symmetry_space_group_name_H-M   'P 1'
_cell_length_a   6.71737402
_cell_length_b   6.67630505
_cell_length_c   6.70830156
_cell_angle_alpha   59.99692658
_cell_angle_beta   59.86258426
_cell_angle_gamma   59.78771606
_symmetry_Int_Tables_number   1
_chemical_formula_structural   NiS2
_chemical_formula_sum   'Ni4 S8'
_cell_volume   212.16318645
_cell_formula_units_Z   4
loop_
 _symmetry_equiv_pos_site_id
 _symmetry_equiv_pos_as_xyz
  1  'x, y, z'
loop_
 _atom_site_type_symbol
 _atom_site_label
 _atom_site_symmetry_multiplicity
 _atom_site_fract_x
 _atom_site_fract_y
 _atom_site_fract_z
 _atom_site_occupancy
  Ni  Ni0  1  0.50001520  0.50037430  0.49976011  1
  Ni  Ni1  1  0.00004242  0.49998152  0.50001802  1
  Ni  Ni2  1  0.49980774  0.49988122  0.00019246  1
  Ni  Ni3  1  0.50025298  -0.00036317  0.50019431  1
  S  S4  1  0.28627520  0.73831366  0.73903227  1
  S  S5  1  0.73674354  0.73866097  0.73857300  1
  S  S6  1  0.73846732  0.28628931  0.73661933  1
  S  S7  1  0.73928571  0.73675078  0.28611352  1
  S  S8  1  0.26331661  0.26039103  0.26213318  1
  S  S9  1  0.71372182  0.26159713  0.26104081  1
  S  S10  1  0.26117372  0.26340864  0.71346977  1
  S  S11  1  0.26089474  0.71471661  0.26285323  1
