# generated using pymatgen
data_CaTi2O4
_symmetry_space_group_name_H-M   'P 1'
_cell_length_a   5.13164783
_cell_length_b   5.91148690
_cell_length_c   11.37182589
_cell_angle_alpha   90.02523658
_cell_angle_beta   90.00175760
_cell_angle_gamma   89.96115156
_symmetry_Int_Tables_number   1
_chemical_formula_structural   CaTi2O4
_chemical_formula_sum   'Ca4 Ti8 O16'
_cell_volume   344.97183251
_cell_formula_units_Z   4
loop_
 _symmetry_equiv_pos_site_id
 _symmetry_equiv_pos_as_xyz
  1  'x, y, z'
loop_
 _atom_site_type_symbol
 _atom_site_label
 _atom_site_symmetry_multiplicity
 _atom_site_fract_x
 _atom_site_fract_y
 _atom_site_fract_z
 _atom_site_occupancy
  Ca  Ca0  1  0.84047324  0.24992395  0.75002163  1
  Ca  Ca1  1  0.15958582  0.75007397  0.24999157  1
  Ca  Ca2  1  0.53914860  0.25007887  0.25004471  1
  Ca  Ca3  1  0.46084791  0.74991796  0.74992298  1
  Ti  Ti4  1  0.52701187  0.74984961  0.48950319  1
  Ti  Ti5  1  0.52679366  0.74970599  0.01049907  1
  Ti  Ti6  1  0.47305009  0.25014895  0.51052995  1
  Ti  Ti7  1  0.47318019  0.25029229  0.98952326  1
  Ti  Ti8  1  0.99990435  0.50008458  0.49999596  1
  Ti  Ti9  1  0.00002887  0.00004184  0.00000146  1
  Ti  Ti10  1  0.99991218  0.99991568  0.49999689  1
  Ti  Ti11  1  0.00001676  0.49996132  0.00000009  1
  O  O12  1  0.84529493  0.75036089  0.39216874  1
  O  O13  1  0.84517199  0.75020127  0.10780656  1
  O  O14  1  0.15475880  0.24964151  0.60777902  1
  O  O15  1  0.15482745  0.24980528  0.89221685  1
  O  O16  1  0.17430724  0.74987418  0.59026796  1
  O  O17  1  0.17430943  0.75005177  0.90975983  1
  O  O18  1  0.82565887  0.25012503  0.40975197  1
  O  O19  1  0.82570206  0.24994894  0.09023041  1
  O  O20  1  0.66093324  0.50302299  0.60644340  1
  O  O21  1  0.66120587  0.99677656  0.89376017  1
  O  O22  1  0.33881466  0.00340609  0.39371223  1
  O  O23  1  0.33901827  0.49679793  0.10645346  1
  O  O24  1  0.33904841  0.49693181  0.39357131  1
  O  O25  1  0.33882209  0.00321167  0.10622187  1
  O  O26  1  0.66116671  0.99663855  0.60630160  1
  O  O27  1  0.66100645  0.50321052  0.89352385  1
