# generated using pymatgen
data_MgMnF5
_symmetry_space_group_name_H-M   'P 1'
_cell_length_a   5.09558208
_cell_length_b   7.81173509
_cell_length_c   9.58871148
_cell_angle_alpha   90.00000000
_cell_angle_beta   90.00000000
_cell_angle_gamma   109.97592569
_symmetry_Int_Tables_number   1
_chemical_formula_structural   MgMnF5
_chemical_formula_sum   'Mg4 Mn4 F20'
_cell_volume   358.71847965
_cell_formula_units_Z   4
loop_
 _symmetry_equiv_pos_site_id
 _symmetry_equiv_pos_as_xyz
  1  'x, y, z'
loop_
 _atom_site_type_symbol
 _atom_site_label
 _atom_site_symmetry_multiplicity
 _atom_site_fract_x
 _atom_site_fract_y
 _atom_site_fract_z
 _atom_site_occupancy
  Mg  Mg0  1  0.47689822  0.77163276  0.01065611  1
  Mg  Mg1  1  0.52310178  0.72836724  0.51065611  1
  Mg  Mg2  1  0.52310178  0.22836724  0.98934389  1
  Mg  Mg3  1  0.47689822  0.27163276  0.48934389  1
  Mn  Mn4  1  0.88770145  0.61394293  0.75621567  1
  Mn  Mn5  1  0.11229855  0.88605707  0.25621567  1
  Mn  Mn6  1  0.11229855  0.38605707  0.24378433  1
  Mn  Mn7  1  0.88770145  0.11394293  0.74378433  1
  F  F8  1  0.59430358  0.60780513  0.88384161  1
  F  F9  1  0.40569642  0.89219487  0.38384161  1
  F  F10  1  0.40569642  0.39219487  0.11615839  1
  F  F11  1  0.59430358  0.10780513  0.61615839  1
  F  F12  1  0.63354240  0.50101641  0.60845806  1
  F  F13  1  0.36645760  0.99898359  0.10845806  1
  F  F14  1  0.36645760  0.49898359  0.39154194  1
  F  F15  1  0.63354240  0.00101641  0.89154194  1
  F  F16  1  0.86139396  0.77390875  0.39418158  1
  F  F17  1  0.13860604  0.72609125  0.89418158  1
  F  F18  1  0.13860604  0.22609125  0.60581842  1
  F  F19  1  0.86139396  0.27390875  0.10581842  1
  F  F20  1  0.81245875  0.85390805  0.13128190  1
  F  F21  1  0.18754125  0.64609195  0.63128190  1
  F  F22  1  0.18754125  0.14609195  0.86871810  1
  F  F23  1  0.81245875  0.35390805  0.36871810  1
  F  F24  1  0.79965696  0.84414482  0.66407452  1
  F  F25  1  0.20034304  0.65585518  0.16407452  1
  F  F26  1  0.20034304  0.15585518  0.33592548  1
  F  F27  1  0.79965696  0.34414482  0.83592548  1
