# generated using pymatgen
data_Ba2CaCr2F14
_symmetry_space_group_name_H-M   'P 1'
_cell_length_a   5.53276811
_cell_length_b   5.60579419
_cell_length_c   19.41857239
_cell_angle_alpha   90.00000000
_cell_angle_beta   92.20009484
_cell_angle_gamma   90.00000000
_symmetry_Int_Tables_number   1
_chemical_formula_structural   Ba2CaCr2F14
_chemical_formula_sum   'Ba4 Ca2 Cr4 F28'
_cell_volume   601.83391663
_cell_formula_units_Z   2
loop_
 _symmetry_equiv_pos_site_id
 _symmetry_equiv_pos_as_xyz
  1  'x, y, z'
loop_
 _atom_site_type_symbol
 _atom_site_label
 _atom_site_symmetry_multiplicity
 _atom_site_fract_x
 _atom_site_fract_y
 _atom_site_fract_z
 _atom_site_occupancy
  Ba  Ba0  1  0.24182048  0.24404054  0.92467608  1
  Ba  Ba1  1  0.75817952  0.75595946  0.07532392  1
  Ba  Ba2  1  0.74182048  0.75595946  0.42467608  1
  Ba  Ba3  1  0.25817952  0.24404054  0.57532392  1
  Ca  Ca4  1  0.75000000  0.34319834  0.25000000  1
  Ca  Ca5  1  0.25000000  0.65680166  0.75000000  1
  Cr  Cr6  1  0.30252762  0.22113857  0.12026718  1
  Cr  Cr7  1  0.80252762  0.77886143  0.62026718  1
  Cr  Cr8  1  0.19747238  0.22113857  0.37973282  1
  Cr  Cr9  1  0.69747238  0.77886143  0.87973282  1
  F  F10  1  0.77180808  0.04670157  0.93573005  1
  F  F11  1  0.72819192  0.04670157  0.56426995  1
  F  F12  1  0.22819192  0.95329843  0.06426995  1
  F  F13  1  0.27180808  0.95329843  0.43573005  1
  F  F14  1  0.53797081  0.04653288  0.17206165  1
  F  F15  1  0.96202919  0.04653288  0.32793835  1
  F  F16  1  0.46202919  0.95346712  0.82793835  1
  F  F17  1  0.03797081  0.95346712  0.67206165  1
  F  F18  1  0.54521490  0.27939360  0.05541541  1
  F  F19  1  0.95478510  0.27939360  0.44458459  1
  F  F20  1  0.45478510  0.72060640  0.94458459  1
  F  F21  1  0.04521490  0.72060640  0.55541541  1
  F  F22  1  0.59453283  0.60118199  0.56033690  1
  F  F23  1  0.90546717  0.60118199  0.93966310  1
  F  F24  1  0.40546717  0.39881801  0.43966310  1
  F  F25  1  0.09453283  0.39881801  0.06033690  1
  F  F26  1  0.56150898  0.85775752  0.67630409  1
  F  F27  1  0.93849102  0.85775752  0.82369591  1
  F  F28  1  0.43849102  0.14224248  0.32369591  1
  F  F29  1  0.06150898  0.14224248  0.17630409  1
  F  F30  1  0.08380756  0.48124017  0.33215341  1
  F  F31  1  0.41619244  0.48124017  0.16784659  1
  F  F32  1  0.91619244  0.51875983  0.66784659  1
  F  F33  1  0.58380756  0.51875983  0.83215341  1
  F  F34  1  0.40276050  0.38976132  0.68548092  1
  F  F35  1  0.09723950  0.38976132  0.81451908  1
  F  F36  1  0.59723950  0.61023868  0.31451908  1
  F  F37  1  0.90276050  0.61023868  0.18548092  1
