# generated using pymatgen
data_CaMn2F10
_symmetry_space_group_name_H-M   'P 1'
_cell_length_a   5.55025032
_cell_length_b   5.55024988
_cell_length_c   7.58871345
_cell_angle_alpha   96.05392267
_cell_angle_beta   113.51495469
_cell_angle_gamma   108.07578606
_symmetry_Int_Tables_number   1
_chemical_formula_structural   CaMn2F10
_chemical_formula_sum   'Ca1 Mn2 F10'
_cell_volume   196.60565406
_cell_formula_units_Z   1
loop_
 _symmetry_equiv_pos_site_id
 _symmetry_equiv_pos_as_xyz
  1  'x, y, z'
loop_
 _atom_site_type_symbol
 _atom_site_label
 _atom_site_symmetry_multiplicity
 _atom_site_fract_x
 _atom_site_fract_y
 _atom_site_fract_z
 _atom_site_occupancy
  Ca  Ca0  1  0.28840644  0.53840644  0.75000000  1
  Mn  Mn1  1  0.00268838  0.00429354  0.00511188  1
  Mn  Mn2  1  0.49918166  0.99757650  0.49488812  1
  F  F3  1  0.32219674  0.07219674  0.25000000  1
  F  F4  1  0.67840160  0.92840160  0.75000000  1
  F  F5  1  0.58983058  0.76601323  0.38534975  1
  F  F6  1  0.88066248  0.20448083  0.11465025  1
  F  F7  1  0.76352199  0.71255275  0.02799828  1
  F  F8  1  0.18455447  0.73552371  0.47200172  1
  F  F9  1  0.22189776  0.28634494  0.95728038  1
  F  F10  1  0.82906456  0.26461737  0.54271962  1
  F  F11  1  0.12441178  0.79257482  0.88356226  1
  F  F12  1  0.40901256  0.24084852  0.61643774  1
