# generated using pymatgen
data_RbInCl3
_symmetry_space_group_name_H-M   'P 1'
_cell_length_a   7.69696157
_cell_length_b   7.69696191
_cell_length_c   7.69696122
_cell_angle_alpha   60.01451382
_cell_angle_beta   60.01451239
_cell_angle_gamma   60.01451091
_symmetry_Int_Tables_number   1
_chemical_formula_structural   RbInCl3
_chemical_formula_sum   'Rb2 In2 Cl6'
_cell_volume   322.54165938
_cell_formula_units_Z   2
loop_
 _symmetry_equiv_pos_site_id
 _symmetry_equiv_pos_as_xyz
  1  'x, y, z'
loop_
 _atom_site_type_symbol
 _atom_site_label
 _atom_site_symmetry_multiplicity
 _atom_site_fract_x
 _atom_site_fract_y
 _atom_site_fract_z
 _atom_site_occupancy
  Rb  Rb0  1  0.26760733  0.26760733  0.26760733  1
  Rb  Rb1  1  0.76760733  0.76760733  0.76760733  1
  In  In2  1  0.00456678  0.00456678  0.00456678  1
  In  In3  1  0.50456678  0.50456678  0.50456678  1
  Cl  Cl4  1  0.24984523  0.80724554  0.69923611  1
  Cl  Cl5  1  0.80724554  0.69923611  0.24984523  1
  Cl  Cl6  1  0.69923611  0.24984523  0.80724554  1
  Cl  Cl7  1  0.19923611  0.30724554  0.74984523  1
  Cl  Cl8  1  0.74984523  0.19923611  0.30724554  1
  Cl  Cl9  1  0.30724554  0.74984523  0.19923611  1
