# generated using pymatgen
data_V2P2O9
_symmetry_space_group_name_H-M   'P 1'
_cell_length_a   6.37296486
_cell_length_b   7.70297203
_cell_length_c   13.81525180
_cell_angle_alpha   90.00775337
_cell_angle_beta   89.99995785
_cell_angle_gamma   90.00145501
_symmetry_Int_Tables_number   1
_chemical_formula_structural   V2P2O9
_chemical_formula_sum   'V8 P8 O36'
_cell_volume   678.20134351
_cell_formula_units_Z   4
loop_
 _symmetry_equiv_pos_site_id
 _symmetry_equiv_pos_as_xyz
  1  'x, y, z'
loop_
 _atom_site_type_symbol
 _atom_site_label
 _atom_site_symmetry_multiplicity
 _atom_site_fract_x
 _atom_site_fract_y
 _atom_site_fract_z
 _atom_site_occupancy
  V  V0  1  0.75000372  0.34976057  0.87823870  1
  V  V1  1  0.24999525  0.65020843  0.12174346  1
  V  V2  1  0.24998838  0.84985788  0.62174128  1
  V  V3  1  0.75001562  0.15017656  0.37823783  1
  V  V4  1  0.49993661  -0.00008863  0.00003420  1
  V  V5  1  0.49997795  0.50001498  0.50001294  1
  V  V6  1  0.00001286  0.50001104  0.50000652  1
  V  V7  1  0.00004753  -0.00009000  0.00003153  1
  P  P8  1  0.24999721  0.35352857  0.93626730  1
  P  P9  1  0.74999837  0.64646462  0.06370625  1
  P  P10  1  0.75000457  0.85359937  0.56370527  1
  P  P11  1  0.25000044  0.14642361  0.43624803  1
  P  P12  1  0.75000860  0.39439204  0.69141053  1
  P  P13  1  0.75000158  0.10565568  0.19140565  1
  P  P14  1  0.25000380  0.89431015  0.80859805  1
  P  P15  1  0.25000156  0.60567106  0.30858050  1
  O  O16  1  0.05472361  0.59400644  0.37730819  1
  O  O17  1  0.55472456  0.40592854  0.62270997  1
  O  O18  1  0.94527662  0.09413633  0.12268898  1
  O  O19  1  0.44526426  0.90587641  0.87730862  1
  O  O20  1  0.94529389  0.40593459  0.62271219  1
  O  O21  1  0.44527068  0.59401415  0.37731140  1
  O  O22  1  0.05474945  0.90587108  0.87731562  1
  O  O23  1  0.55471536  0.09413053  0.12269844  1
  O  O24  1  0.24999419  0.33594201  0.48419641  1
  O  O25  1  0.75000637  0.66405906  0.51580100  1
  O  O26  1  0.74998255  0.83594375  0.01575217  1
  O  O27  1  0.25000282  0.16402031  0.98419810  1
  O  O28  1  0.74999180  0.13628103  0.94999330  1
  O  O29  1  0.24999952  0.86374791  0.05006382  1
  O  O30  1  0.24999391  0.63629811  0.55002556  1
  O  O31  1  0.75000669  0.36368816  0.45000177  1
  O  O32  1  0.75000035  0.22477717  0.75233259  1
  O  O33  1  0.25000530  0.77533780  0.24774350  1
  O  O34  1  0.24998130  0.72469431  0.74766237  1
  O  O35  1  0.75002415  0.27525335  0.25235355  1
  O  O36  1  0.44571063  0.13455666  0.37413494  1
  O  O37  1  0.94571385  0.86545307  0.62585849  1
  O  O38  1  0.55427272  0.63472775  0.12583268  1
  O  O39  1  0.05429504  0.36533266  0.87412500  1
  O  O40  1  0.55426599  0.86542947  0.62585242  1
  O  O41  1  0.05431588  0.13453330  0.37412903  1
  O  O42  1  0.44571660  0.36535106  0.87412393  1
  O  O43  1  0.94570888  0.63474896  0.12583066  1
  O  O44  1  0.75000510  0.51223936  0.98163904  1
  O  O45  1  0.24999610  0.03480222  0.73041265  1
  O  O46  1  0.24999676  0.46525308  0.23036551  1
  O  O47  1  0.75000838  0.53485706  0.76962283  1
  O  O48  1  0.75000117  0.98769689  0.48161592  1
  O  O49  1  0.25000320  0.01229618  0.51838164  1
  O  O50  1  0.24999510  0.48772420  0.01835795  1
  O  O51  1  0.75000915  0.96516012  0.26956874  1
