# generated using pymatgen
data_Ba2ZnCuNi2F14
_symmetry_space_group_name_H-M   'P 1'
_cell_length_a   5.32747418
_cell_length_b   7.45346872
_cell_length_c   14.47845527
_cell_angle_alpha   90.03120750
_cell_angle_beta   89.75027798
_cell_angle_gamma   111.54527228
_symmetry_Int_Tables_number   1
_chemical_formula_structural   Ba2ZnCuNi2F14
_chemical_formula_sum   'Ba4 Zn2 Cu2 Ni4 F28'
_cell_volume   534.73693541
_cell_formula_units_Z   2
loop_
 _symmetry_equiv_pos_site_id
 _symmetry_equiv_pos_as_xyz
  1  'x, y, z'
loop_
 _atom_site_type_symbol
 _atom_site_label
 _atom_site_symmetry_multiplicity
 _atom_site_fract_x
 _atom_site_fract_y
 _atom_site_fract_z
 _atom_site_occupancy
  Ba  Ba0  1  0.14386181  0.38723346  0.61851216  1
  Ba  Ba1  1  0.24509060  0.38665201  0.11876492  1
  Ba  Ba2  1  0.83981640  0.60479262  0.37684484  1
  Ba  Ba3  1  0.76562499  0.60667395  0.87866215  1
  Zn  Zn4  1  0.44442350  0.04723615  0.75963889  1
  Zn  Zn5  1  0.58869758  0.03831301  0.25842624  1
  Cu  Cu6  1  0.51045071  0.00005864  0.00143268  1
  Cu  Cu7  1  0.49045713  -0.00101940  0.50280655  1
  Ni  Ni8  1  0.11030762  0.22737120  0.87387848  1
  Ni  Ni9  1  0.89800848  0.76784224  0.12869292  1
  Ni  Ni10  1  0.11358591  0.21868513  0.37306879  1
  Ni  Ni11  1  0.87304690  0.77017922  0.62843277  1
  F  F12  1  0.86145205  0.96405528  0.33264849  1
  F  F13  1  0.79961362  0.22345857  0.46192933  1
  F  F14  1  0.17712101  0.77089933  0.54309817  1
  F  F15  1  0.70538476  0.51952540  0.57764246  1
  F  F16  1  0.60168451  0.09685691  0.62777144  1
  F  F17  1  0.52289633  0.90414809  0.87906217  1
  F  F18  1  0.41931062  0.23399144  0.95984224  1
  F  F19  1  0.93592353  0.01755117  0.15642029  1
  F  F20  1  0.38424614  0.32102631  0.77118735  1
  F  F21  1  0.29004500  0.48789165  0.41904824  1
  F  F22  1  0.82518387  0.24162276  0.78764063  1
  F  F23  1  0.19517252  0.49147509  0.91903861  1
  F  F24  1  0.41240725  0.23690537  0.28555445  1
  F  F25  1  0.16807631  0.75775230  0.20920758  1
  F  F26  1  0.50637437  0.09737164  0.12431474  1
  F  F27  1  0.62200793  0.65780145  0.21949832  1
  F  F28  1  0.14066537  0.84585779  0.01717454  1
  F  F29  1  0.09122208  0.01836595  0.65891114  1
  F  F30  1  0.87245129  0.15198432  0.98557676  1
  F  F31  1  0.71579436  0.84862973  0.51695453  1
  F  F32  1  0.60423622  0.76148340  0.04256957  1
  F  F33  1  0.58719240  0.74643482  0.70692060  1
  F  F34  1  0.93397284  0.31618346  0.27226404  1
  F  F35  1  0.27436553  0.15343783  0.48908238  1
  F  F36  1  0.36992046  0.90642958  0.37973254  1
  F  F37  1  0.09438199  0.96945267  0.83453774  1
  F  F38  1  0.03632742  0.65931475  0.71908552  1
  F  F39  1  0.82468760  0.51738771  0.08158970  1
