# generated using pymatgen
data_RbInBr3
_symmetry_space_group_name_H-M   'P 1'
_cell_length_a   8.08291915
_cell_length_b   8.08291885
_cell_length_c   8.08291896
_cell_angle_alpha   60.07849076
_cell_angle_beta   60.07849200
_cell_angle_gamma   60.07849048
_symmetry_Int_Tables_number   1
_chemical_formula_structural   RbInBr3
_chemical_formula_sum   'Rb2 In2 Br6'
_cell_volume   374.07740437
_cell_formula_units_Z   2
loop_
 _symmetry_equiv_pos_site_id
 _symmetry_equiv_pos_as_xyz
  1  'x, y, z'
loop_
 _atom_site_type_symbol
 _atom_site_label
 _atom_site_symmetry_multiplicity
 _atom_site_fract_x
 _atom_site_fract_y
 _atom_site_fract_z
 _atom_site_occupancy
  Rb  Rb0  1  0.26952650  0.26952650  0.26952650  1
  Rb  Rb1  1  0.76952650  0.76952650  0.76952650  1
  In  In2  1  0.00420141  0.00420141  0.00420141  1
  In  In3  1  0.50420141  0.50420141  0.50420141  1
  Br  Br4  1  0.24907624  0.81545454  0.69024131  1
  Br  Br5  1  0.81545454  0.69024131  0.24907624  1
  Br  Br6  1  0.69024131  0.24907624  0.81545454  1
  Br  Br7  1  0.19024131  0.31545454  0.74907624  1
  Br  Br8  1  0.74907624  0.19024131  0.31545454  1
  Br  Br9  1  0.31545454  0.74907624  0.19024131  1
