# generated using pymatgen
data_KHfO3
_symmetry_space_group_name_H-M   'P 1'
_cell_length_a   4.17783366
_cell_length_b   4.17800099
_cell_length_c   4.17802854
_cell_angle_alpha   89.94713867
_cell_angle_beta   89.86012674
_cell_angle_gamma   89.96242001
_symmetry_Int_Tables_number   1
_chemical_formula_structural   KHfO3
_chemical_formula_sum   'K1 Hf1 O3'
_cell_volume   72.92719573
_cell_formula_units_Z   1
loop_
 _symmetry_equiv_pos_site_id
 _symmetry_equiv_pos_as_xyz
  1  'x, y, z'
loop_
 _atom_site_type_symbol
 _atom_site_label
 _atom_site_symmetry_multiplicity
 _atom_site_fract_x
 _atom_site_fract_y
 _atom_site_fract_z
 _atom_site_occupancy
  K  K0  1  0.99015468  0.99933970  0.99748245  1
  Hf  Hf1  1  0.48793929  0.50001863  0.49797988  1
  O  O2  1  0.48573454  0.00012213  0.49566641  1
  O  O3  1  0.98760078  0.50147418  0.50080104  1
  O  O4  1  0.48857171  0.49904235  0.99807323  1
