# generated using pymatgen
data_TaReO6
_symmetry_space_group_name_H-M   'P 1'
_cell_length_a   5.29283112
_cell_length_b   5.42421673
_cell_length_c   7.50785248
_cell_angle_alpha   90.00000000
_cell_angle_beta   90.00000000
_cell_angle_gamma   89.92675658
_symmetry_Int_Tables_number   1
_chemical_formula_structural   TaReO6
_chemical_formula_sum   'Ta2 Re2 O12'
_cell_volume   215.54623795
_cell_formula_units_Z   2
loop_
 _symmetry_equiv_pos_site_id
 _symmetry_equiv_pos_as_xyz
  1  'x, y, z'
loop_
 _atom_site_type_symbol
 _atom_site_label
 _atom_site_symmetry_multiplicity
 _atom_site_fract_x
 _atom_site_fract_y
 _atom_site_fract_z
 _atom_site_occupancy
  Ta  Ta0  1  0.00000000  0.50000000  0.00000000  1
  Ta  Ta1  1  0.00000000  0.50000000  0.50000000  1
  Re  Re2  1  0.50000000  0.00000000  0.00000000  1
  Re  Re3  1  0.50000000  0.00000000  0.50000000  1
  O  O4  1  0.77704721  0.79476943  0.54265240  1
  O  O5  1  0.29604055  0.72426349  0.46115566  1
  O  O6  1  0.22295279  0.20523057  0.45734760  1
  O  O7  1  0.70395945  0.27573651  0.96115566  1
  O  O8  1  0.08671152  0.48377363  0.75000000  1
  O  O9  1  0.70395945  0.27573651  0.53884434  1
  O  O10  1  0.29604055  0.72426349  0.03884434  1
  O  O11  1  0.77704721  0.79476943  0.95734760  1
  O  O12  1  0.58017359  0.00784274  0.25000000  1
  O  O13  1  0.22295279  0.20523057  0.04265240  1
  O  O14  1  0.41982641  0.99215726  0.75000000  1
  O  O15  1  0.91328848  0.51622637  0.25000000  1
