# generated using pymatgen
data_CaAl2SiO6
_symmetry_space_group_name_H-M   'P 1'
_cell_length_a   9.75308701
_cell_length_b   8.73883155
_cell_length_c   5.33049943
_cell_angle_alpha   90.24352223
_cell_angle_beta   106.28885845
_cell_angle_gamma   89.76390451
_symmetry_Int_Tables_number   1
_chemical_formula_structural   CaAl2SiO6
_chemical_formula_sum   'Ca4 Al8 Si4 O24'
_cell_volume   436.07907780
_cell_formula_units_Z   4
loop_
 _symmetry_equiv_pos_site_id
 _symmetry_equiv_pos_as_xyz
  1  'x, y, z'
loop_
 _atom_site_type_symbol
 _atom_site_label
 _atom_site_symmetry_multiplicity
 _atom_site_fract_x
 _atom_site_fract_y
 _atom_site_fract_z
 _atom_site_occupancy
  Ca  Ca0  1  0.00376069  0.30959222  0.24701326  1
  Ca  Ca1  1  0.48683701  0.81382664  0.24413798  1
  Ca  Ca2  1  0.00352597  0.68748623  0.74725676  1
  Ca  Ca3  1  0.48644870  0.18848181  0.74381017  1
  Al  Al4  1  0.28777620  0.09685717  0.20831183  1
  Al  Al5  1  0.21718481  0.40272140  0.79073709  1
  Al  Al6  1  0.28931264  0.90164742  0.70856181  1
  Al  Al7  1  0.78489579  0.40156866  0.70984893  1
  Al  Al8  1  0.00237432  0.90985040  0.25212464  1
  Al  Al9  1  0.49559533  0.40719730  0.25970649  1
  Al  Al10  1  0.00466669  0.09353016  0.75192708  1
  Al  Al11  1  0.49849948  0.58883678  0.76002283  1
  Si  Si12  1  0.79177529  0.59661666  0.21659499  1
  Si  Si13  1  0.71449589  0.09452327  0.28237373  1
  Si  Si14  1  0.20911318  0.59637747  0.28576063  1
  Si  Si15  1  0.71300393  0.90241045  0.78091877  1
  O  O16  1  0.09734757  0.07283840  0.11708366  1
  O  O17  1  0.36337656  0.27474166  0.32006668  1
  O  O18  1  0.36451784  0.02497172  0.97357080  1
  O  O19  1  0.61480506  0.58505615  0.13259092  1
  O  O20  1  0.86338795  0.76404864  0.30766670  1
  O  O21  1  0.85441131  0.52465022  0.98606995  1
  O  O22  1  0.88904136  0.08141018  0.36847300  1
  O  O23  1  0.63675840  0.25813896  0.20867691  1
  O  O24  1  0.65517767  0.01060142  0.51128024  1
  O  O25  1  0.38665972  0.58895008  0.37397923  1
  O  O26  1  0.13369576  0.76202280  0.19401002  1
  O  O27  1  0.14667609  0.52433631  0.51436852  1
  O  O28  1  0.88798587  0.90685242  0.87519136  1
  O  O29  1  0.63075377  0.74261738  0.69521206  1
  O  O30  1  0.65354506  0.98822551  0.01030310  1
  O  O31  1  0.40593092  0.41849413  0.89400441  1
  O  O32  1  0.12921443  0.23233176  0.68146053  1
  O  O33  1  0.14437377  0.48719785  0.02655793  1
  O  O34  1  0.09674428  0.91840558  0.61691108  1
  O  O35  1  0.36979879  0.72604238  0.82525402  1
  O  O36  1  0.36423241  0.97553755  0.47364866  1
  O  O37  1  0.59712839  0.42746858  0.61813221  1
  O  O38  1  0.86827076  0.22766735  0.81327574  1
  O  O39  1  0.85690034  0.48586893  0.47310528  1
