# generated using pymatgen
data_MgNiP2O7
_symmetry_space_group_name_H-M   'P 1'
_cell_length_a   6.35236437
_cell_length_b   6.34045292
_cell_length_c   6.63606235
_cell_angle_alpha   66.04427868
_cell_angle_beta   82.85479387
_cell_angle_gamma   80.95647776
_symmetry_Int_Tables_number   1
_chemical_formula_structural   MgNiP2O7
_chemical_formula_sum   'Mg2 Ni2 P4 O14'
_cell_volume   240.67616113
_cell_formula_units_Z   2
loop_
 _symmetry_equiv_pos_site_id
 _symmetry_equiv_pos_as_xyz
  1  'x, y, z'
loop_
 _atom_site_type_symbol
 _atom_site_label
 _atom_site_symmetry_multiplicity
 _atom_site_fract_x
 _atom_site_fract_y
 _atom_site_fract_z
 _atom_site_occupancy
  Mg  Mg0  1  0.87066921  0.28655111  0.15923098  1
  Mg  Mg1  1  0.12933079  0.71344889  0.84076902  1
  Ni  Ni2  1  0.66200497  0.09920136  0.78289178  1
  Ni  Ni3  1  0.33799503  0.90079864  0.21710822  1
  P  P4  1  0.15676055  0.22554635  0.75633611  1
  P  P5  1  0.84323945  0.77445365  0.24366389  1
  P  P6  1  0.61482115  0.64044016  0.68947009  1
  P  P7  1  0.38517885  0.35955984  0.31052991  1
  O  O8  1  0.75939284  0.60680281  0.48081308  1
  O  O9  1  0.24060716  0.39319719  0.51918692  1
  O  O10  1  0.99762752  0.07243008  0.74238914  1
  O  O11  1  0.00237248  0.92756992  0.25761086  1
  O  O12  1  0.61276275  0.26104056  0.38736221  1
  O  O13  1  0.38723725  0.73895944  0.61263779  1
  O  O14  1  0.36933139  0.61035706  0.13789859  1
  O  O15  1  0.63066861  0.38964294  0.86210041  1
  O  O16  1  0.93952481  0.60783388  0.13431990  1
  O  O17  1  0.06047519  0.39216612  0.86568010  1
  O  O18  1  0.65212129  0.94092058  0.12952787  1
  O  O19  1  0.34787871  0.05907942  0.87047213  1
  O  O20  1  0.26964041  0.20125491  0.25424278  1
  O  O21  1  0.73035959  0.79874509  0.74575722  1
