# generated using pymatgen
data_MgFeP2O7
_symmetry_space_group_name_H-M   'P 1'
_cell_length_a   6.55713197
_cell_length_b   6.38061013
_cell_length_c   6.73106765
_cell_angle_alpha   66.38321339
_cell_angle_beta   81.38779816
_cell_angle_gamma   80.18443116
_symmetry_Int_Tables_number   1
_chemical_formula_structural   MgFeP2O7
_chemical_formula_sum   'Mg2 Fe2 P4 O14'
_cell_volume   253.21706264
_cell_formula_units_Z   2
loop_
 _symmetry_equiv_pos_site_id
 _symmetry_equiv_pos_as_xyz
  1  'x, y, z'
loop_
 _atom_site_type_symbol
 _atom_site_label
 _atom_site_symmetry_multiplicity
 _atom_site_fract_x
 _atom_site_fract_y
 _atom_site_fract_z
 _atom_site_occupancy
  Mg  Mg0  1  0.86502708  0.29006934  0.15464339  1
  Mg  Mg1  1  0.13497292  0.70993066  0.84535661  1
  Fe  Fe2  1  0.66128876  0.10444033  0.77700003  1
  Fe  Fe3  1  0.33871124  0.89555967  0.22299997  1
  P  P4  1  0.15721086  0.22292128  0.75584193  1
  P  P5  1  0.84278914  0.77707872  0.24415807  1
  P  P6  1  0.61762953  0.64000983  0.68787589  1
  P  P7  1  0.38237047  0.35999017  0.31212411  1
  O  O8  1  0.76018259  0.60695692  0.47913127  1
  O  O9  1  0.23981741  0.39304308  0.52086873  1
  O  O10  1  0.00605510  0.07070377  0.73925901  1
  O  O11  1  0.99394490  0.92929623  0.26074099  1
  O  O12  1  0.60598803  0.26826241  0.37841217  1
  O  O13  1  0.39401197  0.73173759  0.62158783  1
  O  O14  1  0.36307346  0.60853980  0.14157932  1
  O  O15  1  0.63692654  0.39146020  0.85841968  1
  O  O16  1  0.94031284  0.61052560  0.13317862  1
  O  O17  1  0.05968716  0.38947440  0.86682138  1
  O  O18  1  0.65597486  0.93950461  0.13433052  1
  O  O19  1  0.34402514  0.06049539  0.86566948  1
  O  O20  1  0.27405645  0.20138596  0.25606460  1
  O  O21  1  0.72594355  0.79861404  0.74393540  1
