# generated using pymatgen
data_ZnFeP2O7
_symmetry_space_group_name_H-M   'P 1'
_cell_length_a   6.60919776
_cell_length_b   6.37457916
_cell_length_c   6.77866418
_cell_angle_alpha   66.73238455
_cell_angle_beta   79.23944139
_cell_angle_gamma   79.70541234
_symmetry_Int_Tables_number   1
_chemical_formula_structural   ZnFeP2O7
_chemical_formula_sum   'Zn2 Fe2 P4 O14'
_cell_volume   256.00151143
_cell_formula_units_Z   2
loop_
 _symmetry_equiv_pos_site_id
 _symmetry_equiv_pos_as_xyz
  1  'x, y, z'
loop_
 _atom_site_type_symbol
 _atom_site_label
 _atom_site_symmetry_multiplicity
 _atom_site_fract_x
 _atom_site_fract_y
 _atom_site_fract_z
 _atom_site_occupancy
  Zn  Zn0  1  0.86500554  0.28925803  0.16079825  1
  Zn  Zn1  1  0.13499446  0.71074197  0.83920175  1
  Fe  Fe2  1  0.66064781  0.10274935  0.77928940  1
  Fe  Fe3  1  0.33935219  0.89725065  0.22071060  1
  P  P4  1  0.15701737  0.21770810  0.75824260  1
  P  P5  1  0.84298263  0.78229190  0.24175740  1
  P  P6  1  0.61330376  0.63951396  0.68907328  1
  P  P7  1  0.38669624  0.36048604  0.31092672  1
  O  O8  1  0.75914864  0.61000766  0.47583920  1
  O  O9  1  0.24085136  0.38999234  0.52416080  1
  O  O10  1  0.00827615  0.06570252  0.74159531  1
  O  O11  1  0.99172385  0.93429748  0.25840469  1
  O  O12  1  0.60844557  0.26800194  0.37708990  1
  O  O13  1  0.39155443  0.73199806  0.62291010  1
  O  O14  1  0.37220130  0.60877947  0.14769574  1
  O  O15  1  0.62779870  0.39122053  0.85230326  1
  O  O16  1  0.95058633  0.61254396  0.13125465  1
  O  O17  1  0.04941367  0.38745604  0.86874535  1
  O  O18  1  0.65872751  0.93649482  0.13386813  1
  O  O19  1  0.34127249  0.06350518  0.86613187  1
  O  O20  1  0.28428357  0.20134828  0.25538408  1
  O  O21  1  0.71571643  0.79865172  0.74461592  1
