# generated using pymatgen
data_Ca2CoSbO6
_symmetry_space_group_name_H-M   'P 1'
_cell_length_a   5.50576477
_cell_length_b   5.66532080
_cell_length_c   7.68707106
_cell_angle_alpha   90.00000000
_cell_angle_beta   90.00000000
_cell_angle_gamma   89.91674932
_symmetry_Int_Tables_number   1
_chemical_formula_structural   Ca2CoSbO6
_chemical_formula_sum   'Ca4 Co2 Sb2 O12'
_cell_volume   239.77428044
_cell_formula_units_Z   2
loop_
 _symmetry_equiv_pos_site_id
 _symmetry_equiv_pos_as_xyz
  1  'x, y, z'
loop_
 _atom_site_type_symbol
 _atom_site_label
 _atom_site_symmetry_multiplicity
 _atom_site_fract_x
 _atom_site_fract_y
 _atom_site_fract_z
 _atom_site_occupancy
  Ca  Ca0  1  0.51898686  0.56644277  0.75000000  1
  Ca  Ca1  1  0.48101314  0.43355723  0.25000000  1
  Ca  Ca2  1  0.99767920  0.04381861  0.75000000  1
  Ca  Ca3  1  0.00232080  0.95618139  0.25000000  1
  Co  Co4  1  0.50000000  0.00000000  0.50000000  1
  Co  Co5  1  0.50000000  0.00000000  0.00000000  1
  Sb  Sb6  1  0.00000000  0.50000000  0.50000000  1
  Sb  Sb7  1  0.00000000  0.50000000  0.00000000  1
  O  O8  1  0.29419671  0.69350637  0.45278489  1
  O  O9  1  0.18996645  0.20634334  0.04944794  1
  O  O10  1  0.70580329  0.30649363  0.95278489  1
  O  O11  1  0.81003355  0.79365666  0.54944794  1
  O  O12  1  0.18996645  0.20634334  0.45055206  1
  O  O13  1  0.81003355  0.79365666  0.95055206  1
  O  O14  1  0.89229664  0.53635297  0.25000000  1
  O  O15  1  0.29419671  0.69350637  0.04721511  1
  O  O16  1  0.42422871  0.97581819  0.75000000  1
  O  O17  1  0.70580329  0.30649363  0.54721511  1
  O  O18  1  0.10770336  0.46364703  0.75000000  1
  O  O19  1  0.57577129  0.02418181  0.25000000  1
