# generated using pymatgen
data_Mg3Cd
_symmetry_space_group_name_H-M   'P 1'
_cell_length_a   6.28924555
_cell_length_b   3.22714639
_cell_length_c   5.09334232
_cell_angle_alpha   90.00000000
_cell_angle_beta   90.00000000
_cell_angle_gamma   120.87196846
_symmetry_Int_Tables_number   1
_chemical_formula_structural   Mg3Cd
_chemical_formula_sum   'Mg3 Cd1'
_cell_volume   88.72935344
_cell_formula_units_Z   1
loop_
 _symmetry_equiv_pos_site_id
 _symmetry_equiv_pos_as_xyz
  1  'x, y, z'
loop_
 _atom_site_type_symbol
 _atom_site_label
 _atom_site_symmetry_multiplicity
 _atom_site_fract_x
 _atom_site_fract_y
 _atom_site_fract_z
 _atom_site_occupancy
  Mg  Mg0  1  0.66771562  0.66771562  0.25000000  1
  Mg  Mg1  1  0.33281582  0.33281582  0.75000000  1
  Mg  Mg2  1  0.83358658  0.33358658  0.75000000  1
  Cd  Cd3  1  0.16588198  0.66588198  0.25000000  1
