# generated using pymatgen
data_Mg14AlCd
_symmetry_space_group_name_H-M   'P 1'
_cell_length_a   6.29077356
_cell_length_b   6.34943224
_cell_length_c   10.37999841
_cell_angle_alpha   90.00000000
_cell_angle_beta   90.00000000
_cell_angle_gamma   120.30894155
_symmetry_Int_Tables_number   1
_chemical_formula_structural   Mg14AlCd
_chemical_formula_sum   'Mg14 Al1 Cd1'
_cell_volume   357.93686249
_cell_formula_units_Z   1
loop_
 _symmetry_equiv_pos_site_id
 _symmetry_equiv_pos_as_xyz
  1  'x, y, z'
loop_
 _atom_site_type_symbol
 _atom_site_label
 _atom_site_symmetry_multiplicity
 _atom_site_fract_x
 _atom_site_fract_y
 _atom_site_fract_z
 _atom_site_occupancy
  Mg  Mg0  1  0.16762457  0.33381179  0.62500000  1
  Mg  Mg1  1  0.16817061  0.83408481  0.62500000  1
  Mg  Mg2  1  0.66772621  0.33352778  0.12500000  1
  Mg  Mg3  1  0.66558754  0.33239978  0.62500000  1
  Mg  Mg4  1  0.66772621  0.83419743  0.12500000  1
  Mg  Mg5  1  0.66558754  0.83318676  0.62500000  1
  Mg  Mg6  1  0.33080472  0.16698077  0.37188597  1
  Mg  Mg7  1  0.33080472  0.16698077  0.87811403  1
  Mg  Mg8  1  0.33080472  0.66382495  0.37188597  1
  Mg  Mg9  1  0.33080472  0.66382495  0.87811403  1
  Mg  Mg10  1  0.83668732  0.16834416  0.37388741  1
  Mg  Mg11  1  0.83668732  0.16834416  0.87611259  1
  Mg  Mg12  1  0.83446748  0.66723424  0.37562841  1
  Mg  Mg13  1  0.83446748  0.66723424  0.87437159  1
  Al  Al14  1  0.16545841  0.33272871  0.12500000  1
  Cd  Cd15  1  0.16659043  0.83329472  0.12500000  1
