# generated using pymatgen
data_CaAl2SiO6
_symmetry_space_group_name_H-M   'P 1'
_cell_length_a   9.75624258
_cell_length_b   8.74307535
_cell_length_c   5.33382743
_cell_angle_alpha   90.67889843
_cell_angle_beta   106.43392980
_cell_angle_gamma   90.02101084
_symmetry_Int_Tables_number   1
_chemical_formula_structural   CaAl2SiO6
_chemical_formula_sum   'Ca4 Al8 Si4 O24'
_cell_volume   436.35204328
_cell_formula_units_Z   4
loop_
 _symmetry_equiv_pos_site_id
 _symmetry_equiv_pos_as_xyz
  1  'x, y, z'
loop_
 _atom_site_type_symbol
 _atom_site_label
 _atom_site_symmetry_multiplicity
 _atom_site_fract_x
 _atom_site_fract_y
 _atom_site_fract_z
 _atom_site_occupancy
  Ca  Ca0  1  0.00431494  0.31091395  0.24272636  1
  Ca  Ca1  1  0.48893950  0.81193003  0.24065772  1
  Ca  Ca2  1  0.00387643  0.68866850  0.75181287  1
  Ca  Ca3  1  0.48452367  0.18791124  0.74745440  1
  Al  Al4  1  0.28908842  0.09487189  0.20971031  1
  Al  Al5  1  0.21487260  0.59639125  0.29169730  1
  Al  Al6  1  0.28839174  0.89991176  0.70482641  1
  Al  Al7  1  0.78668855  0.40261217  0.71136964  1
  Al  Al8  1  0.00216968  0.90935358  0.24902079  1
  Al  Al9  1  0.49284171  0.40857013  0.26979738  1
  Al  Al10  1  0.00488612  0.09172095  0.75494777  1
  Al  Al11  1  0.50150586  0.59240451  0.74970201  1
  Si  Si12  1  0.78951837  0.59768761  0.21368246  1
  Si  Si13  1  0.71417102  0.09839907  0.28266339  1
  Si  Si14  1  0.71362323  0.90668530  0.77899500  1
  Si  Si15  1  0.21142619  0.40225605  0.78955115  1
  O  O16  1  0.09832098  0.07701839  0.11827095  1
  O  O17  1  0.36411375  0.27228016  0.32853589  1
  O  O18  1  0.36421171  0.02258028  0.97304437  1
  O  O19  1  0.61193279  0.58097122  0.12123287  1
  O  O20  1  0.85669967  0.76759324  0.30523381  1
  O  O21  1  0.85699301  0.52594960  0.98874321  1
  O  O22  1  0.88946866  0.08691852  0.36918476  1
  O  O23  1  0.63330221  0.26010761  0.20969210  1
  O  O24  1  0.65518494  0.01252311  0.50899986  1
  O  O25  1  0.40300086  0.58533429  0.37936754  1
  O  O26  1  0.12307516  0.76426916  0.18583804  1
  O  O27  1  0.14814833  0.51014149  0.53111537  1
  O  O28  1  0.88819826  0.91303491  0.87193647  1
  O  O29  1  0.63428299  0.74465826  0.69671439  1
  O  O30  1  0.65401879  0.99307726  0.00739503  1
  O  O31  1  0.38942986  0.41297117  0.89031019  1
  O  O32  1  0.13990772  0.23464984  0.69439480  1
  O  O33  1  0.14329396  0.47499507  0.01191060  1
  O  O34  1  0.09598385  0.92299256  0.61622738  1
  O  O35  1  0.36811138  0.72365260  0.81650450  1
  O  O36  1  0.36478620  0.97257754  0.47226075  1
  O  O37  1  0.59927197  0.42196689  0.63223785  1
  O  O38  1  0.87376904  0.23116492  0.81161924  1
  O  O39  1  0.85365587  0.48828396  0.47061508  1
