# generated using pymatgen
data_Ba2Mn5O10
_symmetry_space_group_name_H-M   'P 1'
_cell_length_a   3.28148363
_cell_length_b   6.78045101
_cell_length_c   9.95762876
_cell_angle_alpha   92.59504866
_cell_angle_beta   90.00000000
_cell_angle_gamma   104.00350322
_symmetry_Int_Tables_number   1
_chemical_formula_structural   Ba2Mn5O10
_chemical_formula_sum   'Ba2 Mn5 O10'
_cell_volume   214.73799987
_cell_formula_units_Z   1
loop_
 _symmetry_equiv_pos_site_id
 _symmetry_equiv_pos_as_xyz
  1  'x, y, z'
loop_
 _atom_site_type_symbol
 _atom_site_label
 _atom_site_symmetry_multiplicity
 _atom_site_fract_x
 _atom_site_fract_y
 _atom_site_fract_z
 _atom_site_occupancy
  Ba  Ba0  1  0.25521890  0.51043781  0.81282944  1
  Ba  Ba1  1  0.74478110  0.48956219  0.18717056  1
  Mn  Mn2  1  0.84938911  0.69877822  0.49516952  1
  Mn  Mn3  1  0.15061089  0.30122178  0.50483048  1
  Mn  Mn4  1  0.00000000  0.00000000  0.00000000  1
  Mn  Mn5  1  0.50491156  0.00982312  0.73784614  1
  Mn  Mn6  1  0.49508844  0.99017688  0.26215386  1
  O  O7  1  0.92644516  0.85289032  0.33582363  1
  O  O8  1  0.07355484  0.14710968  0.66417637  1
  O  O9  1  0.59061363  0.18122726  0.91137912  1
  O  O10  1  0.40938637  0.81877274  0.08862088  1
  O  O11  1  0.73414634  0.46829269  0.60748582  1
  O  O12  1  0.26585366  0.53170731  0.39251418  1
  O  O13  1  0.59413823  0.18827646  0.40828360  1
  O  O14  1  0.40586177  0.81172354  0.59171640  1
  O  O15  1  0.92179274  0.84358548  0.83400413  1
  O  O16  1  0.07820726  0.15641452  0.16599587  1
