# generated using pymatgen
data_MoW2(Se2S)2
_symmetry_space_group_name_H-M   'P 1'
_cell_length_a   3.27687898
_cell_length_b   3.27685103
_cell_length_c   30.22767821
_cell_angle_alpha   90.00000000
_cell_angle_beta   90.00000000
_cell_angle_gamma   120.00028214
_symmetry_Int_Tables_number   1
_chemical_formula_structural   MoW2(Se2S)2
_chemical_formula_sum   'Mo1 W2 Se4 S2'
_cell_volume   281.09381402
_cell_formula_units_Z   1
loop_
 _symmetry_equiv_pos_site_id
 _symmetry_equiv_pos_as_xyz
  1  'x, y, z'
loop_
 _atom_site_type_symbol
 _atom_site_label
 _atom_site_symmetry_multiplicity
 _atom_site_fract_x
 _atom_site_fract_y
 _atom_site_fract_z
 _atom_site_occupancy
  Mo  Mo0  1  0.66668611  0.33337222  0.34698200  1
  W  W1  1  0.33331339  0.66662678  0.11564801  1
  W  W2  1  0.33331339  0.66662678  0.57831699  1
  Se  Se3  1  0.66664296  0.33328493  0.05940805  1
  Se  Se4  1  0.66664683  0.33329265  0.52208125  1
  Se  Se5  1  0.66664683  0.33329265  0.17188375  1
  Se  Se6  1  0.66664296  0.33328493  0.63455595  1
  S  S7  1  0.33335427  0.66670953  0.39789030  1
  S  S8  1  0.33335427  0.66670953  0.29607470  1
