# generated using pymatgen
data_Mo2W(Se2S)2
_symmetry_space_group_name_H-M   'P 1'
_cell_length_a   3.27857219
_cell_length_b   3.27858821
_cell_length_c   30.17307511
_cell_angle_alpha   90.00011508
_cell_angle_beta   89.99999478
_cell_angle_gamma   119.99983004
_symmetry_Int_Tables_number   1
_chemical_formula_structural   Mo2W(Se2S)2
_chemical_formula_sum   'Mo2 W1 Se4 S2'
_cell_volume   280.88113584
_cell_formula_units_Z   1
loop_
 _symmetry_equiv_pos_site_id
 _symmetry_equiv_pos_as_xyz
  1  'x, y, z'
loop_
 _atom_site_type_symbol
 _atom_site_label
 _atom_site_symmetry_multiplicity
 _atom_site_fract_x
 _atom_site_fract_y
 _atom_site_fract_z
 _atom_site_occupancy
  Mo  Mo0  1  0.33330536  0.66660988  0.11563608  1
  Mo  Mo1  1  0.66668978  0.33338051  0.34698745  1
  W  W2  1  0.33330878  0.66661661  0.57833401  1
  Se  Se3  1  0.66665016  0.33329955  0.05970033  1
  Se  Se4  1  0.66665174  0.33330276  0.52205532  1
  Se  Se5  1  0.66664115  0.33328234  0.17158669  1
  Se  Se6  1  0.66664880  0.33329701  0.63458998  1
  S  S7  1  0.33335078  0.66670230  0.39786685  1
  S  S8  1  0.33335445  0.66670902  0.29608428  1
