# generated using pymatgen
data_AgMoO4
_symmetry_space_group_name_H-M   'P 1'
_cell_length_a   5.27331700
_cell_length_b   5.27331700
_cell_length_c   6.81429866
_cell_angle_alpha   112.76362690
_cell_angle_beta   112.76362690
_cell_angle_gamma   90.00000000
_symmetry_Int_Tables_number   1
_chemical_formula_structural   AgMoO4
_chemical_formula_sum   'Ag2 Mo2 O8'
_cell_volume   158.60419282
_cell_formula_units_Z   2
loop_
 _symmetry_equiv_pos_site_id
 _symmetry_equiv_pos_as_xyz
  1  'x, y, z'
loop_
 _atom_site_type_symbol
 _atom_site_label
 _atom_site_symmetry_multiplicity
 _atom_site_fract_x
 _atom_site_fract_y
 _atom_site_fract_z
 _atom_site_occupancy
  Ag  Ag0  1  0.75000000  0.25000000  0.50000000  1
  Ag  Ag1  1  0.50000000  0.50000000  0.00000000  1
  Mo  Mo2  1  0.25000000  0.75000000  0.50000000  1
  Mo  Mo3  1  0.00000000  -0.00000000  -0.00000000  1
  O  O4  1  0.49217504  0.59746303  0.67672836  1
  O  O5  1  0.18455332  0.07926533  0.67672836  1
  O  O6  1  0.92073467  0.50782496  0.32327164  1
  O  O7  1  0.40253697  0.81544668  0.32327164  1
  O  O8  1  0.33253254  0.23759873  0.17538211  1
  O  O9  1  0.84284957  0.93778338  0.17538211  1
  O  O10  1  0.06221662  0.66746746  0.82461789  1
  O  O11  1  0.76240127  0.15715043  0.82461789  1
