# generated using pymatgen
data_Ce2Mg
_symmetry_space_group_name_H-M   'P 1'
_cell_length_a   10.68525410
_cell_length_b   3.25311818
_cell_length_c   9.65590912
_cell_angle_alpha   90.00000000
_cell_angle_beta   112.36452899
_cell_angle_gamma   90.00000000
_symmetry_Int_Tables_number   1
_chemical_formula_structural   Ce2Mg
_chemical_formula_sum   'Ce8 Mg4'
_cell_volume   310.39672174
_cell_formula_units_Z   4
loop_
 _symmetry_equiv_pos_site_id
 _symmetry_equiv_pos_as_xyz
  1  'x, y, z'
loop_
 _atom_site_type_symbol
 _atom_site_label
 _atom_site_symmetry_multiplicity
 _atom_site_fract_x
 _atom_site_fract_y
 _atom_site_fract_z
 _atom_site_occupancy
  Ce  Ce0  1  0.18659860  0.50000000  0.11056387  1
  Ce  Ce1  1  0.48083482  0.50000000  0.22164334  1
  Ce  Ce2  1  0.01916518  -0.00000000  0.77835666  1
  Ce  Ce3  1  0.31340140  -0.00000000  0.88943613  1
  Ce  Ce4  1  0.68659860  0.00000000  0.11056387  1
  Ce  Ce5  1  0.98083482  0.00000000  0.22164334  1
  Ce  Ce6  1  0.51916518  0.50000000  0.77835666  1
  Ce  Ce7  1  0.81340140  0.50000000  0.88943613  1
  Mg  Mg8  1  0.34172606  -0.00000000  0.44164459  1
  Mg  Mg9  1  0.15827394  0.50000000  0.55835541  1
  Mg  Mg10  1  0.84172606  0.50000000  0.44164459  1
  Mg  Mg11  1  0.65827394  0.00000000  0.55835541  1
