# generated using pymatgen
data_CaVP2O7
_symmetry_space_group_name_H-M   'P 1'
_cell_length_a   6.30417282
_cell_length_b   6.69854594
_cell_length_c   7.20711301
_cell_angle_alpha   83.18016975
_cell_angle_beta   88.29544566
_cell_angle_gamma   68.34280677
_symmetry_Int_Tables_number   1
_chemical_formula_structural   CaVP2O7
_chemical_formula_sum   'Ca2 V2 P4 O14'
_cell_volume   280.82923622
_cell_formula_units_Z   2
loop_
 _symmetry_equiv_pos_site_id
 _symmetry_equiv_pos_as_xyz
  1  'x, y, z'
loop_
 _atom_site_type_symbol
 _atom_site_label
 _atom_site_symmetry_multiplicity
 _atom_site_fract_x
 _atom_site_fract_y
 _atom_site_fract_z
 _atom_site_occupancy
  Ca  Ca0  1  0.30364953  0.70884024  0.63860297  1
  Ca  Ca1  1  0.69635147  0.29116076  0.36139703  1
  V  V2  1  0.25737483  0.13098675  0.18847873  1
  V  V3  1  0.74262717  0.86901225  0.81152127  1
  P  P4  1  0.16920473  0.65836353  0.12079899  1
  P  P5  1  0.83079327  0.34163647  0.87920101  1
  P  P6  1  0.23689920  0.21915030  0.61857471  1
  P  P7  1  0.76310180  0.78084870  0.38142429  1
  O  O8  1  0.08623215  0.73071883  0.91619883  1
  O  O9  1  0.91376885  0.26928117  0.08380117  1
  O  O10  1  0.25020917  0.81452024  0.20590309  1
  O  O11  1  0.74978983  0.18547876  0.79409691  1
  O  O12  1  0.33710693  0.42240990  0.14826445  1
  O  O13  1  0.66289507  0.57758910  0.85173655  1
  O  O14  1  0.63851728  0.63070500  0.44915269  1
  O  O15  1  0.36148172  0.36929500  0.55084831  1
  O  O16  1  0.10706104  0.16891314  0.46266689  1
  O  O17  1  0.89293796  0.83108686  0.53733311  1
  O  O18  1  0.05789263  0.34817973  0.76531260  1
  O  O19  1  0.60817863  0.99793021  0.27471128  1
  O  O20  1  0.39182337  0.00206879  0.72528972  1
  O  O21  1  0.94210637  0.65182127  0.23468640  1
