# generated using pymatgen
data_Mo2P2O9
_symmetry_space_group_name_H-M   'P 1'
_cell_length_a   6.54698741
_cell_length_b   7.96781146
_cell_length_c   14.51581722
_cell_angle_alpha   90.01519396
_cell_angle_beta   89.99977930
_cell_angle_gamma   90.00004792
_symmetry_Int_Tables_number   1
_chemical_formula_structural   Mo2P2O9
_chemical_formula_sum   'Mo8 P8 O36'
_cell_volume   757.21992060
_cell_formula_units_Z   4
loop_
 _symmetry_equiv_pos_site_id
 _symmetry_equiv_pos_as_xyz
  1  'x, y, z'
loop_
 _atom_site_type_symbol
 _atom_site_label
 _atom_site_symmetry_multiplicity
 _atom_site_fract_x
 _atom_site_fract_y
 _atom_site_fract_z
 _atom_site_occupancy
  Mo  Mo0  1  0.75000105  0.35637397  0.87255168  1
  Mo  Mo1  1  0.25000059  0.64364477  0.12746604  1
  Mo  Mo2  1  0.24999505  0.85646274  0.62743236  1
  Mo  Mo3  1  0.75000279  0.14352790  0.37255212  1
  Mo  Mo4  1  0.49999607  0.00000096  0.00000172  1
  Mo  Mo5  1  0.50000523  0.49999116  0.49999589  1
  Mo  Mo6  1  -0.00000585  0.49999111  0.49999570  1
  Mo  Mo7  1  0.00000412  -0.00000130  0.00000155  1
  P  P8  1  0.25000147  0.35624208  0.93788212  1
  P  P9  1  0.74999894  0.64380583  0.06217016  1
  P  P10  1  0.74999706  0.85630462  0.56211004  1
  P  P11  1  0.25000310  0.14372984  0.43782126  1
  P  P12  1  0.74999994  0.39982824  0.68937465  1
  P  P13  1  0.75000220  0.10022969  0.18940856  1
  P  P14  1  0.24999911  0.89975746  0.81062661  1
  P  P15  1  0.25000197  0.60017666  0.31059422  1
  O  O16  1  0.05783710  0.59763126  0.37344328  1
  O  O17  1  0.55785552  0.40237724  0.62657453  1
  O  O18  1  0.94216612  0.09774879  0.12655163  1
  O  O19  1  0.44214357  0.90223628  0.87343328  1
  O  O20  1  0.94214485  0.40237392  0.62657348  1
  O  O21  1  0.44216622  0.59762649  0.37344353  1
  O  O22  1  0.05785515  0.90223732  0.87343185  1
  O  O23  1  0.55783618  0.09775360  0.12655071  1
  O  O24  1  0.24999919  0.32704571  0.48263157  1
  O  O25  1  0.75000004  0.67294399  0.51737153  1
  O  O26  1  0.74999886  0.82706858  0.01734696  1
  O  O27  1  0.24999916  0.17293737  0.98263865  1
  O  O28  1  0.75000123  0.13101147  0.95301717  1
  O  O29  1  0.24999921  0.86900651  0.04697615  1
  O  O30  1  0.24999914  0.63105498  0.54696185  1
  O  O31  1  0.75000062  0.36893938  0.45304631  1
  O  O32  1  0.74999768  0.23507933  0.75062780  1
  O  O33  1  0.25000390  0.76492502  0.24938502  1
  O  O34  1  0.24999470  0.73506507  0.74928581  1
  O  O35  1  0.75000658  0.26491525  0.25070388  1
  O  O36  1  0.44119267  0.13297634  0.37789595  1
  O  O37  1  0.94122862  0.86702104  0.62211324  1
  O  O38  1  0.55880472  0.63314733  0.12210547  1
  O  O39  1  0.05877808  0.36688249  0.87788710  1
  O  O40  1  0.55876425  0.86701652  0.62210910  1
  O  O41  1  0.05881608  0.13297370  0.37789329  1
  O  O42  1  0.44122973  0.36687948  0.87788920  1
  O  O43  1  0.94119090  0.63314808  0.12210629  1
  O  O44  1  0.75000195  0.51123039  0.98693699  1
  O  O45  1  0.25000261  0.03718545  0.73556717  1
  O  O46  1  0.24999975  0.46284870  0.23548959  1
  O  O47  1  0.75000371  0.53718521  0.76452208  1
  O  O48  1  0.75000069  0.98866644  0.48694060  1
  O  O49  1  0.24999753  0.01125240  0.51308634  1
  O  O50  1  0.24999970  0.48871772  0.01304968  1
  O  O51  1  0.74999915  0.96282243  0.26442122  1
