# generated using pymatgen
data_V2Zn(CuO4)2
_symmetry_space_group_name_H-M   'P 1'
_cell_length_a   6.51214990
_cell_length_b   8.42366768
_cell_length_c   11.83114664
_cell_angle_alpha   90.00000000
_cell_angle_beta   90.50814926
_cell_angle_gamma   90.00000000
_symmetry_Int_Tables_number   1
_chemical_formula_structural   V2Zn(CuO4)2
_chemical_formula_sum   'V8 Zn4 Cu8 O32'
_cell_volume   648.98606378
_cell_formula_units_Z   4
loop_
 _symmetry_equiv_pos_site_id
 _symmetry_equiv_pos_as_xyz
  1  'x, y, z'
loop_
 _atom_site_type_symbol
 _atom_site_label
 _atom_site_symmetry_multiplicity
 _atom_site_fract_x
 _atom_site_fract_y
 _atom_site_fract_z
 _atom_site_occupancy
  V  V0  1  0.10193289  0.45916725  0.84500632  1
  V  V1  1  0.10193289  0.04083275  0.34500632  1
  V  V2  1  0.60792579  0.08796372  0.13415706  1
  V  V3  1  0.89806711  0.95916725  0.65499368  1
  V  V4  1  0.39207421  0.91203628  0.86584294  1
  V  V5  1  0.39207421  0.58796372  0.36584294  1
  V  V6  1  0.60792579  0.41203628  0.63415706  1
  V  V7  1  0.89806711  0.54083275  0.15499368  1
  Zn  Zn8  1  0.10869540  0.16605220  0.05210515  1
  Zn  Zn9  1  0.89130460  0.83394780  0.94789485  1
  Zn  Zn10  1  0.89130460  0.66605220  0.44789485  1
  Zn  Zn11  1  0.10869540  0.33394780  0.55210515  1
  Cu  Cu12  1  0.76407792  0.18408864  0.87254742  1
  Cu  Cu13  1  0.37966245  0.05800258  0.62990487  1
  Cu  Cu14  1  0.62033755  0.94199742  0.37009513  1
  Cu  Cu15  1  0.23592208  0.81591136  0.12745258  1
  Cu  Cu16  1  0.76407792  0.31591136  0.37254742  1
  Cu  Cu17  1  0.37966245  0.44199742  0.12990487  1
  Cu  Cu18  1  0.23592208  0.68408864  0.62745258  1
  Cu  Cu19  1  0.62033755  0.55800258  0.87009513  1
  O  O20  1  0.03614691  0.23361383  0.39608521  1
  O  O21  1  0.66320222  0.01325817  0.59910635  1
  O  O22  1  0.19205742  0.58071828  0.46981175  1
  O  O23  1  0.80794258  0.08071828  0.03018825  1
  O  O24  1  0.03614691  0.26638617  0.89608521  1
  O  O25  1  0.96385309  0.76638617  0.60391479  1
  O  O26  1  0.08640777  0.10295858  0.61684744  1
  O  O27  1  0.50497668  0.90329663  0.13897905  1
  O  O28  1  0.50497668  0.59670337  0.63897905  1
  O  O29  1  0.31533541  0.86815738  0.72368111  1
  O  O30  1  0.68466459  0.36815738  0.77631889  1
  O  O31  1  0.49502332  0.09670337  0.86102095  1
  O  O32  1  0.91359223  0.89704142  0.38315256  1
  O  O33  1  0.88028129  0.53861052  0.30002311  1
  O  O34  1  0.41835922  0.28032794  0.58740606  1
  O  O35  1  0.41835922  0.21967206  0.08740606  1
  O  O36  1  0.11971871  0.03861052  0.19997689  1
  O  O37  1  0.49502332  0.40329663  0.36102095  1
  O  O38  1  0.11971871  0.46138948  0.69997689  1
  O  O39  1  0.80794258  0.41928172  0.53018825  1
  O  O40  1  0.66320222  0.48674183  0.09910635  1
  O  O41  1  0.68466459  0.13184262  0.27631889  1
  O  O42  1  0.96385309  0.73361383  0.10391479  1
  O  O43  1  0.08640777  0.39704142  0.11684744  1
  O  O44  1  0.19205742  0.91928172  0.96981175  1
  O  O45  1  0.58164078  0.78032794  0.91259394  1
  O  O46  1  0.33679778  0.98674183  0.40089365  1
  O  O47  1  0.33679778  0.51325817  0.90089365  1
  O  O48  1  0.91359223  0.60295858  0.88315256  1
  O  O49  1  0.58164078  0.71967206  0.41259394  1
  O  O50  1  0.31533541  0.63184262  0.22368111  1
  O  O51  1  0.88028129  0.96138948  0.80002311  1
