# generated using pymatgen
data_Mg3Fe3(AsO4)4
_symmetry_space_group_name_H-M   'P 1'
_cell_length_a   5.23566688
_cell_length_b   8.66009051
_cell_length_c   15.38063049
_cell_angle_alpha   100.09858120
_cell_angle_beta   90.00000000
_cell_angle_gamma   90.00000000
_symmetry_Int_Tables_number   1
_chemical_formula_structural   Mg3Fe3(AsO4)4
_chemical_formula_sum   'Mg6 Fe6 As8 O32'
_cell_volume   686.57441403
_cell_formula_units_Z   2
loop_
 _symmetry_equiv_pos_site_id
 _symmetry_equiv_pos_as_xyz
  1  'x, y, z'
loop_
 _atom_site_type_symbol
 _atom_site_label
 _atom_site_symmetry_multiplicity
 _atom_site_fract_x
 _atom_site_fract_y
 _atom_site_fract_z
 _atom_site_occupancy
  Mg  Mg0  1  0.94047461  0.02715621  0.71078513  1
  Mg  Mg1  1  0.44047461  0.47284379  0.78921487  1
  Mg  Mg2  1  0.05952539  0.97284379  0.28921487  1
  Mg  Mg3  1  0.55952539  0.52715621  0.21078513  1
  Mg  Mg4  1  -0.00000000  0.00000000  -0.00000000  1
  Mg  Mg5  1  0.50000000  0.50000000  0.50000000  1
  Fe  Fe6  1  0.01032972  0.32298239  0.12509401  1
  Fe  Fe7  1  0.98967028  0.67701761  0.87490599  1
  Fe  Fe8  1  0.51032972  0.17701761  0.37490599  1
  Fe  Fe9  1  0.48967028  0.82298239  0.62509401  1
  Fe  Fe10  1  0.50000000  0.50000000  -0.00000000  1
  Fe  Fe11  1  -0.00000000  0.00000000  0.50000000  1
  As  As12  1  0.51566602  0.88427362  0.85119917  1
  As  As13  1  0.00119234  0.31094941  0.89508772  1
  As  As14  1  0.50119234  0.18905059  0.60491228  1
  As  As15  1  0.49880766  0.81094941  0.39508772  1
  As  As16  1  0.48433398  0.11572638  0.14880083  1
  As  As17  1  0.99880766  0.68905059  0.10491228  1
  As  As18  1  0.98433398  0.38427362  0.35119917  1
  As  As19  1  0.01566602  0.61572638  0.64880083  1
  O  O20  1  0.09501374  0.56385196  0.74965616  1
  O  O21  1  0.55748715  0.26543838  0.51149058  1
  O  O22  1  0.07957831  0.19356630  0.80017646  1
  O  O23  1  0.10547214  0.81413442  0.65605026  1
  O  O24  1  0.92042169  0.80643370  0.19982354  1
  O  O25  1  0.40498626  0.06385196  0.24965616  1
  O  O26  1  0.57957831  0.30643370  0.69982354  1
  O  O27  1  0.79597072  0.89944423  0.39357120  1
  O  O28  1  0.81278468  0.50345855  0.42653659  1
  O  O29  1  0.90498626  0.43614804  0.25034384  1
  O  O30  1  0.39452786  0.31413442  0.15605026  1
  O  O31  1  0.20402928  0.10055577  0.60642880  1
  O  O32  1  0.21048238  0.47432386  0.90336762  1
  O  O33  1  0.18721532  0.49654145  0.57346341  1
  O  O34  1  0.80780572  0.11565983  0.12601069  1
  O  O35  1  0.30780572  0.38434017  0.37398931  1
  O  O36  1  0.71048238  0.02567614  0.59663238  1
  O  O37  1  0.42042169  0.69356630  0.30017646  1
  O  O38  1  0.31278468  0.99654145  0.07346341  1
  O  O39  1  0.29597072  0.60055577  0.10642880  1
  O  O40  1  0.69219428  0.61565983  0.62601069  1
  O  O41  1  0.19219428  0.88434017  0.87398931  1
  O  O42  1  0.44251285  0.73456162  0.48850942  1
  O  O43  1  0.05748715  0.23456162  0.98850942  1
  O  O44  1  0.78951762  0.52567614  0.09663238  1
  O  O45  1  0.59501374  0.93614804  0.75034384  1
  O  O46  1  0.89452786  0.18586558  0.34394974  1
  O  O47  1  0.68721532  0.00345855  0.92653659  1
  O  O48  1  0.94251285  0.76543838  0.01149058  1
  O  O49  1  0.70402928  0.39944423  0.89357120  1
  O  O50  1  0.28951762  0.97432386  0.40336762  1
  O  O51  1  0.60547214  0.68586558  0.84394974  1
