# generated using pymatgen
data_MgMo3P3O13
_symmetry_space_group_name_H-M   'P 1'
_cell_length_a   6.65624483
_cell_length_b   7.82198203
_cell_length_c   10.55234539
_cell_angle_alpha   99.69838064
_cell_angle_beta   90.00000000
_cell_angle_gamma   90.00000000
_symmetry_Int_Tables_number   1
_chemical_formula_structural   MgMo3P3O13
_chemical_formula_sum   'Mg2 Mo6 P6 O26'
_cell_volume   541.55613763
_cell_formula_units_Z   2
loop_
 _symmetry_equiv_pos_site_id
 _symmetry_equiv_pos_as_xyz
  1  'x, y, z'
loop_
 _atom_site_type_symbol
 _atom_site_label
 _atom_site_symmetry_multiplicity
 _atom_site_fract_x
 _atom_site_fract_y
 _atom_site_fract_z
 _atom_site_occupancy
  Mg  Mg0  1  0.75000000  0.60594948  0.17458033  1
  Mg  Mg1  1  0.25000000  0.39405052  0.82541967  1
  Mo  Mo2  1  0.25000000  0.35997651  0.20594976  1
  Mo  Mo3  1  0.75000000  0.64002349  0.79405024  1
  Mo  Mo4  1  0.25000000  0.76919810  0.43789379  1
  Mo  Mo5  1  0.50000000  -0.00000000  0.00000000  1
  Mo  Mo6  1  0.75000000  0.23080190  0.56210621  1
  Mo  Mo7  1  0.00000000  -0.00000000  0.00000000  1
  P  P8  1  0.25000000  0.21657684  0.50104600  1
  P  P9  1  0.75000000  0.78342316  0.49895400  1
  P  P10  1  0.25000000  0.73053937  0.76618070  1
  P  P11  1  0.75000000  0.26946063  0.23381930  1
  P  P12  1  0.75000000  0.32066982  0.89383432  1
  P  P13  1  0.25000000  0.67933018  0.10616568  1
  O  O14  1  0.75000000  0.35938134  0.75304568  1
  O  O15  1  0.56773297  0.74617676  0.40565292  1
  O  O16  1  0.25000000  0.79493485  0.63947081  1
  O  O17  1  0.54966829  0.22557120  0.90844249  1
  O  O18  1  0.75000000  0.65392799  0.59560424  1
  O  O19  1  0.75000000  0.88577221  0.89690050  1
  O  O20  1  0.25000000  0.34607201  0.40439576  1
  O  O21  1  0.04966829  0.77442880  0.09155751  1
  O  O22  1  0.25000000  0.03068445  0.42318229  1
  O  O23  1  0.75000000  0.96931555  0.57681771  1
  O  O24  1  0.07227328  0.60886562  0.78769237  1
  O  O25  1  0.25000000  0.11422779  0.10309950  1
  O  O26  1  0.57227328  0.39113438  0.21230763  1
  O  O27  1  0.75000000  0.50747925  0.97537380  1
  O  O28  1  0.75000000  0.20506515  0.36052919  1
  O  O29  1  0.45033171  0.77442880  0.09155751  1
  O  O30  1  0.93226703  0.74617676  0.40565292  1
  O  O31  1  0.43226703  0.25382324  0.59434708  1
  O  O32  1  0.42772672  0.60886562  0.78769237  1
  O  O33  1  0.25000000  0.64061866  0.24695432  1
  O  O34  1  0.75000000  0.10471013  0.12538125  1
  O  O35  1  0.25000000  0.89528987  0.87461875  1
  O  O36  1  0.92772672  0.39113438  0.21230763  1
  O  O37  1  0.95033171  0.22557120  0.90844249  1
  O  O38  1  0.06773297  0.25382324  0.59434708  1
  O  O39  1  0.25000000  0.49252075  0.02462620  1
