# generated using pymatgen
data_ZnFe4NiO8
_symmetry_space_group_name_H-M   'P 1'
_cell_length_a   6.03250912
_cell_length_b   6.04084067
_cell_length_c   6.03250912
_cell_angle_alpha   59.95430277
_cell_angle_beta   119.90860553
_cell_angle_gamma   120.04569723
_symmetry_Int_Tables_number   1
_chemical_formula_structural   ZnFe4NiO8
_chemical_formula_sum   'Zn1 Fe4 Ni1 O8'
_cell_volume   155.44497876
_cell_formula_units_Z   1
loop_
 _symmetry_equiv_pos_site_id
 _symmetry_equiv_pos_as_xyz
  1  'x, y, z'
loop_
 _atom_site_type_symbol
 _atom_site_label
 _atom_site_symmetry_multiplicity
 _atom_site_fract_x
 _atom_site_fract_y
 _atom_site_fract_z
 _atom_site_occupancy
  Zn  Zn0  1  0.62500000  0.87500000  0.87500000  1
  Fe  Fe1  1  0.00000095  -0.00038028  0.49999905  1
  Fe  Fe2  1  0.00000095  0.50038218  0.49999905  1
  Fe  Fe3  1  0.99961782  0.49999905  -0.00038028  1
  Fe  Fe4  1  0.50038028  0.49999905  0.50038218  1
  Ni  Ni5  1  0.37500000  0.12500000  0.12500000  1
  O  O6  1  0.24088167  0.72144205  0.25911833  1
  O  O7  1  0.24088167  0.26032130  0.25911833  1
  O  O8  1  0.23967870  0.25911833  0.72144205  1
  O  O9  1  0.77855795  0.25911833  0.26032130  1
  O  O10  1  0.76022261  0.28144152  0.73977739  1
  O  O11  1  0.76022261  0.73900370  0.73977739  1
  O  O12  1  0.76099630  0.73977739  0.28144152  1
  O  O13  1  0.21855848  0.73977739  0.73900370  1
