# generated using pymatgen
data_Ca2CrWO6
_symmetry_space_group_name_H-M   'P 1'
_cell_length_a   5.57407547
_cell_length_b   5.58540214
_cell_length_c   7.84138920
_cell_angle_alpha   89.49036683
_cell_angle_beta   135.43688947
_cell_angle_gamma   120.34442504
_symmetry_Int_Tables_number   1
_chemical_formula_structural   Ca2CrWO6
_chemical_formula_sum   'Ca2 Cr1 W1 O6'
_cell_volume   120.46133694
_cell_formula_units_Z   1
loop_
 _symmetry_equiv_pos_site_id
 _symmetry_equiv_pos_as_xyz
  1  'x, y, z'
loop_
 _atom_site_type_symbol
 _atom_site_label
 _atom_site_symmetry_multiplicity
 _atom_site_fract_x
 _atom_site_fract_y
 _atom_site_fract_z
 _atom_site_occupancy
  Ca  Ca0  1  0.03328487  0.49946615  0.26757201  1
  Ca  Ca1  1  0.95982882  0.46656516  0.73051336  1
  Cr  Cr2  1  0.99640327  0.98096651  0.49933870  1
  W  W3  1  0.99645165  0.98107755  0.99937384  1
  O  O4  1  0.79540877  0.87752332  0.14795068  1
  O  O5  1  0.19770243  0.08130031  0.85082020  1
  O  O6  1  0.47062053  0.47854979  0.28947925  1
  O  O7  1  0.48516263  0.96599908  0.69216655  1
  O  O8  1  0.50879352  -0.00297810  0.30745960  1
  O  O9  1  0.52103752  0.48341823  0.70857681  1
