# generated using pymatgen
data_Ca(AgO2)2
_symmetry_space_group_name_H-M   'P 1'
_cell_length_a   3.49488880
_cell_length_b   9.95370285
_cell_length_c   11.00812190
_cell_angle_alpha   90.00000000
_cell_angle_beta   90.00000000
_cell_angle_gamma   90.00000000
_symmetry_Int_Tables_number   1
_chemical_formula_structural   Ca(AgO2)2
_chemical_formula_sum   'Ca4 Ag8 O16'
_cell_volume   382.94046792
_cell_formula_units_Z   4
loop_
 _symmetry_equiv_pos_site_id
 _symmetry_equiv_pos_as_xyz
  1  'x, y, z'
loop_
 _atom_site_type_symbol
 _atom_site_label
 _atom_site_symmetry_multiplicity
 _atom_site_fract_x
 _atom_site_fract_y
 _atom_site_fract_z
 _atom_site_occupancy
  Ca  Ca0  1  0.37297861  0.75000000  0.14955990  1
  Ca  Ca1  1  0.37297861  0.25000000  0.35044010  1
  Ca  Ca2  1  0.62702139  0.75000000  0.64955990  1
  Ca  Ca3  1  0.62702139  0.25000000  0.85044010  1
  Ag  Ag4  1  0.84650562  0.56993799  0.38568031  1
  Ag  Ag5  1  0.84650562  0.06993799  0.11431969  1
  Ag  Ag6  1  0.15349438  0.06993799  0.61431969  1
  Ag  Ag7  1  0.84650562  0.43006201  0.11431969  1
  Ag  Ag8  1  0.15349438  0.43006201  0.61431969  1
  Ag  Ag9  1  0.84650562  0.93006201  0.38568031  1
  Ag  Ag10  1  0.15349438  0.93006201  0.88568031  1
  Ag  Ag11  1  0.15349438  0.56993799  0.88568031  1
  O  O12  1  0.13507390  0.88076112  0.54329406  1
  O  O13  1  0.86492610  0.11923888  0.45670594  1
  O  O14  1  0.50754172  0.00000000  0.25000000  1
  O  O15  1  0.86492610  0.88076112  0.04329406  1
  O  O16  1  0.86492610  0.61923888  0.04329406  1
  O  O17  1  0.86572457  0.25000000  0.20236607  1
  O  O18  1  0.13507390  0.11923888  0.95670594  1
  O  O19  1  0.13427543  0.25000000  0.70236607  1
  O  O20  1  0.50754172  0.50000000  0.25000000  1
  O  O21  1  0.49245828  -0.00000000  0.75000000  1
  O  O22  1  0.13507390  0.61923888  0.54329406  1
  O  O23  1  0.13427543  0.75000000  0.79763393  1
  O  O24  1  0.86572457  0.75000000  0.29763393  1
  O  O25  1  0.49245828  0.50000000  0.75000000  1
  O  O26  1  0.13507390  0.38076112  0.95670594  1
  O  O27  1  0.86492610  0.38076112  0.45670594  1
