# generated using pymatgen
data_Ba2MgFe2CuF14
_symmetry_space_group_name_H-M   'P 1'
_cell_length_a   5.27904855
_cell_length_b   7.57562891
_cell_length_c   14.78073007
_cell_angle_alpha   91.77108680
_cell_angle_beta   90.09901844
_cell_angle_gamma   110.59296701
_symmetry_Int_Tables_number   1
_chemical_formula_structural   Ba2MgFe2CuF14
_chemical_formula_sum   'Ba4 Mg2 Fe4 Cu2 F28'
_cell_volume   553.02765127
_cell_formula_units_Z   2
loop_
 _symmetry_equiv_pos_site_id
 _symmetry_equiv_pos_as_xyz
  1  'x, y, z'
loop_
 _atom_site_type_symbol
 _atom_site_label
 _atom_site_symmetry_multiplicity
 _atom_site_fract_x
 _atom_site_fract_y
 _atom_site_fract_z
 _atom_site_occupancy
  Ba  Ba0  1  0.10578657  0.37146604  0.62394155  1
  Ba  Ba1  1  0.26326930  0.37055380  0.12333979  1
  Ba  Ba2  1  0.89513782  0.62782220  0.37599788  1
  Ba  Ba3  1  0.73441007  0.62879459  0.87665780  1
  Mg  Mg4  1  0.43233700  0.99655617  0.74989369  1
  Mg  Mg5  1  0.56742549  0.00298664  0.24976978  1
  Fe  Fe6  1  0.09386080  0.23529159  0.87265170  1
  Fe  Fe7  1  0.90387534  0.76342261  0.12727663  1
  Fe  Fe8  1  0.14073136  0.23453877  0.37274875  1
  Fe  Fe9  1  0.85978619  0.76419935  0.62706404  1
  Cu  Cu10  1  0.49836330  0.99942358  0.99965714  1
  Cu  Cu11  1  0.50082020  0.99959263  0.49991373  1
  F  F12  1  0.88567374  0.98744413  0.33768719  1
  F  F13  1  0.87042630  0.27945738  0.45466694  1
  F  F14  1  0.13144304  0.71951558  0.54566378  1
  F  F15  1  0.64636669  0.50290470  0.59944219  1
  F  F16  1  0.61190334  0.09223070  0.62151926  1
  F  F17  1  0.51334308  0.90321298  0.87814739  1
  F  F18  1  0.41064529  0.28046090  0.95431461  1
  F  F19  1  0.89401942  0.00960763  0.16247239  1
  F  F20  1  0.35999702  0.33047711  0.77570835  1
  F  F21  1  0.35382926  0.49629609  0.39962985  1
  F  F22  1  0.79480778  0.21291911  0.78799903  1
  F  F23  1  0.13996435  0.49538628  0.90105755  1
  F  F24  1  0.41641715  0.21512086  0.28771555  1
  F  F25  1  0.20429562  0.78581115  0.21140046  1
  F  F26  1  0.48302725  0.09504355  0.12094885  1
  F  F27  1  0.63999690  0.66792577  0.22442147  1
  F  F28  1  0.11741044  0.84024654  0.01514625  1
  F  F29  1  0.11588311  0.01114245  0.66236716  1
  F  F30  1  0.87897134  0.15881709  0.98433704  1
  F  F31  1  0.72060069  0.83901919  0.51509294  1
  F  F32  1  0.58689311  0.71882771  0.04570409  1
  F  F33  1  0.58245982  0.78367616  0.71155649  1
  F  F34  1  0.96372917  0.32437850  0.27532666  1
  F  F35  1  0.28241304  0.16102745  0.48474965  1
  F  F36  1  0.38977062  0.90723071  0.37826119  1
  F  F37  1  0.10301503  0.98903686  0.83735792  1
  F  F38  1  0.03335414  0.67276397  0.72475408  1
  F  F39  1  0.85756084  0.50330446  0.09857819  1
