# generated using pymatgen
data_SrZnCr(PO4)2
_symmetry_space_group_name_H-M   'P 1'
_cell_length_a   5.60995034
_cell_length_b   6.95922174
_cell_length_c   9.39964034
_cell_angle_alpha   109.39576075
_cell_angle_beta   102.65584290
_cell_angle_gamma   98.79594485
_symmetry_Int_Tables_number   1
_chemical_formula_structural   SrZnCr(PO4)2
_chemical_formula_sum   'Sr2 Zn2 Cr2 P4 O16'
_cell_volume   327.42259127
_cell_formula_units_Z   2
loop_
 _symmetry_equiv_pos_site_id
 _symmetry_equiv_pos_as_xyz
  1  'x, y, z'
loop_
 _atom_site_type_symbol
 _atom_site_label
 _atom_site_symmetry_multiplicity
 _atom_site_fract_x
 _atom_site_fract_y
 _atom_site_fract_z
 _atom_site_occupancy
  Sr  Sr0  1  0.25250658  0.79985490  0.05307362  1
  Sr  Sr1  1  0.74749342  0.20014510  0.94692638  1
  Zn  Zn2  1  0.99601985  0.37994775  0.64142117  1
  Zn  Zn3  1  0.00398015  0.62005225  0.35857883  1
  Cr  Cr4  1  0.63592053  0.84021511  0.54659504  1
  Cr  Cr5  1  0.36407947  0.15978489  0.45340496  1
  P  P6  1  0.39033392  0.42137591  0.23223270  1
  P  P7  1  0.60966608  0.57862409  0.76776730  1
  P  P8  1  0.83457619  0.01983628  0.29634332  1
  P  P9  1  0.16542381  0.98016372  0.70365668  1
  O  O10  1  0.80868710  0.56388962  0.90250740  1
  O  O11  1  0.66093815  0.47939648  0.21655910  1
  O  O12  1  0.65918744  0.79769463  0.75775665  1
  O  O13  1  0.94827634  0.10338002  0.68843445  1
  O  O14  1  0.33906185  0.52060352  0.78344090  1
  O  O15  1  0.03822378  0.74726017  0.58910467  1
  O  O16  1  0.96177622  0.25273983  0.41089533  1
  O  O17  1  0.26641440  0.00374929  0.87394550  1
  O  O18  1  0.34081256  0.20230537  0.24224335  1
  O  O19  1  0.73358560  0.99625071  0.12605450  1
  O  O20  1  0.19131290  0.43611038  0.09749260  1
  O  O21  1  0.35796235  0.58228628  0.38913992  1
  O  O22  1  0.64203765  0.41771372  0.61086008  1
  O  O23  1  0.61816197  0.92471630  0.35109494  1
  O  O24  1  0.05172366  0.89661998  0.31156555  1
  O  O25  1  0.38183803  0.07528370  0.64890506  1
