# generated using pymatgen
data_MgV(GeO3)2
_symmetry_space_group_name_H-M   'P 1'
_cell_length_a   5.49099414
_cell_length_b   9.20109067
_cell_length_c   9.90024734
_cell_angle_alpha   90.00000000
_cell_angle_beta   104.19234329
_cell_angle_gamma   90.00000000
_symmetry_Int_Tables_number   1
_chemical_formula_structural   MgV(GeO3)2
_chemical_formula_sum   'Mg4 V4 Ge8 O24'
_cell_volume   484.92474802
_cell_formula_units_Z   4
loop_
 _symmetry_equiv_pos_site_id
 _symmetry_equiv_pos_as_xyz
  1  'x, y, z'
loop_
 _atom_site_type_symbol
 _atom_site_label
 _atom_site_symmetry_multiplicity
 _atom_site_fract_x
 _atom_site_fract_y
 _atom_site_fract_z
 _atom_site_occupancy
  Mg  Mg0  1  0.44488712  0.48679215  0.24403363  1
  Mg  Mg1  1  0.05511288  0.98679215  0.75596637  1
  Mg  Mg2  1  0.55511288  0.51320785  0.75596637  1
  Mg  Mg3  1  0.94488712  0.01320785  0.24403363  1
  V  V4  1  0.95650252  0.65729151  0.24494332  1
  V  V5  1  0.54349748  0.15729151  0.75505668  1
  V  V6  1  0.04349748  0.34270849  0.75505668  1
  V  V7  1  0.45650252  0.84270849  0.24494332  1
  Ge  Ge8  1  0.82616713  0.33791281  0.05802167  1
  Ge  Ge9  1  0.67383287  0.83791281  0.94197833  1
  Ge  Ge10  1  0.17383287  0.66208719  0.94197833  1
  Ge  Ge11  1  0.32616713  0.16208719  0.05802167  1
  Ge  Ge12  1  0.24616517  0.34296844  0.45761358  1
  Ge  Ge13  1  0.25383483  0.84296844  0.54238642  1
  Ge  Ge14  1  0.75383483  0.65703156  0.54238642  1
  Ge  Ge15  1  0.74616517  0.15703156  0.45761358  1
  O  O16  1  0.50637622  0.28789394  0.38534410  1
  O  O17  1  0.99362378  0.78789394  0.61465590  1
  O  O18  1  0.49362378  0.71210606  0.61465590  1
  O  O19  1  0.00637622  0.21210606  0.38534410  1
  O  O20  1  0.17145439  0.32343841  0.10970002  1
  O  O21  1  0.32854561  0.82343841  0.89030098  1
  O  O22  1  0.82854561  0.67656159  0.89030098  1
  O  O23  1  0.67145439  0.17656159  0.10970002  1
  O  O24  1  0.70273552  0.98979045  0.37442218  1
  O  O25  1  0.79726448  0.48978945  0.62557782  1
  O  O26  1  0.29726448  0.01021055  0.62557782  1
  O  O27  1  0.20273552  0.51020955  0.37442218  1
  O  O28  1  0.22355326  0.01848431  0.14228103  1
  O  O29  1  0.27644674  0.51848431  0.85771897  1
  O  O30  1  0.77644674  0.98151569  0.85771897  1
  O  O31  1  0.72355326  0.48151569  0.14228103  1
  O  O32  1  0.75277163  0.34159227  0.87367787  1
  O  O33  1  0.74722837  0.84159227  0.12632213  1
  O  O34  1  0.24722837  0.65840773  0.12632213  1
  O  O35  1  0.25277163  0.15840773  0.87367787  1
  O  O36  1  0.32944357  0.34328173  0.64081190  1
  O  O37  1  0.17055643  0.84328173  0.35918810  1
  O  O38  1  0.67055643  0.65671827  0.35918810  1
  O  O39  1  0.82944357  0.15671827  0.64081190  1
