# generated using pymatgen
data_CaCoBiO5
_symmetry_space_group_name_H-M   'P 1'
_cell_length_a   5.87517700
_cell_length_b   8.70552584
_cell_length_c   10.70575110
_cell_angle_alpha   90.00000000
_cell_angle_beta   90.00000000
_cell_angle_gamma   112.61926309
_symmetry_Int_Tables_number   1
_chemical_formula_structural   CaCoBiO5
_chemical_formula_sum   'Ca4 Co4 Bi4 O20'
_cell_volume   505.44383183
_cell_formula_units_Z   4
loop_
 _symmetry_equiv_pos_site_id
 _symmetry_equiv_pos_as_xyz
  1  'x, y, z'
loop_
 _atom_site_type_symbol
 _atom_site_label
 _atom_site_symmetry_multiplicity
 _atom_site_fract_x
 _atom_site_fract_y
 _atom_site_fract_z
 _atom_site_occupancy
  Ca  Ca0  1  0.65139280  0.19009879  0.90599198  1
  Ca  Ca1  1  0.34860720  0.80990121  0.09400802  1
  Ca  Ca2  1  0.84860720  0.30990121  0.40599198  1
  Ca  Ca3  1  0.15139280  0.69009879  0.59400802  1
  Co  Co4  1  0.81530824  0.95312382  0.62750457  1
  Co  Co5  1  0.18469176  0.04687618  0.37249543  1
  Co  Co6  1  0.68469176  0.54687618  0.12750457  1
  Co  Co7  1  0.31530824  0.45312382  0.87249543  1
  Bi  Bi8  1  0.14635335  0.15386966  0.10092537  1
  Bi  Bi9  1  0.85364665  0.84613034  0.89907463  1
  Bi  Bi10  1  0.64635335  0.65386966  0.39907463  1
  Bi  Bi11  1  0.35364665  0.34613034  0.60092537  1
  O  O12  1  0.51510973  0.33810757  0.06625347  1
  O  O13  1  0.06054871  0.31695081  0.97131098  1
  O  O14  1  0.51444067  0.66248214  0.21354628  1
  O  O15  1  0.73221399  0.50850348  0.54254857  1
  O  O16  1  0.81042135  0.51711334  0.28199717  1
  O  O17  1  0.31042135  0.01711334  0.21800283  1
  O  O18  1  0.56054871  0.81695081  0.52868902  1
  O  O19  1  0.43945129  0.18304919  0.47131098  1
  O  O20  1  0.26778601  0.49149652  0.45745143  1
  O  O21  1  0.98489027  0.16189243  0.56625347  1
  O  O22  1  0.18957865  0.48288666  0.71800283  1
  O  O23  1  0.48489027  0.66189243  0.93374653  1
  O  O24  1  0.01510973  0.83810757  0.43374653  1
  O  O25  1  0.68957865  0.98288666  0.78199717  1
  O  O26  1  0.76778601  0.99149652  0.04254857  1
  O  O27  1  0.23221399  0.00850348  0.95745143  1
  O  O28  1  0.48555933  0.33751786  0.78645372  1
  O  O29  1  0.93945129  0.68304919  0.02868902  1
  O  O30  1  0.98555933  0.83751786  0.71354628  1
  O  O31  1  0.01444067  0.16248214  0.28645372  1
