# generated using pymatgen
data_CaLaCrSnO6
_symmetry_space_group_name_H-M   'P 1'
_cell_length_a   5.59226370
_cell_length_b   5.68207796
_cell_length_c   7.96238340
_cell_angle_alpha   90.00000000
_cell_angle_beta   89.77565487
_cell_angle_gamma   90.00000000
_symmetry_Int_Tables_number   1
_chemical_formula_structural   CaLaCrSnO6
_chemical_formula_sum   'Ca2 La2 Cr2 Sn2 O12'
_cell_volume   253.00819407
_cell_formula_units_Z   2
loop_
 _symmetry_equiv_pos_site_id
 _symmetry_equiv_pos_as_xyz
  1  'x, y, z'
loop_
 _atom_site_type_symbol
 _atom_site_label
 _atom_site_symmetry_multiplicity
 _atom_site_fract_x
 _atom_site_fract_y
 _atom_site_fract_z
 _atom_site_occupancy
  Ca  Ca0  1  0.48767645  0.45445955  0.74945337  1
  Ca  Ca1  1  0.98767645  0.04554045  0.24945337  1
  La  La2  1  0.01066944  0.96046225  0.75046270  1
  La  La3  1  0.51066944  0.53953775  0.25046270  1
  Cr  Cr4  1  0.50047568  0.00017872  0.49935677  1
  Cr  Cr5  1  0.00047568  0.49982128  0.99935677  1
  Sn  Sn6  1  0.50025928  0.00065445  0.00089229  1
  Sn  Sn7  1  0.00025928  0.49934555  0.50089229  1
  O  O8  1  0.08982481  0.47009562  0.24669519  1
  O  O9  1  0.20562879  0.21309680  0.95124260  1
  O  O10  1  0.21243768  0.20660585  0.54851964  1
  O  O11  1  0.29090559  0.70473951  0.94923086  1
  O  O12  1  0.29787821  0.71002018  0.55058897  1
  O  O13  1  0.40424307  0.97340435  0.25355862  1
  O  O14  1  0.58982481  0.02990438  0.74669519  1
  O  O15  1  0.70562879  0.28690320  0.45124260  1
  O  O16  1  0.71243768  0.29339415  0.04851964  1
  O  O17  1  0.79090559  0.79526049  0.44923086  1
  O  O18  1  0.79787821  0.78997982  0.05058897  1
  O  O19  1  0.90424307  0.52659565  0.75355862  1
