# generated using pymatgen
data_CaCu3(P2O7)2
_symmetry_space_group_name_H-M   'P 1'
_cell_length_a   7.33478378
_cell_length_b   7.85721418
_cell_length_c   9.45766081
_cell_angle_alpha   90.00000000
_cell_angle_beta   110.32959938
_cell_angle_gamma   90.00000000
_symmetry_Int_Tables_number   1
_chemical_formula_structural   CaCu3(P2O7)2
_chemical_formula_sum   'Ca2 Cu6 P8 O28'
_cell_volume   511.10248839
_cell_formula_units_Z   2
loop_
 _symmetry_equiv_pos_site_id
 _symmetry_equiv_pos_as_xyz
  1  'x, y, z'
loop_
 _atom_site_type_symbol
 _atom_site_label
 _atom_site_symmetry_multiplicity
 _atom_site_fract_x
 _atom_site_fract_y
 _atom_site_fract_z
 _atom_site_occupancy
  Ca  Ca0  1  0.50000000  0.00000000  -0.00000000  1
  Ca  Ca1  1  0.50000000  0.50000000  0.50000000  1
  Cu  Cu2  1  0.18975531  0.86994263  0.52189123  1
  Cu  Cu3  1  0.81024469  0.36994263  0.97810877  1
  Cu  Cu4  1  0.81024469  0.13005737  0.47810877  1
  Cu  Cu5  1  0.18975531  0.63005737  0.02189123  1
  Cu  Cu6  1  0.00000000  0.00000000  -0.00000000  1
  Cu  Cu7  1  0.00000000  0.50000000  0.50000000  1
  P  P8  1  0.59447990  0.05263429  0.69965542  1
  P  P9  1  0.40552010  0.55263429  0.80034458  1
  P  P10  1  0.40552010  0.94736571  0.30034458  1
  P  P11  1  0.59447990  0.44736571  0.19965542  1
  P  P12  1  0.89307760  0.79159978  0.69583838  1
  P  P13  1  0.10692240  0.29159978  0.80416162  1
  P  P14  1  0.10692240  0.20840022  0.30416162  1
  P  P15  1  0.89307760  0.70840022  0.19583838  1
  O  O16  1  0.84227685  0.61922012  0.61470737  1
  O  O17  1  0.15772315  0.11922012  0.88529263  1
  O  O18  1  0.15772315  0.38077988  0.38529263  1
  O  O19  1  0.84227685  0.88077988  0.11470737  1
  O  O20  1  0.29771541  0.60167338  0.63432388  1
  O  O21  1  0.70228459  0.10167338  0.86567612  1
  O  O22  1  0.70228459  0.39832662  0.36567612  1
  O  O23  1  0.29771541  0.89832662  0.13432388  1
  O  O24  1  0.62473647  0.18243011  0.58815815  1
  O  O25  1  0.37526353  0.68243011  0.91184185  1
  O  O26  1  0.37526353  0.81756989  0.41184185  1
  O  O27  1  0.62473647  0.31756989  0.08815815  1
  O  O28  1  0.68273140  0.87229083  0.67191884  1
  O  O29  1  0.31726860  0.37229083  0.82808116  1
  O  O30  1  0.31726860  0.12770917  0.32808116  1
  O  O31  1  0.68273140  0.62770917  0.17191884  1
  O  O32  1  0.38357147  0.48883683  0.18168659  1
  O  O33  1  0.61642853  0.98883683  0.31831341  1
  O  O34  1  0.61642853  0.51116317  0.81831341  1
  O  O35  1  0.38357147  0.01116317  0.68168659  1
  O  O36  1  0.00877748  0.21509585  0.12951061  1
  O  O37  1  0.99122252  0.71509585  0.37048939  1
  O  O38  1  0.99122252  0.78490415  0.87048939  1
  O  O39  1  0.00877748  0.28490415  0.62951061  1
  O  O40  1  0.99590435  0.58814199  0.12163426  1
  O  O41  1  0.00409565  0.08814199  0.37836574  1
  O  O42  1  0.00409565  0.41185801  0.87836574  1
  O  O43  1  0.99590435  0.91185801  0.62163426  1
