# generated using pymatgen
data_SrZnCo(PO4)2
_symmetry_space_group_name_H-M   'P 1'
_cell_length_a   5.50506061
_cell_length_b   7.01262929
_cell_length_c   9.43528815
_cell_angle_alpha   110.64882851
_cell_angle_beta   102.07411001
_cell_angle_gamma   98.16641618
_symmetry_Int_Tables_number   1
_chemical_formula_structural   SrZnCo(PO4)2
_chemical_formula_sum   'Sr2 Zn2 Co2 P4 O16'
_cell_volume   323.90644199
_cell_formula_units_Z   2
loop_
 _symmetry_equiv_pos_site_id
 _symmetry_equiv_pos_as_xyz
  1  'x, y, z'
loop_
 _atom_site_type_symbol
 _atom_site_label
 _atom_site_symmetry_multiplicity
 _atom_site_fract_x
 _atom_site_fract_y
 _atom_site_fract_z
 _atom_site_occupancy
  Sr  Sr0  1  0.24881655  0.80000491  0.05062933  1
  Sr  Sr1  1  0.75118345  0.19999509  0.94937067  1
  Zn  Zn2  1  0.99049393  0.37929280  0.64550197  1
  Zn  Zn3  1  0.00950607  0.62070720  0.35449803  1
  Co  Co4  1  0.63348105  0.84903452  0.55965725  1
  Co  Co5  1  0.36651895  0.15096548  0.44034275  1
  P  P6  1  0.39524604  0.42508870  0.23624781  1
  P  P7  1  0.60475396  0.57491130  0.76375219  1
  P  P8  1  0.84276817  0.02340995  0.30271673  1
  P  P9  1  0.15723183  0.97659005  0.69728327  1
  O  O10  1  0.81120706  0.55583543  0.89329918  1
  O  O11  1  0.66526086  0.47511080  0.21219268  1
  O  O12  1  0.65769540  0.79514588  0.76047386  1
  O  O13  1  0.95304967  0.11492211  0.69550544  1
  O  O14  1  0.33473914  0.52488920  0.78780732  1
  O  O15  1  0.99861830  0.75018903  0.57800666  1
  O  O16  1  0.00138170  0.24981097  0.42199334  1
  O  O17  1  0.26178272  0.99567769  0.86555907  1
  O  O18  1  0.34230460  0.20485412  0.23952614  1
  O  O19  1  0.73821728  0.00432231  0.13444093  1
  O  O20  1  0.18879294  0.44416457  0.10670082  1
  O  O21  1  0.37377811  0.59150886  0.39585664  1
  O  O22  1  0.62622189  0.40849114  0.60414336  1
  O  O23  1  0.62235335  0.95207766  0.36733034  1
  O  O24  1  0.04695033  0.88507789  0.30449456  1
  O  O25  1  0.37764665  0.04792234  0.63266966  1
