# generated using pymatgen
data_U(CuAs)2
_symmetry_space_group_name_H-M   'P 1'
_cell_length_a   4.05990645
_cell_length_b   4.05976027
_cell_length_c   6.56159547
_cell_angle_alpha   89.99999999
_cell_angle_beta   89.98831068
_cell_angle_gamma   119.99882093
_symmetry_Int_Tables_number   1
_chemical_formula_structural   U(CuAs)2
_chemical_formula_sum   'U1 Cu2 As2'
_cell_volume   93.66161609
_cell_formula_units_Z   1
loop_
 _symmetry_equiv_pos_site_id
 _symmetry_equiv_pos_as_xyz
  1  'x, y, z'
loop_
 _atom_site_type_symbol
 _atom_site_label
 _atom_site_symmetry_multiplicity
 _atom_site_fract_x
 _atom_site_fract_y
 _atom_site_fract_z
 _atom_site_occupancy
  U  U0  1  0.00000000  0.00000000  0.00000000  1
  Cu  Cu1  1  0.33340893  0.66670447  0.63585818  1
  Cu  Cu2  1  0.66659107  0.33329553  0.36414182  1
  As  As3  1  0.33331618  0.66665809  0.25447258  1
  As  As4  1  0.66668382  0.33334191  0.74552742  1
