# generated using pymatgen
data_GdCo5
_symmetry_space_group_name_H-M   'P 1'
_cell_length_a   3.94293318
_cell_length_b   4.93802891
_cell_length_c   4.94039224
_cell_angle_alpha   119.98417966
_cell_angle_beta   90.00000000
_cell_angle_gamma   90.00000000
_symmetry_Int_Tables_number   1
_chemical_formula_structural   GdCo5
_chemical_formula_sum   'Gd1 Co5'
_cell_volume   83.31713349
_cell_formula_units_Z   1
loop_
 _symmetry_equiv_pos_site_id
 _symmetry_equiv_pos_as_xyz
  1  'x, y, z'
loop_
 _atom_site_type_symbol
 _atom_site_label
 _atom_site_symmetry_multiplicity
 _atom_site_fract_x
 _atom_site_fract_y
 _atom_site_fract_z
 _atom_site_occupancy
  Gd  Gd0  1  -0.00000000  0.99998597  1.00000000  1
  Co  Co1  1  -0.00000000  0.33187977  0.66390309  1
  Co  Co2  1  -0.00000000  0.66797668  0.33609691  1
  Co  Co3  1  0.50000000  0.50004800  0.00000000  1
  Co  Co4  1  0.50000000  0.50002074  0.50003191  1
  Co  Co5  1  0.50000000  0.99998883  0.49996809  1
