# generated using pymatgen
data_Er2Mo2C3
_symmetry_space_group_name_H-M   'P 1'
_cell_length_a   3.38358553
_cell_length_b   5.66900903
_cell_length_c   5.89453528
_cell_angle_alpha   107.58239925
_cell_angle_beta   106.67905579
_cell_angle_gamma   90.00000000
_symmetry_Int_Tables_number   1
_chemical_formula_structural   Er2Mo2C3
_chemical_formula_sum   'Er2 Mo2 C3'
_cell_volume   102.78324645
_cell_formula_units_Z   1
loop_
 _symmetry_equiv_pos_site_id
 _symmetry_equiv_pos_as_xyz
  1  'x, y, z'
loop_
 _atom_site_type_symbol
 _atom_site_label
 _atom_site_symmetry_multiplicity
 _atom_site_fract_x
 _atom_site_fract_y
 _atom_site_fract_z
 _atom_site_occupancy
  Er  Er0  1  0.61421263  0.81853325  0.22842525  1
  Er  Er1  1  0.38578737  0.18146675  0.77157475  1
  Mo  Mo2  1  0.85079629  0.62827011  0.70159259  1
  Mo  Mo3  1  0.14920371  0.37172989  0.29840741  1
  C  C4  1  0.00000000  0.50000000  0.00000000  1
  C  C5  1  0.27190188  0.74427624  0.54380377  1
  C  C6  1  0.72809812  0.25572376  0.45619623  1
