# generated using pymatgen
data_CeTiGe
_symmetry_space_group_name_H-M   'P 1'
_cell_length_a   4.07671518
_cell_length_b   4.07671518
_cell_length_c   8.42077996
_cell_angle_alpha   104.00832448
_cell_angle_beta   104.00832448
_cell_angle_gamma   90.00000000
_symmetry_Int_Tables_number   1
_chemical_formula_structural   CeTiGe
_chemical_formula_sum   'Ce2 Ti2 Ge2'
_cell_volume   131.49431043
_cell_formula_units_Z   2
loop_
 _symmetry_equiv_pos_site_id
 _symmetry_equiv_pos_as_xyz
  1  'x, y, z'
loop_
 _atom_site_type_symbol
 _atom_site_label
 _atom_site_symmetry_multiplicity
 _atom_site_fract_x
 _atom_site_fract_y
 _atom_site_fract_z
 _atom_site_occupancy
  Ce  Ce0  1  0.67507132  0.67507132  0.35014264  1
  Ce  Ce1  1  0.32492868  0.32492868  0.64985736  1
  Ti  Ti2  1  0.50000000  -0.00000000  -0.00000000  1
  Ti  Ti3  1  0.00000000  0.50000000  0.00000000  1
  Ge  Ge4  1  0.88403517  0.88403517  0.76807033  1
  Ge  Ge5  1  0.11596483  0.11596483  0.23192967  1
