# generated using pymatgen
data_Sr2Ca6Fe3(CoO4)5
_symmetry_space_group_name_H-M   'P 1'
_cell_length_a   10.71883516
_cell_length_b   11.19421985
_cell_length_c   17.15706442
_cell_angle_alpha   108.77988951
_cell_angle_beta   107.97537562
_cell_angle_gamma   90.43221869
_symmetry_Int_Tables_number   1
_chemical_formula_structural   Sr2Ca6Fe3(CoO4)5
_chemical_formula_sum   'Sr8 Ca24 Fe12 Co20 O80'
_cell_volume   1840.81873577
_cell_formula_units_Z   4
loop_
 _symmetry_equiv_pos_site_id
 _symmetry_equiv_pos_as_xyz
  1  'x, y, z'
loop_
 _atom_site_type_symbol
 _atom_site_label
 _atom_site_symmetry_multiplicity
 _atom_site_fract_x
 _atom_site_fract_y
 _atom_site_fract_z
 _atom_site_occupancy
  Sr  Sr0  1  0.30698037  0.56274925  0.60888776  1
  Sr  Sr1  1  0.80656921  0.06346173  0.60863292  1
  Sr  Sr2  1  0.19964898  0.43841425  0.89565370  1
  Sr  Sr3  1  0.05629050  0.29251455  0.60790174  1
  Sr  Sr4  1  0.05546896  0.79597300  0.60947786  1
  Sr  Sr5  1  0.55759751  0.29701878  0.60927135  1
  Sr  Sr6  1  0.45038517  0.20555792  0.89376756  1
  Sr  Sr7  1  0.94454632  0.20193342  0.38529704  1
  Ca  Ca8  1  0.30230016  0.06708426  0.10719001  1
  Ca  Ca9  1  0.30696947  0.06642762  0.60494033  1
  Ca  Ca10  1  0.30588253  0.56767080  0.10891092  1
  Ca  Ca11  1  0.80661437  0.06915240  0.10579695  1
  Ca  Ca12  1  0.80633224  0.56493326  0.10802917  1
  Ca  Ca13  1  0.80291039  0.56652918  0.60690233  1
  Ca  Ca14  1  0.19232101  0.43179960  0.38857121  1
  Ca  Ca15  1  0.19582721  0.93076566  0.38853973  1
  Ca  Ca16  1  0.19663267  0.93240646  0.89786150  1
  Ca  Ca17  1  0.69523378  0.43381265  0.38907926  1
  Ca  Ca18  1  0.70122772  0.43479312  0.89791987  1
  Ca  Ca19  1  0.69539947  0.93059900  0.39037144  1
  Ca  Ca20  1  0.70003477  0.93577421  0.89598593  1
  Ca  Ca21  1  0.05408893  0.29346883  0.10827516  1
  Ca  Ca22  1  0.05099946  0.79106999  0.10674594  1
  Ca  Ca23  1  0.55563451  0.29476177  0.11070223  1
  Ca  Ca24  1  0.55414180  0.78801476  0.10677549  1
  Ca  Ca25  1  0.55687255  0.78997936  0.60670124  1
  Ca  Ca26  1  0.44707597  0.20886661  0.39003679  1
  Ca  Ca27  1  0.44754692  0.70947227  0.38897677  1
  Ca  Ca28  1  0.44982562  0.71232150  0.89709871  1
  Ca  Ca29  1  0.95017746  0.21119274  0.89742095  1
  Ca  Ca30  1  0.94256184  0.70330942  0.38735412  1
  Ca  Ca31  1  0.94882361  0.71186103  0.89744840  1
  Fe  Fe32  1  0.10799517  0.08870633  0.75444896  1
  Fe  Fe33  1  0.10497830  0.59623856  0.75219547  1
  Fe  Fe34  1  0.60362001  0.09022330  0.25019448  1
  Fe  Fe35  1  0.60602633  0.08907194  0.74975986  1
  Fe  Fe36  1  0.61178686  0.59826836  0.75449932  1
  Fe  Fe37  1  0.35448978  0.41037707  0.24929359  1
  Fe  Fe38  1  0.36155345  0.41218982  0.75361389  1
  Fe  Fe39  1  0.35241370  0.90846629  0.24832583  1
  Fe  Fe40  1  0.36004241  0.90803142  0.75156359  1
  Fe  Fe41  1  0.85495380  0.41242380  0.75250786  1
  Fe  Fe42  1  0.85599806  0.90441186  0.24712911  1
  Fe  Fe43  1  0.85448395  0.90602608  0.75367933  1
  Co  Co44  1  0.00641042  0.00035606  0.00101091  1
  Co  Co45  1  0.00225550  0.99662078  0.49474624  1
  Co  Co46  1  0.00640476  0.50122336  0.00277233  1
  Co  Co47  1  0.99954283  0.49799305  0.49572658  1
  Co  Co48  1  0.50921342  0.00143750  0.00433325  1
  Co  Co49  1  0.50425739  0.99932853  0.49511830  1
  Co  Co50  1  0.50875569  0.50135018  0.00297164  1
  Co  Co51  1  0.50494940  0.49484177  0.49268325  1
  Co  Co52  1  0.25723178  0.25185319  0.00465757  1
  Co  Co53  1  0.25323930  0.24646072  0.49515222  1
  Co  Co54  1  0.25791964  0.75270763  0.00462540  1
  Co  Co55  1  0.25525890  0.74835784  0.49649660  1
  Co  Co56  1  0.75780717  0.25173087  0.00213755  1
  Co  Co57  1  0.75195996  0.24906994  0.49475730  1
  Co  Co58  1  0.75716923  0.75081331  0.00178277  1
  Co  Co59  1  0.75202428  0.74626209  0.49565603  1
  Co  Co60  1  0.10855575  0.09272595  0.24604224  1
  Co  Co61  1  0.10626155  0.59465991  0.24894964  1
  Co  Co62  1  0.60841129  0.59377433  0.24826657  1
  Co  Co63  1  0.85576146  0.40812846  0.24773519  1
  O  O64  1  0.12481760  0.11101180  0.48914221  1
  O  O65  1  0.12476799  0.12028653  0.98916915  1
  O  O66  1  0.11537668  0.61230733  0.48369508  1
  O  O67  1  0.12358677  0.62790831  0.99299026  1
  O  O68  1  0.61867491  0.11699326  0.48270830  1
  O  O69  1  0.62953852  0.12190668  0.99232805  1
  O  O70  1  0.61790392  0.61670485  0.48669983  1
  O  O71  1  0.62427329  0.62349889  0.98852516  1
  O  O72  1  0.13637240  0.38327219  0.01918370  1
  O  O73  1  0.13543513  0.37111714  0.50369698  1
  O  O74  1  0.13861456  0.88386132  0.01657428  1
  O  O75  1  0.14177574  0.87057105  0.50563741  1
  O  O76  1  0.64036470  0.38450346  0.01749899  1
  O  O77  1  0.64099517  0.37961801  0.51068959  1
  O  O78  1  0.63398302  0.88582535  0.01394090  1
  O  O79  1  0.63522574  0.86962099  0.50667418  1
  O  O80  1  0.36666877  0.11916351  0.48250683  1
  O  O81  1  0.37894680  0.10911981  0.99379764  1
  O  O82  1  0.36792750  0.62465321  0.48411384  1
  O  O83  1  0.37960278  0.62176646  0.99310125  1
  O  O84  1  0.86426934  0.11510679  0.48241031  1
  O  O85  1  0.87407837  0.11654872  0.98796691  1
  O  O86  1  0.86478595  0.61926803  0.48404629  1
  O  O87  1  0.87376366  0.61579062  0.98740756  1
  O  O88  1  0.38955436  0.38424750  0.01913290  1
  O  O89  1  0.38349679  0.38326779  0.50206529  1
  O  O90  1  0.38871263  0.88086426  0.01622431  1
  O  O91  1  0.39053893  0.88777881  0.50912716  1
  O  O92  1  0.88691473  0.38211885  0.01453663  1
  O  O93  1  0.88116613  0.38489289  0.50659193  1
  O  O94  1  0.88724036  0.88419005  0.01576612  1
  O  O95  1  0.88591056  0.87920183  0.50242051  1
  O  O96  1  0.08807284  0.10357107  0.14038976  1
  O  O97  1  0.08440438  0.08774215  0.63999238  1
  O  O98  1  0.08559598  0.60337698  0.14241969  1
  O  O99  1  0.07835676  0.59367292  0.63804094  1
  O  O100  1  0.59154082  0.10569005  0.14307490  1
  O  O101  1  0.58397887  0.09483203  0.63805687  1
  O  O102  1  0.58879774  0.60206288  0.14164127  1
  O  O103  1  0.58563265  0.59989321  0.64033105  1
  O  O104  1  0.44933924  0.39690170  0.35870463  1
  O  O105  1  0.45007909  0.40491824  0.86378197  1
  O  O106  1  0.44607418  0.89671803  0.35790108  1
  O  O107  1  0.45541696  0.89972519  0.86127904  1
  O  O108  1  0.94155280  0.40532158  0.35670880  1
  O  O109  1  0.94440893  0.39528906  0.85993961  1
  O  O110  1  0.95063251  0.89652686  0.35815665  1
  O  O111  1  0.94918223  0.89565303  0.86255148  1
  O  O112  1  0.33781759  0.28547531  0.14208319  1
  O  O113  1  0.33492124  0.29051649  0.64264942  1
  O  O114  1  0.34028741  0.78700002  0.14100224  1
  O  O115  1  0.33659189  0.79233731  0.63912862  1
  O  O116  1  0.83976365  0.29101117  0.14289107  1
  O  O117  1  0.82743056  0.29714403  0.63759313  1
  O  O118  1  0.83568696  0.78246150  0.13935052  1
  O  O119  1  0.83181595  0.78876314  0.64225062  1
  O  O120  1  0.19161708  0.20868270  0.35230640  1
  O  O121  1  0.19483064  0.20853165  0.86301318  1
  O  O122  1  0.19673605  0.71014936  0.35565247  1
  O  O123  1  0.19842201  0.71361680  0.86229116  1
  O  O124  1  0.68953923  0.21277948  0.36237624  1
  O  O125  1  0.69398803  0.21161531  0.85920070  1
  O  O126  1  0.69404697  0.70947479  0.35439987  1
  O  O127  1  0.70295768  0.71898281  0.86253308  1
  O  O128  1  0.42195576  0.06927783  0.24899519  1
  O  O129  1  0.42211540  0.06571159  0.74422915  1
  O  O130  1  0.42514660  0.56962594  0.24951080  1
  O  O131  1  0.43303134  0.57434225  0.75804270  1
  O  O132  1  0.92427782  0.05902629  0.24065656  1
  O  O133  1  0.92795395  0.06750912  0.75758628  1
  O  O134  1  0.92421842  0.56972460  0.24837766  1
  O  O135  1  0.92387251  0.57304428  0.75274212  1
  O  O136  1  0.17373701  0.43226568  0.24969282  1
  O  O137  1  0.18105909  0.44000731  0.75139887  1
  O  O138  1  0.17235157  0.92949927  0.24809822  1
  O  O139  1  0.18280525  0.93302342  0.75957335  1
  O  O140  1  0.67391283  0.43229662  0.24907547  1
  O  O141  1  0.67857525  0.43906101  0.75884863  1
  O  O142  1  0.67538749  0.93212896  0.25041773  1
  O  O143  1  0.67214395  0.92821297  0.75133559  1
