# generated using pymatgen
data_Sr3CaTi2Mn2O12
_symmetry_space_group_name_H-M   'P 1'
_cell_length_a   7.79204269
_cell_length_b   7.78354238
_cell_length_c   7.79204269
_cell_angle_alpha   90.00000000
_cell_angle_beta   89.99426001
_cell_angle_gamma   90.00000000
_symmetry_Int_Tables_number   1
_chemical_formula_structural   Sr3CaTi2Mn2O12
_chemical_formula_sum   'Sr6 Ca2 Ti4 Mn4 O24'
_cell_volume   472.58500631
_cell_formula_units_Z   2
loop_
 _symmetry_equiv_pos_site_id
 _symmetry_equiv_pos_as_xyz
  1  'x, y, z'
loop_
 _atom_site_type_symbol
 _atom_site_label
 _atom_site_symmetry_multiplicity
 _atom_site_fract_x
 _atom_site_fract_y
 _atom_site_fract_z
 _atom_site_occupancy
  Sr  Sr0  1  0.24710287  0.24711081  0.24710287  1
  Sr  Sr1  1  0.24706757  0.24733905  0.75293243  1
  Sr  Sr2  1  0.24696293  0.75278049  0.75303707  1
  Sr  Sr3  1  0.75293243  0.24733905  0.24706757  1
  Sr  Sr4  1  0.75289713  0.24711081  0.75289713  1
  Sr  Sr5  1  0.75303707  0.75278049  0.24696293  1
  Ca  Ca6  1  0.24659152  0.75349381  0.24659152  1
  Ca  Ca7  1  0.75340848  0.75349381  0.75340848  1
  Ti  Ti8  1  -0.00000000  0.50171410  0.50000000  1
  Ti  Ti9  1  0.50000000  0.99869492  0.50000000  1
  Ti  Ti10  1  0.50000000  0.50171410  -0.00000000  1
  Ti  Ti11  1  0.50000000  0.50134143  0.50000000  1
  Mn  Mn12  1  -0.00000000  0.99869524  -0.00000000  1
  Mn  Mn13  1  -0.00000000  0.99892820  0.50000000  1
  Mn  Mn14  1  -0.00000000  0.50136103  -0.00000000  1
  Mn  Mn15  1  0.50000000  0.99892820  -0.00000000  1
  O  O16  1  0.25064631  0.99701646  0.00260937  1
  O  O17  1  0.24728375  0.99759791  0.49846720  1
  O  O18  1  0.24727907  0.50251141  0.00155060  1
  O  O19  1  0.24943921  0.50215951  0.49886369  1
  O  O20  1  0.74935369  0.99701646  0.99739063  1
  O  O21  1  0.75271625  0.99759791  0.50153280  1
  O  O22  1  0.75272093  0.50251141  0.99844940  1
  O  O23  1  0.75056079  0.50215951  0.50113631  1
  O  O24  1  -0.00000000  0.25083409  -0.00000000  1
  O  O25  1  -0.00000000  0.24735000  0.50000000  1
  O  O26  1  -0.00000000  0.74912893  -0.00000000  1
  O  O27  1  -0.00000000  0.75273642  0.50000000  1
  O  O28  1  0.50000000  0.24735000  -0.00000000  1
  O  O29  1  0.50000000  0.24938395  0.50000000  1
  O  O30  1  0.50000000  0.75273642  -0.00000000  1
  O  O31  1  0.50000000  0.75051349  0.50000000  1
  O  O32  1  0.00260937  0.99701646  0.25064631  1
  O  O33  1  0.99739063  0.99701646  0.74935369  1
  O  O34  1  0.00155060  0.50251141  0.24727907  1
  O  O35  1  0.99844940  0.50251141  0.75272093  1
  O  O36  1  0.49846720  0.99759791  0.24728375  1
  O  O37  1  0.50153280  0.99759791  0.75271625  1
  O  O38  1  0.49886369  0.50215951  0.24943921  1
  O  O39  1  0.50113631  0.50215951  0.75056079  1
