# generated using pymatgen
data_HoAgSe2
_symmetry_space_group_name_H-M   'P 1'
_cell_length_a   5.66313208
_cell_length_b   5.66313208
_cell_length_c   7.45213261
_cell_angle_alpha   112.33164772
_cell_angle_beta   112.33164772
_cell_angle_gamma   90.00000000
_symmetry_Int_Tables_number   1
_chemical_formula_structural   HoAgSe2
_chemical_formula_sum   'Ho2 Ag2 Se4'
_cell_volume   201.56033679
_cell_formula_units_Z   2
loop_
 _symmetry_equiv_pos_site_id
 _symmetry_equiv_pos_as_xyz
  1  'x, y, z'
loop_
 _atom_site_type_symbol
 _atom_site_label
 _atom_site_symmetry_multiplicity
 _atom_site_fract_x
 _atom_site_fract_y
 _atom_site_fract_z
 _atom_site_occupancy
  Ho  Ho0  1  0.25103235  0.75103235  0.50206470  1
  Ho  Ho1  1  0.00103235  0.00103235  0.00206470  1
  Ag  Ag2  1  0.79113414  0.29113414  0.58226828  1
  Ag  Ag3  1  0.54113414  0.54113414  0.08226828  1
  Se  Se4  1  0.47768223  0.97768223  0.95536447  1
  Se  Se5  1  0.22768223  0.22768223  0.45536447  1
  Se  Se6  1  0.02015128  0.52015128  0.04030255  1
  Se  Se7  1  0.77015128  0.77015128  0.54030255  1
