# generated using pymatgen
data_CeMgAg
_symmetry_space_group_name_H-M   'P 1'
_cell_length_a   4.36336741
_cell_length_b   7.88709825
_cell_length_c   7.88444175
_cell_angle_alpha   120.01115432
_cell_angle_beta   90.00000000
_cell_angle_gamma   90.00000000
_symmetry_Int_Tables_number   1
_chemical_formula_structural   CeMgAg
_chemical_formula_sum   'Ce3 Mg3 Ag3'
_cell_volume   234.95884052
_cell_formula_units_Z   3
loop_
 _symmetry_equiv_pos_site_id
 _symmetry_equiv_pos_as_xyz
  1  'x, y, z'
loop_
 _atom_site_type_symbol
 _atom_site_label
 _atom_site_symmetry_multiplicity
 _atom_site_fract_x
 _atom_site_fract_y
 _atom_site_fract_z
 _atom_site_occupancy
  Ce  Ce0  1  0.50000000  0.58399174  0.00000000  1
  Ce  Ce1  1  0.50000000  0.41604126  0.41605100  1
  Ce  Ce2  1  0.50000000  0.99999026  0.58394900  1
  Mg  Mg3  1  -0.00000000  0.23993876  1.00000000  1
  Mg  Mg4  1  -0.00000000  0.76006633  0.76005505  1
  Mg  Mg5  1  -0.00000000  0.00001129  0.23994495  1
  Ag  Ag6  1  0.00000000  0.33331465  0.66671580  1
  Ag  Ag7  1  0.00000000  0.66659884  0.33328420  1
  Ag  Ag8  1  0.50000000  0.99994687  1.00000000  1
