# generated using pymatgen
data_PbS
_symmetry_space_group_name_H-M   'P 1'
_cell_length_a   4.28059864
_cell_length_b   4.26372325
_cell_length_c   12.08466684
_cell_angle_alpha   90.00000000
_cell_angle_beta   90.00000000
_cell_angle_gamma   90.00000000
_symmetry_Int_Tables_number   1
_chemical_formula_structural   PbS
_chemical_formula_sum   'Pb4 S4'
_cell_volume   220.56073422
_cell_formula_units_Z   4
loop_
 _symmetry_equiv_pos_site_id
 _symmetry_equiv_pos_as_xyz
  1  'x, y, z'
loop_
 _atom_site_type_symbol
 _atom_site_label
 _atom_site_symmetry_multiplicity
 _atom_site_fract_x
 _atom_site_fract_y
 _atom_site_fract_z
 _atom_site_occupancy
  Pb  Pb0  1  0.25000000  0.39559684  0.62953678  1
  Pb  Pb1  1  0.25000000  0.10440316  0.12953678  1
  Pb  Pb2  1  0.75000000  0.60440316  0.37046322  1
  Pb  Pb3  1  0.75000000  0.89559684  0.87046322  1
  S  S4  1  0.25000000  0.44489708  0.85604350  1
  S  S5  1  0.25000000  0.05510292  0.35604350  1
  S  S6  1  0.75000000  0.55510292  0.14395650  1
  S  S7  1  0.75000000  0.94489708  0.64395650  1
