# generated using pymatgen
data_CeSe2
_symmetry_space_group_name_H-M   'P 1'
_cell_length_a   4.29253605
_cell_length_b   7.53921964
_cell_length_c   9.11049540
_cell_angle_alpha   90.00000000
_cell_angle_beta   90.00000000
_cell_angle_gamma   90.00000000
_symmetry_Int_Tables_number   1
_chemical_formula_structural   CeSe2
_chemical_formula_sum   'Ce4 Se8'
_cell_volume   294.83724209
_cell_formula_units_Z   4
loop_
 _symmetry_equiv_pos_site_id
 _symmetry_equiv_pos_as_xyz
  1  'x, y, z'
loop_
 _atom_site_type_symbol
 _atom_site_label
 _atom_site_symmetry_multiplicity
 _atom_site_fract_x
 _atom_site_fract_y
 _atom_site_fract_z
 _atom_site_occupancy
  Ce  Ce0  1  0.25000000  0.75299755  0.36939518  1
  Ce  Ce1  1  0.25000000  0.25299755  0.13060482  1
  Ce  Ce2  1  0.75000000  0.24700245  0.63060482  1
  Ce  Ce3  1  0.75000000  0.74700245  0.86939518  1
  Se  Se4  1  0.25000000  0.86200902  0.06337852  1
  Se  Se5  1  0.25000000  0.36200902  0.43662148  1
  Se  Se6  1  0.75000000  0.13799098  0.93662148  1
  Se  Se7  1  0.75000000  0.63799098  0.56337852  1
  Se  Se8  1  0.75000000  0.53693212  0.16675688  1
  Se  Se9  1  0.75000000  0.03693212  0.33324312  1
  Se  Se10  1  0.25000000  0.46306788  0.83324312  1
  Se  Se11  1  0.25000000  0.96306788  0.66675688  1
