# generated using pymatgen
data_YbCeS3
_symmetry_space_group_name_H-M   'P 1'
_cell_length_a   3.86810061
_cell_length_b   6.87815794
_cell_length_c   9.24130961
_cell_angle_alpha   90.00000000
_cell_angle_beta   90.00000000
_cell_angle_gamma   106.33107621
_symmetry_Int_Tables_number   1
_chemical_formula_structural   YbCeS3
_chemical_formula_sum   'Yb2 Ce2 S6'
_cell_volume   235.94871509
_cell_formula_units_Z   2
loop_
 _symmetry_equiv_pos_site_id
 _symmetry_equiv_pos_as_xyz
  1  'x, y, z'
loop_
 _atom_site_type_symbol
 _atom_site_label
 _atom_site_symmetry_multiplicity
 _atom_site_fract_x
 _atom_site_fract_y
 _atom_site_fract_z
 _atom_site_occupancy
  Yb  Yb0  1  0.99647611  -0.00000000  0.75000000  1
  Yb  Yb1  1  0.00352389  0.00000000  0.25000000  1
  Ce  Ce2  1  0.24956506  0.49913012  0.50000000  1
  Ce  Ce3  1  0.75043494  0.50086988  -0.00000000  1
  S  S4  1  0.34810122  0.70031732  0.82154167  1
  S  S5  1  0.35221609  0.70031732  0.17845833  1
  S  S6  1  0.65189878  0.29968268  0.32154167  1
  S  S7  1  0.64778391  0.29968268  0.67845833  1
  S  S8  1  0.89377187  0.78754374  0.50000000  1
  S  S9  1  0.10622813  0.21245626  -0.00000000  1
