# generated using pymatgen
data_Fe2P2O9
_symmetry_space_group_name_H-M   'P 1'
_cell_length_a   6.43118381
_cell_length_b   7.82219709
_cell_length_c   14.10660973
_cell_angle_alpha   90.04429374
_cell_angle_beta   90.00135022
_cell_angle_gamma   89.97289470
_symmetry_Int_Tables_number   1
_chemical_formula_structural   Fe2P2O9
_chemical_formula_sum   'Fe8 P8 O36'
_cell_volume   709.64663833
_cell_formula_units_Z   4
loop_
 _symmetry_equiv_pos_site_id
 _symmetry_equiv_pos_as_xyz
  1  'x, y, z'
loop_
 _atom_site_type_symbol
 _atom_site_label
 _atom_site_symmetry_multiplicity
 _atom_site_fract_x
 _atom_site_fract_y
 _atom_site_fract_z
 _atom_site_occupancy
  Fe  Fe0  1  0.75053196  0.34487875  0.87872314  1
  Fe  Fe1  1  0.24942130  0.65500093  0.12100265  1
  Fe  Fe2  1  0.24955840  0.84380634  0.62182260  1
  Fe  Fe3  1  0.75043543  0.15605961  0.37834327  1
  Fe  Fe4  1  0.49996994  0.99997670  0.99980818  1
  Fe  Fe5  1  0.49998897  0.49980923  0.50031256  1
  Fe  Fe6  1  0.00002995  0.49980593  0.50031276  1
  Fe  Fe7  1  0.00003801  0.99999073  0.99984178  1
  P  P8  1  0.25029255  0.35061164  0.93952209  1
  P  P9  1  0.74968435  0.64948929  0.05987995  1
  P  P10  1  0.74968745  0.85182589  0.55965755  1
  P  P11  1  0.25031921  0.14803820  0.44064722  1
  P  P12  1  0.74989261  0.39462607  0.68924247  1
  P  P13  1  0.75007522  0.10629479  0.18861502  1
  P  P14  1  0.24995111  0.89390488  0.81107274  1
  P  P15  1  0.25010903  0.60543318  0.31127455  1
  O  O16  1  0.05270818  0.58849122  0.37241556  1
  O  O17  1  0.55239233  0.41121413  0.62816334  1
  O  O18  1  0.94773278  0.08911261  0.12763505  1
  O  O19  1  0.44748106  0.91079597  0.87205623  1
  O  O20  1  0.94745201  0.41162253  0.62826568  1
  O  O21  1  0.44743607  0.58897198  0.37253092  1
  O  O22  1  0.05228342  0.91122464  0.87199638  1
  O  O23  1  0.55261477  0.08943533  0.12755313  1
  O  O24  1  0.25001711  0.33198365  0.48586614  1
  O  O25  1  0.75001448  0.66737076  0.51506419  1
  O  O26  1  0.75007849  0.83305964  0.01443540  1
  O  O27  1  0.25001046  0.16709598  0.98508109  1
  O  O28  1  0.75073473  0.14051605  0.95484411  1
  O  O29  1  0.24923105  0.85981402  0.04498557  1
  O  O30  1  0.24953544  0.63948287  0.54588101  1
  O  O31  1  0.75045421  0.35985916  0.45501270  1
  O  O32  1  0.75033031  0.22748065  0.74991293  1
  O  O33  1  0.24962613  0.77219927  0.25026901  1
  O  O34  1  0.24961229  0.72655685  0.75037748  1
  O  O35  1  0.75037592  0.27341575  0.24949059  1
  O  O36  1  0.44430408  0.13190021  0.37866584  1
  O  O37  1  0.94345480  0.86918986  0.62172549  1
  O  O38  1  0.55556767  0.63421418  0.12176018  1
  O  O39  1  0.05672066  0.36640446  0.87727341  1
  O  O40  1  0.55572456  0.86862536  0.62155291  1
  O  O41  1  0.05651974  0.13136775  0.37849615  1
  O  O42  1  0.44420496  0.36564304  0.87754619  1
  O  O43  1  0.94339660  0.63325992  0.12206852  1
  O  O44  1  0.74983787  0.51133557  0.98327032  1
  O  O45  1  0.24990105  0.02233101  0.72591151  1
  O  O46  1  0.25044734  0.47697123  0.22603151  1
  O  O47  1  0.74960551  0.52339908  0.77436143  1
  O  O48  1  0.74984594  0.98863675  0.48248724  1
  O  O49  1  0.25016139  0.01024127  0.51725651  1
  O  O50  1  0.25007772  0.48929311  0.01589226  1
  O  O51  1  0.75014137  0.97793197  0.27378548  1
