# generated using pymatgen
data_Sr2Cu2O5
_symmetry_space_group_name_H-M   'P 1'
_cell_length_a   5.52897820
_cell_length_b   5.51834638
_cell_length_c   8.86035637
_cell_angle_alpha   108.14401742
_cell_angle_beta   108.18019536
_cell_angle_gamma   90.00000000
_symmetry_Int_Tables_number   1
_chemical_formula_structural   Sr2Cu2O5
_chemical_formula_sum   'Sr4 Cu4 O10'
_cell_volume   242.65304284
_cell_formula_units_Z   2
loop_
 _symmetry_equiv_pos_site_id
 _symmetry_equiv_pos_as_xyz
  1  'x, y, z'
loop_
 _atom_site_type_symbol
 _atom_site_label
 _atom_site_symmetry_multiplicity
 _atom_site_fract_x
 _atom_site_fract_y
 _atom_site_fract_z
 _atom_site_occupancy
  Sr  Sr0  1  0.61368771  0.11461647  0.21871407  1
  Sr  Sr1  1  0.39497364  0.88538353  0.78128593  1
  Sr  Sr2  1  0.11368771  0.60409760  0.21871407  1
  Sr  Sr3  1  0.89497364  0.39590240  0.78128593  1
  Cu  Cu4  1  0.00522548  0.00000000  0.00000000  1
  Cu  Cu5  1  0.50522548  0.50000000  0.00000000  1
  Cu  Cu6  1  0.22417518  0.19356997  0.50000000  1
  Cu  Cu7  1  0.72417518  0.80643003  0.50000000  1
  O  O8  1  0.24781390  0.24762858  0.99089501  1
  O  O9  1  0.25691889  0.75237142  0.00910499  1
  O  O10  1  0.74781390  0.24326644  0.99089501  1
  O  O11  1  0.75691889  0.75673356  0.00910499  1
  O  O12  1  0.14931110  0.17024850  0.27681000  1
  O  O13  1  0.87250110  0.82975150  0.72319000  1
  O  O14  1  0.64931110  0.60656150  0.27681000  1
  O  O15  1  0.37250110  0.39343850  0.72319000  1
  O  O16  1  0.89939301  0.11089501  0.50000000  1
  O  O17  1  0.39939301  0.88910499  0.50000000  1
