# generated using pymatgen
data_Mn2HO4
_symmetry_space_group_name_H-M   'P 1'
_cell_length_a   6.06539189
_cell_length_b   10.19174491
_cell_length_c   10.21248220
_cell_angle_alpha   90.01483798
_cell_angle_beta   90.04593211
_cell_angle_gamma   89.98279193
_symmetry_Int_Tables_number   1
_chemical_formula_structural   Mn2HO4
_chemical_formula_sum   'Mn16 H8 O32'
_cell_volume   631.30401373
_cell_formula_units_Z   8
loop_
 _symmetry_equiv_pos_site_id
 _symmetry_equiv_pos_as_xyz
  1  'x, y, z'
loop_
 _atom_site_type_symbol
 _atom_site_label
 _atom_site_symmetry_multiplicity
 _atom_site_fract_x
 _atom_site_fract_y
 _atom_site_fract_z
 _atom_site_occupancy
  Mn  Mn0  1  0.49843535  0.64819731  0.83425522  1
  Mn  Mn1  1  0.00640360  0.64743642  0.84125055  1
  Mn  Mn2  1  0.50610592  0.16042156  0.64710528  1
  Mn  Mn3  1  0.99764566  0.16726472  0.64807624  1
  Mn  Mn4  1  0.99697973  0.83390771  0.35162601  1
  Mn  Mn5  1  0.50458196  0.84090730  0.35248773  1
  Mn  Mn6  1  0.00486164  0.35239256  0.16056370  1
  Mn  Mn7  1  0.49619397  0.35077101  0.16567141  1
  Mn  Mn8  1  0.25169407  0.14853426  0.33441886  1
  Mn  Mn9  1  0.74338467  0.14754857  0.34113471  1
  Mn  Mn10  1  0.24536876  0.65837878  0.14764614  1
  Mn  Mn11  1  0.75327720  0.66560309  0.14802450  1
  Mn  Mn12  1  0.24760549  0.34067113  0.85332499  1
  Mn  Mn13  1  0.75483250  0.33408022  0.85273202  1
  Mn  Mn14  1  0.25388876  0.85215205  0.66603745  1
  Mn  Mn15  1  0.74618229  0.85277839  0.65918982  1
  H  H16  1  0.27150404  0.63496042  0.42177057  1
  H  H17  1  0.48020398  0.13083716  0.91675528  1
  H  H18  1  0.48056834  0.86232797  0.07680683  1
  H  H19  1  0.97541730  0.08194677  0.13292359  1
  H  H20  1  0.98097273  0.91984765  0.86671774  1
  H  H21  1  0.26882533  0.36571784  0.57764375  1
  H  H22  1  0.77228236  0.57872550  0.63491389  1
  H  H23  1  0.75259907  0.42285653  0.36283732  1
  O  O24  1  0.25221836  0.33428357  0.04420584  1
  O  O25  1  0.75106176  0.33446873  0.04462104  1
  O  O26  1  0.25061950  0.95608364  0.33453438  1
  O  O27  1  0.74892867  0.95902187  0.33766108  1
  O  O28  1  0.25215612  0.04472683  0.66419304  1
  O  O29  1  0.75114412  0.04272422  0.66192341  1
  O  O30  1  0.25068500  0.66236771  0.95901348  1
  O  O31  1  0.75280725  0.66596287  0.95612077  1
  O  O32  1  0.99942678  0.83513521  0.54400317  1
  O  O33  1  0.50080853  0.83810904  0.54110109  1
  O  O34  1  0.00301242  0.45990586  0.84097813  1
  O  O35  1  0.50074067  0.45598424  0.83696579  1
  O  O36  1  0.49850503  0.54256230  0.16373303  1
  O  O37  1  0.00135628  0.54024167  0.16265374  1
  O  O38  1  0.50186663  0.16293413  0.46005964  1
  O  O39  1  0.99688464  0.16730988  0.45583451  1
  O  O40  1  0.50346209  0.15969890  0.21050795  1
  O  O41  1  0.98370307  0.14958856  0.20048855  1
  O  O42  1  0.00557504  0.78891374  0.15994876  1
  O  O43  1  0.48751566  0.79876503  0.14806543  1
  O  O44  1  0.98919054  0.85124987  0.80020652  1
  O  O45  1  0.50612172  0.84041561  0.78947367  1
  O  O46  1  0.48913364  0.19894216  0.84987618  1
  O  O47  1  0.00688710  0.21044173  0.83994242  1
  O  O48  1  0.24581423  0.65954483  0.71113002  1
  O  O49  1  0.76395277  0.64802713  0.70086338  1
  O  O50  1  0.26219393  0.30008959  0.64740193  1
  O  O51  1  0.74590807  0.29069547  0.66012300  1
  O  O52  1  0.24587139  0.34119542  0.29031806  1
  O  O53  1  0.75459769  0.35217284  0.29833831  1
  O  O54  1  0.26333002  0.69989216  0.35174035  1
  O  O55  1  0.74466158  0.71039526  0.33996173  1
