# generated using pymatgen
data_Li9Mn7O16
_symmetry_space_group_name_H-M   'P 1'
_cell_length_a   2.87714799
_cell_length_b   10.69339514
_cell_length_c   9.75801977
_cell_angle_alpha   96.95286328
_cell_angle_beta   90.00000000
_cell_angle_gamma   90.00000000
_symmetry_Int_Tables_number   1
_chemical_formula_structural   Li9Mn7O16
_chemical_formula_sum   'Li9 Mn7 O16'
_cell_volume   298.01212885
_cell_formula_units_Z   1
loop_
 _symmetry_equiv_pos_site_id
 _symmetry_equiv_pos_as_xyz
  1  'x, y, z'
loop_
 _atom_site_type_symbol
 _atom_site_label
 _atom_site_symmetry_multiplicity
 _atom_site_fract_x
 _atom_site_fract_y
 _atom_site_fract_z
 _atom_site_occupancy
  Li  Li0  1  0.50000000  0.12127597  0.24729245  1
  Li  Li1  1  0.50000000  0.37872403  0.75270755  1
  Li  Li2  1  0.50000000  0.62686712  0.24281581  1
  Li  Li3  1  0.00000000  0.37926670  0.25299182  1
  Li  Li4  1  0.00000000  0.62927859  0.75561481  1
  Li  Li5  1  0.00000000  0.87072141  0.24438519  1
  Li  Li6  1  0.50000000  0.87313288  0.75718419  1
  Li  Li7  1  0.00000000  0.12073330  0.74700818  1
  Li  Li8  1  0.50000000  0.75000000  0.00000000  1
  Mn  Mn9  1  -0.00000000  0.98660597  0.99314991  1
  Mn  Mn10  1  0.00000000  0.51339403  0.00685009  1
  Mn  Mn11  1  0.00000000  0.25000000  0.50000000  1
  Mn  Mn12  1  0.00000000  0.75000000  0.50000000  1
  Mn  Mn13  1  0.50000000  0.50032335  0.50198637  1
  Mn  Mn14  1  0.50000000  0.99967665  0.49801363  1
  Mn  Mn15  1  0.50000000  0.25000000  0.00000000  1
  O  O16  1  0.50000000  0.94508937  0.11283687  1
  O  O17  1  0.50000000  0.19805297  0.61827273  1
  O  O18  1  0.50000000  0.44472854  0.11340731  1
  O  O19  1  0.00000000  0.18253678  0.10721502  1
  O  O20  1  0.00000000  0.44639033  0.61837831  1
  O  O21  1  0.00000000  0.66570327  0.11175567  1
  O  O22  1  0.50000000  0.69803679  0.61853641  1
  O  O23  1  -0.00000000  0.94807294  0.61419264  1
  O  O24  1  0.50000000  0.30194703  0.38172727  1
  O  O25  1  0.50000000  0.55491063  0.88716313  1
  O  O26  1  0.50000000  0.80196321  0.38146359  1
  O  O27  1  0.00000000  0.55192706  0.38580736  1
  O  O28  1  0.00000000  0.83429673  0.88824433  1
  O  O29  1  0.00000000  0.05360967  0.38162169  1
  O  O30  1  0.50000000  0.05527146  0.88659269  1
  O  O31  1  -0.00000000  0.31746322  0.89278498  1
