# generated using pymatgen
data_YZn2
_symmetry_space_group_name_H-M   'P 1'
_cell_length_a   5.52927564
_cell_length_b   5.52927564
_cell_length_c   8.68538339
_cell_angle_alpha   90.00000000
_cell_angle_beta   90.00000000
_cell_angle_gamma   120.01196997
_symmetry_Int_Tables_number   1
_chemical_formula_structural   YZn2
_chemical_formula_sum   'Y4 Zn8'
_cell_volume   229.93427314
_cell_formula_units_Z   4
loop_
 _symmetry_equiv_pos_site_id
 _symmetry_equiv_pos_as_xyz
  1  'x, y, z'
loop_
 _atom_site_type_symbol
 _atom_site_label
 _atom_site_symmetry_multiplicity
 _atom_site_fract_x
 _atom_site_fract_y
 _atom_site_fract_z
 _atom_site_occupancy
  Y  Y0  1  0.66668503  0.33331497  0.55860982  1
  Y  Y1  1  0.33331497  0.66668503  0.44139018  1
  Y  Y2  1  0.33331497  0.66668503  0.05860982  1
  Y  Y3  1  0.66668503  0.33331497  0.94139018  1
  Zn  Zn4  1  0.00000000  -0.00000000  0.50000000  1
  Zn  Zn5  1  0.00000000  -0.00000000  -0.00000000  1
  Zn  Zn6  1  0.16969980  0.33937233  0.75000000  1
  Zn  Zn7  1  0.16967713  0.83032287  0.75000000  1
  Zn  Zn8  1  0.66062767  0.83030020  0.75000000  1
  Zn  Zn9  1  0.83030020  0.66062767  0.25000000  1
  Zn  Zn10  1  0.83032287  0.16967713  0.25000000  1
  Zn  Zn11  1  0.33937233  0.16969980  0.25000000  1
