# generated using pymatgen
data_Li9Mn7O16
_symmetry_space_group_name_H-M   'P 1'
_cell_length_a   2.87539326
_cell_length_b   10.69247518
_cell_length_c   10.54547484
_cell_angle_alpha   66.70429248
_cell_angle_beta   90.00000000
_cell_angle_gamma   90.00000000
_symmetry_Int_Tables_number   1
_chemical_formula_structural   Li9Mn7O16
_chemical_formula_sum   'Li9 Mn7 O16'
_cell_volume   297.78955421
_cell_formula_units_Z   1
loop_
 _symmetry_equiv_pos_site_id
 _symmetry_equiv_pos_as_xyz
  1  'x, y, z'
loop_
 _atom_site_type_symbol
 _atom_site_label
 _atom_site_symmetry_multiplicity
 _atom_site_fract_x
 _atom_site_fract_y
 _atom_site_fract_z
 _atom_site_occupancy
  Li  Li0  1  0.50000000  0.99683601  0.24665654  1
  Li  Li1  1  0.50000000  0.99463225  0.75872252  1
  Li  Li2  1  0.00000000  0.25381453  0.25373529  1
  Li  Li3  1  0.00000000  0.24617736  0.74626791  1
  Li  Li4  1  0.50000000  0.50535528  0.24128426  1
  Li  Li5  1  0.50000000  0.50315667  0.75334394  1
  Li  Li6  1  0.00000000  0.74839621  0.24316163  1
  Li  Li7  1  -0.00000000  0.75161353  0.75683538  1
  Li  Li8  1  0.50000000  0.75000949  -0.00001000  1
  Mn  Mn9  1  0.00000000  0.99047631  0.99375120  1
  Mn  Mn10  1  0.00000000  0.50957269  0.00627955  1
  Mn  Mn11  1  0.00000000  0.00017162  0.50140837  1
  Mn  Mn12  1  0.50000000  0.24999219  0.00000041  1
  Mn  Mn13  1  0.50000000  0.24999833  0.50000134  1
  Mn  Mn14  1  -0.00000000  0.49982803  0.49858197  1
  Mn  Mn15  1  0.50000000  0.74999876  0.50000446  1
  O  O16  1  0.50000000  0.88784304  0.11322877  1
  O  O17  1  0.50000000  0.88964807  0.61953315  1
  O  O18  1  0.00000000  0.12707145  0.10533739  1
  O  O19  1  0.00000000  0.14035671  0.61582567  1
  O  O20  1  0.50000000  0.38738854  0.11382441  1
  O  O21  1  0.50000000  0.39060417  0.61923792  1
  O  O22  1  0.00000000  0.60959195  0.11070384  1
  O  O23  1  0.00000000  0.63983563  0.61748867  1
  O  O24  1  0.50000000  0.10939310  0.38076065  1
  O  O25  1  0.50000000  0.11260249  0.88618107  1
  O  O26  1  -0.00000000  0.35964076  0.38417308  1
  O  O27  1  -0.00000000  0.37292236  0.89465559  1
  O  O28  1  0.50000000  0.61034919  0.38046478  1
  O  O29  1  0.50000000  0.61215819  0.88676113  1
  O  O30  1  0.00000000  0.86016185  0.38250990  1
  O  O31  1  -0.00000000  0.89040323  0.88928919  1
