# generated using pymatgen
data_Yb4CdS7
_symmetry_space_group_name_H-M   'P 1'
_cell_length_a   4.01410668
_cell_length_b   7.40352895
_cell_length_c   11.22723229
_cell_angle_alpha   116.83485658
_cell_angle_beta   89.99999866
_cell_angle_gamma   74.27061975
_symmetry_Int_Tables_number   1
_chemical_formula_structural   Yb4CdS7
_chemical_formula_sum   'Yb4 Cd1 S7'
_cell_volume   283.65321206
_cell_formula_units_Z   1
loop_
 _symmetry_equiv_pos_site_id
 _symmetry_equiv_pos_as_xyz
  1  'x, y, z'
loop_
 _atom_site_type_symbol
 _atom_site_label
 _atom_site_symmetry_multiplicity
 _atom_site_fract_x
 _atom_site_fract_y
 _atom_site_fract_z
 _atom_site_occupancy
  Yb  Yb0  1  0.67742276  0.64515448  0.23521893  1
  Yb  Yb1  1  0.31665485  0.36669031  0.76091664  1
  Yb  Yb2  1  0.99504550  0.00990899  0.99940977  1
  Yb  Yb3  1  0.08630051  0.82739897  0.59682359  1
  Cd  Cd4  1  0.92645960  0.14708081  0.39558404  1
  S  S5  1  0.71068949  0.57862102  0.64664362  1
  S  S6  1  0.29829586  0.40340828  0.35854819  1
  S  S7  1  0.34128453  0.31743093  0.15126197  1
  S  S8  1  0.65149089  0.69701822  0.85943889  1
  S  S9  1  0.08531289  0.82937421  0.16468283  1
  S  S10  1  0.90953379  0.18093242  0.83213834  1
  S  S11  1  0.50150933  0.99698134  0.49933319  1
