# generated using pymatgen
data_Li9Mn7O16
_symmetry_space_group_name_H-M   'P 1'
_cell_length_a   2.87089518
_cell_length_b   17.74477689
_cell_length_c   5.84511645
_cell_angle_alpha   90.74263903
_cell_angle_beta   90.00000000
_cell_angle_gamma   90.00000000
_symmetry_Int_Tables_number   1
_chemical_formula_structural   Li9Mn7O16
_chemical_formula_sum   'Li9 Mn7 O16'
_cell_volume   297.74506056
_cell_formula_units_Z   1
loop_
 _symmetry_equiv_pos_site_id
 _symmetry_equiv_pos_as_xyz
  1  'x, y, z'
loop_
 _atom_site_type_symbol
 _atom_site_label
 _atom_site_symmetry_multiplicity
 _atom_site_fract_x
 _atom_site_fract_y
 _atom_site_fract_z
 _atom_site_occupancy
  Li  Li0  1  0.50000000  0.11827337  0.25066886  1
  Li  Li1  1  0.50000000  0.37500000  0.75000000  1
  Li  Li2  1  0.50000000  0.63172663  0.24933114  1
  Li  Li3  1  -0.00000000  0.25092737  0.99981537  1
  Li  Li4  1  0.00000000  0.49907263  0.50018463  1
  Li  Li5  1  0.00000000  0.76065784  0.00557380  1
  Li  Li6  1  0.50000000  0.87500000  0.75000000  1
  Li  Li7  1  0.00000000  0.98934216  0.49442620  1
  Li  Li8  1  0.50000000  0.87500000  0.25000000  1
  Mn  Mn9  1  -0.00000000  0.98888407  0.00474108  1
  Mn  Mn10  1  0.00000000  0.76111593  0.49525892  1
  Mn  Mn11  1  0.00000000  0.24684000  0.50180135  1
  Mn  Mn12  1  -0.00000000  0.50316000  0.99819865  1
  Mn  Mn13  1  0.50000000  0.37500000  0.25000000  1
  Mn  Mn14  1  0.50000000  0.63205110  0.74758381  1
  Mn  Mn15  1  0.50000000  0.11794890  0.75241619  1
  O  O16  1  0.50000000  0.99910562  0.22524050  1
  O  O17  1  0.50000000  0.24978782  0.73120945  1
  O  O18  1  0.50000000  0.50433076  0.22771879  1
  O  O19  1  -0.00000000  0.11387388  0.98137765  1
  O  O20  1  -0.00000000  0.37736044  0.47819413  1
  O  O21  1  -0.00000000  0.62982481  0.97527777  1
  O  O22  1  0.50000000  0.75520551  0.72359024  1
  O  O23  1  0.00000000  0.86259643  0.49725103  1
  O  O24  1  0.50000000  0.24566924  0.27228121  1
  O  O25  1  0.50000000  0.50021218  0.76879055  1
  O  O26  1  0.50000000  0.75089438  0.27475950  1
  O  O27  1  -0.00000000  0.37263956  0.02180587  1
  O  O28  1  -0.00000000  0.63612612  0.51862235  1
  O  O29  1  -0.00000000  0.88740357  0.00274897  1
  O  O30  1  0.50000000  0.99479449  0.77640976  1
  O  O31  1  0.00000000  0.12017519  0.52472223  1
