# generated using pymatgen
data_ErSnPd
_symmetry_space_group_name_H-M   'P 1'
_cell_length_a   7.05123547
_cell_length_b   4.65679173
_cell_length_c   8.00551661
_cell_angle_alpha   90.00000000
_cell_angle_beta   90.00000000
_cell_angle_gamma   90.00000000
_symmetry_Int_Tables_number   1
_chemical_formula_structural   ErSnPd
_chemical_formula_sum   'Er4 Sn4 Pd4'
_cell_volume   262.87022433
_cell_formula_units_Z   4
loop_
 _symmetry_equiv_pos_site_id
 _symmetry_equiv_pos_as_xyz
  1  'x, y, z'
loop_
 _atom_site_type_symbol
 _atom_site_label
 _atom_site_symmetry_multiplicity
 _atom_site_fract_x
 _atom_site_fract_y
 _atom_site_fract_z
 _atom_site_occupancy
  Er  Er0  1  0.50593457  0.25000000  0.78180098  1
  Er  Er1  1  0.00593457  0.25000000  0.71819902  1
  Er  Er2  1  0.49406543  0.75000000  0.21819902  1
  Er  Er3  1  0.99406543  0.75000000  0.28180098  1
  Sn  Sn4  1  0.70409718  0.25000000  0.41511816  1
  Sn  Sn5  1  0.20409718  0.25000000  0.08488184  1
  Sn  Sn6  1  0.29590282  0.75000000  0.58488184  1
  Sn  Sn7  1  0.79590282  0.75000000  0.91511816  1
  Pd  Pd8  1  0.77798349  0.25000000  0.08284560  1
  Pd  Pd9  1  0.27798349  0.25000000  0.41715440  1
  Pd  Pd10  1  0.22201651  0.75000000  0.91715440  1
  Pd  Pd11  1  0.72201651  0.75000000  0.58284560  1
