# generated using pymatgen
data_Li9Mn7O16
_symmetry_space_group_name_H-M   'P 1'
_cell_length_a   2.88190077
_cell_length_b   15.37675455
_cell_length_c   6.95427187
_cell_angle_alpha   95.05311155
_cell_angle_beta   78.04148175
_cell_angle_gamma   89.99999860
_symmetry_Int_Tables_number   1
_chemical_formula_structural   Li9Mn7O16
_chemical_formula_sum   'Li9 Mn7 O16'
_cell_volume   300.26113356
_cell_formula_units_Z   1
loop_
 _symmetry_equiv_pos_site_id
 _symmetry_equiv_pos_as_xyz
  1  'x, y, z'
loop_
 _atom_site_type_symbol
 _atom_site_label
 _atom_site_symmetry_multiplicity
 _atom_site_fract_x
 _atom_site_fract_y
 _atom_site_fract_z
 _atom_site_occupancy
  Li  Li0  1  0.31134473  0.06447316  0.37731054  1
  Li  Li1  1  0.93865527  0.18552684  0.12268946  1
  Li  Li2  1  0.56949710  0.30798453  0.86100581  1
  Li  Li3  1  0.68050290  0.94201547  0.63899419  1
  Li  Li4  1  0.06431734  0.81273784  0.87136532  1
  Li  Li5  1  0.43759037  0.68740888  0.12481926  1
  Li  Li6  1  0.18568266  0.43726216  0.62863468  1
  Li  Li7  1  0.81240963  0.56259112  0.37518074  1
  Li  Li8  1  0.62500000  0.12500000  0.75000000  1
  Mn  Mn9  1  0.01007750  0.00489500  0.97984500  1
  Mn  Mn10  1  0.23992250  0.24510500  0.52015500  1
  Mn  Mn11  1  0.87127812  0.37143749  0.25744376  1
  Mn  Mn12  1  0.49817381  0.49903604  0.00365238  1
  Mn  Mn13  1  0.12500000  0.62500000  0.75000000  1
  Mn  Mn14  1  0.75182619  0.75096396  0.49634762  1
  Mn  Mn15  1  0.37872188  0.87856251  0.24255624  1
  O  O16  1  0.47110556  0.08550546  0.05778887  1
  O  O17  1  0.11058916  0.22260197  0.77882168  1
  O  O18  1  0.71906090  0.33184856  0.56187819  1
  O  O19  1  0.85647573  0.96611259  0.28704855  1
  O  O20  1  0.22059590  0.83548423  0.55880821  1
  O  O21  1  0.59264717  0.70980048  0.81470565  1
  O  O22  1  0.34150893  0.45674468  0.31698213  1
  O  O23  1  0.96691388  0.58425270  0.06617223  1
  O  O24  1  0.13941084  0.02739803  0.72117832  1
  O  O25  1  0.77889444  0.16449454  0.44221113  1
  O  O26  1  0.39352427  0.28388741  0.21295145  1
  O  O27  1  0.53093910  0.91815144  0.93812181  1
  O  O28  1  0.90849107  0.79325532  0.18301787  1
  O  O29  1  0.28308612  0.66574730  0.43382777  1
  O  O30  1  0.02940410  0.41451577  0.94119179  1
  O  O31  1  0.65735283  0.54019952  0.68529435  1
