# generated using pymatgen
data_Th2CuTe6
_symmetry_space_group_name_H-M   'P 1'
_cell_length_a   4.39128567
_cell_length_b   6.30844552
_cell_length_c   10.52249419
_cell_angle_alpha   98.67295744
_cell_angle_beta   90.00000000
_cell_angle_gamma   90.00000000
_symmetry_Int_Tables_number   1
_chemical_formula_structural   Th2CuTe6
_chemical_formula_sum   'Th2 Cu1 Te6'
_cell_volume   288.16288720
_cell_formula_units_Z   1
loop_
 _symmetry_equiv_pos_site_id
 _symmetry_equiv_pos_as_xyz
  1  'x, y, z'
loop_
 _atom_site_type_symbol
 _atom_site_label
 _atom_site_symmetry_multiplicity
 _atom_site_fract_x
 _atom_site_fract_y
 _atom_site_fract_z
 _atom_site_occupancy
  Th  Th0  1  0.25000000  0.70346964  0.33504709  1
  Th  Th1  1  0.75000000  0.29004455  0.66498966  1
  Cu  Cu2  1  0.75000000  0.60038880  0.96544732  1
  Te  Te3  1  0.75000000  0.76456728  0.55856764  1
  Te  Te4  1  0.25000000  0.23311672  0.44162356  1
  Te  Te5  1  0.75000000  0.90512882  0.16321910  1
  Te  Te6  1  0.25000000  0.09851759  0.83576727  1
  Te  Te7  1  0.75000000  0.40875492  0.16775416  1
  Te  Te8  1  0.25000000  0.60021167  0.83388420  1
