# generated using pymatgen
data_Li9Mn7O16
_symmetry_space_group_name_H-M   'P 1'
_cell_length_a   6.50617022
_cell_length_b   7.77504601
_cell_length_c   6.91911568
_cell_angle_alpha   92.49126693
_cell_angle_beta   71.37014065
_cell_angle_gamma   65.86922361
_symmetry_Int_Tables_number   1
_chemical_formula_structural   Li9Mn7O16
_chemical_formula_sum   'Li9 Mn7 O16'
_cell_volume   296.49121460
_cell_formula_units_Z   1
loop_
 _symmetry_equiv_pos_site_id
 _symmetry_equiv_pos_as_xyz
  1  'x, y, z'
loop_
 _atom_site_type_symbol
 _atom_site_label
 _atom_site_symmetry_multiplicity
 _atom_site_fract_x
 _atom_site_fract_y
 _atom_site_fract_z
 _atom_site_occupancy
  Li  Li0  1  0.87126812  0.19001869  0.43867254  1
  Li  Li1  1  0.62062812  0.06486361  0.81497473  1
  Li  Li2  1  0.37851521  0.94677683  0.19080422  1
  Li  Li3  1  0.12294115  0.81124829  0.55819862  1
  Li  Li4  1  0.62148479  0.55322317  0.30919578  1
  Li  Li5  1  0.37937188  0.43513639  0.68502527  1
  Li  Li6  1  0.12873188  0.30998131  0.06132746  1
  Li  Li7  1  0.87705885  0.68875171  0.94180138  1
  Li  Li8  1  0.50000000  0.25000000  0.25000000  1
  Mn  Mn9  1  0.99475044  0.00203481  0.00251869  1
  Mn  Mn10  1  0.00524956  0.49796519  0.49748131  1
  Mn  Mn11  1  0.24957645  0.12855391  0.61610928  1
  Mn  Mn12  1  0.75042355  0.37144609  0.88389072  1
  Mn  Mn13  1  0.25235353  0.62088414  0.13248840  1
  Mn  Mn14  1  0.50000000  0.75000000  0.75000000  1
  Mn  Mn15  1  0.74764647  0.87911586  0.36751160  1
  O  O16  1  0.82112518  0.27321291  0.13236132  1
  O  O17  1  0.55590144  0.14028295  0.53345665  1
  O  O18  1  0.30660028  0.02117279  0.89270813  1
  O  O19  1  0.05780231  0.89187326  0.28105347  1
  O  O20  1  0.56004220  0.63829730  0.03320235  1
  O  O21  1  0.29428655  0.53406930  0.40352305  1
  O  O22  1  0.05768746  0.39025246  0.78122817  1
  O  O23  1  0.80391426  0.76976070  0.64752836  1
  O  O24  1  0.94231254  0.10974754  0.71877183  1
  O  O25  1  0.70571345  0.96593070  0.09647695  1
  O  O26  1  0.43995780  0.86170270  0.46679765  1
  O  O27  1  0.19608574  0.73023930  0.85247164  1
  O  O28  1  0.69339972  0.47882721  0.60729187  1
  O  O29  1  0.44409856  0.35971705  0.96654335  1
  O  O30  1  0.17887482  0.22678709  0.36763868  1
  O  O31  1  0.94219769  0.60812674  0.21894653  1
