# generated using pymatgen
data_Y7Ta3O18
_symmetry_space_group_name_H-M   'P 1'
_cell_length_a   18.82412580
_cell_length_b   6.44868437
_cell_length_c   6.43531455
_cell_angle_alpha   109.68207162
_cell_angle_beta   90.07381444
_cell_angle_gamma   89.76103789
_symmetry_Int_Tables_number   1
_chemical_formula_structural   Y7Ta3O18
_chemical_formula_sum   'Y14 Ta6 O36'
_cell_volume   735.54171334
_cell_formula_units_Z   2
loop_
 _symmetry_equiv_pos_site_id
 _symmetry_equiv_pos_as_xyz
  1  'x, y, z'
loop_
 _atom_site_type_symbol
 _atom_site_label
 _atom_site_symmetry_multiplicity
 _atom_site_fract_x
 _atom_site_fract_y
 _atom_site_fract_z
 _atom_site_occupancy
  Y  Y0  1  0.00048295  0.47084370  0.00173490  1
  Y  Y1  1  0.10155380  0.50271409  0.49937413  1
  Y  Y2  1  0.19990518  0.53699933  0.99844418  1
  Y  Y3  1  0.19958807  0.00165996  0.46357129  1
  Y  Y4  1  0.30000000  0.50000000  0.50000000  1
  Y  Y5  1  0.40009482  0.46300067  0.00155582  1
  Y  Y6  1  0.40041193  0.99834004  0.53642871  1
  Y  Y7  1  0.49844620  0.49728591  0.50062587  1
  Y  Y8  1  0.59951705  0.52915630  0.99826510  1
  Y  Y9  1  0.60062466  0.00182663  0.46859641  1
  Y  Y10  1  0.69410994  0.50303112  0.49886240  1
  Y  Y11  1  0.80000000  -0.00000000  0.50000000  1
  Y  Y12  1  0.90589006  0.49696888  0.50113760  1
  Y  Y13  1  0.99937534  0.99817337  0.53140359  1
  Ta  Ta14  1  0.09600636  0.00233370  0.99940302  1
  Ta  Ta15  1  0.30000000  -0.00000000  0.00000000  1
  Ta  Ta16  1  0.50399364  0.99766630  0.00059698  1
  Ta  Ta17  1  0.71125653  0.99773739  0.00323787  1
  Ta  Ta18  1  0.80000000  0.50000000  0.00000000  1
  Ta  Ta19  1  0.88874347  0.00226261  0.99676213  1
  O  O20  1  0.99891110  0.36281180  0.63695109  1
  O  O21  1  0.08643808  0.07461773  0.32240562  1
  O  O22  1  0.11176312  0.32165531  0.06734840  1
  O  O23  1  0.08775815  0.67736194  0.92093012  1
  O  O24  1  0.11018911  0.93461518  0.67748298  1
  O  O25  1  0.20074403  0.37139159  0.62737536  1
  O  O26  1  0.19923739  0.63869224  0.36230014  1
  O  O27  1  0.19876816  0.93759766  0.06437047  1
  O  O28  1  0.31288272  0.07203606  0.32294848  1
  O  O29  1  0.28743477  0.32314051  0.07280361  1
  O  O30  1  0.31256523  0.67685949  0.92719639  1
  O  O31  1  0.28711728  0.92796394  0.67705152  1
  O  O32  1  0.40123184  0.06240234  0.93562953  1
  O  O33  1  0.40076261  0.36130776  0.63769986  1
  O  O34  1  0.39925597  0.62860841  0.37262464  1
  O  O35  1  0.48981089  0.06538482  0.32251702  1
  O  O36  1  0.51224185  0.32263806  0.07906988  1
  O  O37  1  0.48823688  0.67834469  0.93265160  1
  O  O38  1  0.51356192  0.92538227  0.67759438  1
  O  O39  1  0.59531995  0.36952828  0.62979113  1
  O  O40  1  0.60108890  0.63718820  0.36304891  1
  O  O41  1  0.60603253  0.93854049  0.05506907  1
  O  O42  1  0.70546192  0.11455081  0.34668612  1
  O  O43  1  0.69406280  0.32314534  0.06292071  1
  O  O44  1  0.70741033  0.63929747  0.90868555  1
  O  O45  1  0.69435636  0.91009651  0.67828668  1
  O  O46  1  0.80009326  0.13251243  0.90670330  1
  O  O47  1  0.80847680  0.38833763  0.67008706  1
  O  O48  1  0.79152320  0.61166237  0.32991294  1
  O  O49  1  0.79990674  0.86748757  0.09329670  1
  O  O50  1  0.90564364  0.08990349  0.32171332  1
  O  O51  1  0.89258967  0.36070253  0.09131445  1
  O  O52  1  0.90593720  0.67685466  0.93707929  1
  O  O53  1  0.89453808  0.88544919  0.65331388  1
  O  O54  1  0.99396747  0.06145951  0.94493093  1
  O  O55  1  0.00468005  0.63047172  0.37020887  1
