# generated using pymatgen
data_Li9Mn7O16
_symmetry_space_group_name_H-M   'P 1'
_cell_length_a   2.87992923
_cell_length_b   10.55112122
_cell_length_c   10.71501941
_cell_angle_alpha   111.45613555
_cell_angle_beta   90.00000006
_cell_angle_gamma   82.15607423
_symmetry_Int_Tables_number   1
_chemical_formula_structural   Li9Mn7O16
_chemical_formula_sum   'Li9 Mn7 O16'
_cell_volume   299.75191878
_cell_formula_units_Z   1
loop_
 _symmetry_equiv_pos_site_id
 _symmetry_equiv_pos_as_xyz
  1  'x, y, z'
loop_
 _atom_site_type_symbol
 _atom_site_label
 _atom_site_symmetry_multiplicity
 _atom_site_fract_x
 _atom_site_fract_y
 _atom_site_fract_z
 _atom_site_occupancy
  Li  Li0  1  0.37655589  0.24688822  0.18233813  1
  Li  Li1  1  0.12211112  0.75577775  0.56866279  1
  Li  Li2  1  0.87788888  0.24422225  0.93133721  1
  Li  Li3  1  0.87292404  0.25415192  0.44385102  1
  Li  Li4  1  0.62087695  0.75824611  0.81333163  1
  Li  Li5  1  0.37912305  0.24175389  0.68666837  1
  Li  Li6  1  0.12707596  0.74584808  0.05614898  1
  Li  Li7  1  0.62344411  0.75311178  0.31766187  1
  Li  Li8  1  0.50000000  0.00000000  0.75000000  1
  Mn  Mn9  1  0.00338235  0.99323529  0.98547184  1
  Mn  Mn10  1  0.99661765  0.00676471  0.51452816  1
  Mn  Mn11  1  0.75003797  0.49992407  0.37504719  1
  Mn  Mn12  1  0.24996203  0.50007593  0.12495281  1
  Mn  Mn13  1  0.75190628  0.49618743  0.87317621  1
  Mn  Mn14  1  0.50000000  0.00000000  0.25000000  1
  Mn  Mn15  1  0.24809372  0.50381257  0.62682379  1
  O  O16  1  0.44377369  0.11245263  0.97330999  1
  O  O17  1  0.19168367  0.61663266  0.35205601  1
  O  O18  1  0.94427707  0.11144587  0.69321866  1
  O  O19  1  0.94695892  0.10608215  0.20771649  1
  O  O20  1  0.68987837  0.62024326  0.60211846  1
  O  O21  1  0.44329493  0.11341015  0.47325577  1
  O  O22  1  0.19305908  0.61388184  0.85272878  1
  O  O23  1  0.69077798  0.61844403  0.10282640  1
  O  O24  1  0.30922202  0.38155597  0.39717360  1
  O  O25  1  0.05572293  0.88855413  0.80678134  1
  O  O26  1  0.80831633  0.38336734  0.14794399  1
  O  O27  1  0.80694092  0.38611816  0.64727122  1
  O  O28  1  0.55670507  0.88658985  0.02674423  1
  O  O29  1  0.31012163  0.37975674  0.89788154  1
  O  O30  1  0.05304108  0.89391785  0.29228351  1
  O  O31  1  0.55622631  0.88754737  0.52669001  1
