# generated using pymatgen
data_V3Cu2P6WO24
_symmetry_space_group_name_H-M   'P 1'
_cell_length_a   8.70017825
_cell_length_b   8.68728313
_cell_length_c   8.68728318
_cell_angle_alpha   59.99999393
_cell_angle_beta   60.04901760
_cell_angle_gamma   60.04901675
_symmetry_Int_Tables_number   1
_chemical_formula_structural   V3Cu2P6WO24
_chemical_formula_sum   'V3 Cu2 P6 W1 O24'
_cell_volume   464.62487368
_cell_formula_units_Z   1
loop_
 _symmetry_equiv_pos_site_id
 _symmetry_equiv_pos_as_xyz
  1  'x, y, z'
loop_
 _atom_site_type_symbol
 _atom_site_label
 _atom_site_symmetry_multiplicity
 _atom_site_fract_x
 _atom_site_fract_y
 _atom_site_fract_z
 _atom_site_occupancy
  V  V0  1  0.07333862  0.64222013  0.64222013  1
  V  V1  1  0.42826970  0.85724377  0.85724377  1
  V  V2  1  0.92665158  0.35778314  0.35778314  1
  Cu  Cu3  1  0.01129452  0.99623549  0.99623549  1
  Cu  Cu4  1  0.49959782  0.50013373  0.50013373  1
  P  P5  1  0.24527166  0.25171138  0.54444335  1
  P  P6  1  0.24527166  0.95857461  0.25171138  1
  P  P7  1  0.24527166  0.54444335  0.95857461  1
  P  P8  1  0.75034614  0.46581665  0.03930544  1
  P  P9  1  0.75034614  0.03930544  0.74453177  1
  P  P10  1  0.75034614  0.74453177  0.46581665  1
  W  W11  1  0.57342967  0.14218978  0.14218978  1
  O  O12  1  0.07187236  0.12285967  0.30150183  1
  O  O13  1  0.07187236  0.50376614  0.12285967  1
  O  O14  1  0.07187236  0.30150183  0.50376614  1
  O  O15  1  0.24561215  0.08286866  0.73031218  1
  O  O16  1  0.42910832  0.19740245  0.37986353  1
  O  O17  1  0.25564584  0.41694601  0.55755516  1
  O  O18  1  0.24561215  0.94120800  0.08286866  1
  O  O19  1  0.25564584  0.76985199  0.41694601  1
  O  O20  1  0.57017125  0.62272026  0.00519437  1
  O  O21  1  0.25564584  0.55755516  0.76985199  1
  O  O22  1  0.75226134  0.27246440  0.06044031  1
  O  O23  1  0.57017125  0.00519437  0.80191412  1
  O  O24  1  0.42910832  0.99362670  0.19740245  1
  O  O25  1  0.24561215  0.73031218  0.94120800  1
  O  O26  1  0.74584451  0.44018255  0.23095702  1
  O  O27  1  0.42910832  0.37986353  0.99362670  1
  O  O28  1  0.74584451  0.23095702  0.58301592  1
  O  O29  1  0.75226134  0.06044031  0.91483395  1
  O  O30  1  0.74584451  0.58301592  0.44018255  1
  O  O31  1  0.57017125  0.80191412  0.62272026  1
  O  O32  1  0.75226134  0.91483395  0.27246440  1
  O  O33  1  0.92967445  0.69837214  0.49443728  1
  O  O34  1  0.92967445  0.49443728  0.87751612  1
  O  O35  1  0.92967445  0.87751612  0.69837214  1
