# generated using pymatgen
data_Y11Ta5O28
_symmetry_space_group_name_H-M   'P 1'
_cell_length_a   6.44460619
_cell_length_b   13.00181822
_cell_length_c   7.37462619
_cell_angle_alpha   106.47517026
_cell_angle_beta   90.00000000
_cell_angle_gamma   80.55985083
_symmetry_Int_Tables_number   1
_chemical_formula_structural   Y11Ta5O28
_chemical_formula_sum   'Y11 Ta5 O28'
_cell_volume   583.82922708
_cell_formula_units_Z   1
loop_
 _symmetry_equiv_pos_site_id
 _symmetry_equiv_pos_as_xyz
  1  'x, y, z'
loop_
 _atom_site_type_symbol
 _atom_site_label
 _atom_site_symmetry_multiplicity
 _atom_site_fract_x
 _atom_site_fract_y
 _atom_site_fract_z
 _atom_site_occupancy
  Y  Y0  1  0.03005919  0.50463281  0.25231641  1
  Y  Y1  1  0.25000000  0.75000000  0.37500000  1
  Y  Y2  1  0.97203598  0.49794581  0.74897291  1
  Y  Y3  1  0.25000000  0.25000000  0.37500000  1
  Y  Y4  1  0.75000000  0.75000000  0.62106251  1
  Y  Y5  1  0.75000000  0.75000000  0.12893749  1
  Y  Y6  1  0.25000000  0.25000000  0.87500000  1
  Y  Y7  1  0.52796402  0.00205419  0.00102709  1
  Y  Y8  1  0.76954254  0.23199038  0.11599519  1
  Y  Y9  1  0.46994081  0.99536719  0.49768359  1
  Y  Y10  1  0.73045746  0.26800962  0.63400481  1
  Ta  Ta11  1  0.25000000  0.75000000  0.87500000  1
  Ta  Ta12  1  0.99158999  0.00517375  0.73832390  1
  Ta  Ta13  1  0.50841001  0.49482625  0.48315015  1
  Ta  Ta14  1  0.50841001  0.49482625  0.01167610  1
  Ta  Ta15  1  0.99158999  0.00517375  0.26684985  1
  O  O16  1  0.12801126  0.94220982  0.47110491  1
  O  O17  1  0.89104333  0.03621599  0.01810799  1
  O  O18  1  0.10662725  0.84147002  0.72209060  1
  O  O19  1  0.10662725  0.84147002  0.11937843  1
  O  O20  1  0.04545103  0.31868239  0.65934169  1
  O  O21  1  0.05284517  0.31949112  0.15974556  1
  O  O22  1  0.51859290  0.81905359  0.90952629  1
  O  O23  1  0.55006398  0.80333618  0.40166809  1
  O  O24  1  0.21686323  0.46085471  0.95766051  1
  O  O25  1  0.71935529  0.94658960  0.69675073  1
  O  O26  1  0.39337275  0.65852998  0.02790940  1
  O  O27  1  0.39337275  0.65852998  0.63062157  1
  O  O28  1  0.71935529  0.94658960  0.24983886  1
  O  O29  1  0.21686323  0.46085471  0.50319420  1
  O  O30  1  0.60895667  0.46378401  0.73189201  1
  O  O31  1  0.37198874  0.55779018  0.27889509  1
  O  O32  1  0.78064471  0.55341040  0.05324927  1
  O  O33  1  0.28313677  0.03914529  0.79233949  1
  O  O34  1  0.28313677  0.03914529  0.24680580  1
  O  O35  1  0.58754478  0.33604172  0.94709416  1
  O  O36  1  0.78064471  0.55341040  0.50016114  1
  O  O37  1  0.58754478  0.33604172  0.38894756  1
  O  O38  1  0.94993602  0.69666382  0.34833191  1
  O  O39  1  0.45454897  0.18131761  0.09065831  1
  O  O40  1  0.44715483  0.18050888  0.59025444  1
  O  O41  1  0.98140710  0.68094641  0.84047371  1
  O  O42  1  0.91245522  0.16395828  0.36105244  1
  O  O43  1  0.91245522  0.16395828  0.80290584  1
