# generated using pymatgen
data_YTiFe11N
_symmetry_space_group_name_H-M   'P 1'
_cell_length_a   4.80848995
_cell_length_b   6.52723372
_cell_length_c   6.52723372
_cell_angle_alpha   97.52738874
_cell_angle_beta   111.61330820
_cell_angle_gamma   68.38669180
_symmetry_Int_Tables_number   1
_chemical_formula_structural   YTiFe11N
_chemical_formula_sum   'Y1 Ti1 Fe11 N1'
_cell_volume   177.06711061
_cell_formula_units_Z   1
loop_
 _symmetry_equiv_pos_site_id
 _symmetry_equiv_pos_as_xyz
  1  'x, y, z'
loop_
 _atom_site_type_symbol
 _atom_site_label
 _atom_site_symmetry_multiplicity
 _atom_site_fract_x
 _atom_site_fract_y
 _atom_site_fract_z
 _atom_site_occupancy
  Y  Y0  1  0.00654750  0.99345250  0.00654750  1
  Ti  Ti1  1  0.63493492  0.36506508  0.63493492  1
  Fe  Fe2  1  0.72598827  0.77401173  0.22598827  1
  Fe  Fe3  1  0.27719268  0.22280732  0.77719268  1
  Fe  Fe4  1  0.49728314  0.77999693  0.77456320  1
  Fe  Fe5  1  0.49728314  0.22543680  0.22000307  1
  Fe  Fe6  1  0.49997143  0.99735516  0.49844438  1
  Fe  Fe7  1  0.00111779  0.99735516  0.49844438  1
  Fe  Fe8  1  0.49997143  0.50155562  0.00264484  1
  Fe  Fe9  1  0.00111779  0.50155562  0.00264484  1
  Fe  Fe10  1  0.35758043  0.64241957  0.35758043  1
  Fe  Fe11  1  0.99987951  0.35935744  0.35911645  1
  Fe  Fe12  1  0.99987951  0.64088355  0.64064256  1
  N  N13  1  0.50125247  0.99874753  0.00125247  1
