# generated using pymatgen
data_Li9Mn7O16
_symmetry_space_group_name_H-M   'P 1'
_cell_length_a   3.01792602
_cell_length_b   19.97573217
_cell_length_c   5.10426572
_cell_angle_alpha   91.82984729
_cell_angle_beta   77.22610395
_cell_angle_gamma   88.53459942
_symmetry_Int_Tables_number   1
_chemical_formula_structural   Li9Mn7O16
_chemical_formula_sum   'Li9 Mn7 O16'
_cell_volume   299.77511237
_cell_formula_units_Z   1
loop_
 _symmetry_equiv_pos_site_id
 _symmetry_equiv_pos_as_xyz
  1  'x, y, z'
loop_
 _atom_site_type_symbol
 _atom_site_label
 _atom_site_symmetry_multiplicity
 _atom_site_fract_x
 _atom_site_fract_y
 _atom_site_fract_z
 _atom_site_occupancy
  Li  Li0  1  0.66742688  0.06269971  0.57748885  1
  Li  Li1  1  0.06406794  0.18717088  0.68619515  1
  Li  Li2  1  0.43748419  0.31233696  0.81265550  1
  Li  Li3  1  0.81251581  0.43766304  0.93734450  1
  Li  Li4  1  0.18593206  0.56282912  0.06380485  1
  Li  Li5  1  0.58257312  0.68730029  0.17251115  1
  Li  Li6  1  0.89775033  0.82094803  0.32427838  1
  Li  Li7  1  0.35224967  0.92905197  0.42572162  1
  Li  Li8  1  0.62500000  0.87500000  0.87500000  1
  Mn  Mn9  1  0.00727758  0.99494405  0.00022234  1
  Mn  Mn10  1  0.24272242  0.75505595  0.74977766  1
  Mn  Mn11  1  0.39115624  0.12373038  0.11754414  1
  Mn  Mn12  1  0.75259066  0.24930035  0.24925054  1
  Mn  Mn13  1  0.12500000  0.37500000  0.37500000  1
  Mn  Mn14  1  0.49740934  0.50069965  0.50074946  1
  Mn  Mn15  1  0.85884376  0.62626962  0.63245586  1
  O  O16  1  0.39728142  0.03076268  0.24215702  1
  O  O17  1  0.70083205  0.15802977  0.39045778  1
  O  O18  1  0.06739886  0.28432493  0.51835838  1
  O  O19  1  0.44163880  0.40993287  0.64348050  1
  O  O20  1  0.81638227  0.53497321  0.76910182  1
  O  O21  1  0.18878594  0.66034308  0.89277672  1
  O  O22  1  0.64905672  0.77699323  0.98597877  1
  O  O23  1  0.95857505  0.91422890  0.15866960  1
  O  O24  1  0.06121406  0.08965692  0.85722328  1
  O  O25  1  0.43361873  0.21502779  0.98089818  1
  O  O26  1  0.80836120  0.34006713  0.10651950  1
  O  O27  1  0.18260114  0.46567607  0.23164162  1
  O  O28  1  0.54916695  0.59197023  0.35954222  1
  O  O29  1  0.85271858  0.71923732  0.50784298  1
  O  O30  1  0.29142595  0.83577210  0.59133040  1
  O  O31  1  0.60094428  0.97300677  0.76402123  1
