# generated using pymatgen
data_V3OF11
_symmetry_space_group_name_H-M   'P 1'
_cell_length_a   5.48183296
_cell_length_b   5.29499978
_cell_length_c   15.04101042
_cell_angle_alpha   90.25354196
_cell_angle_beta   100.34077143
_cell_angle_gamma   89.58568037
_symmetry_Int_Tables_number   1
_chemical_formula_structural   V3OF11
_chemical_formula_sum   'V6 O2 F22'
_cell_volume   429.48033901
_cell_formula_units_Z   2
loop_
 _symmetry_equiv_pos_site_id
 _symmetry_equiv_pos_as_xyz
  1  'x, y, z'
loop_
 _atom_site_type_symbol
 _atom_site_label
 _atom_site_symmetry_multiplicity
 _atom_site_fract_x
 _atom_site_fract_y
 _atom_site_fract_z
 _atom_site_occupancy
  V  V0  1  0.97036884  0.99475003  0.00690910  1
  V  V1  1  0.16614412  0.49971615  0.33341838  1
  V  V2  1  0.33375177  0.99987376  0.66709391  1
  V  V3  1  0.44554210  0.47789250  0.99553473  1
  V  V4  1  0.66602551  0.99957023  0.33347455  1
  V  V5  1  0.83382006  0.50009135  0.66707222  1
  O  O6  1  0.20336320  0.29501742  0.97496789  1
  O  O7  1  0.06325225  0.09209803  0.10960097  1
  F  F8  1  0.02616947  0.20057031  0.64308414  1
  F  F9  1  0.14126831  0.70152875  0.69042003  1
  F  F10  1  0.20883654  0.41705449  0.44871557  1
  F  F11  1  0.37689839  0.08629906  0.78231029  1
  F  F12  1  0.12527655  0.58311699  0.21802593  1
  F  F13  1  0.29212987  0.91699033  0.55149129  1
  F  F14  1  0.47335890  0.58932080  0.88731442  1
  F  F15  1  0.35849132  0.20030235  0.30967833  1
  F  F16  1  0.52724793  0.29855818  0.64344337  1
  F  F17  1  0.69234179  0.20682760  0.97344978  1
  F  F18  1  0.29484407  0.77721112  0.02471282  1
  F  F19  1  0.47328059  0.70131444  0.35672265  1
  F  F20  1  0.64116369  0.79929342  0.69070041  1
  F  F21  1  0.56412466  0.41981553  0.11095854  1
  F  F22  1  0.70794084  0.08423565  0.44877725  1
  F  F23  1  0.87668531  0.41762663  0.78239583  1
  F  F24  1  0.62454459  0.91738164  0.21775681  1
  F  F25  1  0.79153259  0.58278258  0.55162528  1
  F  F26  1  0.98642764  0.92939322  0.88863568  1
  F  F27  1  0.85959185  0.29816136  0.30988264  1
  F  F28  1  0.80189138  0.71392608  0.02489581  1
  F  F29  1  0.97368586  0.79928198  0.35693238  1
