# generated using pymatgen
data_VCu6AgMo5O24
_symmetry_space_group_name_H-M   'P 1'
_cell_length_a   6.84119701
_cell_length_b   8.60258423
_cell_length_c   9.93014322
_cell_angle_alpha   101.93497296
_cell_angle_beta   103.11217969
_cell_angle_gamma   101.18514762
_symmetry_Int_Tables_number   1
_chemical_formula_structural   VCu6AgMo5O24
_chemical_formula_sum   'V1 Cu6 Ag1 Mo5 O24'
_cell_volume   538.77876653
_cell_formula_units_Z   1
loop_
 _symmetry_equiv_pos_site_id
 _symmetry_equiv_pos_as_xyz
  1  'x, y, z'
loop_
 _atom_site_type_symbol
 _atom_site_label
 _atom_site_symmetry_multiplicity
 _atom_site_fract_x
 _atom_site_fract_y
 _atom_site_fract_z
 _atom_site_occupancy
  V  V0  1  0.10554558  0.09051121  0.33926286  1
  Cu  Cu1  1  0.04963650  0.20627416  0.01735014  1
  Cu  Cu2  1  0.25292681  0.26887592  0.76680348  1
  Cu  Cu3  1  0.36810379  0.94162786  0.59250382  1
  Cu  Cu4  1  0.61662002  0.04649675  0.39183686  1
  Cu  Cu5  1  0.75296341  0.73736875  0.23827758  1
  Cu  Cu6  1  0.95253489  0.80063419  0.99253440  1
  Ag  Ag7  1  0.99052543  0.48786492  0.48351014  1
  Mo  Mo8  1  0.23256022  0.67120999  0.25957581  1
  Mo  Mo9  1  0.40583335  0.72522987  0.88085824  1
  Mo  Mo10  1  0.59388229  0.27876720  0.11841893  1
  Mo  Mo11  1  0.76950406  0.33270795  0.74260326  1
  Mo  Mo12  1  0.89050083  0.90707952  0.65608394  1
  O  O13  1  0.00719499  0.75075924  0.17824717  1
  O  O14  1  0.23283377  0.78215065  0.98305955  1
  O  O15  1  0.14230148  0.02779866  0.65142913  1
  O  O16  1  0.22528167  0.67780494  0.43970004  1
  O  O17  1  0.14492860  0.28150667  0.43791160  1
  O  O18  1  0.31956458  0.50815975  0.79606172  1
  O  O19  1  0.08462451  0.09066001  0.16249622  1
  O  O20  1  0.18219296  0.46680398  0.16572131  1
  O  O21  1  0.33460927  0.22489640  0.99626548  1
  O  O22  1  0.40925777  0.83638028  0.74766179  1
  O  O23  1  0.32715121  0.01091185  0.41254934  1
  O  O24  1  0.49455254  0.76764391  0.26481315  1
  O  O25  1  0.50741993  0.23525182  0.73598595  1
  O  O26  1  0.66486447  0.98273921  0.57984139  1
  O  O27  1  0.58891556  0.16515535  0.24854126  1
  O  O28  1  0.66330858  0.77939602  0.00412180  1
  O  O29  1  0.82385781  0.53657237  0.83913523  1
  O  O30  1  0.90392518  0.89908852  0.83574133  1
  O  O31  1  0.68248663  0.49555783  0.20658987  1
  O  O32  1  0.85170227  0.70750663  0.55266391  1
  O  O33  1  0.77420303  0.32683485  0.56340880  1
  O  O34  1  0.86140070  0.97381727  0.35164404  1
  O  O35  1  0.76779165  0.22229505  0.01667847  1
  O  O36  1  0.98940366  0.24104045  0.81896198  1
