# generated using pymatgen
data_PrGaCo
_symmetry_space_group_name_H-M   'P 1'
_cell_length_a   4.36877852
_cell_length_b   7.11031555
_cell_length_c   7.51685042
_cell_angle_alpha   90.00000000
_cell_angle_beta   90.00000000
_cell_angle_gamma   90.00000000
_symmetry_Int_Tables_number   1
_chemical_formula_structural   PrGaCo
_chemical_formula_sum   'Pr4 Ga4 Co4'
_cell_volume   233.49888507
_cell_formula_units_Z   4
loop_
 _symmetry_equiv_pos_site_id
 _symmetry_equiv_pos_as_xyz
  1  'x, y, z'
loop_
 _atom_site_type_symbol
 _atom_site_label
 _atom_site_symmetry_multiplicity
 _atom_site_fract_x
 _atom_site_fract_y
 _atom_site_fract_z
 _atom_site_occupancy
  Pr  Pr0  1  0.75000000  0.47906527  0.68880308  1
  Pr  Pr1  1  0.75000000  0.97906527  0.81119692  1
  Pr  Pr2  1  0.25000000  0.52093473  0.31119692  1
  Pr  Pr3  1  0.25000000  0.02093473  0.18880308  1
  Ga  Ga4  1  0.75000000  0.33436915  0.07778893  1
  Ga  Ga5  1  0.75000000  0.83436915  0.42221107  1
  Ga  Ga6  1  0.25000000  0.66563085  0.92221107  1
  Ga  Ga7  1  0.25000000  0.16563085  0.57778893  1
  Co  Co8  1  0.75000000  0.69638821  0.10343431  1
  Co  Co9  1  0.75000000  0.19638821  0.39656569  1
  Co  Co10  1  0.25000000  0.30361179  0.89656569  1
  Co  Co11  1  0.25000000  0.80361179  0.60343431  1
