# generated using pymatgen
data_LiCr4P7O24
_symmetry_space_group_name_H-M   'P 1'
_cell_length_a   10.17480664
_cell_length_b   10.26224689
_cell_length_c   10.95263128
_cell_angle_alpha   112.81721302
_cell_angle_beta   108.98197708
_cell_angle_gamma   105.04178016
_symmetry_Int_Tables_number   1
_chemical_formula_structural   LiCr4P7O24
_chemical_formula_sum   'Li2 Cr8 P14 O48'
_cell_volume   893.93297112
_cell_formula_units_Z   2
loop_
 _symmetry_equiv_pos_site_id
 _symmetry_equiv_pos_as_xyz
  1  'x, y, z'
loop_
 _atom_site_type_symbol
 _atom_site_label
 _atom_site_symmetry_multiplicity
 _atom_site_fract_x
 _atom_site_fract_y
 _atom_site_fract_z
 _atom_site_occupancy
  Li  Li0  1  0.03455204  0.40540879  0.62910032  1
  Li  Li1  1  0.96544796  0.59459121  0.37089968  1
  Cr  Cr2  1  0.24606349  0.84748476  0.74702348  1
  Cr  Cr3  1  0.07279477  0.68731158  0.07576056  1
  Cr  Cr4  1  0.37468027  0.22230131  0.88576813  1
  Cr  Cr5  1  0.42779596  0.58255570  0.41181920  1
  Cr  Cr6  1  0.57220404  0.41744430  0.58818080  1
  Cr  Cr7  1  0.62531973  0.77769869  0.11423187  1
  Cr  Cr8  1  0.92720523  0.31268842  0.92423944  1
  Cr  Cr9  1  0.75393651  0.15251524  0.25297652  1
  P  P10  1  0.00303889  0.99483553  0.77400868  1
  P  P11  1  0.24150620  0.80613112  0.43339692  1
  P  P12  1  0.06230083  0.32109876  0.25862756  1
  P  P13  1  0.49557329  0.72150443  0.75843851  1
  P  P14  1  0.27064226  0.13039473  0.52284770  1
  P  P15  1  0.38393279  0.93860455  0.11859736  1
  P  P16  1  0.30464717  0.51123092  0.05269481  1
  P  P17  1  0.69535283  0.48876908  0.94730519  1
  P  P18  1  0.61606721  0.06139545  0.88140264  1
  P  P19  1  0.72935774  0.86960527  0.47715230  1
  P  P20  1  0.50442671  0.27849557  0.24156149  1
  P  P21  1  0.93769917  0.67890124  0.74137244  1
  P  P22  1  0.75849380  0.19386888  0.56660308  1
  P  P23  1  0.99696111  0.00516447  0.22599132  1
  O  O24  1  0.00935815  0.66579182  0.87675239  1
  O  O25  1  0.03674670  0.67154562  0.65927449  1
  O  O26  1  0.31268865  0.88938657  0.95466331  1
  O  O27  1  0.01280710  0.86878939  0.12826397  1
  O  O28  1  0.16353550  0.79848158  0.53217670  1
  O  O29  1  0.10571453  0.70292675  0.27228503  1
  O  O30  1  0.26826834  0.35292423  0.92205607  1
  O  O31  1  0.16876910  0.02038999  0.80237312  1
  O  O32  1  0.32563585  0.69191341  0.70067473  1
  O  O33  1  0.31317880  0.98600636  0.46968859  1
  O  O34  1  0.09005833  0.06158015  0.40134497  1
  O  O35  1  0.06451365  0.14788217  0.20451446  1
  O  O36  1  0.22704332  0.44237264  0.37124807  1
  O  O37  1  0.27646358  0.17717529  0.67232358  1
  O  O38  1  0.13735102  0.50951126  0.01154009  1
  O  O39  1  0.37655584  0.76592064  0.46309857  1
  O  O40  1  0.28951689  0.84120848  0.16116664  1
  O  O41  1  0.56759175  0.73107425  0.90610294  1
  O  O42  1  0.59602093  0.88713731  0.78109411  1
  O  O43  1  0.35841540  0.25672118  0.50412668  1
  O  O44  1  0.50746078  0.60080236  0.62700929  1
  O  O45  1  0.44312059  0.03987449  0.81933425  1
  O  O46  1  0.58805460  0.35747258  0.95280271  1
  O  O47  1  0.37216262  0.52978712  0.20761110  1
  O  O48  1  0.62783738  0.47021288  0.79238890  1
  O  O49  1  0.41194540  0.64252742  0.04719729  1
  O  O50  1  0.55687941  0.96012551  0.18066575  1
  O  O51  1  0.49253922  0.39919764  0.37299071  1
  O  O52  1  0.64158460  0.74327882  0.49587332  1
  O  O53  1  0.40397907  0.11286269  0.21890589  1
  O  O54  1  0.43240825  0.26892575  0.09389706  1
  O  O55  1  0.71048311  0.15879152  0.83883336  1
  O  O56  1  0.62344416  0.23407936  0.53690143  1
  O  O57  1  0.86264898  0.49048874  0.98845991  1
  O  O58  1  0.72353642  0.82282471  0.32767642  1
  O  O59  1  0.77295668  0.55762736  0.62875193  1
  O  O60  1  0.93548635  0.85211783  0.79548554  1
  O  O61  1  0.90994167  0.93841985  0.59865503  1
  O  O62  1  0.68682120  0.01399364  0.53031141  1
  O  O63  1  0.67436415  0.30808659  0.29932527  1
  O  O64  1  0.83123090  0.97961001  0.19762688  1
  O  O65  1  0.73173166  0.64707577  0.07794393  1
  O  O66  1  0.89428547  0.29707325  0.72771497  1
  O  O67  1  0.83646450  0.20151842  0.46782330  1
  O  O68  1  0.98719290  0.13121061  0.87173603  1
  O  O69  1  0.68731135  0.11061343  0.04533669  1
  O  O70  1  0.96325330  0.32845438  0.34072551  1
  O  O71  1  0.99064185  0.33420818  0.12324761  1
