# generated using pymatgen
data_NaLi5Fe2P2(CO7)2
_symmetry_space_group_name_H-M   'P 1'
_cell_length_a   8.56461781
_cell_length_b   6.50355382
_cell_length_c   10.24348073
_cell_angle_alpha   89.72229506
_cell_angle_beta   85.42359645
_cell_angle_gamma   89.37292856
_symmetry_Int_Tables_number   1
_chemical_formula_structural   NaLi5Fe2P2(CO7)2
_chemical_formula_sum   'Na2 Li10 Fe4 P4 C4 O28'
_cell_volume   568.70886746
_cell_formula_units_Z   2
loop_
 _symmetry_equiv_pos_site_id
 _symmetry_equiv_pos_as_xyz
  1  'x, y, z'
loop_
 _atom_site_type_symbol
 _atom_site_label
 _atom_site_symmetry_multiplicity
 _atom_site_fract_x
 _atom_site_fract_y
 _atom_site_fract_z
 _atom_site_occupancy
  Na  Na0  1  0.08674950  0.25086516  0.87849663  1
  Na  Na1  1  0.74086824  0.50452759  0.37376852  1
  Li  Li2  1  0.08357246  0.22142213  0.37840677  1
  Li  Li3  1  0.28165496  0.02563286  0.62030093  1
  Li  Li4  1  0.28529696  0.47014381  0.61895884  1
  Li  Li5  1  0.28115901  0.02592670  0.12706890  1
  Li  Li6  1  0.27413654  0.48567189  0.13197200  1
  Li  Li7  1  0.71778911  0.52818141  0.87401199  1
  Li  Li8  1  0.71596067  0.97156384  0.87616292  1
  Li  Li9  1  0.72341825  0.97816800  0.37160523  1
  Li  Li10  1  0.90791478  0.76106262  0.61745522  1
  Li  Li11  1  0.89625600  0.76647482  0.10897007  1
  Fe  Fe12  1  0.33317373  0.75449773  0.89554179  1
  Fe  Fe13  1  0.33426104  0.75182186  0.39512452  1
  Fe  Fe14  1  0.66614986  0.23920223  0.60967406  1
  Fe  Fe15  1  0.66174636  0.24828640  0.10836305  1
  P  P16  1  0.42050362  0.25330882  0.86317725  1
  P  P17  1  0.41013456  0.24508834  0.36330250  1
  P  P18  1  0.58680698  0.74821617  0.64477284  1
  P  P19  1  0.58294171  0.75423866  0.14179477  1
  C  C20  1  0.03276879  0.75406383  0.84916023  1
  C  C21  1  0.03896089  0.75777282  0.34214733  1
  C  C22  1  0.96957164  0.24839200  0.63829514  1
  C  C23  1  0.95899625  0.24211709  0.15720982  1
  O  O24  1  0.11809110  0.25370839  0.65472487  1
  O  O25  1  0.10744943  0.24764600  0.17655908  1
  O  O26  1  0.06811087  0.75738257  0.97008092  1
  O  O27  1  0.06485964  0.75517642  0.46526147  1
  O  O28  1  0.14594631  0.75981843  0.75580050  1
  O  O29  1  0.15846768  0.74438969  0.25440109  1
  O  O30  1  0.32547048  0.06682177  0.92081344  1
  O  O31  1  0.32105630  0.44202492  0.91446413  1
  O  O32  1  0.29857609  0.06628427  0.41017793  1
  O  O33  1  0.32204786  0.44047567  0.41744678  1
  O  O34  1  0.43098440  0.24713987  0.71004049  1
  O  O35  1  0.42310492  0.75570425  0.59139509  1
  O  O36  1  0.42866940  0.25172079  0.21006625  1
  O  O37  1  0.41921968  0.74857404  0.09017608  1
  O  O38  1  0.58888569  0.25742233  0.90816924  1
  O  O39  1  0.56721574  0.75927211  0.79772295  1
  O  O40  1  0.57214185  0.22216626  0.41717884  1
  O  O41  1  0.56512487  0.77265290  0.29366477  1
  O  O42  1  0.68264409  0.55241759  0.60307651  1
  O  O43  1  0.69463773  0.92572184  0.58928970  1
  O  O44  1  0.68581036  0.56281220  0.09925525  1
  O  O45  1  0.68400573  0.93511208  0.08120823  1
  O  O46  1  0.86628813  0.23667405  0.73921429  1
  O  O47  1  0.85426146  0.22946511  0.25658424  1
  O  O48  1  0.91986978  0.25341925  0.52165924  1
  O  O49  1  0.91037780  0.24941640  0.04111836  1
  O  O50  1  0.88756854  0.74513359  0.82002417  1
  O  O51  1  0.89831914  0.77480143  0.30468478  1
