# generated using pymatgen
data_Ti3CrCo2(PO4)6
_symmetry_space_group_name_H-M   'P 1'
_cell_length_a   8.57360073
_cell_length_b   8.63993036
_cell_length_c   8.63993046
_cell_angle_alpha   59.99999905
_cell_angle_beta   59.74374971
_cell_angle_gamma   59.74374693
_symmetry_Int_Tables_number   1
_chemical_formula_structural   Ti3CrCo2(PO4)6
_chemical_formula_sum   'Ti3 Cr1 Co2 P6 O24'
_cell_volume   450.79149208
_cell_formula_units_Z   1
loop_
 _symmetry_equiv_pos_site_id
 _symmetry_equiv_pos_as_xyz
  1  'x, y, z'
loop_
 _atom_site_type_symbol
 _atom_site_label
 _atom_site_symmetry_multiplicity
 _atom_site_fract_x
 _atom_site_fract_y
 _atom_site_fract_z
 _atom_site_occupancy
  Ti  Ti0  1  0.07204083  0.64265339  0.64265339  1
  Ti  Ti1  1  0.42602901  0.85799066  0.85799066  1
  Ti  Ti2  1  0.92876853  0.35707716  0.35707716  1
  Cr  Cr3  1  0.57725508  0.14091497  0.14091497  1
  Co  Co4  1  0.99950835  0.00016355  0.00016355  1
  Co  Co5  1  0.49769994  0.50076702  0.50076702  1
  P  P6  1  0.25270457  0.24914165  0.53988692  1
  P  P7  1  0.25270457  0.95826685  0.24914165  1
  P  P8  1  0.25270457  0.53988692  0.95826685  1
  P  P9  1  0.74930900  0.45741235  0.04234051  1
  P  P10  1  0.74930900  0.04234051  0.75093814  1
  P  P11  1  0.74930900  0.75093814  0.45741235  1
  O  O12  1  0.07066711  0.12203808  0.31104731  1
  O  O13  1  0.07066711  0.49624751  0.12203808  1
  O  O14  1  0.07066711  0.31104731  0.49624751  1
  O  O15  1  0.23359374  0.08689956  0.73611136  1
  O  O16  1  0.43460760  0.19124355  0.38279810  1
  O  O17  1  0.25874530  0.41356127  0.56325649  1
  O  O18  1  0.23359374  0.94339533  0.08689956  1
  O  O19  1  0.25874530  0.76443694  0.41356127  1
  O  O20  1  0.56891566  0.62079575  0.99716137  1
  O  O21  1  0.25874530  0.56325649  0.76443694  1
  O  O22  1  0.76923197  0.26417454  0.05472929  1
  O  O23  1  0.56891566  0.99716137  0.81312722  1
  O  O24  1  0.43460760  0.99135074  0.19124355  1
  O  O25  1  0.23359374  0.73611136  0.94339533  1
  O  O26  1  0.73347024  0.44488302  0.23543910  1
  O  O27  1  0.43460760  0.38279810  0.99135074  1
  O  O28  1  0.73347024  0.23543910  0.58620765  1
  O  O29  1  0.76923197  0.05472929  0.91186420  1
  O  O30  1  0.73347024  0.58620765  0.44488302  1
  O  O31  1  0.56891566  0.81312722  0.62079575  1
  O  O32  1  0.76923197  0.91186420  0.26417454  1
  O  O33  1  0.92832057  0.68515776  0.50540571  1
  O  O34  1  0.92832057  0.50540571  0.88111596  1
  O  O35  1  0.92832057  0.88111596  0.68515776  1
