# generated using pymatgen
data_ErWClO4
_symmetry_space_group_name_H-M   'P 1'
_cell_length_a   6.33002452
_cell_length_b   6.33002452
_cell_length_c   6.96403721
_cell_angle_alpha   75.46791937
_cell_angle_beta   75.46791937
_cell_angle_gamma   70.65258623
_symmetry_Int_Tables_number   1
_chemical_formula_structural   ErWClO4
_chemical_formula_sum   'Er2 W2 Cl2 O8'
_cell_volume   250.52410835
_cell_formula_units_Z   2
loop_
 _symmetry_equiv_pos_site_id
 _symmetry_equiv_pos_as_xyz
  1  'x, y, z'
loop_
 _atom_site_type_symbol
 _atom_site_label
 _atom_site_symmetry_multiplicity
 _atom_site_fract_x
 _atom_site_fract_y
 _atom_site_fract_z
 _atom_site_occupancy
  Er  Er0  1  0.77757025  0.77757025  0.11936544  1
  Er  Er1  1  0.22242975  0.22242975  0.88063456  1
  W  W2  1  0.63705903  0.63705903  0.73443168  1
  W  W3  1  0.36294097  0.36294097  0.26556832  1
  Cl  Cl4  1  0.98867219  0.98867219  0.77290844  1
  Cl  Cl5  1  0.01132781  0.01132781  0.22709156  1
  O  O6  1  0.70447376  0.70447376  0.46367108  1
  O  O7  1  0.29552624  0.29552624  0.53632892  1
  O  O8  1  0.54693907  0.54693907  0.19273372  1
  O  O9  1  0.45306093  0.45306093  0.80726628  1
  O  O10  1  0.10523096  0.49291793  0.15547735  1
  O  O11  1  0.49291793  0.10523096  0.15547735  1
  O  O12  1  0.89476904  0.50708207  0.84452265  1
  O  O13  1  0.50708207  0.89476904  0.84452265  1
