# generated using pymatgen
data_Na(TeMo)3
_symmetry_space_group_name_H-M   'P 1'
_cell_length_a   4.61100565
_cell_length_b   10.02269866
_cell_length_c   10.02286337
_cell_angle_alpha   119.99113727
_cell_angle_beta   90.00000000
_cell_angle_gamma   90.00000000
_symmetry_Int_Tables_number   1
_chemical_formula_structural   Na(TeMo)3
_chemical_formula_sum   'Na2 Te6 Mo6'
_cell_volume   401.18210061
_cell_formula_units_Z   2
loop_
 _symmetry_equiv_pos_site_id
 _symmetry_equiv_pos_as_xyz
  1  'x, y, z'
loop_
 _atom_site_type_symbol
 _atom_site_label
 _atom_site_symmetry_multiplicity
 _atom_site_fract_x
 _atom_site_fract_y
 _atom_site_fract_z
 _atom_site_occupancy
  Na  Na0  1  0.75000000  0.66661920  0.33330622  1
  Na  Na1  1  0.25000000  0.33338080  0.66669378  1
  Te  Te2  1  0.75000000  0.69508501  0.65536412  1
  Te  Te3  1  0.75000000  0.34466151  0.03969384  1
  Te  Te4  1  0.75000000  0.96025420  0.30493798  1
  Te  Te5  1  0.25000000  0.30491499  0.34463588  1
  Te  Te6  1  0.25000000  0.65533849  0.96030616  1
  Te  Te7  1  0.25000000  0.03974580  0.69506202  1
  Mo  Mo8  1  0.75000000  0.01979072  0.85741318  1
  Mo  Mo9  1  0.75000000  0.14256857  0.16234796  1
  Mo  Mo10  1  0.75000000  0.83763531  0.98023114  1
  Mo  Mo11  1  0.25000000  0.98020928  0.14258682  1
  Mo  Mo12  1  0.25000000  0.85743143  0.83765204  1
  Mo  Mo13  1  0.25000000  0.16236469  0.01976886  1
