# generated using pymatgen
data_Sn2N2O
_symmetry_space_group_name_H-M   'P 1'
_cell_length_a   6.45096181
_cell_length_b   6.45096181
_cell_length_c   14.46468582
_cell_angle_alpha   77.11528650
_cell_angle_beta   77.11528650
_cell_angle_gamma   90.00000000
_symmetry_Int_Tables_number   1
_chemical_formula_structural   Sn2N2O
_chemical_formula_sum   'Sn16 N16 O8'
_cell_volume   571.23140341
_cell_formula_units_Z   8
loop_
 _symmetry_equiv_pos_site_id
 _symmetry_equiv_pos_as_xyz
  1  'x, y, z'
loop_
 _atom_site_type_symbol
 _atom_site_label
 _atom_site_symmetry_multiplicity
 _atom_site_fract_x
 _atom_site_fract_y
 _atom_site_fract_z
 _atom_site_occupancy
  Sn  Sn0  1  -0.00000000  -0.00000000  -0.00000000  1
  Sn  Sn1  1  0.50000000  -0.00000000  -0.00000000  1
  Sn  Sn2  1  -0.00000000  -0.00000000  0.50000000  1
  Sn  Sn3  1  0.66784257  0.16884734  0.16431586  1
  Sn  Sn4  1  0.20605316  0.45605316  0.08789268  1
  Sn  Sn5  1  0.45605316  0.20605316  0.58789268  1
  Sn  Sn6  1  0.33316320  0.33215743  0.33568414  1
  Sn  Sn7  1  0.83115266  0.33215743  0.33568414  1
  Sn  Sn8  1  0.66784257  0.66683680  0.16431586  1
  Sn  Sn9  1  -0.00000000  0.50000000  0.50000000  1
  Sn  Sn10  1  0.33215743  0.33316320  0.83568414  1
  Sn  Sn11  1  0.66683680  0.66784257  0.66431586  1
  Sn  Sn12  1  0.16884734  0.66784257  0.66431586  1
  Sn  Sn13  1  0.54394684  0.79394684  0.41210732  1
  Sn  Sn14  1  0.79394684  0.54394684  0.91210732  1
  Sn  Sn15  1  0.33215743  0.83115266  0.83568414  1
  N  N16  1  0.74852102  0.23257007  0.00295696  1
  N  N17  1  0.58781222  0.10466061  0.32437556  1
  N  N18  1  0.76742993  0.25147898  0.49704304  1
  N  N19  1  0.23552703  0.25147898  0.49704304  1
  N  N20  1  0.42903617  0.41218778  0.17562444  1
  N  N21  1  0.89533939  0.41218778  0.17562444  1
  N  N22  1  0.58781222  0.57096383  0.32437556  1
  N  N23  1  0.25147898  0.23552703  0.99704304  1
  N  N24  1  0.74852102  0.76447297  0.00295696  1
  N  N25  1  0.41218778  0.42903617  0.67562444  1
  N  N26  1  0.10466061  0.58781222  0.82437556  1
  N  N27  1  0.57096383  0.58781222  0.82437556  1
  N  N28  1  0.76447297  0.74852102  0.50295696  1
  N  N29  1  0.23257007  0.74852102  0.50295696  1
  N  N30  1  0.41218778  0.89533939  0.67562444  1
  N  N31  1  0.25147898  0.76742993  0.99704304  1
  O  O32  1  0.07674113  0.11326685  0.34651774  1
  O  O33  1  0.11326685  0.07674113  0.84651774  1
  O  O34  1  0.54021541  0.07674113  0.84651774  1
  O  O35  1  0.07674113  0.54021541  0.34651774  1
  O  O36  1  0.92325887  0.45978459  0.65348226  1
  O  O37  1  0.45978459  0.92325887  0.15348226  1
  O  O38  1  0.88673315  0.92325887  0.15348226  1
  O  O39  1  0.92325887  0.88673315  0.65348226  1
