# generated using pymatgen
data_ScVO4
_symmetry_space_group_name_H-M   'P 1'
_cell_length_a   4.90214377
_cell_length_b   4.90214377
_cell_length_c   6.41926431
_cell_angle_alpha   112.44712366
_cell_angle_beta   112.44712366
_cell_angle_gamma   90.00000000
_symmetry_Int_Tables_number   1
_chemical_formula_structural   ScVO4
_chemical_formula_sum   'Sc2 V2 O8'
_cell_volume   129.83742813
_cell_formula_units_Z   2
loop_
 _symmetry_equiv_pos_site_id
 _symmetry_equiv_pos_as_xyz
  1  'x, y, z'
loop_
 _atom_site_type_symbol
 _atom_site_label
 _atom_site_symmetry_multiplicity
 _atom_site_fract_x
 _atom_site_fract_y
 _atom_site_fract_z
 _atom_site_occupancy
  Sc  Sc0  1  0.62500000  0.87500000  0.25000000  1
  Sc  Sc1  1  0.37500000  0.12500000  0.75000000  1
  V  V2  1  0.12500000  0.37500000  0.25000000  1
  V  V3  1  0.87500000  0.62500000  0.75000000  1
  O  O4  1  0.37182040  0.71983183  0.41282171  1
  O  O5  1  0.04100131  0.19298987  0.41282171  1
  O  O6  1  0.21983183  0.54100131  0.91282171  1
  O  O7  1  0.69298987  0.87182040  0.91282171  1
  O  O8  1  0.62817960  0.28016817  0.58717829  1
  O  O9  1  0.95899869  0.80701013  0.58717829  1
  O  O10  1  0.78016817  0.45899869  0.08717829  1
  O  O11  1  0.30701013  0.12817960  0.08717829  1
