# generated using pymatgen
data_Ce5Sn3
_symmetry_space_group_name_H-M   'P 1'
_cell_length_a   6.47618510
_cell_length_b   9.34522971
_cell_length_c   9.34849052
_cell_angle_alpha   119.98845999
_cell_angle_beta   90.00000000
_cell_angle_gamma   90.00000000
_symmetry_Int_Tables_number   1
_chemical_formula_structural   Ce5Sn3
_chemical_formula_sum   'Ce10 Sn6'
_cell_volume   490.04035724
_cell_formula_units_Z   2
loop_
 _symmetry_equiv_pos_site_id
 _symmetry_equiv_pos_as_xyz
  1  'x, y, z'
loop_
 _atom_site_type_symbol
 _atom_site_label
 _atom_site_symmetry_multiplicity
 _atom_site_fract_x
 _atom_site_fract_y
 _atom_site_fract_z
 _atom_site_occupancy
  Ce  Ce0  1  0.50000333  0.33331856  0.66664819  1
  Ce  Ce1  1  0.50000333  0.66667036  0.33335181  1
  Ce  Ce2  1  0.00000333  0.66668144  0.33335181  1
  Ce  Ce3  1  0.00000333  0.33332964  0.66664819  1
  Ce  Ce4  1  0.74989967  0.25349197  1.00000000  1
  Ce  Ce5  1  0.75004781  0.74640624  0.74639713  1
  Ce  Ce6  1  0.75004781  0.00000911  0.25360287  1
  Ce  Ce7  1  0.24989967  0.74650803  0.00000000  1
  Ce  Ce8  1  0.25004781  0.25359376  0.25360287  1
  Ce  Ce9  1  0.25004781  -0.00000911  0.74639713  1
  Sn  Sn10  1  0.75000320  0.61108815  1.00000000  1
  Sn  Sn11  1  0.74999742  0.38888265  0.38889547  1
  Sn  Sn12  1  0.74999742  0.99998718  0.61110453  1
  Sn  Sn13  1  0.25000320  0.38891185  0.00000000  1
  Sn  Sn14  1  0.24999742  0.61111735  0.61110453  1
  Sn  Sn15  1  0.24999742  0.00001282  0.38889547  1
