# generated using pymatgen
data_TmWClO4
_symmetry_space_group_name_H-M   'P 1'
_cell_length_a   6.05134105
_cell_length_b   6.56623262
_cell_length_c   6.97525226
_cell_angle_alpha   73.79802891
_cell_angle_beta   77.25119561
_cell_angle_gamma   70.73339569
_symmetry_Int_Tables_number   1
_chemical_formula_structural   TmWClO4
_chemical_formula_sum   'Tm2 W2 Cl2 O8'
_cell_volume   248.70306546
_cell_formula_units_Z   2
loop_
 _symmetry_equiv_pos_site_id
 _symmetry_equiv_pos_as_xyz
  1  'x, y, z'
loop_
 _atom_site_type_symbol
 _atom_site_label
 _atom_site_symmetry_multiplicity
 _atom_site_fract_x
 _atom_site_fract_y
 _atom_site_fract_z
 _atom_site_occupancy
  Tm  Tm0  1  0.23908616  0.20485440  0.86793589  1
  Tm  Tm1  1  0.76091384  0.79514560  0.13206411  1
  W  W2  1  0.37689109  0.35524767  0.26499154  1
  W  W3  1  0.62310891  0.64475233  0.73500846  1
  Cl  Cl4  1  0.00615215  0.02362686  0.22430766  1
  Cl  Cl5  1  0.99384785  0.97637314  0.77569234  1
  O  O6  1  0.34438670  0.25833381  0.53487547  1
  O  O7  1  0.65561330  0.74166619  0.46512453  1
  O  O8  1  0.42695845  0.47133272  0.80686966  1
  O  O9  1  0.57304155  0.52866728  0.19313034  1
  O  O10  1  0.90967756  0.48285515  0.81047027  1
  O  O11  1  0.09032244  0.51714485  0.18952973  1
  O  O12  1  0.47988954  0.12476221  0.13233284  1
  O  O13  1  0.52011046  0.87523779  0.86766716  1
