# generated using pymatgen
data_Tm3Ga8Ir3
_symmetry_space_group_name_H-M   'P 1'
_cell_length_a   4.18765108
_cell_length_b   8.13879101
_cell_length_c   8.13879101
_cell_angle_alpha   75.42255335
_cell_angle_beta   75.09216525
_cell_angle_gamma   75.09216525
_symmetry_Int_Tables_number   1
_chemical_formula_structural   Tm3Ga8Ir3
_chemical_formula_sum   'Tm3 Ga8 Ir3'
_cell_volume   253.86816529
_cell_formula_units_Z   1
loop_
 _symmetry_equiv_pos_site_id
 _symmetry_equiv_pos_as_xyz
  1  'x, y, z'
loop_
 _atom_site_type_symbol
 _atom_site_label
 _atom_site_symmetry_multiplicity
 _atom_site_fract_x
 _atom_site_fract_y
 _atom_site_fract_z
 _atom_site_occupancy
  Tm  Tm0  1  0.50000000  0.50000000  0.50000000  1
  Tm  Tm1  1  0.17200051  0.82799949  0.82799949  1
  Tm  Tm2  1  0.82799949  0.17200051  0.17200051  1
  Ga  Ga3  1  0.37313879  0.33912413  0.91459828  1
  Ga  Ga4  1  0.62686121  0.66087587  0.08540172  1
  Ga  Ga5  1  0.37313879  0.91459828  0.33912413  1
  Ga  Ga6  1  0.62686121  0.08540172  0.66087587  1
  Ga  Ga7  1  0.16401149  0.46307083  0.20890620  1
  Ga  Ga8  1  0.83598851  0.53692917  0.79109380  1
  Ga  Ga9  1  0.16401149  0.20890620  0.46307083  1
  Ga  Ga10  1  0.83598851  0.79109380  0.53692917  1
  Ir  Ir11  1  0.50000000  -0.00000000  0.00000000  1
  Ir  Ir12  1  -0.00000000  0.78774339  0.21225661  1
  Ir  Ir13  1  0.00000000  0.21225661  0.78774339  1
