# generated using pymatgen
data_Sm4(FeB2)3
_symmetry_space_group_name_H-M   'P 1'
_cell_length_a   5.35748267
_cell_length_b   5.35748267
_cell_length_c   8.06470192
_cell_angle_alpha   70.60029707
_cell_angle_beta   70.60029707
_cell_angle_gamma   59.99999763
_symmetry_Int_Tables_number   1
_chemical_formula_structural   Sm4(FeB2)3
_chemical_formula_sum   'Sm4 Fe3 B6'
_cell_volume   185.13503376
_cell_formula_units_Z   1
loop_
 _symmetry_equiv_pos_site_id
 _symmetry_equiv_pos_as_xyz
  1  'x, y, z'
loop_
 _atom_site_type_symbol
 _atom_site_label
 _atom_site_symmetry_multiplicity
 _atom_site_fract_x
 _atom_site_fract_y
 _atom_site_fract_z
 _atom_site_occupancy
  Sm  Sm0  1  0.25677044  0.25677044  0.22968867  1
  Sm  Sm1  1  0.74322956  0.74322956  0.77031133  1
  Sm  Sm2  1  0.41118907  0.41118907  0.76643278  1
  Sm  Sm3  1  0.58881093  0.58881093  0.23356722  1
  Fe  Fe4  1  0.00000000  0.00000000  0.00000000  1
  Fe  Fe5  1  0.11500038  0.11500038  0.65499885  1
  Fe  Fe6  1  0.88499962  0.88499962  0.34500115  1
  B  B7  1  0.16706850  0.83293150  0.50000000  1
  B  B8  1  0.83293150  0.50000000  0.50000000  1
  B  B9  1  0.50000000  0.16706850  0.50000000  1
  B  B10  1  0.16706850  0.50000000  0.50000000  1
  B  B11  1  0.50000000  0.83293150  0.50000000  1
  B  B12  1  0.83293150  0.16706850  0.50000000  1
