# generated using pymatgen
data_Eu2Cd2As3
_symmetry_space_group_name_H-M   'P 1'
_cell_length_a   4.47125498
_cell_length_b   8.46746994
_cell_length_c   10.21380559
_cell_angle_alpha   82.09668467
_cell_angle_beta   77.35657059
_cell_angle_gamma   74.69094758
_symmetry_Int_Tables_number   1
_chemical_formula_structural   Eu2Cd2As3
_chemical_formula_sum   'Eu4 Cd4 As6'
_cell_volume   362.62329609
_cell_formula_units_Z   2
loop_
 _symmetry_equiv_pos_site_id
 _symmetry_equiv_pos_as_xyz
  1  'x, y, z'
loop_
 _atom_site_type_symbol
 _atom_site_label
 _atom_site_symmetry_multiplicity
 _atom_site_fract_x
 _atom_site_fract_y
 _atom_site_fract_z
 _atom_site_occupancy
  Eu  Eu0  1  0.26926030  0.13246995  0.32900946  1
  Eu  Eu1  1  0.73073970  0.86753005  0.67099054  1
  Eu  Eu2  1  0.39418263  0.25926370  0.95237103  1
  Eu  Eu3  1  0.60581737  0.74073630  0.04762897  1
  Cd  Cd4  1  0.04650354  0.22187219  0.68512074  1
  Cd  Cd5  1  0.95349646  0.77812781  0.31487926  1
  Cd  Cd6  1  0.40807915  0.52548177  0.65835994  1
  Cd  Cd7  1  0.59192085  0.47451823  0.34164006  1
  As  As8  1  0.08245460  0.95518850  0.87990230  1
  As  As9  1  0.91754540  0.04481150  0.12009770  1
  As  As10  1  0.16240382  0.49419040  0.18100197  1
  As  As11  1  0.83759618  0.50580960  0.81899803  1
  As  As12  1  0.37118567  0.78531382  0.47231484  1
  As  As13  1  0.62881433  0.21468618  0.52768516  1
