# generated using pymatgen
data_Ho3SbO3
_symmetry_space_group_name_H-M   'P 1'
_cell_length_a   3.85343265
_cell_length_b   6.80503957
_cell_length_c   10.52236618
_cell_angle_alpha   81.84596549
_cell_angle_beta   79.44923024
_cell_angle_gamma   73.55285354
_symmetry_Int_Tables_number   1
_chemical_formula_structural   Ho3SbO3
_chemical_formula_sum   'Ho6 Sb2 O6'
_cell_volume   258.97311446
_cell_formula_units_Z   2
loop_
 _symmetry_equiv_pos_site_id
 _symmetry_equiv_pos_as_xyz
  1  'x, y, z'
loop_
 _atom_site_type_symbol
 _atom_site_label
 _atom_site_symmetry_multiplicity
 _atom_site_fract_x
 _atom_site_fract_y
 _atom_site_fract_z
 _atom_site_occupancy
  Ho  Ho0  1  0.12086259  0.20130506  0.55696976  1
  Ho  Ho1  1  0.87913741  0.79869494  0.44303024  1
  Ho  Ho2  1  0.34248963  0.10747558  0.20754516  1
  Ho  Ho3  1  0.65751037  0.89252442  0.79245484  1
  Ho  Ho4  1  0.87189081  0.35448414  0.90173424  1
  Ho  Ho5  1  0.12810919  0.64551586  0.09826576  1
  Sb  Sb6  1  0.38232531  0.55495478  0.68039461  1
  Sb  Sb7  1  0.61767469  0.44504522  0.31960539  1
  O  O8  1  0.31078975  0.96935287  0.40906763  1
  O  O9  1  0.68921025  0.03064713  0.59093237  1
  O  O10  1  0.33538149  0.31368584  0.01555118  1
  O  O11  1  0.66461851  0.68631416  0.98444882  1
  O  O12  1  0.93674435  0.93508990  0.19142139  1
  O  O13  1  0.06325565  0.06491010  0.80857861  1
