# generated using pymatgen
data_Y2WO6
_symmetry_space_group_name_H-M   'P 1'
_cell_length_a   5.38082226
_cell_length_b   5.43589871
_cell_length_c   8.21511122
_cell_angle_alpha   90.00000000
_cell_angle_beta   90.00000000
_cell_angle_gamma   90.00000000
_symmetry_Int_Tables_number   1
_chemical_formula_structural   Y2WO6
_chemical_formula_sum   'Y4 W2 O12'
_cell_volume   240.28875642
_cell_formula_units_Z   2
loop_
 _symmetry_equiv_pos_site_id
 _symmetry_equiv_pos_as_xyz
  1  'x, y, z'
loop_
 _atom_site_type_symbol
 _atom_site_label
 _atom_site_symmetry_multiplicity
 _atom_site_fract_x
 _atom_site_fract_y
 _atom_site_fract_z
 _atom_site_occupancy
  Y  Y0  1  0.25000000  0.75000000  0.00458438  1
  Y  Y1  1  0.75000000  0.25000000  0.99541562  1
  Y  Y2  1  0.75000000  0.75000000  0.67320789  1
  Y  Y3  1  0.25000000  0.25000000  0.32679211  1
  W  W4  1  0.75000000  0.75000000  0.27566652  1
  W  W5  1  0.25000000  0.25000000  0.72433348  1
  O  O6  1  0.51619044  0.50533512  0.16981012  1
  O  O7  1  0.98380956  0.50533512  0.16981012  1
  O  O8  1  0.51619044  0.99466488  0.16981012  1
  O  O9  1  0.98380956  0.99466488  0.16981012  1
  O  O10  1  0.48380956  0.49466488  0.83018988  1
  O  O11  1  0.01619044  0.49466488  0.83018988  1
  O  O12  1  0.48380956  0.00533512  0.83018988  1
  O  O13  1  0.01619044  0.00533512  0.83018988  1
  O  O14  1  0.51770853  0.75000000  0.44592212  1
  O  O15  1  0.98229147  0.75000000  0.44592212  1
  O  O16  1  0.48229147  0.25000000  0.55407788  1
  O  O17  1  0.01770853  0.25000000  0.55407788  1
