# generated using pymatgen
data_Yb(InSe2)2
_symmetry_space_group_name_H-M   'P 1'
_cell_length_a   6.34672680
_cell_length_b   6.34672680
_cell_length_c   10.76388837
_cell_angle_alpha   90.00000000
_cell_angle_beta   90.00000000
_cell_angle_gamma   114.78537723
_symmetry_Int_Tables_number   1
_chemical_formula_structural   Yb(InSe2)2
_chemical_formula_sum   'Yb2 In4 Se8'
_cell_volume   393.64015623
_cell_formula_units_Z   2
loop_
 _symmetry_equiv_pos_site_id
 _symmetry_equiv_pos_as_xyz
  1  'x, y, z'
loop_
 _atom_site_type_symbol
 _atom_site_label
 _atom_site_symmetry_multiplicity
 _atom_site_fract_x
 _atom_site_fract_y
 _atom_site_fract_z
 _atom_site_occupancy
  Yb  Yb0  1  0.50000000  0.50000000  0.25000000  1
  Yb  Yb1  1  0.50000000  0.50000000  0.75000000  1
  In  In2  1  0.77184691  0.22253956  0.50000000  1
  In  In3  1  0.22815309  0.77746044  0.50000000  1
  In  In4  1  0.77746044  0.22815309  0.00000000  1
  In  In5  1  0.22253956  0.77184691  0.00000000  1
  Se  Se6  1  0.77966088  0.64878245  0.50000000  1
  Se  Se7  1  0.22033912  0.35121755  0.50000000  1
  Se  Se8  1  0.35121755  0.22033912  0.00000000  1
  Se  Se9  1  0.64878245  0.77966088  0.00000000  1
  Se  Se10  1  0.00000000  0.50000000  0.18680072  1
  Se  Se11  1  0.50000000  -0.00000000  0.31319928  1
  Se  Se12  1  0.00000000  0.50000000  0.81319928  1
  Se  Se13  1  0.50000000  -0.00000000  0.68680072  1
