# generated using pymatgen
data_K2LiBiF6
_symmetry_space_group_name_H-M   'P 1'
_cell_length_a   6.16679838
_cell_length_b   6.16679849
_cell_length_c   6.16679848
_cell_angle_alpha   59.99999953
_cell_angle_beta   59.99999929
_cell_angle_gamma   59.99999934
_symmetry_Int_Tables_number   1
_chemical_formula_structural   K2LiBiF6
_chemical_formula_sum   'K2 Li1 Bi1 F6'
_cell_volume   165.83044277
_cell_formula_units_Z   1
loop_
 _symmetry_equiv_pos_site_id
 _symmetry_equiv_pos_as_xyz
  1  'x, y, z'
loop_
 _atom_site_type_symbol
 _atom_site_label
 _atom_site_symmetry_multiplicity
 _atom_site_fract_x
 _atom_site_fract_y
 _atom_site_fract_z
 _atom_site_occupancy
  K  K0  1  0.25000000  0.25000000  0.25000000  1
  K  K1  1  0.75000000  0.75000000  0.75000000  1
  Li  Li2  1  0.50000000  0.50000000  0.50000000  1
  Bi  Bi3  1  0.00000000  -0.00000000  -0.00000000  1
  F  F4  1  0.25982520  0.74017480  0.25982520  1
  F  F5  1  0.74017480  0.74017480  0.25982520  1
  F  F6  1  0.74017480  0.25982520  0.74017480  1
  F  F7  1  0.74017480  0.25982520  0.25982520  1
  F  F8  1  0.25982520  0.74017480  0.74017480  1
  F  F9  1  0.25982520  0.25982520  0.74017480  1
