# generated using pymatgen
data_K2AgBiBr6
_symmetry_space_group_name_H-M   'P 1'
_cell_length_a   8.04214724
_cell_length_b   8.04214763
_cell_length_c   8.04214761
_cell_angle_alpha   59.99999873
_cell_angle_beta   59.99999811
_cell_angle_gamma   59.99999821
_symmetry_Int_Tables_number   1
_chemical_formula_structural   K2AgBiBr6
_chemical_formula_sum   'K2 Ag1 Bi1 Br6'
_cell_volume   367.79099142
_cell_formula_units_Z   1
loop_
 _symmetry_equiv_pos_site_id
 _symmetry_equiv_pos_as_xyz
  1  'x, y, z'
loop_
 _atom_site_type_symbol
 _atom_site_label
 _atom_site_symmetry_multiplicity
 _atom_site_fract_x
 _atom_site_fract_y
 _atom_site_fract_z
 _atom_site_occupancy
  K  K0  1  0.25000000  0.25000000  0.25000000  1
  K  K1  1  0.75000000  0.75000000  0.75000000  1
  Ag  Ag2  1  0.50000000  0.50000000  0.50000000  1
  Bi  Bi3  1  0.00000000  -0.00000000  -0.00000000  1
  Br  Br4  1  0.25196046  0.74803954  0.25196046  1
  Br  Br5  1  0.74803954  0.74803954  0.25196046  1
  Br  Br6  1  0.74803954  0.25196046  0.74803954  1
  Br  Br7  1  0.74803954  0.25196046  0.25196046  1
  Br  Br8  1  0.25196046  0.74803954  0.74803954  1
  Br  Br9  1  0.25196046  0.25196046  0.74803954  1
