# generated using pymatgen
data_BaNiIO6
_symmetry_space_group_name_H-M   'P 1'
_cell_length_a   5.16952450
_cell_length_b   5.16952402
_cell_length_c   5.84559724
_cell_angle_alpha   90.00000000
_cell_angle_beta   90.00000000
_cell_angle_gamma   120.00000315
_symmetry_Int_Tables_number   1
_chemical_formula_structural   BaNiIO6
_chemical_formula_sum   'Ba1 Ni1 I1 O6'
_cell_volume   135.28843182
_cell_formula_units_Z   1
loop_
 _symmetry_equiv_pos_site_id
 _symmetry_equiv_pos_as_xyz
  1  'x, y, z'
loop_
 _atom_site_type_symbol
 _atom_site_label
 _atom_site_symmetry_multiplicity
 _atom_site_fract_x
 _atom_site_fract_y
 _atom_site_fract_z
 _atom_site_occupancy
  Ba  Ba0  1  0.00000000  0.00000000  0.99999404  1
  Ni  Ni1  1  0.33333300  0.66666700  0.50004695  1
  I  I2  1  0.66666700  0.33333300  0.49997771  1
  O  O3  1  0.39146513  0.00798022  0.68714043  1
  O  O4  1  0.99201978  0.38348491  0.68714043  1
  O  O5  1  0.61651509  0.60853487  0.68714043  1
  O  O6  1  0.99203230  0.60852712  0.31285401  1
  O  O7  1  0.61649482  0.00796770  0.31285401  1
  O  O8  1  0.39147288  0.38350518  0.31285401  1
