# generated using pymatgen
data_Ba(SnSe)32
_symmetry_space_group_name_H-M   'P 1'
_cell_length_a   11.96649565
_cell_length_b   12.47990647
_cell_length_c   12.47990706
_cell_angle_alpha   85.62630883
_cell_angle_beta   89.69079426
_cell_angle_gamma   89.69079427
_symmetry_Int_Tables_number   1
_chemical_formula_structural   Ba(SnSe)32
_chemical_formula_sum   'Ba1 Sn32 Se32'
_cell_volume   1858.28085064
_cell_formula_units_Z   1
loop_
 _symmetry_equiv_pos_site_id
 _symmetry_equiv_pos_as_xyz
  1  'x, y, z'
loop_
 _atom_site_type_symbol
 _atom_site_label
 _atom_site_symmetry_multiplicity
 _atom_site_fract_x
 _atom_site_fract_y
 _atom_site_fract_z
 _atom_site_occupancy
  Ba  Ba0  1  0.57949711  0.43559481  0.31059481  1
  Sn  Sn1  1  0.87179728  0.91066176  0.54271239  1
  Sn  Sn2  1  0.87179728  0.66771239  0.78566176  1
  Sn  Sn3  1  0.86633709  0.91013448  0.03725128  1
  Sn  Sn4  1  0.87423212  0.66801257  0.28526451  1
  Sn  Sn5  1  0.87423212  0.41026451  0.54301257  1
  Sn  Sn6  1  0.86633709  0.16225128  0.78513448  1
  Sn  Sn7  1  0.92919577  0.44990102  0.01130131  1
  Sn  Sn8  1  0.92919577  0.13630131  0.32490102  1
  Sn  Sn9  1  0.61368679  0.91175008  0.78675008  1
  Sn  Sn10  1  0.61505279  0.92667851  0.28870634  1
  Sn  Sn11  1  0.61993917  0.66576018  0.54076018  1
  Sn  Sn12  1  0.61505279  0.41370634  0.80167851  1
  Sn  Sn13  1  0.61359355  0.64675773  0.03439765  1
  Sn  Sn14  1  0.81124320  0.29364406  0.16864406  1
  Sn  Sn15  1  0.61359355  0.15939765  0.52175773  1
  Sn  Sn16  1  0.61027018  0.14488883  0.01988883  1
  Sn  Sn17  1  0.37541505  0.84986596  0.96767298  1
  Sn  Sn18  1  0.37481253  0.83947595  0.46775338  1
  Sn  Sn19  1  0.37481253  0.59275338  0.71447595  1
  Sn  Sn20  1  0.38233931  0.34974756  0.97729692  1
  Sn  Sn21  1  0.35941427  0.60945426  0.20762291  1
  Sn  Sn22  1  0.35941427  0.33262291  0.48445426  1
  Sn  Sn23  1  0.37541505  0.09267298  0.72486596  1
  Sn  Sn24  1  0.38233931  0.10229692  0.22474756  1
  Sn  Sn25  1  0.11495133  0.84759283  0.72259283  1
  Sn  Sn26  1  0.12719296  0.60868298  0.95591779  1
  Sn  Sn27  1  0.11013775  0.84935634  0.21908516  1
  Sn  Sn28  1  0.11891582  0.59325389  0.46825389  1
  Sn  Sn29  1  0.11013775  0.34408516  0.72435634  1
  Sn  Sn30  1  0.11750951  0.09561702  0.97061702  1
  Sn  Sn31  1  0.11848878  0.34849623  0.22349623  1
  Sn  Sn32  1  0.12719296  0.08091779  0.48368298  1
  Se  Se33  1  0.84345293  0.93303197  0.80803197  1
  Se  Se34  1  0.84819621  0.93406040  0.31449215  1
  Se  Se35  1  0.85088423  0.68563851  0.56063851  1
  Se  Se36  1  0.84819621  0.43949215  0.80906040  1
  Se  Se37  1  0.84303562  0.66428978  0.06002414  1
  Se  Se38  1  0.85928534  0.44891886  0.32391886  1
  Se  Se39  1  0.84303562  0.18502414  0.53928978  1
  Se  Se40  1  0.85336031  0.14346150  0.01846150  1
  Se  Se41  1  0.64069980  0.93299984  0.55933322  1
  Se  Se42  1  0.64069980  0.68433322  0.80799984  1
  Se  Se43  1  0.63332535  0.92131157  0.05969687  1
  Se  Se44  1  0.64458707  0.69241311  0.31463469  1
  Se  Se45  1  0.64458707  0.43963469  0.56741311  1
  Se  Se46  1  0.63332535  0.18469687  0.79631157  1
  Se  Se47  1  0.62590888  0.42126365  0.04986151  1
  Se  Se48  1  0.62590888  0.17486151  0.29626365  1
  Se  Se49  1  0.34614065  0.81875002  0.69375002  1
  Se  Se50  1  0.35604855  0.57318082  0.94437729  1
  Se  Se51  1  0.34280888  0.82893932  0.19391656  1
  Se  Se52  1  0.35012536  0.56700003  0.44200003  1
  Se  Se53  1  0.34280888  0.31891656  0.70393932  1
  Se  Se54  1  0.35665156  0.07366114  0.94866114  1
  Se  Se55  1  0.34785824  0.32678518  0.20178518  1
  Se  Se56  1  0.35604855  0.06937729  0.44818082  1
  Se  Se57  1  0.14019893  0.83512600  0.94727679  1
  Se  Se58  1  0.14305982  0.82078442  0.44481634  1
  Se  Se59  1  0.14305982  0.56981634  0.69578442  1
  Se  Se60  1  0.13923812  0.32322725  0.95042541  1
  Se  Se61  1  0.13725706  0.57686704  0.18911494  1
  Se  Se62  1  0.13725706  0.31411494  0.45186704  1
  Se  Se63  1  0.14019893  0.07227679  0.71012600  1
  Se  Se64  1  0.13923812  0.07542541  0.19822725  1
