# generated using pymatgen
data_V4C3
_symmetry_space_group_name_H-M   'P 1'
_cell_length_a   2.93145889
_cell_length_b   2.93145889
_cell_length_c   9.48988491
_cell_angle_alpha   81.11499497
_cell_angle_beta   81.11499497
_cell_angle_gamma   59.99998667
_symmetry_Int_Tables_number   1
_chemical_formula_structural   V4C3
_chemical_formula_sum   'V4 C3'
_cell_volume   69.49284166
_cell_formula_units_Z   1
loop_
 _symmetry_equiv_pos_site_id
 _symmetry_equiv_pos_as_xyz
  1  'x, y, z'
loop_
 _atom_site_type_symbol
 _atom_site_label
 _atom_site_symmetry_multiplicity
 _atom_site_fract_x
 _atom_site_fract_y
 _atom_site_fract_z
 _atom_site_occupancy
  V  V0  1  0.37362459  0.37362459  0.87912622  1
  V  V1  1  0.62452360  0.62452360  0.12642920  1
  V  V2  1  0.20916984  0.20916984  0.37249048  1
  V  V3  1  0.79395104  0.79395104  0.61814688  1
  C  C4  1  0.50473009  0.50473009  0.48580973  1
  C  C5  1  0.99491339  0.99491339  0.01525983  1
  C  C6  1  0.08408745  0.08408745  0.74773765  1
