# generated using pymatgen
data_Li2CoO3
_symmetry_space_group_name_H-M   'P 1'
_cell_length_a   2.97827823
_cell_length_b   7.47610914
_cell_length_c   5.00069231
_cell_angle_alpha   106.58082349
_cell_angle_beta   91.38038372
_cell_angle_gamma   81.04649828
_symmetry_Int_Tables_number   1
_chemical_formula_structural   Li2CoO3
_chemical_formula_sum   'Li4 Co2 O6'
_cell_volume   105.39052767
_cell_formula_units_Z   2
loop_
 _symmetry_equiv_pos_site_id
 _symmetry_equiv_pos_as_xyz
  1  'x, y, z'
loop_
 _atom_site_type_symbol
 _atom_site_label
 _atom_site_symmetry_multiplicity
 _atom_site_fract_x
 _atom_site_fract_y
 _atom_site_fract_z
 _atom_site_occupancy
  Li  Li0  1  0.82993703  0.33220859  0.50208311  1
  Li  Li1  1  0.16666700  0.66666700  0.50000000  1
  Li  Li2  1  0.50339597  0.00112441  0.49791689  1
  Li  Li3  1  0.66666700  0.66666700  -0.00000000  1
  Co  Co4  1  0.01070616  0.98809793  0.99421797  1
  Co  Co5  1  0.32262684  0.34523507  0.00578203  1
  O  O6  1  0.39273754  0.16845300  0.21693523  1
  O  O7  1  0.72762532  0.48766558  0.23614645  1
  O  O8  1  0.07109039  0.85532124  0.23031207  1
  O  O9  1  0.26224261  0.47801176  0.76968793  1
  O  O10  1  0.60570868  0.84566842  0.76385355  1
  O  O11  1  0.94059546  0.16488000  0.78306477  1
