# generated using pymatgen
data_Sr3LaCuRuO8
_symmetry_space_group_name_H-M   'P 1'
_cell_length_a   7.88766703
_cell_length_b   5.59527340
_cell_length_c   6.92072503
_cell_angle_alpha   89.59103178
_cell_angle_beta   73.25182190
_cell_angle_gamma   44.81633080
_symmetry_Int_Tables_number   1
_chemical_formula_structural   Sr3LaCuRuO8
_chemical_formula_sum   'Sr3 La1 Cu1 Ru1 O8'
_cell_volume   197.14810447
_cell_formula_units_Z   1
loop_
 _symmetry_equiv_pos_site_id
 _symmetry_equiv_pos_as_xyz
  1  'x, y, z'
loop_
 _atom_site_type_symbol
 _atom_site_label
 _atom_site_symmetry_multiplicity
 _atom_site_fract_x
 _atom_site_fract_y
 _atom_site_fract_z
 _atom_site_occupancy
  Sr  Sr0  1  0.14260868  0.34825035  0.71478263  1
  Sr  Sr1  1  0.64433088  0.35452367  0.71133824  1
  Sr  Sr2  1  0.85807311  0.64987344  0.28385377  1
  La  La3  1  0.35841646  0.65361744  0.28316708  1
  Cu  Cu4  1  0.00577456  0.99286257  0.98845087  1
  Ru  Ru5  1  0.50476753  0.99480637  0.99046494  1
  O  O6  1  0.25021882  0.00107765  0.00832135  1
  O  O7  1  0.25132301  0.49792576  0.01242293  1
  O  O8  1  0.33794696  0.14268346  0.32410607  1
  O  O9  1  0.73625406  0.01299471  0.01242293  1
  O  O10  1  0.17686518  0.83729676  0.64626963  1
  O  O11  1  0.74145984  0.50983663  0.00832135  1
  O  O12  1  0.83159136  0.16000869  0.33681728  1
  O  O13  1  0.66036955  0.84424250  0.67926090  1
