# generated using pymatgen
data_LiPrS2
_symmetry_space_group_name_H-M   'P 1'
_cell_length_a   8.05146709
_cell_length_b   10.64488822
_cell_length_c   6.96329747
_cell_angle_alpha   29.21586272
_cell_angle_beta   54.68044955
_cell_angle_gamma   40.85483034
_symmetry_Int_Tables_number   1
_chemical_formula_structural   LiPrS2
_chemical_formula_sum   'Li2 Pr2 S4'
_cell_volume   184.15918747
_cell_formula_units_Z   2
loop_
 _symmetry_equiv_pos_site_id
 _symmetry_equiv_pos_as_xyz
  1  'x, y, z'
loop_
 _atom_site_type_symbol
 _atom_site_label
 _atom_site_symmetry_multiplicity
 _atom_site_fract_x
 _atom_site_fract_y
 _atom_site_fract_z
 _atom_site_occupancy
  Li  Li0  1  0.25000000  0.50000000  0.00000000  1
  Li  Li1  1  0.50000000  0.00000000  -0.00000000  1
  Pr  Pr2  1  0.00000000  -0.00000000  0.00000000  1
  Pr  Pr3  1  0.75000000  0.50000000  0.00000000  1
  S  S4  1  -0.00042673  0.50000000  0.50085345  1
  S  S5  1  0.50042673  0.50000000  0.49914655  1
  S  S6  1  0.24957327  1.00000000  0.50085345  1
  S  S7  1  0.75042673  0.00000000  0.49914655  1
