# generated using pymatgen
data_Li2CoO3
_symmetry_space_group_name_H-M   'P 1'
_cell_length_a   2.97889922
_cell_length_b   7.46761117
_cell_length_c   5.06672089
_cell_angle_alpha   75.75157279
_cell_angle_beta   75.79997109
_cell_angle_gamma   81.14577491
_symmetry_Int_Tables_number   1
_chemical_formula_structural   Li2CoO3
_chemical_formula_sum   'Li4 Co2 O6'
_cell_volume   105.37925377
_cell_formula_units_Z   2
loop_
 _symmetry_equiv_pos_site_id
 _symmetry_equiv_pos_as_xyz
  1  'x, y, z'
loop_
 _atom_site_type_symbol
 _atom_site_label
 _atom_site_symmetry_multiplicity
 _atom_site_fract_x
 _atom_site_fract_y
 _atom_site_fract_z
 _atom_site_occupancy
  Li  Li0  1  0.66606899  0.16818838  0.48961367  1
  Li  Li1  1  0.00059801  0.49847862  0.51038633  1
  Li  Li2  1  0.33333300  0.83333300  0.50000000  1
  Li  Li3  1  0.33333300  0.33333300  0.00000000  1
  Co  Co4  1  0.98928466  0.01042196  0.00138705  1
  Co  Co5  1  0.67738234  0.65624504  0.99861295  1
  O  O6  1  0.31840514  0.07553548  0.23073914  1
  O  O7  1  0.65928686  0.44366776  0.23655789  1
  O  O8  1  0.98728179  0.76375034  0.21682254  1
  O  O9  1  0.00738014  0.22299924  0.76344211  1
  O  O10  1  0.34826186  0.59113152  0.76926086  1
  O  O11  1  0.67938421  0.90291566  0.78317746  1
