# generated using pymatgen
data_Sr18Fe6Ru3O34
_symmetry_space_group_name_H-M   'P 1'
_cell_length_a   3.92026296
_cell_length_b   11.76925799
_cell_length_c   20.84772887
_cell_angle_alpha   106.24083381
_cell_angle_beta   106.25774861
_cell_angle_gamma   90.02912512
_symmetry_Int_Tables_number   1
_chemical_formula_structural   Sr18Fe6Ru3O34
_chemical_formula_sum   'Sr18 Fe6 Ru3 O34'
_cell_volume   883.32491260
_cell_formula_units_Z   1
loop_
 _symmetry_equiv_pos_site_id
 _symmetry_equiv_pos_as_xyz
  1  'x, y, z'
loop_
 _atom_site_type_symbol
 _atom_site_label
 _atom_site_symmetry_multiplicity
 _atom_site_fract_x
 _atom_site_fract_y
 _atom_site_fract_z
 _atom_site_occupancy
  Sr  Sr0  1  0.35245220  0.10850220  0.90108252  1
  Sr  Sr1  1  0.35499000  0.45746804  0.90256465  1
  Sr  Sr2  1  0.34920084  0.78147055  0.89706593  1
  Sr  Sr3  1  0.35831759  0.12973089  0.57189939  1
  Sr  Sr4  1  0.36214361  0.45224290  0.57351216  1
  Sr  Sr5  1  0.35863693  0.77703403  0.57003385  1
  Sr  Sr6  1  0.64136307  0.22296597  0.76330015  1
  Sr  Sr7  1  0.64168241  0.87026911  0.76143461  1
  Sr  Sr8  1  0.63785639  0.54775710  0.75982184  1
  Sr  Sr9  1  0.34933058  0.11485522  0.23121156  1
  Sr  Sr10  1  0.35628927  0.44317998  0.23652387  1
  Sr  Sr11  1  0.35685217  0.79308681  0.23783470  1
  Sr  Sr12  1  0.65079916  0.21852945  0.43626707  1
  Sr  Sr13  1  0.64754780  0.89149780  0.43225048  1
  Sr  Sr14  1  0.64501000  0.54253196  0.43076835  1
  Sr  Sr15  1  0.64314783  0.20691319  0.09549830  1
  Sr  Sr16  1  0.64371073  0.55682002  0.09680913  1
  Sr  Sr17  1  0.65066942  0.88514478  0.10212144  1
  Fe  Fe18  1  0.00086631  0.33563511  0.66777699  1
  Fe  Fe19  1  0.99885954  0.00135873  0.99881837  1
  Fe  Fe20  1  0.99913369  0.66436489  0.66555701  1
  Fe  Fe21  1  0.00028371  0.33551205  0.33355594  1
  Fe  Fe22  1  0.00114046  0.99864127  0.33451463  1
  Fe  Fe23  1  0.99971629  0.66448795  0.99977706  1
  Ru  Ru24  1  0.00000000  -0.00000000  0.66666700  1
  Ru  Ru25  1  0.99895162  0.66668333  0.33266265  1
  Ru  Ru26  1  0.00104838  0.33331667  0.00067035  1
  O  O27  1  0.15769957  0.05121961  0.77374827  1
  O  O28  1  0.16571218  0.38441684  0.77861867  1
  O  O29  1  0.15929860  0.72437681  0.77331877  1
  O  O30  1  0.99614241  0.49734598  0.33103258  1
  O  O31  1  0.00003906  0.83516671  0.33346031  1
  O  O32  1  0.15611301  0.06290178  0.43885891  1
  O  O33  1  0.15503584  0.37198700  0.43718820  1
  O  O34  1  0.15536875  0.71809592  0.43741106  1
  O  O35  1  0.50167807  0.33249320  0.66823649  1
  O  O36  1  0.49832193  0.66750680  0.66509751  1
  O  O37  1  0.50000000  -0.00000000  0.66666700  1
  O  O38  1  0.15534097  0.03627130  0.10326080  1
  O  O39  1  0.16005291  0.38315750  0.10747351  1
  O  O40  1  0.15965203  0.73260890  0.10780976  1
  O  O41  1  0.84463125  0.28190408  0.89592194  1
  O  O42  1  0.84496416  0.62801300  0.89614480  1
  O  O43  1  0.84388699  0.93709822  0.89447409  1
  O  O44  1  0.49713287  0.30640893  0.33130687  1
  O  O45  1  0.49781348  0.66631493  0.33191329  1
  O  O46  1  0.49957769  0.02523171  0.33361432  1
  O  O47  1  0.84070140  0.27562319  0.56001423  1
  O  O48  1  0.83428782  0.61558316  0.55471433  1
  O  O49  1  0.84230043  0.94878039  0.55958473  1
  O  O50  1  0.00198889  0.16564805  0.66821726  1
  O  O51  1  -0.00000000  0.50000000  0.66666700  1
  O  O52  1  0.99801111  0.83435195  0.66511674  1
  O  O53  1  0.50042231  0.97476829  0.99971868  1
  O  O54  1  0.50218652  0.33368507  0.00141971  1
  O  O55  1  0.50286713  0.69359107  0.00202613  1
  O  O56  1  0.84034797  0.26739110  0.22552424  1
  O  O57  1  0.83994709  0.61684250  0.22586049  1
  O  O58  1  0.84465903  0.96372870  0.23007320  1
  O  O59  1  0.99996094  0.16483329  0.99987269  1
  O  O60  1  0.00385759  0.50265402  0.00230042  1
