# generated using pymatgen
data_Li7Mn5O12
_symmetry_space_group_name_H-M   'P 1'
_cell_length_a   5.97001771
_cell_length_b   6.01115010
_cell_length_c   6.51463306
_cell_angle_alpha   76.55709923
_cell_angle_beta   77.15107200
_cell_angle_gamma   92.30335779
_symmetry_Int_Tables_number   1
_chemical_formula_structural   Li7Mn5O12
_chemical_formula_sum   'Li7 Mn5 O12'
_cell_volume   220.64614401
_cell_formula_units_Z   1
loop_
 _symmetry_equiv_pos_site_id
 _symmetry_equiv_pos_as_xyz
  1  'x, y, z'
loop_
 _atom_site_type_symbol
 _atom_site_label
 _atom_site_symmetry_multiplicity
 _atom_site_fract_x
 _atom_site_fract_y
 _atom_site_fract_z
 _atom_site_occupancy
  Li  Li0  1  0.82807850  0.84512826  0.65787410  1
  Li  Li1  1  0.50148236  0.00516788  0.00627502  1
  Li  Li2  1  0.16666700  0.16666700  0.33333300  1
  Li  Li3  1  0.50525450  0.48820474  0.00879290  1
  Li  Li4  1  0.16666700  0.66666700  0.33333300  1
  Li  Li5  1  0.83185064  0.32816512  0.66039198  1
  Li  Li6  1  0.66666700  0.16666700  0.33333300  1
  Mn  Mn7  1  0.99027925  0.00571315  0.00014418  1
  Mn  Mn8  1  0.66666700  0.66666700  0.33333300  1
  Mn  Mn9  1  0.34305375  0.32761985  0.66652282  1
  Mn  Mn10  1  0.99514982  0.49807794  0.00282836  1
  Mn  Mn11  1  0.33818318  0.83525506  0.66383864  1
  O  O12  1  0.22101501  0.75616257  0.98714792  1
  O  O13  1  0.90876277  0.90650139  0.31470075  1
  O  O14  1  0.55279733  0.08168677  0.66764101  1
  O  O15  1  0.89883088  0.44446437  0.31713281  1
  O  O16  1  0.59657354  0.57471441  0.65035975  1
  O  O17  1  0.25661362  0.24142132  0.98708099  1
  O  O18  1  0.43450212  0.88886863  0.34953419  1
  O  O19  1  0.07672038  0.09191268  0.67958501  1
  O  O20  1  0.78053567  0.25164623  0.99902599  1
  O  O21  1  0.11231899  0.57717143  0.67951808  1
  O  O22  1  0.73675946  0.75861859  0.01630725  1
  O  O23  1  0.42457023  0.42683161  0.35196625  1
