# generated using pymatgen
data_V2CN
_symmetry_space_group_name_H-M   'P 1'
_cell_length_a   2.93455067
_cell_length_b   2.93455067
_cell_length_c   5.07794484
_cell_angle_alpha   73.20485807
_cell_angle_beta   90.00000000
_cell_angle_gamma   120.00000000
_symmetry_Int_Tables_number   1
_chemical_formula_structural   V2CN
_chemical_formula_sum   'V2 C1 N1'
_cell_volume   35.70045382
_cell_formula_units_Z   1
loop_
 _symmetry_equiv_pos_site_id
 _symmetry_equiv_pos_as_xyz
  1  'x, y, z'
loop_
 _atom_site_type_symbol
 _atom_site_label
 _atom_site_symmetry_multiplicity
 _atom_site_fract_x
 _atom_site_fract_y
 _atom_site_fract_z
 _atom_site_occupancy
  V  V0  1  0.25552942  0.51105884  0.23341174  1
  V  V1  1  0.74447058  0.48894116  0.76658826  1
  C  C2  1  -0.00000000  -0.00000000  0.00000000  1
  N  N3  1  0.50000000  -0.00000000  0.50000000  1
