# generated using pymatgen
data_Na4FeO5
_symmetry_space_group_name_H-M   'P 1'
_cell_length_a   5.71227584
_cell_length_b   8.50031275
_cell_length_c   5.68275693
_cell_angle_alpha   101.34020550
_cell_angle_beta   102.20838505
_cell_angle_gamma   109.38688268
_symmetry_Int_Tables_number   1
_chemical_formula_structural   Na4FeO5
_chemical_formula_sum   'Na8 Fe2 O10'
_cell_volume   243.51321463
_cell_formula_units_Z   2
loop_
 _symmetry_equiv_pos_site_id
 _symmetry_equiv_pos_as_xyz
  1  'x, y, z'
loop_
 _atom_site_type_symbol
 _atom_site_label
 _atom_site_symmetry_multiplicity
 _atom_site_fract_x
 _atom_site_fract_y
 _atom_site_fract_z
 _atom_site_occupancy
  Na  Na0  1  0.19752257  0.70720104  0.59182414  1
  Na  Na1  1  -0.00000000  0.50000000  -0.00000000  1
  Na  Na2  1  -0.00000000  0.00000000  0.50000000  1
  Na  Na3  1  0.41728770  0.90327969  0.19937706  1
  Na  Na4  1  0.40546186  0.40542135  0.70109371  1
  Na  Na5  1  0.59453814  0.59457865  0.29890629  1
  Na  Na6  1  0.58271230  0.09672031  0.80062294  1
  Na  Na7  1  0.80247743  0.29279896  0.40817586  1
  Fe  Fe8  1  0.18487530  0.19316948  0.09815772  1
  Fe  Fe9  1  0.81512470  0.80683052  0.90184228  1
  O  O10  1  0.15057958  0.96275837  0.88604704  1
  O  O11  1  0.02283171  0.24170555  0.80737230  1
  O  O12  1  0.17672347  0.39347505  0.29976460  1
  O  O13  1  0.48985684  0.69046527  0.93960081  1
  O  O14  1  0.62694912  0.84283191  0.60824924  1
  O  O15  1  0.37305088  0.15716809  0.39175076  1
  O  O16  1  0.51014316  0.30953473  0.06039919  1
  O  O17  1  0.82327653  0.60652495  0.70023540  1
  O  O18  1  0.97716829  0.75829445  0.19262770  1
  O  O19  1  0.84942042  0.03724163  0.11395296  1
