# generated using pymatgen
data_Li4Mn3O7
_symmetry_space_group_name_H-M   'P 1'
_cell_length_a   2.88300277
_cell_length_b   7.82022675
_cell_length_c   11.87280899
_cell_angle_alpha   86.94278307
_cell_angle_beta   96.97359080
_cell_angle_gamma   79.37793227
_symmetry_Int_Tables_number   1
_chemical_formula_structural   Li4Mn3O7
_chemical_formula_sum   'Li8 Mn6 O14'
_cell_volume   260.36040647
_cell_formula_units_Z   2
loop_
 _symmetry_equiv_pos_site_id
 _symmetry_equiv_pos_as_xyz
  1  'x, y, z'
loop_
 _atom_site_type_symbol
 _atom_site_label
 _atom_site_symmetry_multiplicity
 _atom_site_fract_x
 _atom_site_fract_y
 _atom_site_fract_z
 _atom_site_occupancy
  Li  Li0  1  0.56627925  0.07500471  0.20756222  1
  Li  Li1  1  0.71915386  0.21421327  0.65252000  1
  Li  Li2  1  0.85227514  0.35721573  0.06176600  1
  Li  Li3  1  0.28571400  0.78571400  0.35714300  1
  Li  Li4  1  0.42770819  0.93816243  0.79357982  1
  Li  Li5  1  0.00514975  0.49642429  0.50672378  1
  Li  Li6  1  0.14371981  0.63326557  0.92070518  1
  Li  Li7  1  0.28571400  0.28571400  0.85714300  1
  Mn  Mn8  1  0.98730033  0.01363466  0.98823532  1
  Mn  Mn9  1  0.58412867  0.55779434  0.72605068  1
  Mn  Mn10  1  0.14513746  0.13988394  0.43015886  1
  Mn  Mn11  1  0.42629054  0.43154406  0.28412614  1
  Mn  Mn12  1  0.70643543  0.72029594  0.13316581  1
  Mn  Mn13  1  0.86499357  0.85113306  0.58112019  1
  O  O14  1  0.43429536  0.16409721  0.03268694  1
  O  O15  1  0.58381946  0.29904261  0.46668152  1
  O  O16  1  0.69985351  0.47524033  0.87494736  1
  O  O17  1  0.13681624  0.88793509  0.16156856  1
  O  O18  1  0.29980064  0.01293371  0.61253399  1
  O  O19  1  0.86437221  0.59279852  0.32154293  1
  O  O20  1  0.01382793  0.72254416  0.75020101  1
  O  O21  1  0.70705579  0.97862948  0.39274207  1
  O  O22  1  0.87157549  0.09618867  0.83933864  1
  O  O23  1  0.98760954  0.27238639  0.24760448  1
  O  O24  1  0.43461176  0.68349291  0.55271644  1
  O  O25  1  0.55760007  0.84888384  0.96408499  1
  O  O26  1  0.13713364  0.40733179  0.68159906  1
  O  O27  1  0.27162836  0.55849529  0.10175201  1
