# generated using pymatgen
data_Li7Mn4CoO12
_symmetry_space_group_name_H-M   'P 1'
_cell_length_a   5.83290043
_cell_length_b   7.58009213
_cell_length_c   5.92586895
_cell_angle_alpha   110.47022752
_cell_angle_beta   60.84213063
_cell_angle_gamma   100.59404077
_symmetry_Int_Tables_number   1
_chemical_formula_structural   Li7Mn4CoO12
_chemical_formula_sum   'Li7 Mn4 Co1 O12'
_cell_volume   214.32757430
_cell_formula_units_Z   1
loop_
 _symmetry_equiv_pos_site_id
 _symmetry_equiv_pos_as_xyz
  1  'x, y, z'
loop_
 _atom_site_type_symbol
 _atom_site_label
 _atom_site_symmetry_multiplicity
 _atom_site_fract_x
 _atom_site_fract_y
 _atom_site_fract_z
 _atom_site_occupancy
  Li  Li0  1  0.16947721  0.34515157  0.34515081  1
  Li  Li1  1  0.33333300  0.66666700  0.16666700  1
  Li  Li2  1  0.83333300  0.66666700  0.66666700  1
  Li  Li3  1  0.99776204  0.99260643  0.49038599  1
  Li  Li4  1  0.49718979  0.98818143  0.98818219  1
  Li  Li5  1  0.66890496  0.34072657  0.84294701  1
  Li  Li6  1  0.83333300  0.66666700  0.16666700  1
  Mn  Mn7  1  0.00024937  0.99331277  0.99642218  1
  Mn  Mn8  1  0.66641763  0.34002023  0.33691082  1
  Mn  Mn9  1  0.16383169  0.33989555  0.83611662  1
  Mn  Mn10  1  0.50283531  0.99343745  0.49721638  1
  Co  Co11  1  0.33333300  0.66666700  0.66666700  1
  O  O12  1  0.32745251  0.15781309  0.88788625  1
  O  O13  1  0.47027279  0.50533146  0.76574419  1
  O  O14  1  0.00445850  0.47494559  0.21755299  1
  O  O15  1  0.16719811  0.83142496  0.04949657  1
  O  O16  1  0.64097344  0.83458450  0.58556642  1
  O  O17  1  0.80091836  0.16593569  0.43012241  1
  O  O18  1  0.02569356  0.49874850  0.74776658  1
  O  O19  1  0.19639321  0.82800254  0.56758981  1
  O  O20  1  0.66220750  0.85838841  0.11578101  1
  O  O21  1  0.86574864  0.16739731  0.90321059  1
  O  O22  1  0.33921449  0.17551991  0.44544675  1
  O  O23  1  0.49946889  0.50190804  0.28383643  1
