# generated using pymatgen
data_Li7Mn5O12
_symmetry_space_group_name_H-M   'P 1'
_cell_length_a   5.22236720
_cell_length_b   7.78882031
_cell_length_c   6.01924506
_cell_angle_alpha   76.34137294
_cell_angle_beta   70.38031265
_cell_angle_gamma   74.93514994
_symmetry_Int_Tables_number   1
_chemical_formula_structural   Li7Mn5O12
_chemical_formula_sum   'Li7 Mn5 O12'
_cell_volume   219.69554452
_cell_formula_units_Z   1
loop_
 _symmetry_equiv_pos_site_id
 _symmetry_equiv_pos_as_xyz
  1  'x, y, z'
loop_
 _atom_site_type_symbol
 _atom_site_label
 _atom_site_symmetry_multiplicity
 _atom_site_fract_x
 _atom_site_fract_y
 _atom_site_fract_z
 _atom_site_occupancy
  Li  Li0  1  0.50508538  0.16121321  0.82712905  1
  Li  Li1  1  0.50000000  0.50000000  -0.00000000  1
  Li  Li2  1  0.49491462  0.83878679  0.17287095  1
  Li  Li3  1  0.50421690  0.16147600  0.34193834  1
  Li  Li4  1  0.50000000  0.50000000  0.50000000  1
  Li  Li5  1  0.49578310  0.83852400  0.65806166  1
  Li  Li6  1  0.00000000  0.00000000  0.50000000  1
  Mn  Mn7  1  0.00000000  0.00000000  -0.00000000  1
  Mn  Mn8  1  0.00131969  0.67123342  0.83125102  1
  Mn  Mn9  1  0.99868031  0.32876658  0.16874898  1
  Mn  Mn10  1  0.00585837  0.67066832  0.33790437  1
  Mn  Mn11  1  0.99414163  0.32933168  0.66209563  1
  O  O12  1  0.22845857  0.09310627  0.68337781  1
  O  O13  1  0.21617700  0.41927534  0.84286509  1
  O  O14  1  0.24024864  0.76317476  0.01529570  1
  O  O15  1  0.21288771  0.08640407  0.14916274  1
  O  O16  1  0.23561021  0.42731326  0.34610783  1
  O  O17  1  0.22599067  0.74187690  0.51152399  1
  O  O18  1  0.75975136  0.23682524  0.98470430  1
  O  O19  1  0.78382300  0.58072466  0.15713491  1
  O  O20  1  0.77154143  0.90689373  0.31662219  1
  O  O21  1  0.77400933  0.25812310  0.48847601  1
  O  O22  1  0.76438979  0.57268674  0.65389217  1
  O  O23  1  0.78711229  0.91359593  0.85083726  1
