# generated using pymatgen
data_Li6Mn3CoO10
_symmetry_space_group_name_H-M   'P 1'
_cell_length_a   5.01604307
_cell_length_b   5.10668780
_cell_length_c   7.78651277
_cell_angle_alpha   83.57941503
_cell_angle_beta   108.52784021
_cell_angle_gamma   109.08410034
_symmetry_Int_Tables_number   1
_chemical_formula_structural   Li6Mn3CoO10
_chemical_formula_sum   'Li6 Mn3 Co1 O10'
_cell_volume   178.71562182
_cell_formula_units_Z   1
loop_
 _symmetry_equiv_pos_site_id
 _symmetry_equiv_pos_as_xyz
  1  'x, y, z'
loop_
 _atom_site_type_symbol
 _atom_site_label
 _atom_site_symmetry_multiplicity
 _atom_site_fract_x
 _atom_site_fract_y
 _atom_site_fract_z
 _atom_site_occupancy
  Li  Li0  1  0.10473286  0.50119587  0.20306798  1
  Li  Li1  1  0.70610647  0.49683060  0.41440646  1
  Li  Li2  1  0.29710167  0.49727110  0.60198876  1
  Li  Li3  1  0.89265116  0.50195312  0.78525058  1
  Li  Li4  1  0.49482753  0.49737765  0.99016462  1
  Li  Li5  1  0.80158611  0.99709132  0.60401763  1
  Mn  Mn6  1  0.99660527  0.00275479  0.99252983  1
  Mn  Mn7  1  0.20170677  0.99809283  0.40706668  1
  Mn  Mn8  1  0.60348913  0.00203711  0.20493014  1
  Co  Co9  1  0.39791082  0.99975875  0.79068080  1
  O  O10  1  0.76122108  0.22505852  0.01541297  1
  O  O11  1  0.34716342  0.21979541  0.20070876  1
  O  O12  1  0.94156579  0.21825734  0.38555052  1
  O  O13  1  0.51224635  0.23604852  0.58176690  1
  O  O14  1  0.13975576  0.23616540  0.81886868  1
  O  O15  1  0.44215953  0.77929502  0.38551600  1
  O  O16  1  0.06198235  0.75630951  0.58045769  1
  O  O17  1  0.68140980  0.76713026  0.82219814  1
  O  O18  1  0.26008563  0.78437815  0.01423094  1
  O  O19  1  0.85569252  0.78319873  0.20118592  1
