# generated using pymatgen
data_Li7Mn5O12
_symmetry_space_group_name_H-M   'P 1'
_cell_length_a   5.85655551
_cell_length_b   6.02035926
_cell_length_c   7.78795857
_cell_angle_alpha   103.12883291
_cell_angle_beta   112.08236119
_cell_angle_gamma   60.00498518
_symmetry_Int_Tables_number   1
_chemical_formula_structural   Li7Mn5O12
_chemical_formula_sum   'Li7 Mn5 O12'
_cell_volume   220.10765996
_cell_formula_units_Z   1
loop_
 _symmetry_equiv_pos_site_id
 _symmetry_equiv_pos_as_xyz
  1  'x, y, z'
loop_
 _atom_site_type_symbol
 _atom_site_label
 _atom_site_symmetry_multiplicity
 _atom_site_fract_x
 _atom_site_fract_y
 _atom_site_fract_z
 _atom_site_occupancy
  Li  Li0  1  0.50000000  0.33333300  0.33333300  1
  Li  Li1  1  0.49664923  0.16767660  0.66344560  1
  Li  Li2  1  0.50000000  0.83333300  0.33333300  1
  Li  Li3  1  0.49155173  0.67031038  0.66038412  1
  Li  Li4  1  0.50335077  0.49899040  0.00322140  1
  Li  Li5  1  0.50844827  0.99635662  0.00628288  1
  Li  Li6  1  -0.00000000  0.83333300  0.33333300  1
  Mn  Mn7  1  0.00733946  0.99106445  0.00548164  1
  Mn  Mn8  1  -0.00000000  0.33333300  0.33333300  1
  Mn  Mn9  1  0.99266054  0.67560255  0.66118536  1
  Mn  Mn10  1  0.00187354  0.50091069  0.00361942  1
  Mn  Mn11  1  -0.00187354  0.16575631  0.66304758  1
  O  O12  1  0.21455991  0.03865986  0.49305120  1
  O  O13  1  0.23808748  0.82952908  0.84103316  1
  O  O14  1  0.22388287  0.49990135  0.50296288  1
  O  O15  1  0.21454152  0.34784248  0.82382942  1
  O  O16  1  0.24375771  0.15852814  0.17890497  1
  O  O17  1  0.22395327  0.67080646  0.14898021  1
  O  O18  1  0.78544009  0.62800714  0.17361580  1
  O  O19  1  0.75624229  0.50813786  0.48776103  1
  O  O20  1  0.77611713  0.16676565  0.16370412  1
  O  O21  1  0.77604673  0.99585954  0.51768579  1
  O  O22  1  0.76191252  0.83713792  0.82563384  1
  O  O23  1  0.78545848  0.31882452  0.84283758  1
