# generated using pymatgen
data_Li5Mn3O8
_symmetry_space_group_name_H-M   'P 1'
_cell_length_a   5.12849682
_cell_length_b   5.76825617
_cell_length_c   5.91235116
_cell_angle_alpha   60.80299803
_cell_angle_beta   71.75416396
_cell_angle_gamma   90.00000091
_symmetry_Int_Tables_number   1
_chemical_formula_structural   Li5Mn3O8
_chemical_formula_sum   'Li5 Mn3 O8'
_cell_volume   142.52199361
_cell_formula_units_Z   1
loop_
 _symmetry_equiv_pos_site_id
 _symmetry_equiv_pos_as_xyz
  1  'x, y, z'
loop_
 _atom_site_type_symbol
 _atom_site_label
 _atom_site_symmetry_multiplicity
 _atom_site_fract_x
 _atom_site_fract_y
 _atom_site_fract_z
 _atom_site_occupancy
  Li  Li0  1  0.49878170  0.24588772  0.00822457  1
  Li  Li1  1  0.50000000  0.23812490  0.50000000  1
  Li  Li2  1  0.50000000  0.76187510  0.50000000  1
  Li  Li3  1  0.50121830  0.75411228  0.99177543  1
  Li  Li4  1  -0.00000000  -0.00000000  0.50000000  1
  Mn  Mn5  1  -0.00000000  -0.00000000  -0.00000000  1
  Mn  Mn6  1  -0.00000000  0.50000000  0.50000000  1
  Mn  Mn7  1  -0.00000000  0.50000000  -0.00000000  1
  O  O8  1  0.23876074  0.35808608  0.78382784  1
  O  O9  1  0.21511369  0.39096343  0.24127073  1
  O  O10  1  0.21511369  0.86776584  0.24127073  1
  O  O11  1  0.22971425  0.86320856  0.77358288  1
  O  O12  1  0.77028575  0.13679144  0.22641712  1
  O  O13  1  0.78488631  0.13223416  0.75872927  1
  O  O14  1  0.78488631  0.60903657  0.75872927  1
  O  O15  1  0.76123926  0.64191392  0.21617216  1
