# generated using pymatgen
data_Na3Li3Mn2P2(CO7)2
_symmetry_space_group_name_H-M   'P 1'
_cell_length_a   8.80845913
_cell_length_b   6.73975598
_cell_length_c   10.20378941
_cell_angle_alpha   90.21546511
_cell_angle_beta   88.82470629
_cell_angle_gamma   89.28966063
_symmetry_Int_Tables_number   1
_chemical_formula_structural   Na3Li3Mn2P2(CO7)2
_chemical_formula_sum   'Na6 Li6 Mn4 P4 C4 O28'
_cell_volume   605.58812053
_cell_formula_units_Z   2
loop_
 _symmetry_equiv_pos_site_id
 _symmetry_equiv_pos_as_xyz
  1  'x, y, z'
loop_
 _atom_site_type_symbol
 _atom_site_label
 _atom_site_symmetry_multiplicity
 _atom_site_fract_x
 _atom_site_fract_y
 _atom_site_fract_z
 _atom_site_occupancy
  Na  Na0  1  0.08299847  0.24523455  0.87839086  1
  Na  Na1  1  0.08475611  0.24511719  0.37870038  1
  Na  Na2  1  0.25418531  0.99780887  0.12319767  1
  Na  Na3  1  0.25472650  0.50167934  0.12188912  1
  Na  Na4  1  0.74874805  0.50179940  0.87549242  1
  Na  Na5  1  0.74665876  0.50197704  0.37539052  1
  Li  Li6  1  0.27434442  0.03118988  0.61354690  1
  Li  Li7  1  0.27316329  0.46690886  0.61340499  1
  Li  Li8  1  0.72816310  0.97254577  0.88917644  1
  Li  Li9  1  0.72725476  0.97686139  0.38656098  1
  Li  Li10  1  0.91463117  0.77066391  0.62896822  1
  Li  Li11  1  0.90395750  0.76790140  0.12598457  1
  Mn  Mn12  1  0.36020390  0.74891052  0.88047395  1
  Mn  Mn13  1  0.35974011  0.74950585  0.39495877  1
  Mn  Mn14  1  0.64922763  0.24266587  0.61516564  1
  Mn  Mn15  1  0.64079265  0.24346911  0.10984051  1
  P  P16  1  0.41255011  0.24324037  0.84821788  1
  P  P17  1  0.41666671  0.24399310  0.36092533  1
  P  P18  1  0.59196255  0.75265427  0.64800227  1
  P  P19  1  0.59356888  0.75191858  0.14515683  1
  C  C20  1  0.04354432  0.76045975  0.86451121  1
  C  C21  1  0.04447991  0.76086868  0.36599653  1
  C  C22  1  0.95343932  0.24970836  0.63132564  1
  C  C23  1  0.93914911  0.24752568  0.13409466  1
  O  O24  1  0.10156991  0.25103422  0.63810202  1
  O  O25  1  0.08537833  0.25343014  0.14537044  1
  O  O26  1  0.07898796  0.75491763  0.98809915  1
  O  O27  1  0.07942897  0.75464591  0.48846079  1
  O  O28  1  0.14845568  0.74701252  0.77311430  1
  O  O29  1  0.15297327  0.74961508  0.27575006  1
  O  O30  1  0.31668290  0.06453723  0.89462788  1
  O  O31  1  0.32700855  0.43317383  0.89597569  1
  O  O32  1  0.31923456  0.06594695  0.40932259  1
  O  O33  1  0.32984545  0.43307325  0.41221876  1
  O  O34  1  0.42011506  0.24410890  0.69379858  1
  O  O35  1  0.42450482  0.75340764  0.59892728  1
  O  O36  1  0.42423754  0.24639809  0.20791866  1
  O  O37  1  0.43325588  0.74820310  0.08529257  1
  O  O38  1  0.57785127  0.23216027  0.89944935  1
  O  O39  1  0.58279737  0.77480008  0.80048031  1
  O  O40  1  0.58120552  0.23174578  0.41134160  1
  O  O41  1  0.57535637  0.77491085  0.29765139  1
  O  O42  1  0.68076750  0.55993075  0.61095978  1
  O  O43  1  0.68835041  0.92410767  0.58929301  1
  O  O44  1  0.68816240  0.56151726  0.11288212  1
  O  O45  1  0.69139575  0.92489015  0.08995609  1
  O  O46  1  0.86901994  0.24517454  0.73736157  1
  O  O47  1  0.85123806  0.23893249  0.23788601  1
  O  O48  1  0.88737315  0.25159969  0.51896746  1
  O  O49  1  0.87876598  0.24947876  0.01894817  1
  O  O50  1  0.90244721  0.77894118  0.82988796  1
  O  O51  1  0.90467655  0.77769729  0.32858610  1
