# generated using pymatgen
data_Li7Mn4CoO12
_symmetry_space_group_name_H-M   'P 1'
_cell_length_a   5.05811484
_cell_length_b   5.08852436
_cell_length_c   8.93497136
_cell_angle_alpha   103.70054887
_cell_angle_beta   92.92837600
_cell_angle_gamma   100.48367001
_symmetry_Int_Tables_number   1
_chemical_formula_structural   Li7Mn4CoO12
_chemical_formula_sum   'Li7 Mn4 Co1 O12'
_cell_volume   218.62792260
_cell_formula_units_Z   1
loop_
 _symmetry_equiv_pos_site_id
 _symmetry_equiv_pos_as_xyz
  1  'x, y, z'
loop_
 _atom_site_type_symbol
 _atom_site_label
 _atom_site_symmetry_multiplicity
 _atom_site_fract_x
 _atom_site_fract_y
 _atom_site_fract_z
 _atom_site_occupancy
  Li  Li0  1  0.73103724  0.50795140  0.09121570  1
  Li  Li1  1  0.74270519  0.48765989  0.41013184  1
  Li  Li2  1  0.26607904  0.49719248  0.24218118  1
  Li  Li3  1  0.27000266  0.48470096  0.56761720  1
  Li  Li4  1  0.73626781  0.51473832  0.76495731  1
  Li  Li5  1  0.24786590  0.50650338  0.92487304  1
  Li  Li6  1  0.49963908  -0.00002967  0.16714996  1
  Mn  Mn7  1  0.99743357  0.01501516  0.01014526  1
  Mn  Mn8  1  0.00373202  0.98662871  0.32591174  1
  Mn  Mn9  1  0.00033759  0.99985880  0.66370848  1
  Mn  Mn10  1  0.49457217  0.01308995  0.84364858  1
  Co  Co11  1  0.50895045  0.98200118  0.48446706  1
  O  O12  1  0.86030421  0.23988911  0.88403325  1
  O  O13  1  0.89518423  0.21813927  0.20148907  1
  O  O14  1  0.34419678  0.24655114  0.04508017  1
  O  O15  1  0.37050757  0.21620848  0.38180574  1
  O  O16  1  0.88341991  0.20732590  0.51802875  1
  O  O17  1  0.36108698  0.23212266  0.71245487  1
  O  O18  1  0.65295149  0.75738459  0.29394845  1
  O  O19  1  0.63732941  0.77038678  0.61624096  1
  O  O20  1  0.14554958  0.76318510  0.44937070  1
  O  O21  1  0.11411185  0.79278637  0.81304413  1
  O  O22  1  0.63283075  0.77823856  0.95446975  1
  O  O23  1  0.10390453  0.78247149  0.13402680  1
