# generated using pymatgen
data_LiFeSiO4
_symmetry_space_group_name_H-M   'P 1'
_cell_length_a   18.76245931
_cell_length_b   8.26486512
_cell_length_c   5.48588213
_cell_angle_alpha   89.99981404
_cell_angle_beta   90.00019464
_cell_angle_gamma   89.99301574
_symmetry_Int_Tables_number   1
_chemical_formula_structural   LiFeSiO4
_chemical_formula_sum   'Li12 Fe12 Si12 O48'
_cell_volume   850.69132156
_cell_formula_units_Z   12
loop_
 _symmetry_equiv_pos_site_id
 _symmetry_equiv_pos_as_xyz
  1  'x, y, z'
loop_
 _atom_site_type_symbol
 _atom_site_label
 _atom_site_symmetry_multiplicity
 _atom_site_fract_x
 _atom_site_fract_y
 _atom_site_fract_z
 _atom_site_occupancy
  Li  Li0  1  0.08262466  0.57684356  0.01947800  1
  Li  Li1  1  0.08438914  0.07734181  0.48508637  1
  Li  Li2  1  0.24908703  0.92020847  0.00623119  1
  Li  Li3  1  0.25092779  0.42018064  0.50620178  1
  Li  Li4  1  0.41562941  0.57735243  0.98510629  1
  Li  Li5  1  0.41738302  0.07683379  0.51945232  1
  Li  Li6  1  0.58262704  0.92316538  0.01948475  1
  Li  Li7  1  0.58438446  0.42265038  0.48507042  1
  Li  Li8  1  0.74907599  0.57980618  0.00618659  1
  Li  Li9  1  0.75091763  0.07980661  0.50621679  1
  Li  Li10  1  0.91562131  0.92265385  0.98508123  1
  Li  Li11  1  0.91738011  0.42316133  0.51943824  1
  Fe  Fe12  1  0.99971672  0.24923797  0.00166665  1
  Fe  Fe13  1  0.00024930  0.75076099  0.50181177  1
  Fe  Fe14  1  0.16690249  0.74839226  0.50933292  1
  Fe  Fe15  1  0.16635828  0.24982141  0.00695005  1
  Fe  Fe16  1  0.33359419  0.74976859  0.50691939  1
  Fe  Fe17  1  0.33307509  0.24836484  0.00925815  1
  Fe  Fe18  1  0.49972087  0.25073811  0.00174673  1
  Fe  Fe19  1  0.50025849  0.74926123  0.50180769  1
  Fe  Fe20  1  0.66689431  0.75161436  0.50927534  1
  Fe  Fe21  1  0.66636367  0.25020619  0.00682248  1
  Fe  Fe22  1  0.83359024  0.75020266  0.50684230  1
  Fe  Fe23  1  0.83307301  0.25162967  0.00938226  1
  Si  Si24  1  0.08271183  0.90245029  0.00253746  1
  Si  Si25  1  0.08356505  0.40275817  0.50686186  1
  Si  Si26  1  0.24979515  0.59582692  0.00938603  1
  Si  Si27  1  0.25028985  0.09583264  0.50938160  1
  Si  Si28  1  0.41640384  0.90271689  0.00689462  1
  Si  Si29  1  0.41726091  0.40243005  0.50248873  1
  Si  Si30  1  0.58275107  0.59756020  0.00251766  1
  Si  Si31  1  0.58361340  0.09727325  0.50685546  1
  Si  Si32  1  0.74972364  0.90417366  0.00935156  1
  Si  Si33  1  0.75022041  0.40416016  0.50937814  1
  Si  Si34  1  0.91643168  0.59725939  0.00686809  1
  Si  Si35  1  0.91727901  0.09756044  0.50249605  1
  O  O36  1  0.98865506  0.98621515  0.50127793  1
  O  O37  1  0.01134604  0.01380340  0.00126652  1
  O  O38  1  0.01272755  0.51566973  0.50285997  1
  O  O39  1  0.08331341  0.27624742  0.74617044  1
  O  O40  1  0.08311699  0.27794200  0.26393747  1
  O  O41  1  0.08326238  0.77700931  0.24487121  1
  O  O42  1  0.08328245  0.77627557  0.76297272  1
  O  O43  1  0.15376051  0.01504782  0.00945704  1
  O  O44  1  0.15522851  0.51346412  0.50840006  1
  O  O45  1  0.17828512  0.48479094  0.01019193  1
  O  O46  1  0.17925928  0.98321263  0.50883355  1
  O  O47  1  0.24993179  0.22211235  0.26899196  1
  O  O48  1  0.24982979  0.22149796  0.75061478  1
  O  O49  1  0.25006867  0.72211911  0.76901422  1
  O  O50  1  0.25016887  0.72148535  0.25063078  1
  O  O51  1  0.32074687  0.48325945  0.00884665  1
  O  O52  1  0.32171294  0.98480147  0.51018561  1
  O  O53  1  0.34479718  0.01342051  0.00839546  1
  O  O54  1  0.34625819  0.51499584  0.50946034  1
  O  O55  1  0.41672256  0.27625739  0.26293841  1
  O  O56  1  0.41674123  0.27698626  0.74480203  1
  O  O57  1  0.41689188  0.77791394  0.76396245  1
  O  O58  1  0.41669701  0.77622202  0.24621040  1
  O  O59  1  0.48729207  0.01568065  0.00285276  1
  O  O60  1  0.48868184  0.51381093  0.50127282  1
  O  O61  1  0.51132559  0.48617496  0.00126407  1
  O  O62  1  0.51271566  0.98431037  0.50286256  1
  O  O63  1  0.58330760  0.22376286  0.74616828  1
  O  O64  1  0.58311484  0.22206825  0.26393377  1
  O  O65  1  0.58326354  0.72299870  0.24484830  1
  O  O66  1  0.58328396  0.72373345  0.76297727  1
  O  O67  1  0.65374516  0.48499843  0.00945065  1
  O  O68  1  0.65521489  0.98656595  0.50839659  1
  O  O69  1  0.67829994  0.01518876  0.01018582  1
  O  O70  1  0.67927177  0.51674400  0.50883541  1
  O  O71  1  0.74983238  0.27850602  0.75061890  1
  O  O72  1  0.74993445  0.27788105  0.26900389  1
  O  O73  1  0.75016957  0.77850433  0.25059333  1
  O  O74  1  0.75007056  0.77788215  0.76899095  1
  O  O75  1  0.82075649  0.01678139  0.00883698  1
  O  O76  1  0.82172450  0.51521585  0.51017777  1
  O  O77  1  0.84477703  0.48655543  0.00838986  1
  O  O78  1  0.84623747  0.98496451  0.50943440  1
  O  O79  1  0.91671459  0.22373241  0.26294383  1
  O  O80  1  0.91673226  0.22300557  0.74481599  1
  O  O81  1  0.91688028  0.72207554  0.76394946  1
  O  O82  1  0.91668418  0.72376324  0.24619276  1
  O  O83  1  0.98727300  0.48433969  0.00284375  1
