# generated using pymatgen
data_LiMn6O12
_symmetry_space_group_name_H-M   'P 1'
_cell_length_a   6.61587346
_cell_length_b   6.61292934
_cell_length_c   15.39555947
_cell_angle_alpha   82.88140877
_cell_angle_beta   97.28116661
_cell_angle_gamma   97.34471442
_symmetry_Int_Tables_number   1
_chemical_formula_structural   LiMn6O12
_chemical_formula_sum   'Li3 Mn18 O36'
_cell_volume   658.66260205
_cell_formula_units_Z   3
loop_
 _symmetry_equiv_pos_site_id
 _symmetry_equiv_pos_as_xyz
  1  'x, y, z'
loop_
 _atom_site_type_symbol
 _atom_site_label
 _atom_site_symmetry_multiplicity
 _atom_site_fract_x
 _atom_site_fract_y
 _atom_site_fract_z
 _atom_site_occupancy
  Li  Li0  1  0.74762554  0.24697064  0.08616971  1
  Li  Li1  1  0.75002594  0.24734786  0.74964233  1
  Li  Li2  1  0.08652115  0.59112362  0.41111475  1
  Mn  Mn3  1  0.98753237  0.01184180  0.33311539  1
  Mn  Mn4  1  0.00777050  0.99242458  0.66823650  1
  Mn  Mn5  1  0.84582335  0.82181003  0.16694619  1
  Mn  Mn6  1  0.83159794  0.83452926  0.50233848  1
  Mn  Mn7  1  0.83922677  0.82595374  0.83408549  1
  Mn  Mn8  1  0.65853044  0.67405656  0.33328142  1
  Mn  Mn9  1  0.66196764  0.66980651  0.66825343  1
  Mn  Mn10  1  0.49468719  0.50829111  0.16528911  1
  Mn  Mn11  1  0.65883802  0.67896778  0.99710524  1
  Mn  Mn12  1  0.51156048  0.48890935  0.50143866  1
  Mn  Mn13  1  0.49401372  0.50575103  0.83350350  1
  Mn  Mn14  1  0.33578643  0.33035578  0.33201696  1
  Mn  Mn15  1  0.32867796  0.33745813  0.66797093  1
  Mn  Mn16  1  0.16981303  0.16217023  0.16492532  1
  Mn  Mn17  1  0.32504315  0.34066691  0.99835696  1
  Mn  Mn18  1  0.17586456  0.15615190  0.50287004  1
  Mn  Mn19  1  0.17424100  0.16072258  0.83429968  1
  Mn  Mn20  1  0.00122683  0.99726841  0.99804316  1
  O  O21  1  0.89894462  0.10585251  0.19538568  1
  O  O22  1  0.93260412  0.73341520  0.30229418  1
  O  O23  1  0.90856653  0.09654658  0.54985465  1
  O  O24  1  0.92883017  0.73067002  0.62512357  1
  O  O25  1  0.90413733  0.09697531  0.87310141  1
  O  O26  1  0.75553068  0.56114132  0.11458645  1
  O  O27  1  0.92893660  0.73212232  0.95412518  1
  O  O28  1  0.77271003  0.57345624  0.45272602  1
  O  O29  1  0.73259682  0.94666312  0.03220597  1
  O  O30  1  0.76050457  0.56215398  0.78979723  1
  O  O31  1  0.72542710  0.93476036  0.38411713  1
  O  O32  1  0.59740569  0.40666174  0.28501572  1
  O  O33  1  0.74206589  0.93725514  0.71463491  1
  O  O34  1  0.60472841  0.39370768  0.63990514  1
  O  O35  1  0.57302220  0.76678802  0.21088922  1
  O  O36  1  0.43728727  0.24369084  0.11676892  1
  O  O37  1  0.59278514  0.40728352  0.95585241  1
  O  O38  1  0.56931622  0.75651395  0.54924624  1
  O  O39  1  0.43478404  0.22636877  0.45260348  1
  O  O40  1  0.39375245  0.60662629  0.04239179  1
  O  O41  1  0.56833895  0.77054197  0.87506236  1
  O  O42  1  0.43737257  0.23939083  0.78884120  1
  O  O43  1  0.38697111  0.59701805  0.36998490  1
  O  O44  1  0.25800878  0.06942555  0.28468661  1
  O  O45  1  0.39514092  0.60328301  0.71360758  1
  O  O46  1  0.23309634  0.42890784  0.20978192  1
  O  O47  1  0.27180468  0.06788501  0.62627390  1
  O  O48  1  0.26840891  0.07236984  0.95458093  1
  O  O49  1  0.24044877  0.42497552  0.54623369  1
  O  O50  1  0.06204663  0.26316678  0.04272255  1
  O  O51  1  0.10550760  0.89959423  0.11525792  1
  O  O52  1  0.23006448  0.43067590  0.87645873  1
  O  O53  1  0.07568085  0.27299182  0.38439661  1
  O  O54  1  0.10040536  0.88864310  0.46672087  1
  O  O55  1  0.06271955  0.25792813  0.71460616  1
  O  O56  1  0.10510964  0.89453868  0.79039854  1
