# generated using pymatgen
data_Li5V3P8O29
_symmetry_space_group_name_H-M   'P 1'
_cell_length_a   9.76889453
_cell_length_b   9.74277387
_cell_length_c   14.11020938
_cell_angle_alpha   90.58325821
_cell_angle_beta   90.85342200
_cell_angle_gamma   60.17072907
_symmetry_Int_Tables_number   1
_chemical_formula_structural   Li5V3P8O29
_chemical_formula_sum   'Li10 V6 P16 O58'
_cell_volume   1164.89377069
_cell_formula_units_Z   2
loop_
 _symmetry_equiv_pos_site_id
 _symmetry_equiv_pos_as_xyz
  1  'x, y, z'
loop_
 _atom_site_type_symbol
 _atom_site_label
 _atom_site_symmetry_multiplicity
 _atom_site_fract_x
 _atom_site_fract_y
 _atom_site_fract_z
 _atom_site_occupancy
  Li  Li0  1  0.90610956  0.32818373  0.55969644  1
  Li  Li1  1  0.76408035  0.32804066  0.05914430  1
  Li  Li2  1  0.32847377  0.90663329  0.06389655  1
  Li  Li3  1  0.66337267  0.23518062  0.44502630  1
  Li  Li4  1  0.33817060  0.76366550  0.55788344  1
  Li  Li5  1  0.23113965  0.66998235  0.94067565  1
  Li  Li6  1  0.09527898  0.66964121  0.43630003  1
  Li  Li7  1  0.09666767  0.23742167  0.94339770  1
  Li  Li8  1  0.93603461  0.99505368  0.98642100  1
  Li  Li9  1  0.99041694  0.00359077  0.50058304  1
  V  V10  1  0.56281164  0.43524946  0.24867615  1
  V  V11  1  0.43377905  0.56624924  0.75484542  1
  V  V12  1  0.56774800  0.99915400  0.74840260  1
  V  V13  1  0.44048884  0.00454805  0.25389394  1
  V  V14  1  0.99567441  0.56558569  0.24897779  1
  V  V15  1  0.00048362  0.43709432  0.74618167  1
  P  P16  1  0.91514535  0.78109512  0.83473015  1
  P  P17  1  0.78279750  0.91891579  0.34214354  1
  P  P18  1  0.91118705  0.31130420  0.34371412  1
  P  P19  1  0.66363050  0.66450493  0.13277857  1
  P  P20  1  0.66118968  0.66783144  0.63179421  1
  P  P21  1  0.77744322  0.31440775  0.84299642  1
  P  P22  1  0.68526701  0.22529769  0.66137751  1
  P  P23  1  0.31530917  0.91688843  0.84589168  1
  P  P24  1  0.69284638  0.08329249  0.15604393  1
  P  P25  1  0.31576941  0.77734516  0.34013325  1
  P  P26  1  0.22205215  0.68785108  0.15820680  1
  P  P27  1  0.33409192  0.33713782  0.36711346  1
  P  P28  1  0.33348804  0.32978696  0.86821375  1
  P  P29  1  0.08887598  0.68710039  0.65336131  1
  P  P30  1  0.22077588  0.08104418  0.66030163  1
  P  P31  1  0.08661113  0.22353075  0.16157886  1
  O  O32  1  0.02242860  0.76615477  0.56055161  1
  O  O33  1  0.92269547  0.74854859  0.34062204  1
  O  O34  1  0.78740582  0.00794014  0.07057427  1
  O  O35  1  0.74265674  0.91972783  0.83277721  1
  O  O36  1  0.92209986  0.62096837  0.82880199  1
  O  O37  1  0.81012241  0.66617166  0.17859142  1
  O  O38  1  0.91265372  0.46704837  0.33372245  1
  O  O39  1  0.99618094  0.22838863  0.07243362  1
  O  O40  1  0.91891793  0.34387137  0.83677093  1
  O  O41  1  0.66888402  0.81114377  0.67990439  1
  O  O42  1  0.62632241  0.91603864  0.33132739  1
  O  O43  1  0.81079514  0.51193798  0.66887666  1
  O  O44  1  0.66624442  0.64595651  0.02794494  1
  O  O45  1  0.65492508  0.67220085  0.52641160  1
  O  O46  1  0.67160511  0.51006387  0.17726199  1
  O  O47  1  0.47231818  0.91261599  0.82784401  1
  O  O48  1  0.51362137  0.81246588  0.17115564  1
  O  O49  1  0.73773680  0.34079880  0.33630914  1
  O  O50  1  0.79600197  0.20411666  0.75273262  1
  O  O51  1  0.77597964  0.21867123  0.57368534  1
  O  O52  1  0.78795051  0.22827121  0.93245473  1
  O  O53  1  0.62023824  0.47116432  0.82930989  1
  O  O54  1  0.50970359  0.67664062  0.67378765  1
  O  O55  1  0.65616067  0.26041725  0.16239481  1
  O  O56  1  0.47079012  0.61628960  0.32493577  1
  O  O57  1  0.34989827  0.91267156  0.33964387  1
  O  O58  1  0.80039929  0.00218059  0.24832372  1
  O  O59  1  0.79292139  0.01128474  0.42516137  1
  O  O60  1  0.20409940  0.98755906  0.58057544  1
  O  O61  1  0.65838623  0.08186864  0.66469164  1
  O  O62  1  0.53036210  0.38016835  0.67295657  1
  O  O63  1  0.33739952  0.74790581  0.84455374  1
  O  O64  1  0.48732360  0.32871276  0.32280135  1
  O  O65  1  0.38177238  0.53009260  0.17389640  1
  O  O66  1  0.23041286  0.76774675  0.06918204  1
  O  O67  1  0.23202833  0.77129036  0.42781426  1
  O  O68  1  0.20650741  0.79740443  0.24839053  1
  O  O69  1  0.25965789  0.65891294  0.66637097  1
  O  O70  1  0.47882677  0.18749743  0.81703380  1
  O  O71  1  0.53865440  0.07904282  0.16638990  1
  O  O72  1  0.32532277  0.48743410  0.83369060  1
  O  O73  1  0.33874083  0.31982392  0.97340049  1
  O  O74  1  0.35191104  0.33600584  0.47205892  1
  O  O75  1  0.18536209  0.49017761  0.32996429  1
  O  O76  1  0.38131013  0.07515416  0.66960931  1
  O  O77  1  0.32886044  0.19275766  0.32151127  1
  O  O78  1  0.08513542  0.65712080  0.16124170  1
  O  O79  1  0.98968883  0.80341975  0.73786162  1
  O  O80  1  0.00622760  0.79943039  0.91567495  1
  O  O81  1  0.09045947  0.52928346  0.66902119  1
  O  O82  1  0.18759065  0.32349299  0.82599453  1
  O  O83  1  0.09351073  0.37690099  0.17455292  1
  O  O84  1  0.25290341  0.07795120  0.16241785  1
  O  O85  1  0.23575207  0.00194203  0.93616428  1
  O  O86  1  0.19848939  0.01016337  0.75908860  1
  O  O87  1  0.08228934  0.25439280  0.65778165  1
  O  O88  1  0.98091441  0.22279021  0.43420065  1
  O  O89  1  0.99796600  0.20273255  0.25241028  1
