# generated using pymatgen
data_Na4Mn2C4SO16
_symmetry_space_group_name_H-M   'P 1'
_cell_length_a   9.86119645
_cell_length_b   9.93142984
_cell_length_c   9.85727062
_cell_angle_alpha   60.85467882
_cell_angle_beta   88.90511599
_cell_angle_gamma   118.55349180
_symmetry_Int_Tables_number   1
_chemical_formula_structural   Na4Mn2C4SO16
_chemical_formula_sum   'Na8 Mn4 C8 S2 O32'
_cell_volume   699.53713042
_cell_formula_units_Z   2
loop_
 _symmetry_equiv_pos_site_id
 _symmetry_equiv_pos_as_xyz
  1  'x, y, z'
loop_
 _atom_site_type_symbol
 _atom_site_label
 _atom_site_symmetry_multiplicity
 _atom_site_fract_x
 _atom_site_fract_y
 _atom_site_fract_z
 _atom_site_occupancy
  Na  Na0  1  0.91444789  0.25089833  0.33503572  1
  Na  Na1  1  0.65662127  0.33562242  0.08900651  1
  Na  Na2  1  0.90854422  0.23852098  0.91681241  1
  Na  Na3  1  0.91388877  0.83312244  0.32377980  1
  Na  Na4  1  0.08738443  0.16549068  0.65686220  1
  Na  Na5  1  0.33771051  0.24977096  0.91264024  1
  Na  Na6  1  0.34708962  0.66667003  0.92087761  1
  Na  Na7  1  0.09025432  0.76027019  0.65704158  1
  Mn  Mn8  1  0.49751963  0.99298605  0.00415995  1
  Mn  Mn9  1  0.50061630  0.00168748  0.50115635  1
  Mn  Mn10  1  0.50294310  0.50374898  0.49439011  1
  Mn  Mn11  1  0.00069250  0.50219761  0.49621784  1
  C  C12  1  0.71301462  0.07011927  0.71161003  1
  C  C13  1  0.71770247  0.43316594  0.35646634  1
  C  C14  1  0.35417345  0.06342019  0.72081454  1
  C  C15  1  0.71435422  0.43417316  0.71256686  1
  C  C16  1  0.64750762  0.93787362  0.28185833  1
  C  C17  1  0.28491437  0.56515388  0.28980092  1
  C  C18  1  0.28999752  0.93473362  0.28733909  1
  C  C19  1  0.27912229  0.56146525  0.64842342  1
  S  S20  1  0.12430267  0.24961740  0.12310282  1
  S  S21  1  0.87467380  0.75081724  0.87311986  1
  O  O22  1  0.64699985  0.05378416  0.13968089  1
  O  O23  1  0.85584260  0.19617651  0.60177919  1
  O  O24  1  0.70161733  0.30524311  0.34059098  1
  O  O25  1  0.41027289  0.04053655  0.31593070  1
  O  O26  1  0.85299182  0.54551154  0.36314286  1
  O  O27  1  0.30591185  0.36925171  0.05870062  1
  O  O28  1  0.06484929  0.12969914  0.05729350  1
  O  O29  1  0.59518956  0.44992199  0.36289945  1
  O  O30  1  0.69003523  0.04902006  0.85292778  1
  O  O31  1  0.34995654  0.03387261  0.60400734  1
  O  O32  1  0.86121961  0.46510518  0.68944310  1
  O  O33  1  0.05941585  0.37128505  0.06191887  1
  O  O34  1  0.05834708  0.12701144  0.30587905  1
  O  O35  1  0.65621114  0.80469867  0.30595323  1
  O  O36  1  0.39357099  0.69753498  0.14890431  1
  O  O37  1  0.68759774  0.54097686  0.59052763  1
  O  O38  1  0.31211322  0.45721703  0.41157682  1
  O  O39  1  0.34176045  0.19445836  0.70006529  1
  O  O40  1  0.60487002  0.30359255  0.85519490  1
  O  O41  1  0.94121678  0.87416972  0.68862328  1
  O  O42  1  0.93487513  0.62481348  0.93096671  1
  O  O43  1  0.13702905  0.52937452  0.31557620  1
  O  O44  1  0.64788321  0.96791202  0.39759098  1
  O  O45  1  0.31632117  0.96909806  0.14055643  1
  O  O46  1  0.39659209  0.53538383  0.64503895  1
  O  O47  1  0.93429824  0.87109530  0.93679592  1
  O  O48  1  0.69242827  0.63260477  0.93453047  1
  O  O49  1  0.13782693  0.44595649  0.64916904  1
  O  O50  1  0.59215559  0.96146651  0.68637145  1
  O  O51  1  0.30009450  0.69377595  0.65862984  1
  O  O52  1  0.14816828  0.80445792  0.39727723  1
  O  O53  1  0.36486011  0.95346622  0.85583043  1
