# generated using pymatgen
data_Li9Cr4P4(CO7)4
_symmetry_space_group_name_H-M   'P 1'
_cell_length_a   9.39038991
_cell_length_b   8.22918089
_cell_length_c   8.17899437
_cell_angle_alpha   76.29108026
_cell_angle_beta   74.14936892
_cell_angle_gamma   106.55380897
_symmetry_Int_Tables_number   1
_chemical_formula_structural   Li9Cr4P4(CO7)4
_chemical_formula_sum   'Li9 Cr4 P4 C4 O28'
_cell_volume   547.78543607
_cell_formula_units_Z   1
loop_
 _symmetry_equiv_pos_site_id
 _symmetry_equiv_pos_as_xyz
  1  'x, y, z'
loop_
 _atom_site_type_symbol
 _atom_site_label
 _atom_site_symmetry_multiplicity
 _atom_site_fract_x
 _atom_site_fract_y
 _atom_site_fract_z
 _atom_site_occupancy
  Li  Li0  1  0.89460542  0.67990842  0.56482017  1
  Li  Li1  1  0.89639311  0.17876245  0.06079811  1
  Li  Li2  1  0.71890309  0.96106341  0.50467542  1
  Li  Li3  1  0.71871378  0.46562281  0.99804895  1
  Li  Li4  1  0.28716897  0.73911587  0.20341619  1
  Li  Li5  1  0.27152660  0.25619942  0.72022361  1
  Li  Li6  1  0.27264273  0.03274167  0.48872287  1
  Li  Li7  1  0.09226895  0.30593886  0.44018379  1
  Li  Li8  1  0.10363700  0.80838862  0.94216977  1
  Cr  Cr9  1  0.67452580  0.81204169  0.93885644  1
  Cr  Cr10  1  0.67408024  0.31458547  0.43906520  1
  Cr  Cr11  1  0.32504661  0.19088644  0.06241192  1
  Cr  Cr12  1  0.32548171  0.68436521  0.56705178  1
  P  P13  1  0.58073714  0.05560084  0.20010559  1
  P  P14  1  0.58138093  0.55245332  0.69616027  1
  P  P15  1  0.41735622  0.44012156  0.30370473  1
  P  P16  1  0.41363637  0.95167599  0.80168803  1
  C  C17  1  0.95292389  0.51014273  0.24730940  1
  C  C18  1  0.97139032  0.00538470  0.73445913  1
  C  C19  1  0.04602571  0.99690418  0.26306994  1
  C  C20  1  0.04382925  0.49187352  0.75912048  1
  O  O21  1  0.95027446  0.87643582  0.87442852  1
  O  O22  1  0.91757387  0.36986476  0.39056204  1
  O  O23  1  0.90848835  0.90397143  0.37975342  1
  O  O24  1  0.82911948  0.52013637  0.20783185  1
  O  O25  1  0.90598594  0.40269607  0.87746966  1
  O  O26  1  0.84788192  0.02403061  0.70211909  1
  O  O27  1  0.68907856  0.98397733  0.08679558  1
  O  O28  1  0.69167376  0.48613606  0.57243429  1
  O  O29  1  0.68898472  0.14931463  0.29317260  1
  O  O30  1  0.69233119  0.64186932  0.78596850  1
  O  O31  1  0.57205501  0.56846922  0.15199719  1
  O  O32  1  0.53715378  0.19983704  0.08312606  1
  O  O33  1  0.53856452  0.69922640  0.58064314  1
  O  O34  1  0.57464462  0.08236772  0.65225436  1
  O  O35  1  0.42006291  0.90859496  0.34302263  1
  O  O36  1  0.45124661  0.30880914  0.44981034  1
  O  O37  1  0.43624682  0.82342054  0.95148703  1
  O  O38  1  0.42411802  0.40055807  0.83074719  1
  O  O39  1  0.31637326  0.53829032  0.39735501  1
  O  O40  1  0.29707689  0.32197340  0.23999337  1
  O  O41  1  0.30160616  0.84673051  0.71633667  1
  O  O42  1  0.30888440  0.05026585  0.88897632  1
  O  O43  1  0.17426678  0.96753351  0.27878125  1
  O  O44  1  0.09246943  0.62724464  0.15871324  1
  O  O45  1  0.16873031  0.45261622  0.76818568  1
  O  O46  1  0.11458774  0.11942583  0.62527135  1
  O  O47  1  0.07997824  0.63468256  0.61777924  1
  O  O48  1  0.07938043  0.13293749  0.11776758  1
