# generated using pymatgen
data_Na2BiO3
_symmetry_space_group_name_H-M   'P 1'
_cell_length_a   5.98098966
_cell_length_b   10.89115905
_cell_length_c   5.98098966
_cell_angle_alpha   100.41737026
_cell_angle_beta   70.03312605
_cell_angle_gamma   79.58262974
_symmetry_Int_Tables_number   1
_chemical_formula_structural   Na2BiO3
_chemical_formula_sum   'Na8 Bi4 O12'
_cell_volume   347.52653846
_cell_formula_units_Z   4
loop_
 _symmetry_equiv_pos_site_id
 _symmetry_equiv_pos_as_xyz
  1  'x, y, z'
loop_
 _atom_site_type_symbol
 _atom_site_label
 _atom_site_symmetry_multiplicity
 _atom_site_fract_x
 _atom_site_fract_y
 _atom_site_fract_z
 _atom_site_occupancy
  Na  Na0  1  0.00340056  0.99319788  0.49659944  1
  Na  Na1  1  0.57897932  0.84204035  0.42102068  1
  Na  Na2  1  0.17102068  0.65795965  0.32897932  1
  Na  Na3  1  0.74659944  0.50680212  0.25340056  1
  Na  Na4  1  0.25340056  0.49319788  0.74659944  1
  Na  Na5  1  0.32897932  0.34204035  0.17102068  1
  Na  Na6  1  0.42102068  0.15795965  0.57897932  1
  Na  Na7  1  0.49659944  0.00680212  0.00340056  1
  Bi  Bi8  1  0.08390993  0.83217914  0.91609007  1
  Bi  Bi9  1  0.66609007  0.66782086  0.83390993  1
  Bi  Bi10  1  0.83390993  0.33217914  0.66609007  1
  Bi  Bi11  1  0.91609007  0.16782086  0.08390993  1
  O  O12  1  0.33333010  0.81892172  0.13024588  1
  O  O13  1  0.84774819  0.81892172  0.68867584  1
  O  O14  1  0.41666990  0.68107828  0.61975412  1
  O  O15  1  0.90225181  0.68107828  0.06132416  1
  O  O16  1  0.52855734  0.50000000  0.97144266  1
  O  O17  1  0.97144266  0.50000000  0.52855734  1
  O  O18  1  0.06132416  0.31892172  0.90225181  1
  O  O19  1  0.61975412  0.31892172  0.41666990  1
  O  O20  1  0.68867584  0.18107828  0.84774819  1
  O  O21  1  0.13024588  0.18107828  0.33333010  1
  O  O22  1  0.22144266  -0.00000000  0.77855734  1
  O  O23  1  0.77855734  -0.00000000  0.22144266  1
