# generated using pymatgen
data_Na2CePCO7
_symmetry_space_group_name_H-M   'P 1'
_cell_length_a   9.50673894
_cell_length_b   7.17522882
_cell_length_c   5.23449371
_cell_angle_alpha   90.00000000
_cell_angle_beta   90.32780118
_cell_angle_gamma   90.00000000
_symmetry_Int_Tables_number   1
_chemical_formula_structural   Na2CePCO7
_chemical_formula_sum   'Na4 Ce2 P2 C2 O14'
_cell_volume   357.05481832
_cell_formula_units_Z   2
loop_
 _symmetry_equiv_pos_site_id
 _symmetry_equiv_pos_as_xyz
  1  'x, y, z'
loop_
 _atom_site_type_symbol
 _atom_site_label
 _atom_site_symmetry_multiplicity
 _atom_site_fract_x
 _atom_site_fract_y
 _atom_site_fract_z
 _atom_site_occupancy
  Na  Na0  1  0.20139799  0.00712270  0.23188004  1
  Na  Na1  1  0.20139799  0.49287730  0.23188004  1
  Na  Na2  1  0.79860201  0.50712270  0.76811996  1
  Na  Na3  1  0.79860201  0.99287730  0.76811996  1
  Ce  Ce4  1  0.38845326  0.75000000  0.76938498  1
  Ce  Ce5  1  0.61154674  0.25000000  0.23061502  1
  P  P6  1  0.40856388  0.25000000  0.71140396  1
  P  P7  1  0.59143612  0.75000000  0.28859604  1
  C  C8  1  0.08433197  0.75000000  0.73277076  1
  C  C9  1  0.91566803  0.25000000  0.26722924  1
  O  O10  1  0.04809750  0.25000000  0.29060709  1
  O  O11  1  0.14911578  0.75000000  0.95525621  1
  O  O12  1  0.16899048  0.75000000  0.53233737  1
  O  O13  1  0.35235697  0.07368590  0.84669295  1
  O  O14  1  0.35235697  0.42631410  0.84669295  1
  O  O15  1  0.42558284  0.75000000  0.26821976  1
  O  O16  1  0.37428223  0.25000000  0.42019152  1
  O  O17  1  0.62571777  0.75000000  0.57980848  1
  O  O18  1  0.57441716  0.25000000  0.73178024  1
  O  O19  1  0.64764303  0.57368590  0.15330705  1
  O  O20  1  0.64764303  0.92631410  0.15330705  1
  O  O21  1  0.83100952  0.25000000  0.46766263  1
  O  O22  1  0.85088422  0.25000000  0.04474379  1
  O  O23  1  0.95190250  0.75000000  0.70939291  1
