# generated using pymatgen
data_Na4Co2C4SO16
_symmetry_space_group_name_H-M   'P 1'
_cell_length_a   9.82554010
_cell_length_b   9.97822725
_cell_length_c   9.97822686
_cell_angle_alpha   91.48354437
_cell_angle_beta   60.35505413
_cell_angle_gamma   60.35505722
_symmetry_Int_Tables_number   1
_chemical_formula_structural   Na4Co2C4SO16
_chemical_formula_sum   'Na8 Co4 C8 S2 O32'
_cell_volume   689.91727979
_cell_formula_units_Z   2
loop_
 _symmetry_equiv_pos_site_id
 _symmetry_equiv_pos_as_xyz
  1  'x, y, z'
loop_
 _atom_site_type_symbol
 _atom_site_label
 _atom_site_symmetry_multiplicity
 _atom_site_fract_x
 _atom_site_fract_y
 _atom_site_fract_z
 _atom_site_occupancy
  Na  Na0  1  0.25000000  0.33773007  0.08773007  1
  Na  Na1  1  0.32549630  0.08725185  0.33725185  1
  Na  Na2  1  0.17450370  0.66274815  0.91274815  1
  Na  Na3  1  0.75000000  0.08773007  0.33773007  1
  Na  Na4  1  0.25000000  0.91226993  0.66226993  1
  Na  Na5  1  0.82549630  0.33725185  0.08725185  1
  Na  Na6  1  0.67450370  0.91274815  0.66274815  1
  Na  Na7  1  0.75000000  0.66226993  0.91226993  1
  Co  Co8  1  0.00000000  -0.00000000  0.50000000  1
  Co  Co9  1  0.00000000  0.50000000  0.50000000  1
  Co  Co10  1  0.50000000  0.50000000  -0.00000000  1
  Co  Co11  1  0.50000000  0.50000000  0.50000000  1
  C  C12  1  0.07001525  0.71223638  0.28991507  1
  C  C13  1  0.07001525  0.71774836  0.64006968  1
  C  C14  1  0.42998475  0.35993032  0.28225164  1
  C  C15  1  0.42998475  0.71008493  0.28776362  1
  C  C16  1  0.57001525  0.28991507  0.71223638  1
  C  C17  1  0.57001525  0.64006968  0.71774836  1
  C  C18  1  0.92998475  0.28225164  0.35993032  1
  C  C19  1  0.92998475  0.28776362  0.71008493  1
  S  S20  1  0.25000000  0.12500000  0.87500000  1
  S  S21  1  0.75000000  0.87500000  0.12500000  1
  O  O22  1  0.03939606  0.14358323  0.36619241  1
  O  O23  1  0.03939606  0.31702071  0.59441153  1
  O  O24  1  0.20839257  0.59901683  0.14342041  1
  O  O25  1  0.03448376  0.85697456  0.31883391  1
  O  O26  1  0.29160743  0.35181298  0.30740940  1
  O  O27  1  0.12472746  0.06541689  0.93362312  1
  O  O28  1  0.03448376  0.60854168  0.64668232  1
  O  O29  1  0.37527254  0.05835059  0.69014536  1
  O  O30  1  0.12472746  0.30985464  0.94164941  1
  O  O31  1  0.53939606  0.36619241  0.14358323  1
  O  O32  1  0.46551624  0.35331768  0.39145832  1
  O  O33  1  0.37527254  0.06637688  0.93458311  1
  O  O34  1  0.20839257  0.69259060  0.64818702  1
  O  O35  1  0.46551624  0.68116609  0.14302544  1
  O  O36  1  0.29160743  0.85657959  0.40098317  1
  O  O37  1  0.53939606  0.59441153  0.31702071  1
  O  O38  1  0.46060394  0.40558847  0.68297929  1
  O  O39  1  0.70839257  0.14342041  0.59901683  1
  O  O40  1  0.53448376  0.31883391  0.85697456  1
  O  O41  1  0.79160743  0.30740940  0.35181298  1
  O  O42  1  0.62472746  0.93362312  0.06541689  1
  O  O43  1  0.53448376  0.64668232  0.60854168  1
  O  O44  1  0.46060394  0.63380759  0.85641677  1
  O  O45  1  0.87527254  0.69014536  0.05835059  1
  O  O46  1  0.62472746  0.94164941  0.30985464  1
  O  O47  1  0.96551624  0.39145832  0.35331768  1
  O  O48  1  0.87527254  0.93458311  0.06637688  1
  O  O49  1  0.70839257  0.64818702  0.69259060  1
  O  O50  1  0.96551624  0.14302544  0.68116609  1
  O  O51  1  0.79160743  0.40098317  0.85657959  1
  O  O52  1  0.96060394  0.68297929  0.40558847  1
  O  O53  1  0.96060394  0.85641677  0.63380759  1
