# generated using pymatgen
data_Li5V3P8O29
_symmetry_space_group_name_H-M   'P 1'
_cell_length_a   9.79819885
_cell_length_b   9.84625102
_cell_length_c   14.10967091
_cell_angle_alpha   90.14231963
_cell_angle_beta   90.70594244
_cell_angle_gamma   60.06521028
_symmetry_Int_Tables_number   1
_chemical_formula_structural   Li5V3P8O29
_chemical_formula_sum   'Li10 V6 P16 O58'
_cell_volume   1179.54040263
_cell_formula_units_Z   2
loop_
 _symmetry_equiv_pos_site_id
 _symmetry_equiv_pos_as_xyz
  1  'x, y, z'
loop_
 _atom_site_type_symbol
 _atom_site_label
 _atom_site_symmetry_multiplicity
 _atom_site_fract_x
 _atom_site_fract_y
 _atom_site_fract_z
 _atom_site_occupancy
  Li  Li0  1  0.77760969  0.90572089  0.55307288  1
  Li  Li1  1  0.90911221  0.32331646  0.55944676  1
  Li  Li2  1  0.67945416  0.66642835  0.89016002  1
  Li  Li3  1  0.76495170  0.32598019  0.06252111  1
  Li  Li4  1  0.32256204  0.90734270  0.06291214  1
  Li  Li5  1  0.68345462  0.22409140  0.43632693  1
  Li  Li6  1  0.31357847  0.77190818  0.56032059  1
  Li  Li7  1  0.66965130  0.09689019  0.94167148  1
  Li  Li8  1  0.22928723  0.09054737  0.43816925  1
  Li  Li9  1  0.02833354  0.94486405  0.00118551  1
  V  V10  1  0.56436000  0.43694246  0.25086389  1
  V  V11  1  0.42641195  0.56633363  0.75133204  1
  V  V12  1  0.56953982  0.99901192  0.74709690  1
  V  V13  1  0.43249683  0.00062720  0.24761036  1
  V  V14  1  0.99920719  0.56894537  0.24568787  1
  V  V15  1  0.00379862  0.43597075  0.75586422  1
  P  P16  1  0.91528002  0.77871016  0.84379683  1
  P  P17  1  0.77214454  0.90904792  0.33621018  1
  P  P18  1  0.91551077  0.32036357  0.34347561  1
  P  P19  1  0.66635253  0.66437385  0.12701027  1
  P  P20  1  0.66545406  0.66341773  0.63078246  1
  P  P21  1  0.77244010  0.31738378  0.84122003  1
  P  P22  1  0.68073636  0.23317521  0.65759831  1
  P  P23  1  0.31902165  0.90639804  0.84239127  1
  P  P24  1  0.68205619  0.09179387  0.15680230  1
  P  P25  1  0.32102335  0.76860107  0.34428318  1
  P  P26  1  0.22185093  0.69229803  0.16209112  1
  P  P27  1  0.33184175  0.33138547  0.36806235  1
  P  P28  1  0.33953360  0.33104715  0.87219289  1
  P  P29  1  0.08131222  0.68581343  0.65815953  1
  P  P30  1  0.22853060  0.08847305  0.66075398  1
  P  P31  1  0.08075742  0.22717387  0.15945911  1
  O  O32  1  0.99453683  0.77486586  0.57255643  1
  O  O33  1  0.91539942  0.74234210  0.33233245  1
  O  O34  1  0.76728732  0.02114990  0.06684388  1
  O  O35  1  0.74161321  0.92124750  0.83514551  1
  O  O36  1  0.89932591  0.62920235  0.83460104  1
  O  O37  1  0.81227017  0.66853770  0.17309294  1
  O  O38  1  0.90572298  0.47825282  0.32182870  1
  O  O39  1  0.98854838  0.21576579  0.07823539  1
  O  O40  1  0.91193465  0.34487098  0.84134208  1
  O  O41  1  0.66932953  0.81368273  0.66724643  1
  O  O42  1  0.61923862  0.90176330  0.31867768  1
  O  O43  1  0.81514361  0.51674026  0.67520328  1
  O  O44  1  0.67300455  0.66205117  0.02053721  1
  O  O45  1  0.66050665  0.65848221  0.52546427  1
  O  O46  1  0.67593356  0.51049831  0.16407820  1
  O  O47  1  0.48239478  0.89231681  0.83053600  1
  O  O48  1  0.51247520  0.81111295  0.16183728  1
  O  O49  1  0.75022692  0.33642336  0.34201046  1
  O  O50  1  0.79070071  0.21159246  0.74881639  1
  O  O51  1  0.75454755  0.24858060  0.56863532  1
  O  O52  1  0.76275059  0.23476743  0.92818020  1
  O  O53  1  0.61924381  0.48017301  0.82658486  1
  O  O54  1  0.51533701  0.66557771  0.67394820  1
  O  O55  1  0.65748651  0.26068245  0.16659359  1
  O  O56  1  0.48131721  0.61950706  0.32059034  1
  O  O57  1  0.33882576  0.91646849  0.33718136  1
  O  O58  1  0.79232887  0.00047011  0.24804235  1
  O  O59  1  0.76144553  0.99565903  0.42614065  1
  O  O60  1  0.24661633  0.99793533  0.57158310  1
  O  O61  1  0.66340268  0.08518925  0.65636553  1
  O  O62  1  0.52221175  0.38215965  0.67816563  1
  O  O63  1  0.34220398  0.73821212  0.83084445  1
  O  O64  1  0.48462899  0.32941860  0.33186049  1
  O  O65  1  0.37825880  0.53856264  0.16830868  1
  O  O66  1  0.20350168  0.79915468  0.08165248  1
  O  O67  1  0.25673251  0.75656015  0.43606152  1
  O  O68  1  0.20291051  0.78820851  0.25888057  1
  O  O69  1  0.25289713  0.66192981  0.66237383  1
  O  O70  1  0.48857625  0.18402005  0.83401064  1
  O  O71  1  0.52660358  0.09372566  0.16974049  1
  O  O72  1  0.33772929  0.47896612  0.82246542  1
  O  O73  1  0.34137516  0.34309567  0.97651436  1
  O  O74  1  0.32530388  0.33359695  0.47333797  1
  O  O75  1  0.18487421  0.47500536  0.31779900  1
  O  O76  1  0.38021969  0.09723600  0.68227806  1
  O  O77  1  0.32861732  0.18193328  0.32919323  1
  O  O78  1  0.08193477  0.65951458  0.16539503  1
  O  O79  1  0.00031284  0.79186965  0.75092297  1
  O  O80  1  0.99314674  0.79703384  0.92916929  1
  O  O81  1  0.09090939  0.52719996  0.67378957  1
  O  O82  1  0.18806242  0.33639513  0.82774430  1
  O  O83  1  0.07966433  0.38423057  0.16924714  1
  O  O84  1  0.25315035  0.08708558  0.15956431  1
  O  O85  1  0.23548404  0.97670518  0.93239716  1
  O  O86  1  0.21057575  0.99913233  0.75159549  1
  O  O87  1  0.08263163  0.25215212  0.66101521  1
  O  O88  1  0.00283442  0.24673024  0.43454135  1
  O  O89  1  0.01068028  0.20419824  0.25800386  1
