# generated using pymatgen
data_Li5V3P8O29
_symmetry_space_group_name_H-M   'P 1'
_cell_length_a   9.73430142
_cell_length_b   9.76673435
_cell_length_c   14.14122534
_cell_angle_alpha   90.35110557
_cell_angle_beta   90.09095446
_cell_angle_gamma   60.23198324
_symmetry_Int_Tables_number   1
_chemical_formula_structural   Li5V3P8O29
_chemical_formula_sum   'Li10 V6 P16 O58'
_cell_volume   1167.00724012
_cell_formula_units_Z   2
loop_
 _symmetry_equiv_pos_site_id
 _symmetry_equiv_pos_as_xyz
  1  'x, y, z'
loop_
 _atom_site_type_symbol
 _atom_site_label
 _atom_site_symmetry_multiplicity
 _atom_site_fract_x
 _atom_site_fract_y
 _atom_site_fract_z
 _atom_site_occupancy
  Li  Li0  1  0.89823720  0.34119138  0.55648853  1
  Li  Li1  1  0.76462885  0.33075445  0.05949709  1
  Li  Li2  1  0.32977438  0.90324945  0.06239899  1
  Li  Li3  1  0.66921800  0.23465116  0.44032180  1
  Li  Li4  1  0.32949332  0.76668210  0.56449728  1
  Li  Li5  1  0.67144222  0.09205738  0.93441692  1
  Li  Li6  1  0.10199305  0.65964135  0.44027228  1
  Li  Li7  1  0.10470902  0.23365848  0.94624301  1
  Li  Li8  1  0.00402273  0.92210943  0.01228308  1
  Li  Li9  1  0.00166614  0.00345613  0.49988082  1
  V  V10  1  0.56326818  0.43449483  0.25031040  1
  V  V11  1  0.43060702  0.57035414  0.75415965  1
  V  V12  1  0.56620469  0.99845819  0.74431261  1
  V  V13  1  0.43509616  0.00209476  0.25285529  1
  V  V14  1  0.99686664  0.56982303  0.24776616  1
  V  V15  1  0.00129971  0.43674350  0.75010719  1
  P  P16  1  0.91577977  0.77964489  0.83696447  1
  P  P17  1  0.78383581  0.91895003  0.33767408  1
  P  P18  1  0.91200781  0.31414840  0.34414878  1
  P  P19  1  0.66690981  0.66354347  0.13095365  1
  P  P20  1  0.67044319  0.66043297  0.63297402  1
  P  P21  1  0.77456782  0.31699012  0.84257916  1
  P  P22  1  0.68534326  0.23012597  0.66054630  1
  P  P23  1  0.31340315  0.91765978  0.84372117  1
  P  P24  1  0.68887364  0.08453194  0.15321751  1
  P  P25  1  0.31640119  0.77308356  0.34368079  1
  P  P26  1  0.22022016  0.69382635  0.16211892  1
  P  P27  1  0.32813335  0.33840515  0.36732300  1
  P  P28  1  0.33251372  0.33139263  0.86675223  1
  P  P29  1  0.08604270  0.68796371  0.65331540  1
  P  P30  1  0.21490291  0.08478314  0.66035429  1
  P  P31  1  0.08634818  0.22675079  0.16156905  1
  O  O32  1  0.01475130  0.76369921  0.56107261  1
  O  O33  1  0.92291629  0.74459839  0.33804694  1
  O  O34  1  0.77036515  0.01491858  0.06103859  1
  O  O35  1  0.74317391  0.91754043  0.83672317  1
  O  O36  1  0.92031381  0.61766013  0.82489663  1
  O  O37  1  0.81206337  0.66802018  0.18216416  1
  O  O38  1  0.91612864  0.46879623  0.32867481  1
  O  O39  1  0.99802314  0.23238679  0.07260758  1
  O  O40  1  0.92453257  0.33622652  0.84216611  1
  O  O41  1  0.67847156  0.80394586  0.67286471  1
  O  O42  1  0.62452929  0.92362959  0.33195505  1
  O  O43  1  0.81297845  0.50832770  0.68339851  1
  O  O44  1  0.68187991  0.65796331  0.02618419  1
  O  O45  1  0.69643953  0.62721114  0.52930793  1
  O  O46  1  0.67740754  0.50943195  0.17045838  1
  O  O47  1  0.47031373  0.91548901  0.82554046  1
  O  O48  1  0.51337935  0.81116531  0.16864835  1
  O  O49  1  0.74093751  0.34177246  0.33926157  1
  O  O50  1  0.79717486  0.20762489  0.75048683  1
  O  O51  1  0.77346235  0.22464562  0.57131452  1
  O  O52  1  0.77469117  0.22880716  0.92996298  1
  O  O53  1  0.62401575  0.47488866  0.82912047  1
  O  O54  1  0.51068789  0.67509649  0.66754602  1
  O  O55  1  0.65800631  0.25655993  0.16212099  1
  O  O56  1  0.47303113  0.61802512  0.32756942  1
  O  O57  1  0.34638690  0.91364714  0.33495853  1
  O  O58  1  0.80633011  0.98831919  0.23800431  1
  O  O59  1  0.80602359  0.00998004  0.41622080  1
  O  O60  1  0.19049094  0.99370689  0.58257155  1
  O  O61  1  0.65373071  0.09046448  0.66428998  1
  O  O62  1  0.53058511  0.38685148  0.67409306  1
  O  O63  1  0.34119276  0.74801582  0.83565253  1
  O  O64  1  0.48687503  0.32616129  0.32976980  1
  O  O65  1  0.37827923  0.54089869  0.16757456  1
  O  O66  1  0.20103671  0.80267035  0.08245808  1
  O  O67  1  0.23468446  0.77539529  0.43471125  1
  O  O68  1  0.19841683  0.79202013  0.25949171  1
  O  O69  1  0.25583875  0.66129414  0.66203249  1
  O  O70  1  0.48862348  0.18576532  0.82988918  1
  O  O71  1  0.53310080  0.08241692  0.16989547  1
  O  O72  1  0.32589706  0.48196843  0.82732792  1
  O  O73  1  0.30995737  0.32357712  0.97061800  1
  O  O74  1  0.31769160  0.35724202  0.47227413  1
  O  O75  1  0.18463528  0.49279396  0.32274370  1
  O  O76  1  0.37529945  0.07726611  0.66436012  1
  O  O77  1  0.32125213  0.19619624  0.32304924  1
  O  O78  1  0.07936018  0.66123886  0.16478759  1
  O  O79  1  0.98861192  0.80190979  0.73932535  1
  O  O80  1  0.00674641  0.78578092  0.91895410  1
  O  O81  1  0.08490583  0.53063428  0.67114873  1
  O  O82  1  0.18783274  0.32274228  0.81687453  1
  O  O83  1  0.08981203  0.38244125  0.17646067  1
  O  O84  1  0.25468309  0.08231260  0.16050248  1
  O  O85  1  0.23626239  0.99615983  0.93600483  1
  O  O86  1  0.19306311  0.01559370  0.76041367  1
  O  O87  1  0.07481339  0.25903907  0.66049976  1
  O  O88  1  0.98765121  0.22915765  0.43381204  1
  O  O89  1  0.00025312  0.20474233  0.25239295  1
