# generated using pymatgen
data_Li5V3P8O29
_symmetry_space_group_name_H-M   'P 1'
_cell_length_a   9.72873471
_cell_length_b   9.77884477
_cell_length_c   14.12689257
_cell_angle_alpha   90.85743891
_cell_angle_beta   90.59540585
_cell_angle_gamma   60.43465466
_symmetry_Int_Tables_number   1
_chemical_formula_structural   Li5V3P8O29
_chemical_formula_sum   'Li10 V6 P16 O58'
_cell_volume   1168.84115809
_cell_formula_units_Z   2
loop_
 _symmetry_equiv_pos_site_id
 _symmetry_equiv_pos_as_xyz
  1  'x, y, z'
loop_
 _atom_site_type_symbol
 _atom_site_label
 _atom_site_symmetry_multiplicity
 _atom_site_fract_x
 _atom_site_fract_y
 _atom_site_fract_z
 _atom_site_occupancy
  Li  Li0  1  0.76406065  0.90685461  0.55346468  1
  Li  Li1  1  0.89877884  0.34130052  0.55813334  1
  Li  Li2  1  0.76315710  0.34071104  0.06279971  1
  Li  Li3  1  0.33453957  0.90159517  0.06439951  1
  Li  Li4  1  0.32608499  0.77139073  0.55586891  1
  Li  Li5  1  0.67327167  0.09229030  0.94427607  1
  Li  Li6  1  0.23546241  0.66555644  0.94384511  1
  Li  Li7  1  0.09617205  0.66739881  0.43328878  1
  Li  Li8  1  0.99554211  0.00888980  0.00977362  1
  Li  Li9  1  0.97598769  0.04842074  0.49116284  1
  V  V10  1  0.56466259  0.43332781  0.25416754  1
  V  V11  1  0.43628584  0.56514888  0.74432809  1
  V  V12  1  0.56322811  0.99931624  0.75048847  1
  V  V13  1  0.43541199  0.00220503  0.25296935  1
  V  V14  1  0.99492707  0.56302152  0.24319606  1
  V  V15  1  0.00244788  0.43269706  0.75532099  1
  P  P16  1  0.91795893  0.78055569  0.83873939  1
  P  P17  1  0.78134032  0.91262044  0.34053247  1
  P  P18  1  0.91465459  0.31347646  0.34406550  1
  P  P19  1  0.66029341  0.66550445  0.13191608  1
  P  P20  1  0.67267189  0.66367920  0.63117600  1
  P  P21  1  0.77087803  0.31679415  0.84397232  1
  P  P22  1  0.69376771  0.22038358  0.66034951  1
  P  P23  1  0.31231799  0.91224009  0.84482077  1
  P  P24  1  0.69103261  0.08722748  0.15804125  1
  P  P25  1  0.31291411  0.77678181  0.34058667  1
  P  P26  1  0.22568073  0.68367795  0.15848868  1
  P  P27  1  0.32935165  0.33858331  0.36760061  1
  P  P28  1  0.33532768  0.33713319  0.86759885  1
  P  P29  1  0.08478020  0.68317911  0.65405914  1
  P  P30  1  0.21687413  0.08428758  0.66237364  1
  P  P31  1  0.08361136  0.21566406  0.16137846  1
  O  O32  1  0.00021037  0.76046185  0.56395069  1
  O  O33  1  0.92302747  0.74502626  0.33422720  1
  O  O34  1  0.78100940  0.01679802  0.06816394  1
  O  O35  1  0.74589207  0.91873361  0.84018532  1
  O  O36  1  0.92078687  0.61990768  0.82863638  1
  O  O37  1  0.80705357  0.67095475  0.17662870  1
  O  O38  1  0.91792498  0.46672917  0.33240097  1
  O  O39  1  0.98866336  0.19902598  0.08213027  1
  O  O40  1  0.91594410  0.34254420  0.83487102  1
  O  O41  1  0.68049429  0.80964458  0.67060804  1
  O  O42  1  0.62397049  0.91086192  0.32722431  1
  O  O43  1  0.81497669  0.51302007  0.67824763  1
  O  O44  1  0.66049533  0.65160554  0.02675852  1
  O  O45  1  0.68604850  0.64795584  0.52601881  1
  O  O46  1  0.66930159  0.51340504  0.17576958  1
  O  O47  1  0.47025153  0.91229103  0.82724009  1
  O  O48  1  0.50883595  0.81228718  0.17017573  1
  O  O49  1  0.74157312  0.34532916  0.33125416  1
  O  O50  1  0.78907894  0.19857548  0.75848632  1
  O  O51  1  0.79843852  0.20952141  0.58081854  1
  O  O52  1  0.77742633  0.23280511  0.93387534  1
  O  O53  1  0.61880670  0.47200803  0.82890761  1
  O  O54  1  0.51377334  0.67604796  0.66682070  1
  O  O55  1  0.65820673  0.26098356  0.16397244  1
  O  O56  1  0.46975045  0.61924790  0.32721549  1
  O  O57  1  0.34353843  0.91581128  0.33970649  1
  O  O58  1  0.79813604  0.00350232  0.24980609  1
  O  O59  1  0.79162552  0.99012126  0.43094708  1
  O  O60  1  0.19591965  0.99550255  0.58153615  1
  O  O61  1  0.65810046  0.08219376  0.65984866  1
  O  O62  1  0.53768187  0.37946293  0.66968617  1
  O  O63  1  0.34113313  0.74159382  0.83191388  1
  O  O64  1  0.47994704  0.33715795  0.32080101  1
  O  O65  1  0.38518797  0.53077934  0.17239421  1
  O  O66  1  0.22548398  0.77178483  0.07109654  1
  O  O67  1  0.22758505  0.77414751  0.42878130  1
  O  O68  1  0.20410335  0.79449444  0.25011611  1
  O  O69  1  0.25397585  0.66065641  0.65544591  1
  O  O70  1  0.48786370  0.18856090  0.82926901  1
  O  O71  1  0.53735098  0.08092861  0.16783670  1
  O  O72  1  0.32522722  0.48849891  0.82558752  1
  O  O73  1  0.32814942  0.34184903  0.97255939  1
  O  O74  1  0.33803190  0.34379678  0.47231880  1
  O  O75  1  0.18399338  0.48932944  0.32660952  1
  O  O76  1  0.37672430  0.07884299  0.66978215  1
  O  O77  1  0.32824266  0.19277571  0.32317583  1
  O  O78  1  0.08909286  0.65072235  0.15877580  1
  O  O79  1  0.99195607  0.80007150  0.74091455  1
  O  O80  1  0.01170788  0.79229517  0.91957660  1
  O  O81  1  0.08736343  0.52702135  0.67405398  1
  O  O82  1  0.18829226  0.33063760  0.82059208  1
  O  O83  1  0.08086006  0.37399195  0.16663751  1
  O  O84  1  0.25582953  0.07734203  0.16093209  1
  O  O85  1  0.23719624  0.97803689  0.93819742  1
  O  O86  1  0.19548342  0.01191243  0.76074487  1
  O  O87  1  0.07808743  0.25807482  0.66395710  1
  O  O88  1  0.97801118  0.23275379  0.43650532  1
  O  O89  1  0.01162416  0.19385175  0.25991796  1
