# generated using pymatgen
data_Li5V3P8O29
_symmetry_space_group_name_H-M   'P 1'
_cell_length_a   9.83264799
_cell_length_b   9.76748993
_cell_length_c   14.11644235
_cell_angle_alpha   89.97231105
_cell_angle_beta   89.93634521
_cell_angle_gamma   59.71447887
_symmetry_Int_Tables_number   1
_chemical_formula_structural   Li5V3P8O29
_chemical_formula_sum   'Li10 V6 P16 O58'
_cell_volume   1170.71820588
_cell_formula_units_Z   2
loop_
 _symmetry_equiv_pos_site_id
 _symmetry_equiv_pos_as_xyz
  1  'x, y, z'
loop_
 _atom_site_type_symbol
 _atom_site_label
 _atom_site_symmetry_multiplicity
 _atom_site_fract_x
 _atom_site_fract_y
 _atom_site_fract_z
 _atom_site_occupancy
  Li  Li0  1  0.90279021  0.76192535  0.06008128  1
  Li  Li1  1  0.76542529  0.32866281  0.05904621  1
  Li  Li2  1  0.33042754  0.90196442  0.06054887  1
  Li  Li3  1  0.66384342  0.23771842  0.43998314  1
  Li  Li4  1  0.33146154  0.76331643  0.56098530  1
  Li  Li5  1  0.09335404  0.67113648  0.43999413  1
  Li  Li6  1  0.23031817  0.09913713  0.44034644  1
  Li  Li7  1  0.10119622  0.23630222  0.94154810  1
  Li  Li8  1  0.98078753  0.97674151  0.99597673  1
  Li  Li9  1  0.95549351  0.03066841  0.50152645  1
  V  V10  1  0.56500011  0.43517838  0.24918001  1
  V  V11  1  0.43444284  0.56469793  0.75424356  1
  V  V12  1  0.56706890  0.00164387  0.75100944  1
  V  V13  1  0.44166215  0.00020284  0.25037162  1
  V  V14  1  0.00063024  0.56494697  0.25035711  1
  V  V15  1  0.99810335  0.43616502  0.74458390  1
  P  P16  1  0.91250199  0.77610659  0.84029503  1
  P  P17  1  0.77779460  0.91719206  0.34237922  1
  P  P18  1  0.91399829  0.30782469  0.34007545  1
  P  P19  1  0.66755605  0.66690998  0.13177210  1
  P  P20  1  0.66234140  0.67143505  0.63192613  1
  P  P21  1  0.78031353  0.31024742  0.84185438  1
  P  P22  1  0.68920108  0.22430791  0.66021711  1
  P  P23  1  0.31458304  0.91312382  0.84161123  1
  P  P24  1  0.69504862  0.08242831  0.15660678  1
  P  P25  1  0.31379230  0.77340640  0.34428764  1
  P  P26  1  0.22182999  0.69379274  0.16028267  1
  P  P27  1  0.33445599  0.33319460  0.36919882  1
  P  P28  1  0.32638811  0.33295430  0.86754436  1
  P  P29  1  0.08876786  0.68927175  0.65785159  1
  P  P30  1  0.22719552  0.08663106  0.65896281  1
  P  P31  1  0.08697164  0.22722587  0.15651750  1
  O  O32  1  0.01009830  0.77160210  0.56781576  1
  O  O33  1  0.91957316  0.74415856  0.33939259  1
  O  O34  1  0.79781244  0.99352317  0.07376677  1
  O  O35  1  0.74041097  0.91573324  0.83250987  1
  O  O36  1  0.91772437  0.61671386  0.82687032  1
  O  O37  1  0.81188250  0.67764904  0.17059306  1
  O  O38  1  0.91783988  0.46221144  0.33154942  1
  O  O39  1  0.00200448  0.23367654  0.06572908  1
  O  O40  1  0.92330500  0.33880856  0.83356165  1
  O  O41  1  0.66304014  0.81668568  0.67960850  1
  O  O42  1  0.62315192  0.91485735  0.33236997  1
  O  O43  1  0.81256965  0.52334301  0.67893029  1
  O  O44  1  0.66183478  0.67290938  0.02578413  1
  O  O45  1  0.67106941  0.67011768  0.52711192  1
  O  O46  1  0.67876793  0.51148036  0.17086665  1
  O  O47  1  0.46868089  0.91468901  0.82827409  1
  O  O48  1  0.51383440  0.81303923  0.17565495  1
  O  O49  1  0.74251982  0.33886168  0.33952779  1
  O  O50  1  0.80058198  0.20187230  0.74974883  1
  O  O51  1  0.77357001  0.20968336  0.56921128  1
  O  O52  1  0.79956759  0.21982401  0.93132043  1
  O  O53  1  0.62544658  0.46614932  0.83043353  1
  O  O54  1  0.51167698  0.67386066  0.66917907  1
  O  O55  1  0.66098718  0.25616952  0.15871295  1
  O  O56  1  0.47138453  0.61862471  0.32778445  1
  O  O57  1  0.33675474  0.91780957  0.34228627  1
  O  O58  1  0.79896841  0.00082972  0.24982917  1
  O  O59  1  0.78964927  0.00600155  0.42579665  1
  O  O60  1  0.22150128  0.00236468  0.57078443  1
  O  O61  1  0.65484958  0.08625663  0.66932427  1
  O  O62  1  0.53564759  0.38405689  0.67281943  1
  O  O63  1  0.34526414  0.74236992  0.83675064  1
  O  O64  1  0.48940213  0.32187995  0.33000701  1
  O  O65  1  0.38052989  0.53792556  0.16949431  1
  O  O66  1  0.20759936  0.79944410  0.07886352  1
  O  O67  1  0.23259123  0.76934002  0.43490547  1
  O  O68  1  0.19947102  0.79189833  0.25777083  1
  O  O69  1  0.25782193  0.66135979  0.66260620  1
  O  O70  1  0.47443854  0.18445322  0.82116552  1
  O  O71  1  0.54020184  0.08008263  0.16586379  1
  O  O72  1  0.32664160  0.47887203  0.82592519  1
  O  O73  1  0.31992556  0.31819729  0.97199939  1
  O  O74  1  0.33418730  0.32555695  0.47515302  1
  O  O75  1  0.19066199  0.48787251  0.32973205  1
  O  O76  1  0.38312706  0.08454862  0.67108255  1
  O  O77  1  0.32787451  0.18636314  0.32484589  1
  O  O78  1  0.08222935  0.66198986  0.15990740  1
  O  O79  1  0.00083907  0.79686796  0.74968509  1
  O  O80  1  0.98449730  0.78838793  0.93077360  1
  O  O81  1  0.08872203  0.53123737  0.67329622  1
  O  O82  1  0.17998833  0.32858993  0.82273838  1
  O  O83  1  0.09058267  0.38208059  0.17374102  1
  O  O84  1  0.25394473  0.08265735  0.15886879  1
  O  O85  1  0.22590180  0.99852504  0.92986912  1
  O  O86  1  0.20447269  0.00109178  0.75049473  1
  O  O87  1  0.08570356  0.25852126  0.66239920  1
  O  O88  1  0.00450948  0.20031628  0.42125272  1
  O  O89  1  0.99015202  0.20954700  0.24248469  1
