# generated using pymatgen
data_Li5V3P8O29
_symmetry_space_group_name_H-M   'P 1'
_cell_length_a   9.77136817
_cell_length_b   9.81581744
_cell_length_c   14.07535439
_cell_angle_alpha   90.02649451
_cell_angle_beta   90.05914973
_cell_angle_gamma   59.98423840
_symmetry_Int_Tables_number   1
_chemical_formula_structural   Li5V3P8O29
_chemical_formula_sum   'Li10 V6 P16 O58'
_cell_volume   1168.96790958
_cell_formula_units_Z   2
loop_
 _symmetry_equiv_pos_site_id
 _symmetry_equiv_pos_as_xyz
  1  'x, y, z'
loop_
 _atom_site_type_symbol
 _atom_site_label
 _atom_site_symmetry_multiplicity
 _atom_site_fract_x
 _atom_site_fract_y
 _atom_site_fract_z
 _atom_site_occupancy
  Li  Li0  1  0.91279197  0.76949201  0.05901462  1
  Li  Li1  1  0.77186121  0.91290033  0.56411481  1
  Li  Li2  1  0.90553320  0.32611945  0.56086766  1
  Li  Li3  1  0.67118683  0.66490248  0.88526015  1
  Li  Li4  1  0.76519878  0.32413632  0.06039011  1
  Li  Li5  1  0.32324871  0.91163785  0.05855394  1
  Li  Li6  1  0.33063735  0.76499787  0.56213968  1
  Li  Li7  1  0.08950204  0.68299448  0.44022844  1
  Li  Li8  1  0.22220042  0.08940345  0.44062566  1
  Li  Li9  1  0.99371248  0.00316426  0.98934590  1
  V  V10  1  0.56718992  0.43128557  0.25028434  1
  V  V11  1  0.43067678  0.56333725  0.75321772  1
  V  V12  1  0.56671225  0.00419387  0.74940566  1
  V  V13  1  0.43637015  0.99816119  0.24815376  1
  V  V14  1  0.99753234  0.56655789  0.24434192  1
  V  V15  1  0.00337305  0.43227542  0.75302122  1
  P  P16  1  0.90989225  0.77670495  0.84207547  1
  P  P17  1  0.76958682  0.91014914  0.34419773  1
  P  P18  1  0.91078057  0.32276000  0.34207531  1
  P  P19  1  0.66356387  0.66507036  0.12497693  1
  P  P20  1  0.66684792  0.66572886  0.62923563  1
  P  P21  1  0.77495285  0.31234878  0.84614426  1
  P  P22  1  0.68849463  0.22884667  0.66099654  1
  P  P23  1  0.31519441  0.90838753  0.84226134  1
  P  P24  1  0.69430506  0.08380904  0.16134609  1
  P  P25  1  0.32020229  0.76694534  0.34338444  1
  P  P26  1  0.22580452  0.69132109  0.15919751  1
  P  P27  1  0.33043040  0.33572586  0.36741537  1
  P  P28  1  0.33385831  0.33389779  0.87166571  1
  P  P29  1  0.08933363  0.68004107  0.65886266  1
  P  P30  1  0.22848487  0.08569601  0.65899876  1
  P  P31  1  0.08460607  0.22377599  0.15949614  1
  O  O32  1  0.00267483  0.76433696  0.57022388  1
  O  O33  1  0.91864461  0.74426501  0.33408865  1
  O  O34  1  0.80309094  0.99471415  0.08145545  1
  O  O35  1  0.74031172  0.91942611  0.83149637  1
  O  O36  1  0.89436764  0.62726860  0.83282606  1
  O  O37  1  0.80945048  0.67691697  0.16086526  1
  O  O38  1  0.89673686  0.48319659  0.32138196  1
  O  O39  1  0.99287476  0.20949930  0.07931224  1
  O  O40  1  0.91292213  0.34272727  0.83828530  1
  O  O41  1  0.67086445  0.81537657  0.66489625  1
  O  O42  1  0.61998251  0.89801315  0.31899687  1
  O  O43  1  0.81751805  0.51741989  0.67240624  1
  O  O44  1  0.66328208  0.65722465  0.01810184  1
  O  O45  1  0.66227347  0.65713459  0.52365345  1
  O  O46  1  0.67433638  0.51040415  0.16702973  1
  O  O47  1  0.47933322  0.89380691  0.83166126  1
  O  O48  1  0.50913197  0.80971881  0.16252104  1
  O  O49  1  0.74407445  0.34072886  0.33205786  1
  O  O50  1  0.78663190  0.20344061  0.75823448  1
  O  O51  1  0.77569082  0.23755930  0.57780650  1
  O  O52  1  0.77738369  0.23167853  0.93657081  1
  O  O53  1  0.61929384  0.47658814  0.83093565  1
  O  O54  1  0.51696112  0.66769771  0.67468993  1
  O  O55  1  0.66234660  0.25731510  0.16198384  1
  O  O56  1  0.48182958  0.61807048  0.32103974  1
  O  O57  1  0.33499879  0.91616127  0.34038105  1
  O  O58  1  0.78574499  0.01314063  0.26105441  1
  O  O59  1  0.76003619  0.98226193  0.43781180  1
  O  O60  1  0.24206229  0.99496046  0.56990136  1
  O  O61  1  0.66320487  0.08525094  0.65894444  1
  O  O62  1  0.52753907  0.38226904  0.67925109  1
  O  O63  1  0.34022914  0.73887223  0.83260629  1
  O  O64  1  0.47776358  0.33819560  0.31770895  1
  O  O65  1  0.38444439  0.53482416  0.17068114  1
  O  O66  1  0.21539059  0.79479085  0.07898589  1
  O  O67  1  0.25048736  0.75144616  0.43491037  1
  O  O68  1  0.20278185  0.78455105  0.25867199  1
  O  O69  1  0.25711081  0.66346600  0.66069111  1
  O  O70  1  0.47861067  0.19122401  0.82766448  1
  O  O71  1  0.53760338  0.08457665  0.16789266  1
  O  O72  1  0.33183220  0.48421823  0.82252008  1
  O  O73  1  0.32772400  0.35001434  0.97591197  1
  O  O74  1  0.33818818  0.34113112  0.47249984  1
  O  O75  1  0.18381314  0.48632262  0.32631643  1
  O  O76  1  0.38017181  0.09362340  0.67792021  1
  O  O77  1  0.33107473  0.18473201  0.33009424  1
  O  O78  1  0.08548521  0.65951365  0.15751216  1
  O  O79  1  0.00370104  0.78776660  0.75106418  1
  O  O80  1  0.98539545  0.78919707  0.93138008  1
  O  O81  1  0.10074612  0.52069462  0.67221929  1
  O  O82  1  0.18238077  0.33942159  0.82678059  1
  O  O83  1  0.08561546  0.37971443  0.16778779  1
  O  O84  1  0.25748127  0.08276455  0.16123412  1
  O  O85  1  0.22645726  0.98396174  0.93121471  1
  O  O86  1  0.20865870  0.99827011  0.75072648  1
  O  O87  1  0.08191456  0.25035754  0.65871912  1
  O  O88  1  0.99279473  0.24998422  0.43371149  1
  O  O89  1  0.01268634  0.20305262  0.25884106  1
