# generated using pymatgen
data_Li5V3P8O29
_symmetry_space_group_name_H-M   'P 1'
_cell_length_a   9.81321559
_cell_length_b   9.80353563
_cell_length_c   14.01667658
_cell_angle_alpha   89.80749264
_cell_angle_beta   89.71387872
_cell_angle_gamma   60.16903920
_symmetry_Int_Tables_number   1
_chemical_formula_structural   Li5V3P8O29
_chemical_formula_sum   'Li10 V6 P16 O58'
_cell_volume   1169.77236755
_cell_formula_units_Z   2
loop_
 _symmetry_equiv_pos_site_id
 _symmetry_equiv_pos_as_xyz
  1  'x, y, z'
loop_
 _atom_site_type_symbol
 _atom_site_label
 _atom_site_symmetry_multiplicity
 _atom_site_fract_x
 _atom_site_fract_y
 _atom_site_fract_z
 _atom_site_occupancy
  Li  Li0  1  0.09173935  0.22923287  0.93912865  1
  Li  Li1  1  0.22621055  0.09495837  0.43927545  1
  Li  Li2  1  0.09200629  0.67797351  0.43932400  1
  Li  Li3  1  0.22524058  0.68169742  0.93998980  1
  Li  Li4  1  0.32176709  0.77073826  0.56020862  1
  Li  Li5  1  0.32511918  0.90549325  0.06081162  1
  Li  Li6  1  0.77137911  0.31823438  0.05899115  1
  Li  Li7  1  0.90329572  0.31922355  0.55847687  1
  Li  Li8  1  0.77058657  0.91223890  0.55963157  1
  Li  Li9  1  0.90179264  0.77827205  0.05836152  1
  V  V10  1  0.99752256  0.57034981  0.24808418  1
  V  V11  1  0.43477353  0.99994803  0.25031243  1
  V  V12  1  0.43856578  0.56191672  0.74952883  1
  V  V13  1  0.56939138  0.42681536  0.25375184  1
  V  V14  1  0.56796503  0.00415518  0.75487487  1
  V  V15  1  0.99816153  0.43246248  0.74760275  1
  P  P16  1  0.08892578  0.23213006  0.15881835  1
  P  P17  1  0.23410078  0.08714750  0.65835908  1
  P  P18  1  0.08809848  0.68121610  0.65778676  1
  P  P19  1  0.32931124  0.33616094  0.37241278  1
  P  P20  1  0.33087436  0.33446957  0.87224710  1
  P  P21  1  0.23441714  0.67893892  0.15824369  1
  P  P22  1  0.31996295  0.76705948  0.34125856  1
  P  P23  1  0.68276124  0.08619427  0.15858447  1
  P  P24  1  0.31807231  0.91237459  0.84208645  1
  P  P25  1  0.68444167  0.22953379  0.65957703  1
  P  P26  1  0.76917046  0.31810098  0.84295121  1
  P  P27  1  0.66509393  0.66540452  0.12815638  1
  P  P28  1  0.66494754  0.66987487  0.62895921  1
  P  P29  1  0.91109190  0.32073428  0.34089329  1
  P  P30  1  0.76717154  0.91309127  0.34329794  1
  P  P31  1  0.91072055  0.76740609  0.84046416  1
  O  O32  1  0.99730315  0.23964062  0.43029227  1
  O  O33  1  0.08587044  0.25133999  0.65677087  1
  O  O34  1  0.21064226  0.00029583  0.75022041  1
  O  O35  1  0.24286737  0.00368001  0.93168497  1
  O  O36  1  0.09912672  0.38191440  0.17678640  1
  O  O37  1  0.25369185  0.08335366  0.16020207  1
  O  O38  1  0.18681078  0.32621412  0.83301092  1
  O  O39  1  0.09737611  0.52079866  0.67724834  1
  O  O40  1  0.99692305  0.76244073  0.92981745  1
  O  O41  1  0.08547224  0.66329754  0.15740525  1
  O  O42  1  0.32641982  0.18766552  0.33269396  1
  O  O43  1  0.18596540  0.48952033  0.33236526  1
  O  O44  1  0.38424629  0.09553946  0.67772055  1
  O  O45  1  0.33473930  0.33605790  0.47864663  1
  O  O46  1  0.33717547  0.33209781  0.97829403  1
  O  O47  1  0.52098554  0.10038258  0.17514681  1
  O  O48  1  0.33080046  0.48528118  0.83049714  1
  O  O49  1  0.48132640  0.18522558  0.82563984  1
  O  O50  1  0.25127081  0.66570738  0.65754350  1
  O  O51  1  0.21138801  0.78867516  0.24992772  1
  O  O52  1  0.24560483  0.75760353  0.06848996  1
  O  O53  1  0.24277152  0.75441527  0.43123151  1
  O  O54  1  0.38428986  0.52086975  0.17720513  1
  O  O55  1  0.48032228  0.33491326  0.32519746  1
  O  O56  1  0.66369262  0.08088896  0.66302159  1
  O  O57  1  0.33475181  0.74873964  0.84297747  1
  O  O58  1  0.52192363  0.37760355  0.67399984  1
  O  O59  1  0.24688622  0.99699337  0.56876967  1
  O  O60  1  0.76099230  0.99090885  0.43478506  1
  O  O61  1  0.47970737  0.61675167  0.32282194  1
  O  O62  1  0.66346002  0.25510307  0.16240667  1
  O  O63  1  0.78620464  0.00464469  0.25371777  1
  O  O64  1  0.33617430  0.91554853  0.34140231  1
  O  O65  1  0.51168919  0.67254516  0.67010437  1
  O  O66  1  0.62292468  0.48028939  0.82382685  1
  O  O67  1  0.76381732  0.24606430  0.93490324  1
  O  O68  1  0.77066849  0.23311254  0.57340679  1
  O  O69  1  0.78847518  0.20617020  0.75417723  1
  O  O70  1  0.74462080  0.33927612  0.33488647  1
  O  O71  1  0.51173845  0.81167210  0.16756340  1
  O  O72  1  0.47827302  0.90430229  0.82308377  1
  O  O73  1  0.66957265  0.51233054  0.17108591  1
  O  O74  1  0.66084287  0.67394155  0.52242058  1
  O  O75  1  0.66766211  0.66004293  0.02154563  1
  O  O76  1  0.61795986  0.90082176  0.32287427  1
  O  O77  1  0.81218877  0.51452802  0.66619090  1
  O  O78  1  0.66818104  0.81776175  0.67112893  1
  O  O79  1  0.92015214  0.33465698  0.83525978  1
  O  O80  1  0.00107639  0.20979664  0.25010985  1
  O  O81  1  0.00080674  0.24264107  0.06917081  1
  O  O82  1  0.89973615  0.48009254  0.32488175  1
  O  O83  1  0.81226424  0.67331199  0.16705294  1
  O  O84  1  0.74398886  0.91486625  0.83475323  1
  O  O85  1  0.89872581  0.61996588  0.82453354  1
  O  O86  1  0.76989636  0.99710082  0.07306247  1
  O  O87  1  0.91634240  0.74576350  0.33661209  1
  O  O88  1  0.99694901  0.75674978  0.56851708  1
  O  O89  1  -0.00000019  0.78966192  0.74949978  1
