# generated using pymatgen
data_Li5V3P8O29
_symmetry_space_group_name_H-M   'P 1'
_cell_length_a   9.81168047
_cell_length_b   9.76091613
_cell_length_c   14.11553042
_cell_angle_alpha   90.82261842
_cell_angle_beta   90.59680622
_cell_angle_gamma   60.21128504
_symmetry_Int_Tables_number   1
_chemical_formula_structural   Li5V3P8O29
_chemical_formula_sum   'Li10 V6 P16 O58'
_cell_volume   1173.09893821
_cell_formula_units_Z   2
loop_
 _symmetry_equiv_pos_site_id
 _symmetry_equiv_pos_as_xyz
  1  'x, y, z'
loop_
 _atom_site_type_symbol
 _atom_site_label
 _atom_site_symmetry_multiplicity
 _atom_site_fract_x
 _atom_site_fract_y
 _atom_site_fract_z
 _atom_site_occupancy
  Li  Li0  1  0.90593522  0.32465325  0.56555862  1
  Li  Li1  1  0.67686729  0.67425856  0.89011706  1
  Li  Li2  1  0.76713264  0.32089040  0.06210274  1
  Li  Li3  1  0.31003446  0.91359774  0.05860558  1
  Li  Li4  1  0.68120392  0.22816655  0.44346906  1
  Li  Li5  1  0.32378222  0.76631587  0.56173406  1
  Li  Li6  1  0.23038114  0.66833072  0.94068861  1
  Li  Li7  1  0.08526221  0.69068740  0.43435549  1
  Li  Li8  1  0.22553543  0.09099553  0.44670763  1
  Li  Li9  1  0.94294444  0.01060905  0.98709131  1
  V  V10  1  0.56976519  0.43292060  0.25145193  1
  V  V11  1  0.42974169  0.56738380  0.75054775  1
  V  V12  1  0.57196946  0.00449109  0.75130548  1
  V  V13  1  0.43898910  0.00077382  0.24375156  1
  V  V14  1  0.99567022  0.56971470  0.24462474  1
  V  V15  1  0.00612980  0.42978249  0.75142540  1
  P  P16  1  0.91473413  0.78269078  0.83586957  1
  P  P17  1  0.77073031  0.91583355  0.34021267  1
  P  P18  1  0.91584610  0.32095033  0.34564151  1
  P  P19  1  0.66428178  0.66647154  0.12779900  1
  P  P20  1  0.66284654  0.66824887  0.63094688  1
  P  P21  1  0.77475253  0.32041857  0.84364614  1
  P  P22  1  0.68282063  0.22928699  0.66211916  1
  P  P23  1  0.31838971  0.91139911  0.84501410  1
  P  P24  1  0.69527565  0.08144604  0.15503568  1
  P  P25  1  0.32374537  0.77234623  0.33996594  1
  P  P26  1  0.23094539  0.68026518  0.15948938  1
  P  P27  1  0.33363970  0.33410924  0.36653018  1
  P  P28  1  0.33327439  0.33208329  0.87217594  1
  P  P29  1  0.08572555  0.68054200  0.65252956  1
  P  P30  1  0.23301856  0.08258389  0.66173535  1
  P  P31  1  0.08226370  0.21975850  0.16161858  1
  O  O32  1  0.01360804  0.74463724  0.55915046  1
  O  O33  1  0.91505488  0.74876121  0.33879507  1
  O  O34  1  0.78626513  0.00416800  0.06867759  1
  O  O35  1  0.74311311  0.92377801  0.83632993  1
  O  O36  1  0.90490737  0.62965472  0.83381876  1
  O  O37  1  0.80268835  0.67963057  0.17049829  1
  O  O38  1  0.90399046  0.48028959  0.32244529  1
  O  O39  1  0.99127062  0.19601001  0.08394988  1
  O  O40  1  0.91603218  0.34854317  0.83409073  1
  O  O41  1  0.66220090  0.81446847  0.68296214  1
  O  O42  1  0.61811987  0.90651015  0.31756618  1
  O  O43  1  0.81285626  0.51590806  0.66659049  1
  O  O44  1  0.65138442  0.67426871  0.02155719  1
  O  O45  1  0.65216440  0.68114542  0.52585919  1
  O  O46  1  0.67448263  0.51087350  0.16386775  1
  O  O47  1  0.48069826  0.89950463  0.83313051  1
  O  O48  1  0.50638819  0.81365397  0.16889598  1
  O  O49  1  0.75079057  0.33631697  0.34221407  1
  O  O50  1  0.79142903  0.21020171  0.75258835  1
  O  O51  1  0.75881241  0.24019093  0.57305784  1
  O  O52  1  0.78555155  0.23343537  0.93224868  1
  O  O53  1  0.62464608  0.48215207  0.83210876  1
  O  O54  1  0.51001638  0.67158514  0.67017468  1
  O  O55  1  0.65875849  0.25563756  0.16444019  1
  O  O56  1  0.48462325  0.62267821  0.32196843  1
  O  O57  1  0.34021500  0.92235225  0.33901036  1
  O  O58  1  0.79459187  0.99887581  0.24857616  1
  O  O59  1  0.75607873  0.01029926  0.42643646  1
  O  O60  1  0.24224337  0.99399473  0.57165958  1
  O  O61  1  0.66283935  0.08174793  0.66476654  1
  O  O62  1  0.52217601  0.37876195  0.67977384  1
  O  O63  1  0.34256243  0.74010973  0.83995004  1
  O  O64  1  0.48825265  0.33079642  0.33384407  1
  O  O65  1  0.38292496  0.52406430  0.17326208  1
  O  O66  1  0.22671975  0.76565360  0.07040332  1
  O  O67  1  0.24687853  0.76130931  0.42886669  1
  O  O68  1  0.21274409  0.79276850  0.25003221  1
  O  O69  1  0.25174401  0.66409705  0.66207265  1
  O  O70  1  0.48391688  0.18487824  0.82350448  1
  O  O71  1  0.53764330  0.07831828  0.16699324  1
  O  O72  1  0.32740218  0.48614335  0.83494131  1
  O  O73  1  0.34283240  0.32396801  0.97703813  1
  O  O74  1  0.33393376  0.31015919  0.47071933  1
  O  O75  1  0.18652446  0.48526910  0.32978095  1
  O  O76  1  0.38368264  0.09087722  0.68010472  1
  O  O77  1  0.33596924  0.18574388  0.31348010  1
  O  O78  1  0.08705238  0.65639330  0.16633784  1
  O  O79  1  0.98488447  0.80013324  0.73681234  1
  O  O80  1  0.00795348  0.80131621  0.91475201  1
  O  O81  1  0.09485281  0.52224366  0.67769897  1
  O  O82  1  0.19418516  0.32264845  0.82547493  1
  O  O83  1  0.08017526  0.37704726  0.16647734  1
  O  O84  1  0.25615006  0.07815731  0.16130809  1
  O  O85  1  0.23128947  0.99000493  0.93337843  1
  O  O86  1  0.21352920  0.99448898  0.75194585  1
  O  O87  1  0.08446286  0.24772767  0.66111838  1
  O  O88  1  0.99897794  0.25178457  0.43780884  1
  O  O89  1  0.01599397  0.19855923  0.26265364  1
