# generated using pymatgen
data_Li5Fe2P2(CO7)2
_symmetry_space_group_name_H-M   'P 1'
_cell_length_a   8.44625706
_cell_length_b   5.06567502
_cell_length_c   13.02219128
_cell_angle_alpha   89.34968768
_cell_angle_beta   90.08295875
_cell_angle_gamma   84.69725223
_symmetry_Int_Tables_number   1
_chemical_formula_structural   Li5Fe2P2(CO7)2
_chemical_formula_sum   'Li10 Fe4 P4 C4 O28'
_cell_volume   554.74538444
_cell_formula_units_Z   2
loop_
 _symmetry_equiv_pos_site_id
 _symmetry_equiv_pos_as_xyz
  1  'x, y, z'
loop_
 _atom_site_type_symbol
 _atom_site_label
 _atom_site_symmetry_multiplicity
 _atom_site_fract_x
 _atom_site_fract_y
 _atom_site_fract_z
 _atom_site_occupancy
  Li  Li0  1  0.08665095  0.75791793  0.11634246  1
  Li  Li1  1  0.09988403  0.77270145  0.63795637  1
  Li  Li2  1  0.26841019  0.26650019  0.00348789  1
  Li  Li3  1  0.28410812  0.24964143  0.22594015  1
  Li  Li4  1  0.27517909  0.24850801  0.52110389  1
  Li  Li5  1  0.72482091  0.75149199  0.47889611  1
  Li  Li6  1  0.71589188  0.75035857  0.77405985  1
  Li  Li7  1  0.73158981  0.73349981  0.99651211  1
  Li  Li8  1  0.90011597  0.22729855  0.36204363  1
  Li  Li9  1  0.91334905  0.24208207  0.88365754  1
  Fe  Fe10  1  0.33713583  0.79634157  0.37290484  1
  Fe  Fe11  1  0.32682609  0.79546815  0.87407962  1
  Fe  Fe12  1  0.67317391  0.20453185  0.12592038  1
  Fe  Fe13  1  0.66286417  0.20365843  0.62709516  1
  P  P14  1  0.41559660  0.72387859  0.12289906  1
  P  P15  1  0.41688266  0.72215240  0.62158034  1
  P  P16  1  0.58311734  0.27784760  0.37841966  1
  P  P17  1  0.58440340  0.27612141  0.87710094  1
  C  C18  1  0.03017419  0.69698170  0.87945933  1
  C  C19  1  0.04770391  0.69530879  0.38248857  1
  C  C20  1  0.96982581  0.30301830  0.12054067  1
  C  C21  1  0.95229609  0.30469121  0.61751143  1
  O  O22  1  0.07980352  0.94310242  0.37764573  1
  O  O23  1  0.06737071  0.93906711  0.87059332  1
  O  O24  1  0.11676646  0.35924745  0.12798364  1
  O  O25  1  0.08983355  0.37952462  0.60526171  1
  O  O26  1  0.14174849  0.50793840  0.89439086  1
  O  O27  1  0.17377559  0.52063182  0.37441572  1
  O  O28  1  0.31374397  0.83866700  0.52868062  1
  O  O29  1  0.29589107  0.82098284  0.03644130  1
  O  O30  1  0.32470834  0.83044764  0.22303411  1
  O  O31  1  0.31090884  0.78131739  0.71469900  1
  O  O32  1  0.42054649  0.15714041  0.37427906  1
  O  O33  1  0.42400486  0.16503935  0.88822911  1
  O  O34  1  0.43557096  0.41502430  0.12843405  1
  O  O35  1  0.45565203  0.41699032  0.60581175  1
  O  O36  1  0.54434797  0.58300968  0.39418825  1
  O  O37  1  0.56442904  0.58497570  0.87156595  1
  O  O38  1  0.57599514  0.83496065  0.11177089  1
  O  O39  1  0.57945351  0.84285959  0.62572094  1
  O  O40  1  0.68909116  0.21868261  0.28530100  1
  O  O41  1  0.68625603  0.16133300  0.47131938  1
  O  O42  1  0.67529166  0.16955236  0.77696589  1
  O  O43  1  0.70410893  0.17901716  0.96355870  1
  O  O44  1  0.85825151  0.49206160  0.10560914  1
  O  O45  1  0.82622441  0.47936818  0.62558428  1
  O  O46  1  0.91016645  0.62047538  0.39473829  1
  O  O47  1  0.88323354  0.64075255  0.87201636  1
  O  O48  1  0.93262929  0.06093289  0.12940668  1
  O  O49  1  0.92019648  0.05689758  0.62235427  1
