# generated using pymatgen
data_V2FeSn
_symmetry_space_group_name_H-M   'P 1'
_cell_length_a   4.44448515
_cell_length_b   5.56553680
_cell_length_c   5.62027922
_cell_angle_alpha   120.33173979
_cell_angle_beta   90.00000000
_cell_angle_gamma   90.00000000
_symmetry_Int_Tables_number   1
_chemical_formula_structural   V2FeSn
_chemical_formula_sum   'V4 Fe2 Sn2'
_cell_volume   119.99289794
_cell_formula_units_Z   2
loop_
 _symmetry_equiv_pos_site_id
 _symmetry_equiv_pos_as_xyz
  1  'x, y, z'
loop_
 _atom_site_type_symbol
 _atom_site_label
 _atom_site_symmetry_multiplicity
 _atom_site_fract_x
 _atom_site_fract_y
 _atom_site_fract_z
 _atom_site_occupancy
  V  V0  1  0.75000000  0.72118011  0.86061367  1
  V  V1  1  0.25000000  0.84364321  0.69665785  1
  V  V2  1  0.25000000  0.84359330  0.14699158  1
  V  V3  1  0.25000000  0.28976957  0.14489864  1
  Fe  Fe4  1  0.75000000  0.15295439  0.29992826  1
  Fe  Fe5  1  0.75000000  0.15305595  0.85297479  1
  Sn  Sn6  1  0.75000000  0.67026909  0.33513073  1
  Sn  Sn7  1  0.25000000  0.32553438  0.66280448  1
