# generated using pymatgen
data_ZnBi3P3O13
_symmetry_space_group_name_H-M   'P 1'
_cell_length_a   7.14070985
_cell_length_b   8.47604859
_cell_length_c   11.00260036
_cell_angle_alpha   101.25021497
_cell_angle_beta   90.00000000
_cell_angle_gamma   90.00000000
_symmetry_Int_Tables_number   1
_chemical_formula_structural   ZnBi3P3O13
_chemical_formula_sum   'Zn2 Bi6 P6 O26'
_cell_volume   653.13623471
_cell_formula_units_Z   2
loop_
 _symmetry_equiv_pos_site_id
 _symmetry_equiv_pos_as_xyz
  1  'x, y, z'
loop_
 _atom_site_type_symbol
 _atom_site_label
 _atom_site_symmetry_multiplicity
 _atom_site_fract_x
 _atom_site_fract_y
 _atom_site_fract_z
 _atom_site_occupancy
  Zn  Zn0  1  0.75000000  0.56167850  0.15762657  1
  Zn  Zn1  1  0.25000000  0.43832150  0.84237343  1
  Bi  Bi2  1  0.25000000  0.35731215  0.23338766  1
  Bi  Bi3  1  0.75000000  0.64268785  0.76661234  1
  Bi  Bi4  1  0.25000000  0.80086943  0.43291751  1
  Bi  Bi5  1  0.50000000  -0.00000000  -0.00000000  1
  Bi  Bi6  1  0.75000000  0.19913057  0.56708249  1
  Bi  Bi7  1  -0.00000000  -0.00000000  -0.00000000  1
  P  P8  1  0.25000000  0.22934737  0.52450470  1
  P  P9  1  0.75000000  0.77065263  0.47549530  1
  P  P10  1  0.25000000  0.72115378  0.75980926  1
  P  P11  1  0.75000000  0.27884622  0.24019074  1
  P  P12  1  0.75000000  0.32501845  0.90053917  1
  P  P13  1  0.25000000  0.67498155  0.09946083  1
  O  O14  1  0.75000000  0.35559273  0.76421479  1
  O  O15  1  0.57490009  0.75096131  0.38970400  1
  O  O16  1  0.25000000  0.76436928  0.63321805  1
  O  O17  1  0.56680878  0.23616760  0.91990827  1
  O  O18  1  0.75000000  0.64329341  0.56036554  1
  O  O19  1  0.75000000  0.87715226  0.88881783  1
  O  O20  1  0.25000000  0.35670659  0.43963446  1
  O  O21  1  0.06680878  0.76383240  0.08009173  1
  O  O22  1  0.25000000  0.06061970  0.43403596  1
  O  O23  1  0.75000000  0.93938030  0.56596404  1
  O  O24  1  0.08158982  0.61009160  0.78214575  1
  O  O25  1  0.25000000  0.12284774  0.11118217  1
  O  O26  1  0.58158982  0.38990840  0.21785425  1
  O  O27  1  0.75000000  0.50274311  0.97847928  1
  O  O28  1  0.75000000  0.23563072  0.36678195  1
  O  O29  1  0.43319122  0.76383240  0.08009173  1
  O  O30  1  0.92509991  0.75096131  0.38970400  1
  O  O31  1  0.42509991  0.24903869  0.61029600  1
  O  O32  1  0.41841018  0.61009160  0.78214575  1
  O  O33  1  0.25000000  0.64440727  0.23578521  1
  O  O34  1  0.75000000  0.11992282  0.13992538  1
  O  O35  1  0.25000000  0.88007718  0.86007462  1
  O  O36  1  0.91841018  0.38990840  0.21785425  1
  O  O37  1  0.93319122  0.23616760  0.91990827  1
  O  O38  1  0.07490009  0.24903869  0.61029600  1
  O  O39  1  0.25000000  0.49725689  0.02152072  1
