# generated using pymatgen
data_Li3Fe2(SiO4)2
_symmetry_space_group_name_H-M   'P 1'
_cell_length_a   10.66472348
_cell_length_b   5.13205956
_cell_length_c   6.55998370
_cell_angle_alpha   90.00000000
_cell_angle_beta   90.83888740
_cell_angle_gamma   90.00000000
_symmetry_Int_Tables_number   1
_chemical_formula_structural   Li3Fe2(SiO4)2
_chemical_formula_sum   'Li6 Fe4 Si4 O16'
_cell_volume   359.00251961
_cell_formula_units_Z   2
loop_
 _symmetry_equiv_pos_site_id
 _symmetry_equiv_pos_as_xyz
  1  'x, y, z'
loop_
 _atom_site_type_symbol
 _atom_site_label
 _atom_site_symmetry_multiplicity
 _atom_site_fract_x
 _atom_site_fract_y
 _atom_site_fract_z
 _atom_site_occupancy
  Li  Li0  1  0.15645871  0.18010085  0.11609516  1
  Li  Li1  1  0.33665793  0.68664642  0.62357485  1
  Li  Li2  1  0.42373639  0.27730134  0.37359445  1
  Li  Li3  1  0.65645871  0.31989915  0.11609516  1
  Li  Li4  1  0.83665793  0.81335358  0.62357485  1
  Li  Li5  1  0.92373639  0.22269866  0.37359445  1
  Fe  Fe6  1  0.16035610  0.17711981  0.63075221  1
  Fe  Fe7  1  0.33709063  0.68690883  0.10925013  1
  Fe  Fe8  1  0.66035610  0.32288019  0.63075221  1
  Fe  Fe9  1  0.83709063  0.81309117  0.10925013  1
  Si  Si10  1  0.09382882  0.68180006  0.36801734  1
  Si  Si11  1  0.41169190  0.18920136  0.86470884  1
  Si  Si12  1  0.59382882  0.81819994  0.36801734  1
  Si  Si13  1  0.91169190  0.31079864  0.86470884  1
  O  O14  1  0.05863818  0.23485674  0.87555387  1
  O  O15  1  0.09275775  0.36039740  0.36540761  1
  O  O16  1  0.17287602  0.79434571  0.17002660  1
  O  O17  1  0.16319603  0.79043206  0.57253770  1
  O  O18  1  0.33979456  0.31332722  0.07081433  1
  O  O19  1  0.34594750  0.29371818  0.65002229  1
  O  O20  1  0.38624926  0.87113061  0.87762283  1
  O  O21  1  0.44482423  0.71219749  0.34843680  1
  O  O22  1  0.55863818  0.26514326  0.87555387  1
  O  O23  1  0.59275775  0.13960260  0.36540761  1
  O  O24  1  0.67287602  0.70565429  0.17002660  1
  O  O25  1  0.66319603  0.70956794  0.57253770  1
  O  O26  1  0.83979456  0.18667278  0.07081433  1
  O  O27  1  0.84594750  0.20628182  0.65002229  1
  O  O28  1  0.88624926  0.62886939  0.87762283  1
  O  O29  1  0.94482423  0.78780251  0.34843680  1
