# generated using pymatgen
data_Li3MnV(PO4)3
_symmetry_space_group_name_H-M   'P 1'
_cell_length_a   8.57563176
_cell_length_b   12.07001010
_cell_length_c   8.76427489
_cell_angle_alpha   90.00000000
_cell_angle_beta   90.00000000
_cell_angle_gamma   91.62381581
_symmetry_Int_Tables_number   1
_chemical_formula_structural   Li3MnV(PO4)3
_chemical_formula_sum   'Li12 Mn4 V4 P12 O48'
_cell_volume   906.80793208
_cell_formula_units_Z   4
loop_
 _symmetry_equiv_pos_site_id
 _symmetry_equiv_pos_as_xyz
  1  'x, y, z'
loop_
 _atom_site_type_symbol
 _atom_site_label
 _atom_site_symmetry_multiplicity
 _atom_site_fract_x
 _atom_site_fract_y
 _atom_site_fract_z
 _atom_site_occupancy
  Li  Li0  1  0.06487469  0.34585706  0.51217143  1
  Li  Li1  1  0.07990169  0.69035380  0.08624870  1
  Li  Li2  1  0.17959971  0.17767095  0.77948394  1
  Li  Li3  1  0.32040029  0.32232905  0.27948394  1
  Li  Li4  1  0.42009831  0.80964620  0.58624870  1
  Li  Li5  1  0.43512531  0.15414294  0.01217143  1
  Li  Li6  1  0.56440756  0.84714387  0.98538318  1
  Li  Li7  1  0.58039521  0.19123355  0.41520249  1
  Li  Li8  1  0.68074629  0.67751092  0.72096274  1
  Li  Li9  1  0.81925371  0.82248908  0.22096274  1
  Li  Li10  1  0.91960479  0.30876645  0.91520249  1
  Li  Li11  1  0.93559244  0.65285613  0.48538318  1
  Mn  Mn12  1  0.74753737  0.60964918  0.03663496  1
  Mn  Mn13  1  0.74774043  0.39431727  0.47120421  1
  Mn  Mn14  1  0.75246263  0.89035082  0.53663496  1
  Mn  Mn15  1  0.75225957  0.10568273  0.97120421  1
  V  V16  1  0.24416968  0.89504559  0.02796993  1
  V  V17  1  0.24510155  0.10804798  0.46485254  1
  V  V18  1  0.25583032  0.60495441  0.52796993  1
  V  V19  1  0.25489845  0.39195202  0.96485254  1
  P  P20  1  0.04387837  0.48994278  0.24812391  1
  P  P21  1  0.11440869  0.84592144  0.38209353  1
  P  P22  1  0.11456433  0.14617026  0.11120926  1
  P  P23  1  0.38559131  0.65407856  0.88209353  1
  P  P24  1  0.38543567  0.35382974  0.61120926  1
  P  P25  1  0.45612163  0.01005722  0.74812391  1
  P  P26  1  0.54303398  0.99013886  0.24935165  1
  P  P27  1  0.61682405  0.64982923  0.38973171  1
  P  P28  1  0.61586291  0.35271587  0.11887636  1
  P  P29  1  0.88317595  0.85017077  0.88973171  1
  P  P30  1  0.88413709  0.14728413  0.61887636  1
  P  P31  1  0.95696602  0.50986114  0.74935165  1
  O  O32  1  0.05085695  0.89476758  0.89342336  1
  O  O33  1  0.04851982  0.44362499  0.86795344  1
  O  O34  1  0.05447353  0.59922969  0.66378803  1
  O  O35  1  0.05625293  0.18656619  0.58021012  1
  O  O36  1  0.10106099  0.58156066  0.36041962  1
  O  O37  1  0.12635524  0.82981423  0.20533048  1
  O  O38  1  0.13995390  0.96875012  0.42106573  1
  O  O39  1  0.12845061  0.24540151  0.99409193  1
  O  O40  1  0.17561566  0.18702994  0.26919727  1
  O  O41  1  0.18937841  0.43417416  0.17716181  1
  O  O42  1  0.23093498  0.77529087  0.47139802  1
  O  O43  1  0.23536162  0.06171179  0.05004103  1
  O  O44  1  0.26463838  0.43828821  0.55004103  1
  O  O45  1  0.26906502  0.72470913  0.97139802  1
  O  O46  1  0.31062159  0.06582584  0.67716181  1
  O  O47  1  0.32438434  0.31297006  0.76919727  1
  O  O48  1  0.36004610  0.53124988  0.92106573  1
  O  O49  1  0.37154939  0.25459849  0.49409193  1
  O  O50  1  0.37364476  0.67018577  0.70533048  1
  O  O51  1  0.39893901  0.91843934  0.86041962  1
  O  O52  1  0.44552647  0.90077031  0.16378803  1
  O  O53  1  0.44374707  0.31343381  0.08021012  1
  O  O54  1  0.44914305  0.60523242  0.39342336  1
  O  O55  1  0.45148018  0.05637501  0.36795344  1
  O  O56  1  0.54538134  0.94690494  0.62636161  1
  O  O57  1  0.55270836  0.39919502  0.61395947  1
  O  O58  1  0.55707640  0.69267082  0.91801083  1
  O  O59  1  0.55147550  0.10284275  0.83170176  1
  O  O60  1  0.60141567  0.08436211  0.13626694  1
  O  O61  1  0.62344310  0.33441550  0.29763935  1
  O  O62  1  0.62713820  0.75086109  0.50775047  1
  O  O63  1  0.63526348  0.47652385  0.08321024  1
  O  O64  1  0.67034027  0.69120294  0.23025633  1
  O  O65  1  0.68738527  0.93569161  0.31996085  1
  O  O66  1  0.73148772  0.28259578  0.03025764  1
  O  O67  1  0.73771317  0.56759713  0.45104110  1
  O  O68  1  0.76228683  0.93240287  0.95104110  1
  O  O69  1  0.76851228  0.21740422  0.53025764  1
  O  O70  1  0.81261473  0.56430839  0.81996085  1
  O  O71  1  0.82965973  0.80879706  0.73025633  1
  O  O72  1  0.87286180  0.74913891  0.00775047  1
  O  O73  1  0.86473652  0.02347615  0.58321024  1
  O  O74  1  0.87655690  0.16558450  0.79763935  1
  O  O75  1  0.89858433  0.41563789  0.63626694  1
  O  O76  1  0.94292360  0.80732918  0.41801083  1
  O  O77  1  0.94852450  0.39715725  0.33170176  1
  O  O78  1  0.95461866  0.55309506  0.12636161  1
  O  O79  1  0.94729164  0.10080498  0.11395947  1
