# generated using pymatgen
data_Li3MnV(PO4)3
_symmetry_space_group_name_H-M   'P 1'
_cell_length_a   8.57017867
_cell_length_b   12.11376305
_cell_length_c   8.73288314
_cell_angle_alpha   89.82269569
_cell_angle_beta   90.74083737
_cell_angle_gamma   91.75893010
_symmetry_Int_Tables_number   1
_chemical_formula_structural   Li3MnV(PO4)3
_chemical_formula_sum   'Li12 Mn4 V4 P12 O48'
_cell_volume   906.11648673
_cell_formula_units_Z   4
loop_
 _symmetry_equiv_pos_site_id
 _symmetry_equiv_pos_as_xyz
  1  'x, y, z'
loop_
 _atom_site_type_symbol
 _atom_site_label
 _atom_site_symmetry_multiplicity
 _atom_site_fract_x
 _atom_site_fract_y
 _atom_site_fract_z
 _atom_site_occupancy
  Li  Li0  1  0.06397629  0.34522796  0.51294374  1
  Li  Li1  1  0.08157766  0.69062222  0.08751688  1
  Li  Li2  1  0.17944115  0.17692420  0.77986654  1
  Li  Li3  1  0.31900020  0.32191228  0.27984494  1
  Li  Li4  1  0.42127945  0.80983592  0.58588800  1
  Li  Li5  1  0.43516398  0.15360772  0.01329941  1
  Li  Li6  1  0.56514152  0.84644594  0.98638798  1
  Li  Li7  1  0.57895467  0.19077074  0.41509202  1
  Li  Li8  1  0.68052771  0.67787792  0.71940703  1
  Li  Li9  1  0.82061418  0.82295312  0.22045784  1
  Li  Li10  1  0.91851777  0.30853903  0.91598308  1
  Li  Li11  1  0.93653966  0.65407203  0.48430503  1
  Mn  Mn12  1  0.24592489  0.10821137  0.46392488  1
  Mn  Mn13  1  0.74661826  0.39407170  0.47091928  1
  Mn  Mn14  1  0.75424309  0.89102582  0.53585529  1
  Mn  Mn15  1  0.75242952  0.10489928  0.96964250  1
  V  V16  1  0.24410221  0.89528419  0.02632781  1
  V  V17  1  0.25708487  0.60480950  0.52717310  1
  V  V18  1  0.25432702  0.39097222  0.96511657  1
  V  V19  1  0.74513332  0.61003604  0.03513681  1
  P  P20  1  0.04112283  0.49029158  0.24737050  1
  P  P21  1  0.11669162  0.84801377  0.38224402  1
  P  P22  1  0.11391280  0.14594948  0.11090656  1
  P  P23  1  0.38647169  0.65203970  0.88341537  1
  P  P24  1  0.38419218  0.35230695  0.61131178  1
  P  P25  1  0.45636771  0.00985623  0.74741957  1
  P  P26  1  0.54623312  0.99012456  0.24910982  1
  P  P27  1  0.61716515  0.64992734  0.38981372  1
  P  P28  1  0.61423047  0.35083082  0.11924074  1
  P  P29  1  0.88400784  0.85175248  0.88944366  1
  P  P30  1  0.88254218  0.14855853  0.62034260  1
  P  P31  1  0.95695730  0.51030859  0.74950163  1
  O  O32  1  0.05148618  0.89871719  0.89279688  1
  O  O33  1  0.04881520  0.44372094  0.86884339  1
  O  O34  1  0.05449739  0.59920419  0.66402658  1
  O  O35  1  0.05265360  0.19075325  0.58635386  1
  O  O36  1  0.09985918  0.58249319  0.35907207  1
  O  O37  1  0.12965532  0.83117929  0.20466219  1
  O  O38  1  0.13907917  0.97138007  0.41908603  1
  O  O39  1  0.12627627  0.24677232  0.99600777  1
  O  O40  1  0.17291379  0.18677502  0.27180425  1
  O  O41  1  0.18622709  0.43553557  0.17658122  1
  O  O42  1  0.23268536  0.77674382  0.47222934  1
  O  O43  1  0.23534720  0.06419223  0.04958652  1
  O  O44  1  0.26420717  0.43688033  0.54884879  1
  O  O45  1  0.27134456  0.72226069  0.97194665  1
  O  O46  1  0.30989917  0.06597795  0.67637125  1
  O  O47  1  0.32522721  0.31182231  0.77003787  1
  O  O48  1  0.36135842  0.52939179  0.92020603  1
  O  O49  1  0.36944666  0.25259826  0.49354831  1
  O  O50  1  0.37669573  0.67007719  0.70585711  1
  O  O51  1  0.39756235  0.91896551  0.86108649  1
  O  O52  1  0.44652894  0.90062807  0.16407630  1
  O  O53  1  0.44144540  0.31089526  0.08106382  1
  O  O54  1  0.44900147  0.60533333  0.39209334  1
  O  O55  1  0.45769745  0.05674788  0.36621722  1
  O  O56  1  0.54464276  0.94630539  0.62792260  1
  O  O57  1  0.55184768  0.39702778  0.61256619  1
  O  O58  1  0.55971084  0.68971858  0.92197524  1
  O  O59  1  0.55273287  0.10202378  0.83239910  1
  O  O60  1  0.60565974  0.08203814  0.13425243  1
  O  O61  1  0.62149554  0.33370815  0.29886712  1
  O  O62  1  0.62811378  0.75065986  0.50653126  1
  O  O63  1  0.63603484  0.47308284  0.08193578  1
  O  O64  1  0.67162400  0.68975431  0.22961633  1
  O  O65  1  0.69076518  0.93404241  0.32081873  1
  O  O66  1  0.72997885  0.28194210  0.03132476  1
  O  O67  1  0.73761935  0.56754805  0.45294515  1
  O  O68  1  0.76205412  0.93190849  0.95029791  1
  O  O69  1  0.76525986  0.21785470  0.53061219  1
  O  O70  1  0.81406567  0.56509381  0.82127993  1
  O  O71  1  0.82961305  0.81095474  0.72798693  1
  O  O72  1  0.87592526  0.75136190  0.00532435  1
  O  O73  1  0.86410526  0.02531687  0.58415841  1
  O  O74  1  0.87371056  0.16521359  0.80000966  1
  O  O75  1  0.89651459  0.41642002  0.63711056  1
  O  O76  1  0.94570585  0.80859551  0.41668246  1
  O  O77  1  0.94650160  0.39818115  0.33153704  1
  O  O78  1  0.94967897  0.55334034  0.12494829  1
  O  O79  1  0.94623720  0.10079759  0.11128259  1
