# generated using pymatgen
data_Li3V5O8
_symmetry_space_group_name_H-M   'P 1'
_cell_length_a   10.55416190
_cell_length_b   10.49914249
_cell_length_c   14.87255016
_cell_angle_alpha   19.46839688
_cell_angle_beta   19.55292007
_cell_angle_gamma   33.67237666
_symmetry_Int_Tables_number   1
_chemical_formula_structural   Li3V5O8
_chemical_formula_sum   'Li3 V5 O8'
_cell_volume   158.75617029
_cell_formula_units_Z   1
loop_
 _symmetry_equiv_pos_site_id
 _symmetry_equiv_pos_as_xyz
  1  'x, y, z'
loop_
 _atom_site_type_symbol
 _atom_site_label
 _atom_site_symmetry_multiplicity
 _atom_site_fract_x
 _atom_site_fract_y
 _atom_site_fract_z
 _atom_site_occupancy
  Li  Li0  1  0.99999783  0.49999791  0.50000248  1
  Li  Li1  1  0.49999974  0.00000036  0.50000054  1
  Li  Li2  1  0.49999906  0.49999903  0.50000183  1
  V  V3  1  0.00000122  0.00000652  0.99999505  1
  V  V4  1  0.00000055  0.50000173  -0.00000283  1
  V  V5  1  0.50000060  0.99999476  0.00000265  1
  V  V6  1  0.49999642  0.49999534  0.00000555  1
  V  V7  1  0.00000337  0.00000956  0.49999188  1
  O  O8  1  0.99527689  0.00067511  0.25990871  1
  O  O9  1  0.00188536  0.48136134  0.26791721  1
  O  O10  1  0.48378249  0.00043327  0.26591478  1
  O  O11  1  0.00471832  0.99931484  0.74010202  1
  O  O12  1  0.52068279  0.51818496  0.23077643  1
  O  O13  1  0.99811010  0.51863626  0.73208947  1
  O  O14  1  0.51621583  0.99956790  0.73408515  1
  O  O15  1  0.47932943  0.48182113  0.76920907  1
