# generated using pymatgen
data_Li3Mn2(P2O7)2
_symmetry_space_group_name_H-M   'P 1'
_cell_length_a   9.84090525
_cell_length_b   9.87131949
_cell_length_c   11.37008565
_cell_angle_alpha   89.88473827
_cell_angle_beta   103.50711661
_cell_angle_gamma   90.06471154
_symmetry_Int_Tables_number   1
_chemical_formula_structural   Li3Mn2(P2O7)2
_chemical_formula_sum   'Li12 Mn8 P16 O56'
_cell_volume   1073.96858508
_cell_formula_units_Z   4
loop_
 _symmetry_equiv_pos_site_id
 _symmetry_equiv_pos_as_xyz
  1  'x, y, z'
loop_
 _atom_site_type_symbol
 _atom_site_label
 _atom_site_symmetry_multiplicity
 _atom_site_fract_x
 _atom_site_fract_y
 _atom_site_fract_z
 _atom_site_occupancy
  Li  Li0  1  0.17329663  0.42320285  0.54515968  1
  Li  Li1  1  0.08621349  0.10577324  0.02684629  1
  Li  Li2  1  0.15086827  0.40582675  0.04291159  1
  Li  Li3  1  0.41293540  0.60975850  0.97203967  1
  Li  Li4  1  0.32969623  0.92331651  0.45613645  1
  Li  Li5  1  0.61505979  0.77913533  0.45064619  1
  Li  Li6  1  0.66308652  0.07889555  0.54092186  1
  Li  Li7  1  0.58822617  0.39624395  0.02902205  1
  Li  Li8  1  0.64987096  0.09189305  0.03875262  1
  Li  Li9  1  0.91105314  0.89107031  0.97063679  1
  Li  Li10  1  0.84042526  0.57879135  0.46033842  1
  Li  Li11  1  0.88752232  0.27851208  0.55181007  1
  Mn  Mn12  1  0.20324705  0.92372912  0.67335641  1
  Mn  Mn13  1  0.25720706  0.21312384  0.82291927  1
  Mn  Mn14  1  0.23666991  0.71758486  0.17108464  1
  Mn  Mn15  1  0.29967633  0.42541490  0.33195619  1
  Mn  Mn16  1  0.70462132  0.57818714  0.68069213  1
  Mn  Mn17  1  0.75053781  0.28442597  0.82299669  1
  Mn  Mn18  1  0.74475269  0.78188311  0.17165155  1
  Mn  Mn19  1  0.79827706  0.07607435  0.32520630  1
  P  P20  1  0.02382611  0.45139180  0.75721627  1
  P  P21  1  0.11988377  0.71089632  0.88521439  1
  P  P22  1  0.06134571  0.93134257  0.24343365  1
  P  P23  1  0.12339933  0.14901146  0.42821501  1
  P  P24  1  0.37974590  0.64994095  0.57597552  1
  P  P25  1  0.43695504  0.43181363  0.75779724  1
  P  P26  1  0.51934295  0.04581866  0.75202414  1
  P  P27  1  0.38040298  0.20799018  0.11019824  1
  P  P28  1  0.61823447  0.79142925  0.88827692  1
  P  P29  1  0.47389812  0.95015332  0.24208294  1
  P  P30  1  0.56044850  0.56976757  0.24387917  1
  P  P31  1  0.62223463  0.35375745  0.42341270  1
  P  P32  1  0.88058224  0.85305535  0.58000024  1
  P  P33  1  0.93705378  0.06979959  0.75745073  1
  P  P34  1  0.88082789  0.29145996  0.10814017  1
  P  P35  1  0.97834071  0.54555219  0.24750519  1
  O  O36  1  0.02401153  0.41322878  0.62839378  1
  O  O37  1  0.03321029  0.84853084  0.57072485  1
  O  O38  1  0.08310497  0.08591835  0.73127087  1
  O  O39  1  0.10825697  0.35566624  0.85464004  1
  O  O40  1  0.09638270  0.59624628  0.77822685  1
  O  O41  1  0.18691264  0.82592659  0.82808644  1
  O  O42  1  0.22435529  0.64244543  0.99686106  1
  O  O43  1  0.02052523  0.27295336  0.07735793  1
  O  O44  1  0.11746160  0.07773447  0.29866625  1
  O  O45  1  0.05842380  0.93920941  0.11017791  1
  O  O46  1  0.13140808  0.53197828  0.22095992  1
  O  O47  1  0.18315703  0.29013282  0.41562270  1
  O  O48  1  0.17329437  0.82597977  0.30366553  1
  O  O49  1  0.21451413  0.05571266  0.52239117  1
  O  O50  1  0.28857030  0.55896229  0.48080305  1
  O  O51  1  0.32626152  0.32874828  0.69456365  1
  O  O52  1  0.32266824  0.79210219  0.58482022  1
  O  O53  1  0.36456150  0.03401791  0.77075445  1
  O  O54  1  0.38282463  0.57991898  0.70478337  1
  O  O55  1  0.43974406  0.43830290  0.89128360  1
  O  O56  1  0.48313200  0.76581481  0.92254265  1
  O  O57  1  0.27071272  0.15226481  0.00037178  1
  O  O58  1  0.31995806  0.33111696  0.16313731  1
  O  O59  1  0.39843063  0.09490077  0.21743972  1
  O  O60  1  0.41367734  0.58469076  0.27016324  1
  O  O61  1  0.38889885  0.84732949  0.15326820  1
  O  O62  1  0.52440316  0.07928665  0.62525518  1
  O  O63  1  0.47054885  0.34746339  0.43429289  1
  O  O64  1  0.53380112  0.65833381  0.56374040  1
  O  O65  1  0.48220639  0.92042119  0.37440740  1
  O  O66  1  0.59935271  0.14036835  0.85267716  1
  O  O67  1  0.58141122  0.41219556  0.72823345  1
  O  O68  1  0.59111695  0.89999650  0.77768832  1
  O  O69  1  0.68461179  0.67331643  0.83539069  1
  O  O70  1  0.72357433  0.86250487  0.99592645  1
  O  O71  1  0.52113650  0.22720755  0.08160303  1
  O  O72  1  0.56382873  0.56771954  0.11216098  1
  O  O73  1  0.62164344  0.42326246  0.29469995  1
  O  O74  1  0.62263223  0.96332920  0.21422562  1
  O  O75  1  0.68545254  0.21240146  0.41779064  1
  O  O76  1  0.66417743  0.67679981  0.31316124  1
  O  O77  1  0.72237149  0.43839688  0.51994393  1
  O  O78  1  0.78116737  0.93668127  0.48219429  1
  O  O79  1  0.83328484  0.17550685  0.68636675  1
  O  O80  1  0.81782449  0.71088113  0.58355621  1
  O  O81  1  0.87127318  0.46225612  0.77657688  1
  O  O82  1  0.93265881  0.06848119  0.88911819  1
  O  O83  1  0.87765405  0.92248618  0.70731172  1
  O  O84  1  0.98420419  0.73748173  0.91699271  1
  O  O85  1  0.76981241  0.34926692  0.00068175  1
  O  O86  1  0.82064628  0.16630250  0.15881515  1
  O  O87  1  0.90317410  0.40018019  0.21738083  1
  O  O88  1  0.89969769  0.64806042  0.15595790  1
  O  O89  1  0.91734209  0.91032426  0.27312178  1
  O  O90  1  0.97214914  0.16146410  0.44265461  1
  O  O91  1  0.98247242  0.56831401  0.37802693  1
