# generated using pymatgen
data_U2Si7Ni2
_symmetry_space_group_name_H-M   'P 1'
_cell_length_a   4.04554288
_cell_length_b   3.97260770
_cell_length_c   10.84128611
_cell_angle_alpha   90.00000000
_cell_angle_beta   79.24671577
_cell_angle_gamma   90.00000000
_symmetry_Int_Tables_number   1
_chemical_formula_structural   U2Si7Ni2
_chemical_formula_sum   'U2 Si7 Ni2'
_cell_volume   171.17455222
_cell_formula_units_Z   1
loop_
 _symmetry_equiv_pos_site_id
 _symmetry_equiv_pos_as_xyz
  1  'x, y, z'
loop_
 _atom_site_type_symbol
 _atom_site_label
 _atom_site_symmetry_multiplicity
 _atom_site_fract_x
 _atom_site_fract_y
 _atom_site_fract_z
 _atom_site_occupancy
  U  U0  1  0.83424152  0.00000000  0.33151696  1
  U  U1  1  0.17145366  0.00000000  0.65709268  1
  Si  Si2  1  0.94289574  0.50000000  0.11420852  1
  Si  Si3  1  0.06216899  0.50000000  0.87566202  1
  Si  Si4  1  0.56230453  0.00000000  0.87539094  1
  Si  Si5  1  0.44444293  0.00000000  0.11111415  1
  Si  Si6  1  0.27317378  0.50000000  0.45365245  1
  Si  Si7  1  0.71916794  0.50000000  0.56166413  1
  Si  Si8  1  0.37956190  0.50000000  0.24087619  1
  Ni  Ni9  1  0.99716596  0.00000000  0.00566809  1
  Ni  Ni10  1  0.61342306  0.50000000  0.77315388  1
