# generated using pymatgen
data_Li3MnV(PO4)3
_symmetry_space_group_name_H-M   'P 1'
_cell_length_a   8.56927853
_cell_length_b   12.14063522
_cell_length_c   8.72571144
_cell_angle_alpha   90.23411683
_cell_angle_beta   90.69574555
_cell_angle_gamma   91.38573841
_symmetry_Int_Tables_number   1
_chemical_formula_structural   Li3MnV(PO4)3
_chemical_formula_sum   'Li12 Mn4 V4 P12 O48'
_cell_volume   907.45123361
_cell_formula_units_Z   4
loop_
 _symmetry_equiv_pos_site_id
 _symmetry_equiv_pos_as_xyz
  1  'x, y, z'
loop_
 _atom_site_type_symbol
 _atom_site_label
 _atom_site_symmetry_multiplicity
 _atom_site_fract_x
 _atom_site_fract_y
 _atom_site_fract_z
 _atom_site_occupancy
  Li  Li0  1  0.06477638  0.34550337  0.51339353  1
  Li  Li1  1  0.08078807  0.69183997  0.08561862  1
  Li  Li2  1  0.18108999  0.17774464  0.77938862  1
  Li  Li3  1  0.31947230  0.32263834  0.28052705  1
  Li  Li4  1  0.42090294  0.80921711  0.58563919  1
  Li  Li5  1  0.43485407  0.15404473  0.01253629  1
  Li  Li6  1  0.56501484  0.84677659  0.98543460  1
  Li  Li7  1  0.57955052  0.19175192  0.41530547  1
  Li  Li8  1  0.68122612  0.67775672  0.71960319  1
  Li  Li9  1  0.81937652  0.82281071  0.22078633  1
  Li  Li10  1  0.91846905  0.30827888  0.91525022  1
  Li  Li11  1  0.93544431  0.65464848  0.48742301  1
  Mn  Mn12  1  0.25387237  0.60655706  0.52719998  1
  Mn  Mn13  1  0.74591345  0.39446829  0.47253725  1
  Mn  Mn14  1  0.75352259  0.89010064  0.53663636  1
  Mn  Mn15  1  0.75246176  0.10566243  0.97048276  1
  V  V16  1  0.24364229  0.89561746  0.02693894  1
  V  V17  1  0.24508125  0.10839034  0.46480714  1
  V  V18  1  0.25530601  0.39076160  0.96366755  1
  V  V19  1  0.74511652  0.60973765  0.03618728  1
  P  P20  1  0.04346572  0.48999869  0.24888158  1
  P  P21  1  0.11442441  0.84772336  0.38175807  1
  P  P22  1  0.11471891  0.14698044  0.10959442  1
  P  P23  1  0.38503682  0.65141858  0.88151685  1
  P  P24  1  0.38411406  0.35325772  0.61048377  1
  P  P25  1  0.45733515  0.00907100  0.74876916  1
  P  P26  1  0.54303531  0.99080776  0.25012760  1
  P  P27  1  0.61811136  0.64855104  0.38884194  1
  P  P28  1  0.61483537  0.35070610  0.11917150  1
  P  P29  1  0.88359665  0.85176326  0.89015623  1
  P  P30  1  0.88423143  0.14796322  0.61851192  1
  P  P31  1  0.95582600  0.50984797  0.75141268  1
  O  O32  1  0.05137072  0.89672483  0.89104502  1
  O  O33  1  0.04831060  0.44338738  0.86991841  1
  O  O34  1  0.05000080  0.60034871  0.66837100  1
  O  O35  1  0.05631535  0.18630477  0.58097746  1
  O  O36  1  0.10339378  0.58369733  0.36156577  1
  O  O37  1  0.12637932  0.83080135  0.20395734  1
  O  O38  1  0.13886841  0.97005681  0.42007622  1
  O  O39  1  0.12848718  0.24586000  0.99317312  1
  O  O40  1  0.17385363  0.18769793  0.26950527  1
  O  O41  1  0.18690445  0.43519522  0.17592164  1
  O  O42  1  0.23178099  0.77833913  0.47249177  1
  O  O43  1  0.23527641  0.06279699  0.04921068  1
  O  O44  1  0.26159865  0.43548180  0.54805530  1
  O  O45  1  0.27066968  0.72378372  0.96943558  1
  O  O46  1  0.31243093  0.06631222  0.67797514  1
  O  O47  1  0.32645921  0.31231282  0.76985936  1
  O  O48  1  0.35920997  0.53003145  0.92041177  1
  O  O49  1  0.37187414  0.25292268  0.49438869  1
  O  O50  1  0.37718235  0.66704212  0.70217762  1
  O  O51  1  0.39935477  0.91824596  0.86109514  1
  O  O52  1  0.44587486  0.90081322  0.16372007  1
  O  O53  1  0.44209627  0.31180888  0.08065178  1
  O  O54  1  0.45165728  0.60364029  0.38726824  1
  O  O55  1  0.45154748  0.05660478  0.36808117  1
  O  O56  1  0.54551366  0.94558284  0.62763143  1
  O  O57  1  0.55116788  0.39831681  0.61386163  1
  O  O58  1  0.55792993  0.68896649  0.92016792  1
  O  O59  1  0.55360339  0.10149422  0.83335324  1
  O  O60  1  0.60222886  0.08330925  0.13747431  1
  O  O61  1  0.62244027  0.33400272  0.29883483  1
  O  O62  1  0.62901773  0.74977647  0.50638729  1
  O  O63  1  0.63791275  0.47271176  0.08189046  1
  O  O64  1  0.67445771  0.68949192  0.22955239  1
  O  O65  1  0.68749143  0.93510755  0.32245014  1
  O  O66  1  0.72993688  0.28092116  0.03096827  1
  O  O67  1  0.74002220  0.56682394  0.45212082  1
  O  O68  1  0.76229394  0.93281191  0.95145250  1
  O  O69  1  0.76933377  0.21922893  0.52927558  1
  O  O70  1  0.81180028  0.56372079  0.82442571  1
  O  O71  1  0.82815290  0.81055531  0.72862267  1
  O  O72  1  0.87437752  0.75160746  0.00528291  1
  O  O73  1  0.86271015  0.02503814  0.58167305  1
  O  O74  1  0.87642315  0.16593756  0.79786875  1
  O  O75  1  0.89645550  0.41593006  0.63835910  1
  O  O76  1  0.94403660  0.80837234  0.41708974  1
  O  O77  1  0.94883913  0.39946425  0.33261148  1
  O  O78  1  0.95134791  0.55579418  0.12986044  1
  O  O79  1  0.94699768  0.10242645  0.11085768  1
