# generated using pymatgen
data_Li3MnV(PO4)3
_symmetry_space_group_name_H-M   'P 1'
_cell_length_a   9.08851866
_cell_length_b   8.57799006
_cell_length_c   14.51576417
_cell_angle_alpha   89.59524267
_cell_angle_beta   74.21453289
_cell_angle_gamma   61.33712500
_symmetry_Int_Tables_number   1
_chemical_formula_structural   Li3MnV(PO4)3
_chemical_formula_sum   'Li12 Mn4 V4 P12 O48'
_cell_volume   945.27776440
_cell_formula_units_Z   4
loop_
 _symmetry_equiv_pos_site_id
 _symmetry_equiv_pos_as_xyz
  1  'x, y, z'
loop_
 _atom_site_type_symbol
 _atom_site_label
 _atom_site_symmetry_multiplicity
 _atom_site_fract_x
 _atom_site_fract_y
 _atom_site_fract_z
 _atom_site_occupancy
  Li  Li0  1  0.14748020  0.25333152  0.33069038  1
  Li  Li1  1  0.14602459  0.79768055  0.13241774  1
  Li  Li2  1  0.14657057  0.29657515  0.63157403  1
  Li  Li3  1  0.14814169  0.72723353  0.46074919  1
  Li  Li4  1  0.15338625  0.22231618  0.95788268  1
  Li  Li5  1  0.14583543  0.75305218  0.83409809  1
  Li  Li6  1  0.85695254  0.24632746  0.16657126  1
  Li  Li7  1  0.85014212  0.77927067  0.04162591  1
  Li  Li8  1  0.85101847  0.27488938  0.53975579  1
  Li  Li9  1  0.84946128  0.70540838  0.36825789  1
  Li  Li10  1  0.85269791  0.20410865  0.87023447  1
  Li  Li11  1  0.85250884  0.74422883  0.66756832  1
  Mn  Mn12  1  0.04509342  0.47803326  0.82544251  1
  Mn  Mn13  1  0.55975013  0.21707267  0.07197936  1
  Mn  Mn14  1  0.56124006  0.71794360  0.57039527  1
  Mn  Mn15  1  0.95658067  0.52152903  0.17428821  1
  V  V16  1  0.04398823  0.97935266  0.32568126  1
  V  V17  1  0.43380403  0.28233681  0.42911636  1
  V  V18  1  0.43991500  0.78026170  0.92691944  1
  V  V19  1  0.95258012  0.02224423  0.67441893  1
  P  P20  1  0.25042013  0.07711789  0.12332144  1
  P  P21  1  0.24901505  0.02056983  0.47928904  1
  P  P22  1  0.24982987  0.52160576  0.26957423  1
  P  P23  1  0.25473607  0.01326735  0.76602501  1
  P  P24  1  0.24648921  0.58119410  0.62659046  1
  P  P25  1  0.25259344  0.51711871  0.97998437  1
  P  P26  1  0.75648992  0.48164338  0.02025335  1
  P  P27  1  0.74540774  0.41816698  0.37716234  1
  P  P28  1  0.74481157  0.98851574  0.23058220  1
  P  P29  1  0.75182242  0.47763737  0.72916542  1
  P  P30  1  0.75056146  0.98141341  0.52147101  1
  P  P31  1  0.74838054  0.91885105  0.87626884  1
  O  O32  1  0.09590982  0.24678491  0.10123183  1
  O  O33  1  0.18911212  0.06332211  0.23316712  1
  O  O34  1  0.09702358  0.61699787  0.07803272  1
  O  O35  1  0.09621936  0.11415750  0.57868946  1
  O  O36  1  0.09370234  0.48283257  0.27106365  1
  O  O37  1  0.41760384  0.08566403  0.09955225  1
  O  O38  1  0.26262473  0.17732247  0.43195293  1
  O  O39  1  0.19227415  0.71878189  0.25352574  1
  O  O40  1  0.20093784  0.20770553  0.74925016  1
  O  O41  1  0.26471312  0.49796728  0.37333141  1
  O  O42  1  0.42002496  0.39178574  0.19263130  1
  O  O43  1  0.09356898  0.75768849  0.60583286  1
  O  O44  1  0.27067102  0.91528609  0.06125077  1
  O  O45  1  0.26036755  0.42641794  0.56360437  1
  O  O46  1  0.57459830  0.12161665  0.30606432  1
  O  O47  1  0.18837051  0.56112988  0.73646814  1
  O  O48  1  0.19264446  0.92510046  0.41677120  1
  O  O49  1  0.19953416  0.41968027  0.91738181  1
  O  O50  1  0.72766912  0.01371604  0.12611558  1
  O  O51  1  0.58624318  0.61336677  0.00034492  1
  O  O52  1  0.57881886  0.11496893  0.50375942  1
  O  O53  1  0.10164590  0.97210978  0.76685559  1
  O  O54  1  0.74691037  0.32364924  0.06486419  1
  O  O55  1  0.57740578  0.40949316  0.40468453  1
  O  O56  1  0.41413894  0.58849347  0.60441439  1
  O  O57  1  0.27193800  0.67036551  0.93110493  1
  O  O58  1  0.90017100  0.02616154  0.22958189  1
  O  O59  1  0.42161447  0.88536903  0.49539077  1
  O  O60  1  0.42419254  0.38513899  0.99923735  1
  O  O61  1  0.27139287  0.98879452  0.87004386  1
  O  O62  1  0.80626267  0.58315090  0.08353704  1
  O  O63  1  0.80590046  0.08013974  0.58302886  1
  O  O64  1  0.80201067  0.43980422  0.26893336  1
  O  O65  1  0.42800843  0.87906546  0.69092196  1
  O  O66  1  0.72814774  0.57640558  0.44127999  1
  O  O67  1  0.72795576  0.08085683  0.93765428  1
  O  O68  1  0.90205596  0.24395476  0.39669651  1
  O  O69  1  0.58285008  0.60793307  0.80750530  1
  O  O70  1  0.73236106  0.50279694  0.62652947  1
  O  O71  1  0.79861639  0.79433277  0.24765452  1
  O  O72  1  0.80689394  0.28155015  0.74731176  1
  O  O73  1  0.74100557  0.82429991  0.56837352  1
  O  O74  1  0.58016075  0.90796622  0.90112236  1
  O  O75  1  0.90687805  0.51587583  0.72744898  1
  O  O76  1  0.90296105  0.88849936  0.42104457  1
  O  O77  1  0.91226785  0.38727875  0.91980544  1
  O  O78  1  0.80678132  0.93462537  0.76712794  1
  O  O79  1  0.90311345  0.74929552  0.89846784  1
