# generated using pymatgen
data_Ba3Ce2O6
_symmetry_space_group_name_H-M   'P 1'
_cell_length_a   4.52768842
_cell_length_b   11.45565718
_cell_length_c   4.52768842
_cell_angle_alpha   78.60229863
_cell_angle_beta   90.00000000
_cell_angle_gamma   101.39770137
_symmetry_Int_Tables_number   1
_chemical_formula_structural   Ba3Ce2O6
_chemical_formula_sum   'Ba3 Ce2 O6'
_cell_volume   225.48290672
_cell_formula_units_Z   1
loop_
 _symmetry_equiv_pos_site_id
 _symmetry_equiv_pos_as_xyz
  1  'x, y, z'
loop_
 _atom_site_type_symbol
 _atom_site_label
 _atom_site_symmetry_multiplicity
 _atom_site_fract_x
 _atom_site_fract_y
 _atom_site_fract_z
 _atom_site_occupancy
  Ba  Ba0  1  0.68422485  0.36844871  0.31577515  1
  Ba  Ba1  1  0.50000000  0.00000000  0.50000000  1
  Ba  Ba2  1  0.31577515  0.63155129  0.68422485  1
  Ce  Ce3  1  0.90047260  0.80094520  0.09952740  1
  Ce  Ce4  1  0.09952740  0.19905480  0.90047260  1
  O  O5  1  0.08683204  0.17366408  0.41316796  1
  O  O6  1  0.41316796  0.82633592  0.08683204  1
  O  O7  1  0.79946154  0.59892407  0.20053846  1
  O  O8  1  0.20053846  0.40107593  0.79946154  1
  O  O9  1  0.58683204  0.17366408  0.91316796  1
  O  O10  1  0.91316796  0.82633592  0.58683204  1
