# generated using pymatgen
data_DyCu(WO4)2
_symmetry_space_group_name_H-M   'P 1'
_cell_length_a   5.16856163
_cell_length_b   6.11311152
_cell_length_c   6.07594309
_cell_angle_alpha   108.75682704
_cell_angle_beta   114.26374378
_cell_angle_gamma   91.88409202
_symmetry_Int_Tables_number   1
_chemical_formula_structural   DyCu(WO4)2
_chemical_formula_sum   'Dy1 Cu1 W2 O8'
_cell_volume   162.66618146
_cell_formula_units_Z   1
loop_
 _symmetry_equiv_pos_site_id
 _symmetry_equiv_pos_as_xyz
  1  'x, y, z'
loop_
 _atom_site_type_symbol
 _atom_site_label
 _atom_site_symmetry_multiplicity
 _atom_site_fract_x
 _atom_site_fract_y
 _atom_site_fract_z
 _atom_site_occupancy
  Dy  Dy0  1  0.63910478  0.70826808  0.09103059  1
  Cu  Cu1  1  0.12313540  0.19635211  0.08439804  1
  W  W2  1  0.38143224  0.03697792  0.60132163  1
  W  W3  1  0.88143902  0.36913027  0.57682972  1
  O  O4  1  0.65932131  0.49165730  0.34308923  1
  O  O5  1  0.62203349  0.92653399  0.84118763  1
  O  O6  1  0.15550593  0.62425716  0.82976354  1
  O  O7  1  0.12245206  0.77138998  0.35474717  1
  O  O8  1  0.16757068  0.17345973  0.79125891  1
  O  O9  1  0.65730646  0.37898799  0.77733583  1
  O  O10  1  0.59851630  0.03304369  0.39433989  1
  O  O11  1  0.08888235  0.22104177  0.38289783  1
