# generated using pymatgen
data_Sr(H8O5)2
_symmetry_space_group_name_H-M   'P 1'
_cell_length_a   6.20223475
_cell_length_b   6.33471593
_cell_length_c   11.59202216
_cell_angle_alpha   91.10015629
_cell_angle_beta   94.47053530
_cell_angle_gamma   89.73615181
_symmetry_Int_Tables_number   1
_chemical_formula_structural   Sr(H8O5)2
_chemical_formula_sum   'Sr2 H32 O20'
_cell_volume   453.97196758
_cell_formula_units_Z   2
loop_
 _symmetry_equiv_pos_site_id
 _symmetry_equiv_pos_as_xyz
  1  'x, y, z'
loop_
 _atom_site_type_symbol
 _atom_site_label
 _atom_site_symmetry_multiplicity
 _atom_site_fract_x
 _atom_site_fract_y
 _atom_site_fract_z
 _atom_site_occupancy
  Sr  Sr0  1  0.96285241  0.02765874  0.50291636  1
  Sr  Sr1  1  0.01506177  0.96563854  0.00252623  1
  H  H2  1  0.02529962  0.32350224  0.28898537  1
  H  H3  1  0.21031583  0.40782491  0.38985768  1
  H  H4  1  0.90671347  0.58142123  0.37730723  1
  H  H5  1  0.66581028  0.63932952  0.39830758  1
  H  H6  1  0.66313486  0.18081658  0.28928697  1
  H  H7  1  0.55542077  0.30227315  0.39245290  1
  H  H8  1  0.39077733  0.98149132  0.35773680  1
  H  H9  1  0.34177959  0.74521974  0.39449504  1
  H  H10  1  0.98109654  0.34373749  0.82696560  1
  H  H11  1  0.75147582  0.33201978  0.87943216  1
  H  H12  1  0.18698158  0.68223199  0.80184610  1
  H  H13  1  0.30600051  0.56934306  0.90717320  1
  H  H14  1  0.41013332  0.22400324  0.88879879  1
  H  H15  1  0.29754825  0.09117229  0.78149303  1
  H  H16  1  0.56657569  0.90840651  0.86215744  1
  H  H17  1  0.63940503  0.67104589  0.89096711  1
  H  H18  1  0.79115671  0.75568225  0.72296544  1
  H  H19  1  0.69457926  0.64314306  0.60778026  1
  H  H20  1  0.24431186  0.41899297  0.60590539  1
  H  H21  1  0.00866311  0.47721288  0.63970557  1
  H  H22  1  0.35851539  0.75348988  0.60239499  1
  H  H23  1  0.43218540  0.99086608  0.62575047  1
  H  H24  1  0.71984409  0.19260938  0.70465518  1
  H  H25  1  0.57938476  0.30929500  0.60051896  1
  H  H26  1  0.19343374  0.77095380  0.22977705  1
  H  H27  1  0.06490279  0.58109474  0.16075738  1
  H  H28  1  0.76234318  0.39358925  0.07924130  1
  H  H29  1  0.10033927  0.29391178  0.13262557  1
  H  H30  1  0.73776038  0.81023812  0.22591032  1
  H  H31  1  0.63271844  0.70947862  0.11097686  1
  H  H32  1  0.44692036  0.26234941  0.09556141  1
  H  H33  1  0.46858785  0.02330336  0.13255705  1
  O  O34  1  0.44947492  0.51723994  0.43230057  1
  O  O35  1  0.55566022  0.44730346  0.93114708  1
  O  O36  1  0.46631446  0.52288697  0.56166114  1
  O  O37  1  0.60350950  0.45667886  0.05829188  1
  O  O38  1  0.05900252  0.34913657  0.37488502  1
  O  O39  1  0.80596075  0.70542074  0.37638487  1
  O  O40  1  0.61911347  0.15948932  0.36722868  1
  O  O41  1  0.27055014  0.87965124  0.36359497  1
  O  O42  1  0.86799112  0.24330661  0.84337715  1
  O  O43  1  0.16411140  0.63543854  0.87978680  1
  O  O44  1  0.33959804  0.08542339  0.86457769  1
  O  O45  1  0.69499049  0.81309418  0.86659005  1
  O  O46  1  0.83142449  0.71233439  0.64454768  1
  O  O47  1  0.11055709  0.35628527  0.63639896  1
  O  O48  1  0.30406689  0.89623785  0.62847352  1
  O  O49  1  0.64786798  0.16767645  0.62587313  1
  O  O50  1  0.15466157  0.70720883  0.15122531  1
  O  O51  1  0.94641795  0.30143954  0.14551259  1
  O  O52  1  0.68541606  0.84802765  0.14568314  1
  O  O53  1  0.35959865  0.13688641  0.11491900  1
