# generated using pymatgen
data_NdCu(WO4)2
_symmetry_space_group_name_H-M   'P 1'
_cell_length_a   5.14918947
_cell_length_b   6.09952387
_cell_length_c   6.32336854
_cell_angle_alpha   108.42747909
_cell_angle_beta   92.54810234
_cell_angle_gamma   112.15625126
_symmetry_Int_Tables_number   1
_chemical_formula_structural   NdCu(WO4)2
_chemical_formula_sum   'Nd1 Cu1 W2 O8'
_cell_volume   171.45124908
_cell_formula_units_Z   1
loop_
 _symmetry_equiv_pos_site_id
 _symmetry_equiv_pos_as_xyz
  1  'x, y, z'
loop_
 _atom_site_type_symbol
 _atom_site_label
 _atom_site_symmetry_multiplicity
 _atom_site_fract_x
 _atom_site_fract_y
 _atom_site_fract_z
 _atom_site_occupancy
  Nd  Nd0  1  0.36717621  0.90034092  0.27268814  1
  Cu  Cu1  1  0.86184266  0.89339727  0.76641969  1
  W  W2  1  0.62324820  0.38527081  0.93573490  1
  W  W3  1  0.12270213  0.41359292  0.61520984  1
  O  O4  1  0.35560187  0.21736434  0.61023608  1
  O  O5  1  0.87091561  0.62801039  0.19164697  1
  O  O6  1  0.87078129  0.16349869  0.36459140  1
  O  O7  1  0.39637643  0.58690410  0.93931350  1
  O  O8  1  0.34120310  0.64272593  0.49947741  1
  O  O9  1  0.84629686  0.20094541  0.80272801  1
  O  O10  1  0.39726269  0.15216815  0.04401571  1
  O  O11  1  0.90269294  0.60038108  0.75183835  1
