# generated using pymatgen
data_FeSn(PO4)2
_symmetry_space_group_name_H-M   'P 1'
_cell_length_a   10.14363407
_cell_length_b   6.08351491
_cell_length_c   4.98758818
_cell_angle_alpha   90.00000000
_cell_angle_beta   90.13102756
_cell_angle_gamma   90.00000000
_symmetry_Int_Tables_number   1
_chemical_formula_structural   FeSn(PO4)2
_chemical_formula_sum   'Fe2 Sn2 P4 O16'
_cell_volume   307.77802058
_cell_formula_units_Z   2
loop_
 _symmetry_equiv_pos_site_id
 _symmetry_equiv_pos_as_xyz
  1  'x, y, z'
loop_
 _atom_site_type_symbol
 _atom_site_label
 _atom_site_symmetry_multiplicity
 _atom_site_fract_x
 _atom_site_fract_y
 _atom_site_fract_z
 _atom_site_occupancy
  Fe  Fe0  1  0.27614977  0.25000000  0.94664842  1
  Fe  Fe1  1  0.72385023  0.75000000  0.05335158  1
  Sn  Sn2  1  0.22145969  0.75000000  0.46800365  1
  Sn  Sn3  1  0.77854031  0.25000000  0.53199635  1
  P  P4  1  0.09519406  0.25000000  0.41950949  1
  P  P5  1  0.40310900  0.75000000  0.90740156  1
  P  P6  1  0.59689100  0.25000000  0.09259844  1
  P  P7  1  0.90480594  0.75000000  0.58049051  1
  O  O8  1  0.05063761  0.75000000  0.67940027  1
  O  O9  1  0.10489163  0.25000000  0.72083258  1
  O  O10  1  0.16803735  0.04893252  0.28136869  1
  O  O11  1  0.16803735  0.45106748  0.28136869  1
  O  O12  1  0.32616512  0.94528407  0.76276558  1
  O  O13  1  0.32616512  0.55471593  0.76276558  1
  O  O14  1  0.37791660  0.75000000  0.21375150  1
  O  O15  1  0.45174907  0.25000000  0.14939869  1
  O  O16  1  0.54825093  0.75000000  0.85060131  1
  O  O17  1  0.62208340  0.25000000  0.78624850  1
  O  O18  1  0.67383488  0.05471593  0.23723442  1
  O  O19  1  0.67383488  0.44528407  0.23723442  1
  O  O20  1  0.83196265  0.54893252  0.71863131  1
  O  O21  1  0.83196265  0.95106748  0.71863131  1
  O  O22  1  0.89510837  0.75000000  0.27916742  1
  O  O23  1  0.94936239  0.25000000  0.32059973  1
