# generated using pymatgen
data_Li2CrO2
_symmetry_space_group_name_H-M   'P 1'
_cell_length_a   2.99461256
_cell_length_b   5.43271566
_cell_length_c   3.70410162
_cell_angle_alpha   70.06785683
_cell_angle_beta   90.00000000
_cell_angle_gamma   105.99831389
_symmetry_Int_Tables_number   1
_chemical_formula_structural   Li2CrO2
_chemical_formula_sum   'Li2 Cr1 O2'
_cell_volume   54.16245782
_cell_formula_units_Z   1
loop_
 _symmetry_equiv_pos_site_id
 _symmetry_equiv_pos_as_xyz
  1  'x, y, z'
loop_
 _atom_site_type_symbol
 _atom_site_label
 _atom_site_symmetry_multiplicity
 _atom_site_fract_x
 _atom_site_fract_y
 _atom_site_fract_z
 _atom_site_occupancy
  Li  Li0  1  0.71717959  0.43435918  0.28282041  1
  Li  Li1  1  0.28282041  0.56564082  0.71717959  1
  Cr  Cr2  1  -0.00000000  0.00000000  -0.00000000  1
  O  O3  1  0.35560319  0.71120538  0.14439681  1
  O  O4  1  0.64439681  0.28879462  0.85560319  1
