# generated using pymatgen
data_Ba3Y2O6
_symmetry_space_group_name_H-M   'P 1'
_cell_length_a   4.41487406
_cell_length_b   11.34688621
_cell_length_c   4.41487406
_cell_angle_alpha   78.78207838
_cell_angle_beta   90.00000000
_cell_angle_gamma   101.21792162
_symmetry_Int_Tables_number   1
_chemical_formula_structural   Ba3Y2O6
_chemical_formula_sum   'Ba3 Y2 O6'
_cell_volume   212.62854511
_cell_formula_units_Z   1
loop_
 _symmetry_equiv_pos_site_id
 _symmetry_equiv_pos_as_xyz
  1  'x, y, z'
loop_
 _atom_site_type_symbol
 _atom_site_label
 _atom_site_symmetry_multiplicity
 _atom_site_fract_x
 _atom_site_fract_y
 _atom_site_fract_z
 _atom_site_occupancy
  Ba  Ba0  1  0.68314844  0.36629788  0.31685156  1
  Ba  Ba1  1  0.50000000  -0.00000000  0.50000000  1
  Ba  Ba2  1  0.31685156  0.63370212  0.68314844  1
  Y  Y3  1  0.89833031  0.79666161  0.10166969  1
  Y  Y4  1  0.10166969  0.20333839  0.89833031  1
  O  O5  1  0.08281254  0.16562609  0.41718746  1
  O  O6  1  0.41718746  0.83437391  0.08281254  1
  O  O7  1  0.80059063  0.60118126  0.19940937  1
  O  O8  1  0.19940937  0.39881874  0.80059063  1
  O  O9  1  0.91718746  0.83437391  0.58281254  1
  O  O10  1  0.58281254  0.16562609  0.91718746  1
