# generated using pymatgen
data_La9Mn10O30
_symmetry_space_group_name_H-M   'P 1'
_cell_length_a   5.50992625
_cell_length_b   5.50979566
_cell_length_c   22.98813076
_cell_angle_alpha   96.81001137
_cell_angle_beta   89.74866825
_cell_angle_gamma   60.86100030
_symmetry_Int_Tables_number   1
_chemical_formula_structural   La9Mn10O30
_chemical_formula_sum   'La9 Mn10 O30'
_cell_volume   603.70741283
_cell_formula_units_Z   1
loop_
 _symmetry_equiv_pos_site_id
 _symmetry_equiv_pos_as_xyz
  1  'x, y, z'
loop_
 _atom_site_type_symbol
 _atom_site_label
 _atom_site_symmetry_multiplicity
 _atom_site_fract_x
 _atom_site_fract_y
 _atom_site_fract_z
 _atom_site_occupancy
  La  La0  1  0.74646117  0.50228739  0.75440514  1
  La  La1  1  0.85069571  0.29987528  0.44802272  1
  La  La2  1  0.95776127  0.09495318  0.13908098  1
  La  La3  1  0.55205299  0.89903842  0.34556339  1
  La  La4  1  0.34399100  0.30335742  0.96097204  1
  La  La5  1  0.44816805  0.10133412  0.65194031  1
  La  La6  1  0.04139195  0.90974892  0.85668544  1
  La  La7  1  0.15027685  0.69974108  0.54999701  1
  La  La8  1  0.24683723  0.50196181  0.24331712  1
  Mn  Mn9  1  0.70148444  0.59983217  0.90399329  1
  Mn  Mn10  1  0.79969450  0.40048823  0.60026965  1
  Mn  Mn11  1  0.89698319  0.20177908  0.29824372  1
  Mn  Mn12  1  0.60408748  0.79455452  0.19599027  1
  Mn  Mn13  1  0.39652048  0.20465016  0.80175624  1
  Mn  Mn14  1  0.49981213  0.99999721  0.49968538  1
  Mn  Mn15  1  0.10057786  0.79960315  0.70086767  1
  Mn  Mn16  1  0.20122694  0.59856808  0.39911070  1
  Mn  Mn17  1  0.29896186  0.40182943  0.09781528  1
  Mn  Mn18  1  0.99597328  0.00325166  0.00224932  1
  O  O19  1  0.88876314  0.78737007  0.46336806  1
  O  O20  1  0.79873697  0.94039590  0.25275462  1
  O  O21  1  0.80289624  0.86302354  0.94367856  1
  O  O22  1  0.98291763  0.46044794  0.35135426  1
  O  O23  1  0.94103821  0.60019543  0.14627742  1
  O  O24  1  0.84623029  0.31295108  0.95381784  1
  O  O25  1  0.97594318  0.04823112  0.63654028  1
  O  O26  1  0.57204284  0.85392665  0.83743170  1
  O  O27  1  0.62396482  0.75229881  0.56353086  1
  O  O28  1  0.76944056  0.45509450  0.23768271  1
  O  O29  1  0.61245079  0.34833404  0.84732955  1
  O  O30  1  0.48813342  0.58785622  0.66350220  1
  O  O31  1  0.41316261  0.73434718  0.45093905  1
  O  O32  1  0.28286514  0.99088569  0.26254109  1
  O  O33  1  0.68144306  0.18749024  0.05915797  1
  O  O34  1  0.31662529  0.80870484  0.93825701  1
  O  O35  1  0.71347331  0.01214316  0.73711774  1
  O  O36  1  0.58441230  0.26553771  0.54999976  1
  O  O37  1  0.51509867  0.41198256  0.33737150  1
  O  O38  1  0.38060326  0.65340682  0.15629947  1
  O  O39  1  0.22586261  0.54701545  0.76260965  1
  O  O40  1  0.37552568  0.24835358  0.43648896  1
  O  O41  1  0.02471939  0.94955801  0.36282484  1
  O  O42  1  0.42964190  0.14516821  0.16180328  1
  O  O43  1  0.17144074  0.65967365  0.04084283  1
  O  O44  1  0.08267854  0.39251496  0.86235756  1
  O  O45  1  0.01666113  0.53602076  0.64901029  1
  O  O46  1  0.19822157  0.15172849  0.05009242  1
  O  O47  1  0.19074462  0.06565477  0.74859546  1
  O  O48  1  0.11110271  0.21263830  0.53645639  1
