# generated using pymatgen
data_GdMn4(CuO4)3
_symmetry_space_group_name_H-M   'P 1'
_cell_length_a   6.43363098
_cell_length_b   6.43689509
_cell_length_c   6.43206239
_cell_angle_alpha   109.06361445
_cell_angle_beta   111.11700539
_cell_angle_gamma   108.27134411
_symmetry_Int_Tables_number   1
_chemical_formula_structural   GdMn4(CuO4)3
_chemical_formula_sum   'Gd1 Mn4 Cu3 O12'
_cell_volume   204.85209701
_cell_formula_units_Z   1
loop_
 _symmetry_equiv_pos_site_id
 _symmetry_equiv_pos_as_xyz
  1  'x, y, z'
loop_
 _atom_site_type_symbol
 _atom_site_label
 _atom_site_symmetry_multiplicity
 _atom_site_fract_x
 _atom_site_fract_y
 _atom_site_fract_z
 _atom_site_occupancy
  Gd  Gd0  1  0.00000372  0.00000295  0.00000992  1
  Mn  Mn1  1  0.00001191  -0.00000604  0.49998408  1
  Mn  Mn2  1  0.49998661  -0.00003006  0.00004881  1
  Mn  Mn3  1  0.50000026  0.50000098  0.50000898  1
  Mn  Mn4  1  0.99999481  0.50000064  -0.00003592  1
  Cu  Cu5  1  0.49986797  -0.00004990  0.49990002  1
  Cu  Cu6  1  0.50000443  0.50001761  0.00000644  1
  Cu  Cu7  1  0.00006394  0.50008540  0.50012358  1
  O  O8  1  0.52840029  0.83309596  0.69564670  1
  O  O9  1  0.17374810  0.30911898  0.48249299  1
  O  O10  1  0.82625538  0.69087738  0.51750026  1
  O  O11  1  0.70318719  0.87402187  0.17099634  1
  O  O12  1  0.29622503  0.46700408  0.17078048  1
  O  O13  1  0.13734548  0.83257428  0.30482053  1
  O  O14  1  0.70378299  0.53299061  0.82921363  1
  O  O15  1  0.29683952  0.12597648  0.82901079  1
  O  O16  1  0.17450032  0.69225938  0.86454399  1
  O  O17  1  0.82551252  0.30773836  0.13543404  1
  O  O18  1  0.86266170  0.16740275  0.69515099  1
  O  O19  1  0.47160783  0.16691730  0.30436337  1
