# generated using pymatgen
data_AgSO4
_symmetry_space_group_name_H-M   'P 1'
_cell_length_a   15.20665196
_cell_length_b   7.87921005
_cell_length_c   10.67746713
_cell_angle_alpha   90.00000000
_cell_angle_beta   88.62847719
_cell_angle_gamma   90.00000000
_symmetry_Int_Tables_number   1
_chemical_formula_structural   AgSO4
_chemical_formula_sum   'Ag16 S16 O64'
_cell_volume   1278.96920780
_cell_formula_units_Z   16
loop_
 _symmetry_equiv_pos_site_id
 _symmetry_equiv_pos_as_xyz
  1  'x, y, z'
loop_
 _atom_site_type_symbol
 _atom_site_label
 _atom_site_symmetry_multiplicity
 _atom_site_fract_x
 _atom_site_fract_y
 _atom_site_fract_z
 _atom_site_occupancy
  Ag  Ag0  1  0.11039765  0.49019352  0.65444491  1
  Ag  Ag1  1  0.88960235  0.99019352  0.84555509  1
  Ag  Ag2  1  0.88960235  0.50980648  0.34555509  1
  Ag  Ag3  1  0.11039765  0.00980648  0.15444491  1
  Ag  Ag4  1  0.10610619  0.01066811  0.65294282  1
  Ag  Ag5  1  0.89389381  0.51066811  0.84705718  1
  Ag  Ag6  1  0.89389381  0.98933189  0.34705718  1
  Ag  Ag7  1  0.10610619  0.48933189  0.15294282  1
  Ag  Ag8  1  0.39117213  0.51089815  0.40514817  1
  Ag  Ag9  1  0.60882787  0.01089815  0.09485183  1
  Ag  Ag10  1  0.60882787  0.48910185  0.59485183  1
  Ag  Ag11  1  0.39117213  0.98910185  0.90514817  1
  Ag  Ag12  1  0.38645798  0.99668609  0.40221164  1
  Ag  Ag13  1  0.61354202  0.49668609  0.09778836  1
  Ag  Ag14  1  0.61354202  0.00331391  0.59778836  1
  Ag  Ag15  1  0.38645798  0.50331391  0.90221164  1
  S  S16  1  0.29541432  0.76729450  0.64087063  1
  S  S17  1  0.70458568  0.26729450  0.85912937  1
  S  S18  1  0.70458568  0.23270550  0.35912937  1
  S  S19  1  0.29541432  0.73270550  0.14087063  1
  S  S20  1  0.20237394  0.26156464  0.40048450  1
  S  S21  1  0.79762606  0.76156464  0.09951550  1
  S  S22  1  0.79762606  0.73843536  0.59951550  1
  S  S23  1  0.20237394  0.23843536  0.90048450  1
  S  S24  1  0.07263905  0.75741423  0.40737359  1
  S  S25  1  0.92736095  0.25741423  0.09262641  1
  S  S26  1  0.92736095  0.24258577  0.59262641  1
  S  S27  1  0.07263905  0.74258577  0.90737359  1
  S  S28  1  0.42814291  0.25696848  0.66374439  1
  S  S29  1  0.57185709  0.75696848  0.83625561  1
  S  S30  1  0.57185709  0.74303152  0.33625561  1
  S  S31  1  0.42814291  0.24303152  0.16374439  1
  O  O32  1  0.34849231  0.77200259  0.51706166  1
  O  O33  1  0.65150769  0.27200259  0.98293834  1
  O  O34  1  0.65150769  0.22799741  0.48293834  1
  O  O35  1  0.34849231  0.72799741  0.01706166  1
  O  O36  1  0.35639635  0.76532419  0.74656743  1
  O  O37  1  0.64360365  0.26532419  0.75343257  1
  O  O38  1  0.64360365  0.23467581  0.25343257  1
  O  O39  1  0.35639635  0.73467581  0.24656743  1
  O  O40  1  0.24444683  0.60773219  0.63567356  1
  O  O41  1  0.75555317  0.10773219  0.86432644  1
  O  O42  1  0.75555317  0.39226781  0.36432644  1
  O  O43  1  0.24444683  0.89226781  0.13567356  1
  O  O44  1  0.24185813  0.92452394  0.64863384  1
  O  O45  1  0.75814187  0.42452294  0.85136616  1
  O  O46  1  0.75814187  0.07547606  0.35136616  1
  O  O47  1  0.24185813  0.57547606  0.14863384  1
  O  O48  1  0.14346552  0.26051827  0.28915565  1
  O  O49  1  0.85653448  0.76051827  0.21084435  1
  O  O50  1  0.85653448  0.73948173  0.71084435  1
  O  O51  1  0.14346552  0.23948173  0.78915565  1
  O  O52  1  0.25093943  0.09785798  0.40043001  1
  O  O53  1  0.74906057  0.59785798  0.09956999  1
  O  O54  1  0.74906057  0.90214202  0.59956999  1
  O  O55  1  0.25093943  0.40214202  0.90043001  1
  O  O56  1  0.14768196  0.26795359  0.51911055  1
  O  O57  1  0.85231804  0.76795359  0.98088945  1
  O  O58  1  0.85231804  0.73204641  0.48088945  1
  O  O59  1  0.14768196  0.23204641  0.01911055  1
  O  O60  1  0.25773641  0.41512148  0.38959925  1
  O  O61  1  0.74226359  0.91512148  0.11040075  1
  O  O62  1  0.74226359  0.58487852  0.61040075  1
  O  O63  1  0.25773641  0.08487852  0.88959925  1
  O  O64  1  0.16584580  0.75529230  0.37735296  1
  O  O65  1  0.83415420  0.25529230  0.12264704  1
  O  O66  1  0.83415420  0.24470770  0.62264704  1
  O  O67  1  0.16584580  0.74470770  0.87735296  1
  O  O68  1  0.05222455  0.77586918  0.54491715  1
  O  O69  1  0.94777545  0.27586918  0.95508285  1
  O  O70  1  0.94777545  0.22413082  0.45508285  1
  O  O71  1  0.05222455  0.72413082  0.04491715  1
  O  O72  1  0.03306957  0.90860121  0.33853912  1
  O  O73  1  0.96693043  0.40860121  0.16146088  1
  O  O74  1  0.96693043  0.09139879  0.66146088  1
  O  O75  1  0.03306957  0.59139879  0.83853912  1
  O  O76  1  0.03075138  0.59700625  0.36219892  1
  O  O77  1  0.96924862  0.09700725  0.13780108  1
  O  O78  1  0.96924862  0.40299375  0.63780108  1
  O  O79  1  0.03075138  0.90299375  0.86219892  1
  O  O80  1  0.33699733  0.25371386  0.62796361  1
  O  O81  1  0.66300267  0.75371386  0.87203639  1
  O  O82  1  0.66300267  0.74628614  0.37203639  1
  O  O83  1  0.33699733  0.24628614  0.12796361  1
  O  O84  1  0.47361192  0.09814718  0.62130634  1
  O  O85  1  0.52638808  0.59814718  0.87869366  1
  O  O86  1  0.52638808  0.90185282  0.37869366  1
  O  O87  1  0.47361192  0.40185282  0.12130634  1
  O  O88  1  0.47063578  0.41193300  0.60447465  1
  O  O89  1  0.52936422  0.91193300  0.89552535  1
  O  O90  1  0.52936422  0.58806700  0.39552535  1
  O  O91  1  0.47063578  0.08806700  0.10447465  1
  O  O92  1  0.43739718  0.26844169  0.80532285  1
  O  O93  1  0.56260282  0.76844169  0.69467715  1
  O  O94  1  0.56260282  0.73155831  0.19467715  1
  O  O95  1  0.43739718  0.23155831  0.30532285  1
