# generated using pymatgen
data_Ce(Mg4Al3)4
_symmetry_space_group_name_H-M   'P 1'
_cell_length_a   8.86980735
_cell_length_b   9.26692351
_cell_length_c   9.26692408
_cell_angle_alpha   110.32297149
_cell_angle_beta   108.60542701
_cell_angle_gamma   108.60541594
_symmetry_Int_Tables_number   1
_chemical_formula_structural   Ce(Mg4Al3)4
_chemical_formula_sum   'Ce1 Mg16 Al12'
_cell_volume   592.50604480
_cell_formula_units_Z   1
loop_
 _symmetry_equiv_pos_site_id
 _symmetry_equiv_pos_as_xyz
  1  'x, y, z'
loop_
 _atom_site_type_symbol
 _atom_site_label
 _atom_site_symmetry_multiplicity
 _atom_site_fract_x
 _atom_site_fract_y
 _atom_site_fract_z
 _atom_site_occupancy
  Ce  Ce0  1  0.37090150  1.00000000  0.99999900  1
  Mg  Mg1  1  0.99526212  0.00000100  1.00000000  1
  Mg  Mg2  1  0.31496034  0.59855080  0.00000000  1
  Mg  Mg3  1  0.61238721  0.33209484  0.00000000  1
  Mg  Mg4  1  0.99615561  0.34259502  0.00000100  1
  Mg  Mg5  1  0.68820549  0.68635250  0.29373011  1
  Mg  Mg6  1  0.00185299  0.60737861  0.31364850  1
  Mg  Mg7  1  0.61238821  0.00000000  0.33209484  1
  Mg  Mg8  1  0.99615661  1.00000000  0.34259402  1
  Mg  Mg9  1  0.39447738  0.70627089  0.39262339  1
  Mg  Mg10  1  0.71641154  0.40145020  0.40145020  1
  Mg  Mg11  1  0.31496034  1.00000000  0.59855080  1
  Mg  Mg12  1  0.00185299  0.31364850  0.60737861  1
  Mg  Mg13  1  0.65356159  0.65740498  0.65740498  1
  Mg  Mg14  1  0.28029337  0.66790516  0.66790516  1
  Mg  Mg15  1  0.68820549  0.29373011  0.68635150  1
  Mg  Mg16  1  0.39447638  0.39262339  0.70627089  1
  Al  Al17  1  0.63086967  0.81848447  0.00000000  1
  Al  Al18  1  0.81082213  0.63560524  1.00000000  1
  Al  Al19  1  0.36366513  0.36373348  0.17900584  1
  Al  Al20  1  0.81238519  0.18151553  0.18151453  1
  Al  Al21  1  0.18465830  0.82099316  0.18472564  1
  Al  Al22  1  0.17521689  0.36439576  0.36439576  1
  Al  Al23  1  0.36366513  0.17900584  0.36373248  1
  Al  Al24  1  0.99993165  0.81527336  0.63626652  1
  Al  Al25  1  0.81082213  0.00000100  0.63560524  1
  Al  Al26  1  0.99993265  0.63626752  0.81527236  1
  Al  Al27  1  0.63087067  0.99999900  0.81848547  1
  Al  Al28  1  0.18465830  0.18472564  0.82099216  1
