# generated using pymatgen
data_TbTiFe11N
_symmetry_space_group_name_H-M   'P 1'
_cell_length_a   4.82043773
_cell_length_b   6.53410967
_cell_length_c   6.53410967
_cell_angle_alpha   97.36559752
_cell_angle_beta   111.64576869
_cell_angle_gamma   68.35423131
_symmetry_Int_Tables_number   1
_chemical_formula_structural   TbTiFe11N
_chemical_formula_sum   'Tb1 Ti1 Fe11 N1'
_cell_volume   177.79658458
_cell_formula_units_Z   1
loop_
 _symmetry_equiv_pos_site_id
 _symmetry_equiv_pos_as_xyz
  1  'x, y, z'
loop_
 _atom_site_type_symbol
 _atom_site_label
 _atom_site_symmetry_multiplicity
 _atom_site_fract_x
 _atom_site_fract_y
 _atom_site_fract_z
 _atom_site_occupancy
  Tb  Tb0  1  0.00636000  0.99364000  0.00636000  1
  Ti  Ti1  1  0.63490105  0.36509895  0.63490105  1
  Fe  Fe2  1  0.72591103  0.77408897  0.22591103  1
  Fe  Fe3  1  0.27729958  0.22270042  0.77729958  1
  Fe  Fe4  1  0.49708718  0.78004815  0.77422251  1
  Fe  Fe5  1  0.49708718  0.22577749  0.21995185  1
  Fe  Fe6  1  0.50006615  0.99693617  0.49856439  1
  Fe  Fe7  1  0.00156207  0.99693617  0.49856439  1
  Fe  Fe8  1  0.50006615  0.50143561  0.00306383  1
  Fe  Fe9  1  0.00156207  0.50143561  0.00306383  1
  Fe  Fe10  1  0.35760643  0.64239357  0.35760643  1
  Fe  Fe11  1  0.99964194  0.35954574  0.35882962  1
  Fe  Fe12  1  0.99964194  0.64117038  0.64045426  1
  N  N13  1  0.50120724  0.99879276  0.00120724  1
