# generated using pymatgen
data_Li3Rh
_symmetry_space_group_name_H-M   'P 1'
_cell_length_a   5.35966885
_cell_length_b   5.35983626
_cell_length_c   4.48102514
_cell_angle_alpha   89.91948194
_cell_angle_beta   90.08042430
_cell_angle_gamma   119.99869259
_symmetry_Int_Tables_number   1
_chemical_formula_structural   Li3Rh
_chemical_formula_sum   'Li6 Rh2'
_cell_volume   111.48145844
_cell_formula_units_Z   2
loop_
 _symmetry_equiv_pos_site_id
 _symmetry_equiv_pos_as_xyz
  1  'x, y, z'
loop_
 _atom_site_type_symbol
 _atom_site_label
 _atom_site_symmetry_multiplicity
 _atom_site_fract_x
 _atom_site_fract_y
 _atom_site_fract_z
 _atom_site_occupancy
  Li  Li0  1  0.17441262  0.34883306  0.25000343  1
  Li  Li1  1  0.65116723  0.82558873  0.25000418  1
  Li  Li2  1  0.17441160  0.82558997  0.24999943  1
  Li  Li3  1  0.82562458  0.65124475  0.74999970  1
  Li  Li4  1  0.34875121  0.17437245  0.74999911  1
  Li  Li5  1  0.82562570  0.17437176  0.75000531  1
  Rh  Rh6  1  0.33335406  0.66664710  0.74998087  1
  Rh  Rh7  1  0.66665500  0.33335118  0.25001197  1
