# generated using pymatgen
data_Nd3Y
_symmetry_space_group_name_H-M   'P 1'
_cell_length_a   7.37960005
_cell_length_b   7.37960006
_cell_length_c   5.99369537
_cell_angle_alpha   90.00000000
_cell_angle_beta   90.00000000
_cell_angle_gamma   120.00000001
_symmetry_Int_Tables_number   1
_chemical_formula_structural   Nd3Y
_chemical_formula_sum   'Nd6 Y2'
_cell_volume   282.67730915
_cell_formula_units_Z   2
loop_
 _symmetry_equiv_pos_site_id
 _symmetry_equiv_pos_as_xyz
  1  'x, y, z'
loop_
 _atom_site_type_symbol
 _atom_site_label
 _atom_site_symmetry_multiplicity
 _atom_site_fract_x
 _atom_site_fract_y
 _atom_site_fract_z
 _atom_site_occupancy
  Nd  Nd0  1  0.16730050  0.33460201  0.25000100  1
  Nd  Nd1  1  0.66539999  0.83269950  0.25000100  1
  Nd  Nd2  1  0.16729950  0.83269950  0.25000100  1
  Nd  Nd3  1  0.83269950  0.66539799  0.75000100  1
  Nd  Nd4  1  0.33460001  0.16730050  0.75000100  1
  Nd  Nd5  1  0.83270050  0.16730050  0.75000100  1
  Y  Y6  1  0.33333300  0.66666600  0.75000100  1
  Y  Y7  1  0.66666600  0.33333200  0.25000100  1
