# generated using pymatgen
data_Mg5Ag
_symmetry_space_group_name_H-M   'P 1'
_cell_length_a   3.21943654
_cell_length_b   5.86761341
_cell_length_c   7.26668788
_cell_angle_alpha   75.89258042
_cell_angle_beta   90.00000000
_cell_angle_gamma   105.92266316
_symmetry_Int_Tables_number   1
_chemical_formula_structural   Mg5Ag
_chemical_formula_sum   'Mg5 Ag1'
_cell_volume   127.69336168
_cell_formula_units_Z   1
loop_
 _symmetry_equiv_pos_site_id
 _symmetry_equiv_pos_as_xyz
  1  'x, y, z'
loop_
 _atom_site_type_symbol
 _atom_site_label
 _atom_site_symmetry_multiplicity
 _atom_site_fract_x
 _atom_site_fract_y
 _atom_site_fract_z
 _atom_site_occupancy
  Mg  Mg0  1  0.99557507  0.99114813  0.98223374  1
  Mg  Mg1  1  0.71854330  0.43708460  0.05622782  1
  Mg  Mg2  1  0.33466183  0.66932367  0.32903765  1
  Mg  Mg3  1  0.04666050  0.09331999  0.41246982  1
  Mg  Mg4  1  0.68113234  0.36226268  0.66517517  1
  Ag  Ag5  1  0.39009797  0.78019493  0.72152479  1
