# generated using pymatgen
data_Mg2Sc
_symmetry_space_group_name_H-M   'P 1'
_cell_length_a   3.20699957
_cell_length_b   6.25025918
_cell_length_c   7.49758229
_cell_angle_alpha   75.55726041
_cell_angle_beta   90.09922521
_cell_angle_gamma   104.98148020
_symmetry_Int_Tables_number   1
_chemical_formula_structural   Mg2Sc
_chemical_formula_sum   'Mg4 Sc2'
_cell_volume   140.27301106
_cell_formula_units_Z   2
loop_
 _symmetry_equiv_pos_site_id
 _symmetry_equiv_pos_as_xyz
  1  'x, y, z'
loop_
 _atom_site_type_symbol
 _atom_site_label
 _atom_site_symmetry_multiplicity
 _atom_site_fract_x
 _atom_site_fract_y
 _atom_site_fract_z
 _atom_site_occupancy
  Mg  Mg0  1  0.99814311  0.99621808  0.00360389  1
  Mg  Mg1  1  0.33579652  0.67118339  0.33087102  1
  Mg  Mg2  1  0.05314488  0.10665781  0.39120570  1
  Mg  Mg3  1  0.39069663  0.78151881  0.71869761  1
  Sc  Sc4  1  0.71852250  0.43723676  0.05709025  1
  Sc  Sc5  1  0.67036335  0.34051816  0.66519852  1
