# generated using pymatgen
data_Ti2FeB2RuRh4
_symmetry_space_group_name_H-M   'P 1'
_cell_length_a   3.06491737
_cell_length_b   9.11932076
_cell_length_c   9.07777906
_cell_angle_alpha   89.99890636
_cell_angle_beta   90.00000000
_cell_angle_gamma   90.00000000
_symmetry_Int_Tables_number   1
_chemical_formula_structural   Ti2FeB2RuRh4
_chemical_formula_sum   'Ti4 Fe2 B4 Ru2 Rh8'
_cell_volume   253.72360335
_cell_formula_units_Z   2
loop_
 _symmetry_equiv_pos_site_id
 _symmetry_equiv_pos_as_xyz
  1  'x, y, z'
loop_
 _atom_site_type_symbol
 _atom_site_label
 _atom_site_symmetry_multiplicity
 _atom_site_fract_x
 _atom_site_fract_y
 _atom_site_fract_z
 _atom_site_occupancy
  Ti  Ti0  1  0.00000000  0.18125391  0.67208197  1
  Ti  Ti1  1  -0.00000000  0.81874609  0.32791803  1
  Ti  Ti2  1  -0.00000000  0.32217595  0.18264150  1
  Ti  Ti3  1  0.00000000  0.67782405  0.81735850  1
  Fe  Fe4  1  -0.00000000  0.50000000  0.50000000  1
  Fe  Fe5  1  -0.00000000  0.00000000  0.00000000  1
  B  B6  1  -0.00000000  0.62620048  0.12526977  1
  B  B7  1  0.00000000  0.37379952  0.87473023  1
  B  B8  1  -0.00000000  0.87335070  0.62343367  1
  B  B9  1  -0.00000000  0.12664930  0.37656633  1
  Ru  Ru10  1  0.50000000  0.71164426  0.57321262  1
  Ru  Ru11  1  0.50000000  0.28835574  0.42678738  1
  Rh  Rh12  1  0.50000000  0.78594080  0.07301644  1
  Rh  Rh13  1  0.50000000  0.21405920  0.92698356  1
  Rh  Rh14  1  0.50000000  0.57334603  0.28452813  1
  Rh  Rh15  1  0.50000000  0.42665397  0.71547187  1
  Rh  Rh16  1  0.50000000  0.07264987  0.21461503  1
  Rh  Rh17  1  0.50000000  0.92735013  0.78538497  1
  Rh  Rh18  1  0.50000000  0.00000000  0.50000000  1
  Rh  Rh19  1  0.50000000  0.50000000  0.00000000  1
