# generated using pymatgen
data_Pr3Gd
_symmetry_space_group_name_H-M   'P 1'
_cell_length_a   7.37597565
_cell_length_b   7.37597748
_cell_length_c   6.06563323
_cell_angle_alpha   90.00000000
_cell_angle_beta   90.00000000
_cell_angle_gamma   119.99999708
_symmetry_Int_Tables_number   1
_chemical_formula_structural   Pr3Gd
_chemical_formula_sum   'Pr6 Gd2'
_cell_volume   285.78922276
_cell_formula_units_Z   2
loop_
 _symmetry_equiv_pos_site_id
 _symmetry_equiv_pos_as_xyz
  1  'x, y, z'
loop_
 _atom_site_type_symbol
 _atom_site_label
 _atom_site_symmetry_multiplicity
 _atom_site_fract_x
 _atom_site_fract_y
 _atom_site_fract_z
 _atom_site_occupancy
  Pr  Pr0  1  0.16624830  0.33249659  0.25000000  1
  Pr  Pr1  1  0.66750341  0.83375170  0.25000000  1
  Pr  Pr2  1  0.16624830  0.83375170  0.25000000  1
  Pr  Pr3  1  0.83375170  0.66750341  0.75000100  1
  Pr  Pr4  1  0.33249659  0.16624730  0.75000100  1
  Pr  Pr5  1  0.83375170  0.16624730  0.75000100  1
  Gd  Gd6  1  0.33333300  0.66666600  0.75000100  1
  Gd  Gd7  1  0.66666800  0.33333400  0.25000000  1
