# generated using pymatgen
data_PmSm
_symmetry_space_group_name_H-M   'P 1'
_cell_length_a   3.65493200
_cell_length_b   3.65490774
_cell_length_c   5.98135788
_cell_angle_alpha   90.00450194
_cell_angle_beta   89.99542670
_cell_angle_gamma   120.00493476
_symmetry_Int_Tables_number   1
_chemical_formula_structural   PmSm
_chemical_formula_sum   'Pm1 Sm1'
_cell_volume   69.19337904
_cell_formula_units_Z   1
loop_
 _symmetry_equiv_pos_site_id
 _symmetry_equiv_pos_as_xyz
  1  'x, y, z'
loop_
 _atom_site_type_symbol
 _atom_site_label
 _atom_site_symmetry_multiplicity
 _atom_site_fract_x
 _atom_site_fract_y
 _atom_site_fract_z
 _atom_site_occupancy
  Pm  Pm0  1  0.66669359  0.33330768  0.74999290  1
  Sm  Sm1  1  0.33330741  0.66669132  0.25000810  1
