# generated using pymatgen
data_Sm(Mg4Al3)4
_symmetry_space_group_name_H-M   'P 1'
_cell_length_a   8.86701785
_cell_length_b   9.29335834
_cell_length_c   9.29335784
_cell_angle_alpha   110.38181697
_cell_angle_beta   108.54452393
_cell_angle_gamma   108.54451953
_symmetry_Int_Tables_number   1
_chemical_formula_structural   Sm(Mg4Al3)4
_chemical_formula_sum   'Sm1 Mg16 Al12'
_cell_volume   596.12942586
_cell_formula_units_Z   1
loop_
 _symmetry_equiv_pos_site_id
 _symmetry_equiv_pos_as_xyz
  1  'x, y, z'
loop_
 _atom_site_type_symbol
 _atom_site_label
 _atom_site_symmetry_multiplicity
 _atom_site_fract_x
 _atom_site_fract_y
 _atom_site_fract_z
 _atom_site_occupancy
  Sm  Sm0  1  0.37594423  0.00000000  0.00000000  1
  Mg  Mg1  1  0.99457696  0.33992374  1.00000000  1
  Mg  Mg2  1  0.99592412  0.00000100  1.00000000  1
  Mg  Mg3  1  0.61292417  0.33106868  0.00000000  1
  Mg  Mg4  1  0.31514888  0.59982508  0.00000100  1
  Mg  Mg5  1  0.68877556  0.68714088  0.29448362  1
  Mg  Mg6  1  0.00163569  0.60734375  0.31286012  1
  Mg  Mg7  1  0.61292417  0.00000100  0.33106868  1
  Mg  Mg8  1  0.99457796  1.00000000  0.33992374  1
  Mg  Mg9  1  0.39429194  0.70551638  0.39265825  1
  Mg  Mg10  1  0.71532580  0.40017592  0.40017592  1
  Mg  Mg11  1  0.31514888  0.00000100  0.59982508  1
  Mg  Mg12  1  0.00163569  0.31286012  0.60734375  1
  Mg  Mg13  1  0.65465322  0.66007526  0.66007626  1
  Mg  Mg14  1  0.28185548  0.66893232  0.66893132  1
  Mg  Mg15  1  0.68877556  0.29448362  0.68714088  1
  Mg  Mg16  1  0.39429194  0.39265725  0.70551738  1
  Al  Al17  1  0.63038813  0.81931542  0.00000000  1
  Al  Al18  1  0.81039796  0.63703346  0.00000000  1
  Al  Al19  1  0.36286123  0.36179023  0.17900078  1
  Al  Al20  1  0.81107171  0.18068558  0.18068458  1
  Al  Al21  1  0.18385945  0.82099822  0.18278846  1
  Al  Al22  1  0.17336550  0.36296754  0.36296854  1
  Al  Al23  1  0.36286123  0.17900078  0.36179023  1
  Al  Al24  1  0.00107099  0.81721154  0.63821077  1
  Al  Al25  1  0.81039796  0.00000000  0.63703346  1
  Al  Al26  1  0.00107099  0.63821177  0.81721154  1
  Al  Al27  1  0.63038813  0.00000000  0.81931542  1
  Al  Al28  1  0.18385945  0.18278846  0.82099822  1
