# generated using pymatgen
data_Th2(FeCo)5
_symmetry_space_group_name_H-M   'P 1'
_cell_length_a   3.98377770
_cell_length_b   5.02828666
_cell_length_c   8.66003395
_cell_angle_alpha   89.99999388
_cell_angle_beta   90.00000000
_cell_angle_gamma   90.00000000
_symmetry_Int_Tables_number   1
_chemical_formula_structural   Th2(FeCo)5
_chemical_formula_sum   'Th2 Fe5 Co5'
_cell_volume   173.47413052
_cell_formula_units_Z   1
loop_
 _symmetry_equiv_pos_site_id
 _symmetry_equiv_pos_as_xyz
  1  'x, y, z'
loop_
 _atom_site_type_symbol
 _atom_site_label
 _atom_site_symmetry_multiplicity
 _atom_site_fract_x
 _atom_site_fract_y
 _atom_site_fract_z
 _atom_site_occupancy
  Th  Th0  1  0.00000000  -0.00027526  1.00000000  1
  Th  Th1  1  -0.00000000  0.49567797  0.50000000  1
  Fe  Fe2  1  0.50000000  0.49657674  0.00000000  1
  Fe  Fe3  1  0.50000000  0.24586344  0.25306226  1
  Fe  Fe4  1  0.50000000  0.74779306  0.74546862  1
  Fe  Fe5  1  0.50000000  0.74779306  0.25453138  1
  Fe  Fe6  1  0.50000000  0.24586344  0.74693774  1
  Co  Co7  1  -0.00000000  0.00630174  0.32788487  1
  Co  Co8  1  -0.00000000  0.50954239  0.83601940  1
  Co  Co9  1  -0.00000000  0.50954239  0.16398060  1
  Co  Co10  1  -0.00000000  0.00630174  0.67211513  1
  Co  Co11  1  0.50000000  0.98881927  0.50000000  1
