# generated using pymatgen
data_KCrH4(C2O5)2
_symmetry_space_group_name_H-M   'P 1'
_cell_length_a   4.98654892
_cell_length_b   4.98654892
_cell_length_c   10.31868018
_cell_angle_alpha   89.98869987
_cell_angle_beta   89.98869987
_cell_angle_gamma   92.08616021
_symmetry_Int_Tables_number   1
_chemical_formula_structural   KCrH4(C2O5)2
_chemical_formula_sum   'K1 Cr1 H4 C4 O10'
_cell_volume   256.41082978
_cell_formula_units_Z   1
loop_
 _symmetry_equiv_pos_site_id
 _symmetry_equiv_pos_as_xyz
  1  'x, y, z'
loop_
 _atom_site_type_symbol
 _atom_site_label
 _atom_site_symmetry_multiplicity
 _atom_site_fract_x
 _atom_site_fract_y
 _atom_site_fract_z
 _atom_site_occupancy
  K  K0  1  0.00000000  0.00000000  -0.00000000  1
  Cr  Cr1  1  0.50000000  0.50000000  0.50000000  1
  H  H2  1  0.04976441  0.27822204  0.39890660  1
  H  H3  1  0.27822204  0.04976441  0.39890660  1
  H  H4  1  0.95023559  0.72177796  0.60109340  1
  H  H5  1  0.72177796  0.95023559  0.60109340  1
  C  C6  1  0.74050764  0.52384363  0.25109600  1
  C  C7  1  0.52384363  0.74050764  0.25109600  1
  C  C8  1  0.25949236  0.47615637  0.74890400  1
  C  C9  1  0.47615637  0.25949236  0.74890400  1
  O  O10  1  0.75651333  0.39156565  0.36102242  1
  O  O11  1  0.39156565  0.75651333  0.36102242  1
  O  O12  1  0.24348667  0.60843435  0.63897758  1
  O  O13  1  0.60843435  0.24348667  0.63897758  1
  O  O14  1  0.88285690  0.48850011  0.15534131  1
  O  O15  1  0.48850011  0.88285690  0.15534131  1
  O  O16  1  0.11714310  0.51149989  0.84465869  1
  O  O17  1  0.51149989  0.11714310  0.84465869  1
  O  O18  1  0.22120807  0.22120807  0.43991486  1
  O  O19  1  0.77879193  0.77879193  0.56008514  1
