# generated using pymatgen
data_Ho5In3
_symmetry_space_group_name_H-M   'P 1'
_cell_length_a   6.66895880
_cell_length_b   9.01267235
_cell_length_c   9.01840007
_cell_angle_alpha   119.97899805
_cell_angle_beta   90.00000000
_cell_angle_gamma   90.00000000
_symmetry_Int_Tables_number   1
_chemical_formula_structural   Ho5In3
_chemical_formula_sum   'Ho10 In6'
_cell_volume   469.53029303
_cell_formula_units_Z   2
loop_
 _symmetry_equiv_pos_site_id
 _symmetry_equiv_pos_as_xyz
  1  'x, y, z'
loop_
 _atom_site_type_symbol
 _atom_site_label
 _atom_site_symmetry_multiplicity
 _atom_site_fract_x
 _atom_site_fract_y
 _atom_site_fract_z
 _atom_site_occupancy
  Ho  Ho0  1  0.49999530  0.33331236  0.66669927  1
  Ho  Ho1  1  0.49999530  0.66661308  0.33330073  1
  Ho  Ho2  1  0.99999530  0.66668764  0.33330073  1
  Ho  Ho3  1  0.99999530  0.33338692  0.66669927  1
  Ho  Ho4  1  0.74999548  0.25017067  0.00000000  1
  Ho  Ho5  1  0.75000158  0.74981931  0.74985011  1
  Ho  Ho6  1  0.75000158  0.99996920  0.25014989  1
  Ho  Ho7  1  0.24999548  0.74982933  1.00000000  1
  Ho  Ho8  1  0.25000158  0.25018069  0.25014989  1
  Ho  Ho9  1  0.25000158  0.00003080  0.74985011  1
  In  In10  1  0.74999428  0.60631526  1.00000000  1
  In  In11  1  0.75000824  0.39356515  0.39362920  1
  In  In12  1  0.75000824  0.99993595  0.60637080  1
  In  In13  1  0.24999428  0.39368474  0.00000000  1
  In  In14  1  0.25000824  0.60643485  0.60637080  1
  In  In15  1  0.25000824  0.00006405  0.39362920  1
