# generated using pymatgen
data_Ba2CdP3O11
_symmetry_space_group_name_H-M   'P 1'
_cell_length_a   5.67656462
_cell_length_b   7.39157386
_cell_length_c   7.56581454
_cell_angle_alpha   118.34723727
_cell_angle_beta   112.03331125
_cell_angle_gamma   90.00000000
_symmetry_Int_Tables_number   1
_chemical_formula_structural   Ba2CdP3O11
_chemical_formula_sum   'Ba2 Cd1 P3 O11'
_cell_volume   252.73204462
_cell_formula_units_Z   1
loop_
 _symmetry_equiv_pos_site_id
 _symmetry_equiv_pos_as_xyz
  1  'x, y, z'
loop_
 _atom_site_type_symbol
 _atom_site_label
 _atom_site_symmetry_multiplicity
 _atom_site_fract_x
 _atom_site_fract_y
 _atom_site_fract_z
 _atom_site_occupancy
  Ba  Ba0  1  0.99729108  0.99440021  0.99458217  1
  Ba  Ba1  1  0.60100457  0.57181122  0.20200914  1
  Cd  Cd2  1  0.29978917  0.05581896  0.59957835  1
  P  P3  1  0.29193474  0.63588225  0.58386947  1
  P  P4  1  0.91217685  0.37475011  0.82435370  1
  P  P5  1  0.66977781  0.11019473  0.33955562  1
  O  O6  1  0.52248360  0.77265800  0.60587270  1
  O  O7  1  0.08338910  0.77265800  0.60587270  1
  O  O8  1  0.14625039  0.26676119  0.85085362  1
  O  O9  1  0.70460324  0.26676119  0.85085362  1
  O  O10  1  0.88839621  0.98662322  0.33128224  1
  O  O11  1  0.44288602  0.98662322  0.33128224  1
  O  O12  1  0.57917124  0.16537153  0.15834248  1
  O  O13  1  0.99053167  0.61079497  0.98106334  1
  O  O14  1  0.17700917  0.43038815  0.35401833  1
  O  O15  1  0.38471959  0.58160133  0.76943918  1
  O  O16  1  0.78658555  0.33340173  0.57317111  1
