# generated using pymatgen
data_Yb2Mg
_symmetry_space_group_name_H-M   'P 1'
_cell_length_a   5.92270402
_cell_length_b   6.23675997
_cell_length_c   6.27164124
_cell_angle_alpha   60.18380751
_cell_angle_beta   90.00000000
_cell_angle_gamma   90.00000000
_symmetry_Int_Tables_number   1
_chemical_formula_structural   Yb2Mg
_chemical_formula_sum   'Yb4 Mg2'
_cell_volume   200.99826486
_cell_formula_units_Z   2
loop_
 _symmetry_equiv_pos_site_id
 _symmetry_equiv_pos_as_xyz
  1  'x, y, z'
loop_
 _atom_site_type_symbol
 _atom_site_label
 _atom_site_symmetry_multiplicity
 _atom_site_fract_x
 _atom_site_fract_y
 _atom_site_fract_z
 _atom_site_occupancy
  Yb  Yb0  1  0.00000000  0.98068902  0.01204671  1
  Yb  Yb1  1  0.50000100  0.34059727  0.01204771  1
  Yb  Yb2  1  0.00000000  0.65940373  0.65461729  1
  Yb  Yb3  1  0.50000100  0.01931198  0.65461829  1
  Mg  Mg4  1  0.50000100  0.66524855  0.33333200  1
  Mg  Mg5  1  0.00000000  0.33475245  0.33333300  1
