# generated using pymatgen
data_B2OsW2
_symmetry_space_group_name_H-M   'P 1'
_cell_length_a   3.09332975
_cell_length_b   7.59871469
_cell_length_c   9.66562754
_cell_angle_alpha   90.00000000
_cell_angle_beta   90.00000000
_cell_angle_gamma   90.00000000
_symmetry_Int_Tables_number   1
_chemical_formula_structural   B2OsW2
_chemical_formula_sum   'B8 Os4 W8'
_cell_volume   227.19376704
_cell_formula_units_Z   4
loop_
 _symmetry_equiv_pos_site_id
 _symmetry_equiv_pos_as_xyz
  1  'x, y, z'
loop_
 _atom_site_type_symbol
 _atom_site_label
 _atom_site_symmetry_multiplicity
 _atom_site_fract_x
 _atom_site_fract_y
 _atom_site_fract_z
 _atom_site_occupancy
  B  B0  1  0.50000000  0.11660603  0.46138490  1
  B  B1  1  0.50000000  0.88339397  0.53861510  1
  B  B2  1  0.00000000  0.38339397  0.96138490  1
  B  B3  1  0.00000000  0.61660603  0.03861510  1
  B  B4  1  0.50000000  0.12573958  0.26848474  1
  B  B5  1  0.50000000  0.87426042  0.73151526  1
  B  B6  1  -0.00000000  0.37426042  0.76848474  1
  B  B7  1  0.00000000  0.62573958  0.23151526  1
  Os  Os8  1  0.50000000  0.61913219  0.39235152  1
  Os  Os9  1  0.50000000  0.38086781  0.60764848  1
  Os  Os10  1  0.00000000  0.88086781  0.89235152  1
  Os  Os11  1  -0.00000000  0.11913219  0.10764848  1
  W  W12  1  0.50000000  0.80880832  0.13023195  1
  W  W13  1  0.50000000  0.19119168  0.86976805  1
  W  W14  1  -0.00000000  0.69119168  0.63023195  1
  W  W15  1  -0.00000000  0.30880832  0.36976805  1
  W  W16  1  0.50000000  0.57249797  0.86011919  1
  W  W17  1  0.50000000  0.42750203  0.13988081  1
  W  W18  1  0.00000000  0.92750203  0.36011919  1
  W  W19  1  -0.00000000  0.07249797  0.63988081  1
