# generated using pymatgen
data_NaH2(SO2)2
_symmetry_space_group_name_H-M   'P 1'
_cell_length_a   5.43515203
_cell_length_b   6.66846648
_cell_length_c   8.38790689
_cell_angle_alpha   113.42228268
_cell_angle_beta   102.33053910
_cell_angle_gamma   90.00000001
_symmetry_Int_Tables_number   1
_chemical_formula_structural   NaH2(SO2)2
_chemical_formula_sum   'Na2 H4 S4 O8'
_cell_volume   271.30202866
_cell_formula_units_Z   2
loop_
 _symmetry_equiv_pos_site_id
 _symmetry_equiv_pos_as_xyz
  1  'x, y, z'
loop_
 _atom_site_type_symbol
 _atom_site_label
 _atom_site_symmetry_multiplicity
 _atom_site_fract_x
 _atom_site_fract_y
 _atom_site_fract_z
 _atom_site_occupancy
  Na  Na0  1  0.01129245  0.68073282  0.53591027  1
  Na  Na1  1  0.98870755  0.14482254  0.46408973  1
  H  H2  1  0.76484616  0.67973731  0.20210383  1
  H  H3  1  0.23515384  0.47763347  0.79789617  1
  H  H4  1  0.05918794  0.68909333  0.21612163  1
  H  H5  1  0.94081206  0.47297170  0.78387837  1
  S  S6  1  0.34788800  0.04287696  0.05273313  1
  S  S7  1  0.65211200  0.99014383  0.94726687  1
  S  S8  1  0.42534617  0.36561432  0.27178733  1
  S  S9  1  0.57465383  0.09382700  0.72821267  1
  O  O10  1  0.39731956  0.53121802  0.19611501  1
  O  O11  1  0.60268044  0.33510301  0.80388499  1
  O  O12  1  0.22402843  0.35374498  0.36089784  1
  O  O13  1  0.77597157  0.99284714  0.63910216  1
  O  O14  1  0.68170224  0.37608827  0.37772639  1
  O  O15  1  0.31829776  0.99836188  0.62227361  1
  O  O16  1  0.92638522  0.76497536  0.27370729  1
  O  O17  1  0.07361478  0.49126807  0.72629271  1
