# generated using pymatgen
data_Dy3AlNiS7
_symmetry_space_group_name_H-M   'P 1'
_cell_length_a   6.19706260
_cell_length_b   9.55389088
_cell_length_c   9.55400619
_cell_angle_alpha   120.00061467
_cell_angle_beta   90.00000000
_cell_angle_gamma   90.00000000
_symmetry_Int_Tables_number   1
_chemical_formula_structural   Dy3AlNiS7
_chemical_formula_sum   'Dy6 Al2 Ni2 S14'
_cell_volume   489.86861940
_cell_formula_units_Z   2
loop_
 _symmetry_equiv_pos_site_id
 _symmetry_equiv_pos_as_xyz
  1  'x, y, z'
loop_
 _atom_site_type_symbol
 _atom_site_label
 _atom_site_symmetry_multiplicity
 _atom_site_fract_x
 _atom_site_fract_y
 _atom_site_fract_z
 _atom_site_occupancy
  Dy  Dy0  1  0.27196498  0.22157729  0.37593811  1
  Dy  Dy1  1  0.27197606  0.62405994  0.84563393  1
  Dy  Dy2  1  0.27197113  0.15436230  0.77842048  1
  Dy  Dy3  1  0.77196498  0.77842271  0.62406189  1
  Dy  Dy4  1  0.77197606  0.37594006  0.15436607  1
  Dy  Dy5  1  0.77197113  0.84563770  0.22157952  1
  Al  Al6  1  0.84559559  0.33332715  0.66666483  1
  Al  Al7  1  0.34559559  0.66667285  0.33333517  1
  Ni  Ni8  1  0.44125772  0.00005101  0.00000943  1
  Ni  Ni9  1  0.94125772  -0.00005101  -0.00000943  1
  S  S10  1  0.67623081  0.13136979  0.23059256  1
  S  S11  1  0.67621440  0.76943139  0.90078222  1
  S  S12  1  0.67623230  0.09923800  0.86863463  1
  S  S13  1  0.17623081  0.86863021  0.76940744  1
  S  S14  1  0.17621440  0.23056861  0.09921778  1
  S  S15  1  0.17623230  0.90076200  0.13136537  1
  S  S16  1  0.00059769  0.08899401  0.52067737  1
  S  S17  1  0.00058072  0.47931567  0.56831955  1
  S  S18  1  0.00059400  0.43168535  0.91100115  1
  S  S19  1  0.50059769  0.91100599  0.47932263  1
  S  S20  1  0.50058072  0.52068433  0.43168045  1
  S  S21  1  0.50059400  0.56831465  0.08899885  1
  S  S22  1  0.48378460  0.33332896  0.66666111  1
  S  S23  1  0.98378460  0.66667104  0.33333889  1
