# generated using pymatgen
data_LiAlH4
_symmetry_space_group_name_H-M   'P 1'
_cell_length_a   5.40267384
_cell_length_b   6.55108985
_cell_length_c   6.77639549
_cell_angle_alpha   90.00000000
_cell_angle_beta   90.00000000
_cell_angle_gamma   90.00000000
_symmetry_Int_Tables_number   1
_chemical_formula_structural   LiAlH4
_chemical_formula_sum   'Li4 Al4 H16'
_cell_volume   239.83968804
_cell_formula_units_Z   4
loop_
 _symmetry_equiv_pos_site_id
 _symmetry_equiv_pos_as_xyz
  1  'x, y, z'
loop_
 _atom_site_type_symbol
 _atom_site_label
 _atom_site_symmetry_multiplicity
 _atom_site_fract_x
 _atom_site_fract_y
 _atom_site_fract_z
 _atom_site_occupancy
  Li  Li0  1  0.75000000  0.25398775  0.74705453  1
  Li  Li1  1  0.75000000  0.75398775  0.75294547  1
  Li  Li2  1  0.25000000  0.74601225  0.25294547  1
  Li  Li3  1  0.25000000  0.24601225  0.24705453  1
  Al  Al4  1  0.75000000  0.99114344  0.32692064  1
  Al  Al5  1  0.75000000  0.49114344  0.17307936  1
  Al  Al6  1  0.25000000  0.00885656  0.67307936  1
  Al  Al7  1  0.25000000  0.50885656  0.82692064  1
  H  H8  1  0.75000000  0.19708115  0.46374240  1
  H  H9  1  0.75000000  0.69708115  0.03625760  1
  H  H10  1  0.25000000  0.80291885  0.53625760  1
  H  H11  1  0.25000000  0.30291885  0.96374240  1
  H  H12  1  0.75000000  0.78782668  0.46611405  1
  H  H13  1  0.75000000  0.28782668  0.03388595  1
  H  H14  1  0.25000000  0.21217332  0.53388595  1
  H  H15  1  0.25000000  0.71217332  0.96611405  1
  H  H16  1  0.98525672  0.00733600  0.79165516  1
  H  H17  1  0.51474328  0.50733600  0.70834484  1
  H  H18  1  0.48525672  0.99266400  0.20834484  1
  H  H19  1  0.01474328  0.49266400  0.29165516  1
  H  H20  1  0.01474328  0.99266400  0.20834484  1
  H  H21  1  0.48525672  0.49266400  0.29165516  1
  H  H22  1  0.51474328  0.00733600  0.79165516  1
  H  H23  1  0.98525672  0.50733600  0.70834484  1
