# generated using pymatgen
data_PrCrB4
_symmetry_space_group_name_H-M   'P 1'
_cell_length_a   3.57075592
_cell_length_b   6.05647812
_cell_length_c   11.71592404
_cell_angle_alpha   90.00000000
_cell_angle_beta   90.00000000
_cell_angle_gamma   90.00000000
_symmetry_Int_Tables_number   1
_chemical_formula_structural   PrCrB4
_chemical_formula_sum   'Pr4 Cr4 B16'
_cell_volume   253.37097624
_cell_formula_units_Z   4
loop_
 _symmetry_equiv_pos_site_id
 _symmetry_equiv_pos_as_xyz
  1  'x, y, z'
loop_
 _atom_site_type_symbol
 _atom_site_label
 _atom_site_symmetry_multiplicity
 _atom_site_fract_x
 _atom_site_fract_y
 _atom_site_fract_z
 _atom_site_occupancy
  Pr  Pr0  1  -0.00000000  0.62363030  0.34846194  1
  Pr  Pr1  1  -0.00000000  0.37636970  0.65153806  1
  Pr  Pr2  1  -0.00000000  0.12363030  0.15153806  1
  Pr  Pr3  1  -0.00000000  0.87636970  0.84846194  1
  Cr  Cr4  1  0.00000000  0.61909602  0.07730064  1
  Cr  Cr5  1  -0.00000000  0.38090398  0.92269936  1
  Cr  Cr6  1  0.00000000  0.11909602  0.42269936  1
  Cr  Cr7  1  -0.00000000  0.88090398  0.57730064  1
  B  B8  1  0.50000000  0.77552447  0.18070254  1
  B  B9  1  0.50000000  0.22447553  0.81929746  1
  B  B10  1  0.50000000  0.27552447  0.31929746  1
  B  B11  1  0.50000000  0.72447553  0.68070254  1
  B  B12  1  0.50000000  0.85811568  0.03286250  1
  B  B13  1  0.50000000  0.14188432  0.96713750  1
  B  B14  1  0.50000000  0.35811568  0.46713750  1
  B  B15  1  0.50000000  0.64188432  0.53286250  1
  B  B16  1  0.50000000  0.88920060  0.45454797  1
  B  B17  1  0.50000000  0.11079940  0.54545203  1
  B  B18  1  0.50000000  0.38920060  0.04545203  1
  B  B19  1  0.50000000  0.61079940  0.95454797  1
  B  B20  1  0.50000000  0.97776617  0.31209514  1
  B  B21  1  0.50000000  0.02223383  0.68790486  1
  B  B22  1  0.50000000  0.47776617  0.18790486  1
  B  B23  1  0.50000000  0.52223383  0.81209514  1
