# generated using pymatgen
data_Zr5In3Ag
_symmetry_space_group_name_H-M   'P 1'
_cell_length_a   5.98611643
_cell_length_b   8.83870632
_cell_length_c   8.83705713
_cell_angle_alpha   120.00617133
_cell_angle_beta   90.00000000
_cell_angle_gamma   90.00000000
_symmetry_Int_Tables_number   1
_chemical_formula_structural   Zr5In3Ag
_chemical_formula_sum   'Zr10 In6 Ag2'
_cell_volume   404.89754839
_cell_formula_units_Z   2
loop_
 _symmetry_equiv_pos_site_id
 _symmetry_equiv_pos_as_xyz
  1  'x, y, z'
loop_
 _atom_site_type_symbol
 _atom_site_label
 _atom_site_symmetry_multiplicity
 _atom_site_fract_x
 _atom_site_fract_y
 _atom_site_fract_z
 _atom_site_occupancy
  Zr  Zr0  1  0.74998871  0.29322640  1.00000000  1
  Zr  Zr1  1  0.75000532  0.70675536  0.70671877  1
  Zr  Zr2  1  0.75000532  0.00003659  0.29328123  1
  Zr  Zr3  1  0.24998871  0.70677360  0.00000000  1
  Zr  Zr4  1  0.25000532  0.29324464  0.29328123  1
  Zr  Zr5  1  0.25000532  0.99996341  0.70671877  1
  Zr  Zr6  1  0.50000015  0.33332225  0.66664046  1
  Zr  Zr7  1  0.50000015  0.66668179  0.33335954  1
  Zr  Zr8  1  0.00000015  0.66667775  0.33335954  1
  Zr  Zr9  1  0.00000015  0.33331821  0.66664046  1
  In  In10  1  0.74999594  0.63159425  0.00000000  1
  In  In11  1  0.75000211  0.36853366  0.36846608  1
  In  In12  1  0.75000211  0.00006758  0.63153392  1
  In  In13  1  0.24999594  0.36840575  1.00000000  1
  In  In14  1  0.25000211  0.63146634  0.63153392  1
  In  In15  1  0.25000211  0.99993242  0.36846608  1
  Ag  Ag16  1  0.50000021  0.99998608  0.00000000  1
  Ag  Ag17  1  0.00000021  0.00001392  1.00000000  1
