# generated using pymatgen
data_Dy5Pt3
_symmetry_space_group_name_H-M   'P 1'
_cell_length_a   6.17462962
_cell_length_b   8.45375894
_cell_length_c   8.46805021
_cell_angle_alpha   119.94419260
_cell_angle_beta   90.00000000
_cell_angle_gamma   90.00000000
_symmetry_Int_Tables_number   1
_chemical_formula_structural   Dy5Pt3
_chemical_formula_sum   'Dy10 Pt6'
_cell_volume   383.01764348
_cell_formula_units_Z   2
loop_
 _symmetry_equiv_pos_site_id
 _symmetry_equiv_pos_as_xyz
  1  'x, y, z'
loop_
 _atom_site_type_symbol
 _atom_site_label
 _atom_site_symmetry_multiplicity
 _atom_site_fract_x
 _atom_site_fract_y
 _atom_site_fract_z
 _atom_site_occupancy
  Dy  Dy0  1  0.49999994  0.33328521  0.66662931  1
  Dy  Dy1  1  0.49999994  0.66665590  0.33337069  1
  Dy  Dy2  1  0.99999994  0.66671479  0.33337069  1
  Dy  Dy3  1  0.99999994  0.33334410  0.66662931  1
  Dy  Dy4  1  0.75001107  0.25131323  0.00000000  1
  Dy  Dy5  1  0.74999525  0.74831750  0.74852603  1
  Dy  Dy6  1  0.74999525  0.99979147  0.25147397  1
  Dy  Dy7  1  0.25001107  0.74868677  1.00000000  1
  Dy  Dy8  1  0.24999525  0.25168250  0.25147397  1
  Dy  Dy9  1  0.24999525  0.00020853  0.74852603  1
  Pt  Pt10  1  0.74999476  0.61008075  0.00000000  1
  Pt  Pt11  1  0.75000190  0.38977161  0.38990610  1
  Pt  Pt12  1  0.75000190  0.99986551  0.61009390  1
  Pt  Pt13  1  0.24999476  0.38991925  1.00000000  1
  Pt  Pt14  1  0.25000190  0.61022839  0.61009390  1
  Pt  Pt15  1  0.25000190  0.00013449  0.38990610  1
