# generated using pymatgen
data_NaV6O15
_symmetry_space_group_name_H-M   'P 1'
_cell_length_a   3.65688131
_cell_length_b   8.14830126
_cell_length_c   9.62702615
_cell_angle_alpha   95.19023380
_cell_angle_beta   90.00000000
_cell_angle_gamma   102.96732662
_symmetry_Int_Tables_number   1
_chemical_formula_structural   NaV6O15
_chemical_formula_sum   'Na1 V6 O15'
_cell_volume   278.33752830
_cell_formula_units_Z   1
loop_
 _symmetry_equiv_pos_site_id
 _symmetry_equiv_pos_as_xyz
  1  'x, y, z'
loop_
 _atom_site_type_symbol
 _atom_site_label
 _atom_site_symmetry_multiplicity
 _atom_site_fract_x
 _atom_site_fract_y
 _atom_site_fract_z
 _atom_site_occupancy
  Na  Na0  1  0.92706096  0.85412192  0.41822506  1
  V  V1  1  0.68640501  0.37281003  0.91215405  1
  V  V2  1  0.31693202  0.63386404  0.11406745  1
  V  V3  1  0.88710416  0.77420833  0.87176706  1
  V  V4  1  0.08222264  0.16444529  0.10724528  1
  V  V5  1  0.60869082  0.21738164  0.58908964  1
  V  V6  1  0.22009949  0.44019898  0.42110539  1
  O  O7  1  0.98760853  0.97521706  0.00007357  1
  O  O8  1  0.18179615  0.36359229  0.95981273  1
  O  O9  1  0.79589759  0.59179518  0.06949893  1
  O  O10  1  0.37085235  0.74170471  0.92771290  1
  O  O11  1  0.61489212  0.22978424  0.07892675  1
  O  O12  1  0.59989635  0.19979270  0.77317933  1
  O  O13  1  0.39803062  0.79606125  0.23153135  1
  O  O14  1  0.76838886  0.53677771  0.80157045  1
  O  O15  1  0.22760801  0.45521602  0.23818616  1
  O  O16  1  0.92502306  0.85004612  0.72246797  1
  O  O17  1  0.05693215  0.11386429  0.26888203  1
  O  O18  1  0.68707079  0.37414158  0.43948218  1
  O  O19  1  0.14446876  0.28893753  0.57997044  1
  O  O20  1  0.51210191  0.02420382  0.51423630  1
  O  O21  1  0.31871763  0.63743526  0.48591498  1
