# generated using pymatgen
data_VCuBi2O7
_symmetry_space_group_name_H-M   'P 1'
_cell_length_a   6.07182919
_cell_length_b   7.25333644
_cell_length_c   7.83770262
_cell_angle_alpha   89.88332252
_cell_angle_beta   107.42344013
_cell_angle_gamma   107.71684330
_symmetry_Int_Tables_number   1
_chemical_formula_structural   VCuBi2O7
_chemical_formula_sum   'V2 Cu2 Bi4 O14'
_cell_volume   312.21210814
_cell_formula_units_Z   2
loop_
 _symmetry_equiv_pos_site_id
 _symmetry_equiv_pos_as_xyz
  1  'x, y, z'
loop_
 _atom_site_type_symbol
 _atom_site_label
 _atom_site_symmetry_multiplicity
 _atom_site_fract_x
 _atom_site_fract_y
 _atom_site_fract_z
 _atom_site_occupancy
  V  V0  1  0.89771762  0.72351245  0.07302290  1
  V  V1  1  0.10228238  0.27648755  0.92697710  1
  Cu  Cu2  1  -0.00000000  0.50000000  0.50000000  1
  Cu  Cu3  1  -0.00000000  0.00000000  0.50000000  1
  Bi  Bi4  1  0.47234751  0.86809145  0.70617354  1
  Bi  Bi5  1  0.52765249  0.13190855  0.29382646  1
  Bi  Bi6  1  0.51896692  0.37882732  0.72304643  1
  Bi  Bi7  1  0.48103308  0.62117268  0.27695357  1
  O  O8  1  0.76757830  0.50064789  0.13860021  1
  O  O9  1  0.23242170  0.49935211  0.86139979  1
  O  O10  1  0.76994468  0.87609695  0.14790165  1
  O  O11  1  0.23005532  0.12390305  0.85209835  1
  O  O12  1  0.22233834  0.80241515  0.16883340  1
  O  O13  1  0.77766166  0.19758485  0.83116660  1
  O  O14  1  0.77920200  0.69601466  0.83490269  1
  O  O15  1  0.22079800  0.30398534  0.16509731  1
  O  O16  1  0.32771139  0.57772756  0.51803692  1
  O  O17  1  0.67228861  0.42227244  0.48196308  1
  O  O18  1  0.05122110  0.76296254  0.57138935  1
  O  O19  1  0.94877890  0.23703746  0.42861065  1
  O  O20  1  0.33447663  0.08811958  0.51549393  1
  O  O21  1  0.66552337  0.91188042  0.48450607  1
