# generated using pymatgen
data_BeGaH5
_symmetry_space_group_name_H-M   'P 1'
_cell_length_a   6.21335936
_cell_length_b   8.53202266
_cell_length_c   15.05098166
_cell_angle_alpha   93.74188780
_cell_angle_beta   90.00000000
_cell_angle_gamma   90.00000000
_symmetry_Int_Tables_number   1
_chemical_formula_structural   BeGaH5
_chemical_formula_sum   'Be8 Ga8 H40'
_cell_volume   796.18954545
_cell_formula_units_Z   8
loop_
 _symmetry_equiv_pos_site_id
 _symmetry_equiv_pos_as_xyz
  1  'x, y, z'
loop_
 _atom_site_type_symbol
 _atom_site_label
 _atom_site_symmetry_multiplicity
 _atom_site_fract_x
 _atom_site_fract_y
 _atom_site_fract_z
 _atom_site_occupancy
  Be  Be0  1  0.63572455  0.20731550  0.46964712  1
  Be  Be1  1  0.86427545  0.70731550  0.96964712  1
  Be  Be2  1  0.36427545  0.79268450  0.53035288  1
  Be  Be3  1  0.13572455  0.29268450  0.03035288  1
  Be  Be4  1  0.09203366  0.57990327  0.53346298  1
  Be  Be5  1  0.40796634  0.07990327  0.03346298  1
  Be  Be6  1  0.90796634  0.42009773  0.46653702  1
  Be  Be7  1  0.59203366  0.92009673  0.96653702  1
  Ga  Ga8  1  0.64799849  0.37722927  0.31966182  1
  Ga  Ga9  1  0.85200151  0.87722927  0.81966182  1
  Ga  Ga10  1  0.35200151  0.62277073  0.68033818  1
  Ga  Ga11  1  0.14799849  0.12277073  0.18033818  1
  Ga  Ga12  1  0.90591987  0.40064895  0.88164616  1
  Ga  Ga13  1  0.59408013  0.90064895  0.38164616  1
  Ga  Ga14  1  0.09408013  0.59935105  0.11835384  1
  Ga  Ga15  1  0.40591987  0.09935105  0.61835384  1
  H  H16  1  0.20830487  0.17768536  0.66473707  1
  H  H17  1  0.29169513  0.67768536  0.16473707  1
  H  H18  1  0.79169513  0.82231464  0.33526293  1
  H  H19  1  0.70830487  0.32231464  0.83526293  1
  H  H20  1  0.27762639  0.74452385  0.75504383  1
  H  H21  1  0.22237361  0.24452385  0.25504383  1
  H  H22  1  0.72237361  0.25547615  0.24495617  1
  H  H23  1  0.77762639  0.75547615  0.74495617  1
  H  H24  1  0.11928348  0.45502348  0.84056449  1
  H  H25  1  0.38071652  0.95502348  0.34056449  1
  H  H26  1  0.88071652  0.54497652  0.15943551  1
  H  H27  1  0.61928348  0.04497652  0.65943551  1
  H  H28  1  0.46060603  0.21406235  0.53364500  1
  H  H29  1  0.03939397  0.71406235  0.03364500  1
  H  H30  1  0.53939397  0.78593765  0.46635500  1
  H  H31  1  0.96060603  0.28593765  0.96635500  1
  H  H32  1  0.79157996  0.54924297  0.94614105  1
  H  H33  1  0.70842004  0.04924297  0.44614105  1
  H  H34  1  0.20842004  0.45075703  0.05385895  1
  H  H35  1  0.29157996  0.95075703  0.55385895  1
  H  H36  1  0.85892362  0.56845870  0.51758715  1
  H  H37  1  0.64107638  0.06845870  0.01758715  1
  H  H38  1  0.14107638  0.43154130  0.48241285  1
  H  H39  1  0.35892362  0.93154130  0.98241285  1
  H  H40  1  0.87855681  0.43486909  0.37209337  1
  H  H41  1  0.62144419  0.93486909  0.87209337  1
  H  H42  1  0.12144319  0.56513091  0.62790663  1
  H  H43  1  0.37855681  0.06513091  0.12790663  1
  H  H44  1  0.82266709  0.28584785  0.50714051  1
  H  H45  1  0.67733291  0.78584785  0.00714051  1
  H  H46  1  0.17733291  0.71415215  0.49285949  1
  H  H47  1  0.32266709  0.21415215  0.99285949  1
  H  H48  1  0.49365234  0.47597596  0.68739873  1
  H  H49  1  0.00634766  0.97597596  0.18739873  1
  H  H50  1  0.50634766  0.52402404  0.31260127  1
  H  H51  1  0.99365234  0.02402404  0.81260127  1
  H  H52  1  0.52342613  0.27593297  0.39758502  1
  H  H53  1  0.97657387  0.77593297  0.89758502  1
  H  H54  1  0.47657387  0.72406703  0.60241498  1
  H  H55  1  0.02342613  0.22406703  0.10241498  1
