# generated using pymatgen
data_CsNiF3
_symmetry_space_group_name_H-M   'P 1'
_cell_length_a   6.10919972
_cell_length_b   6.10919972
_cell_length_c   14.71554862
_cell_angle_alpha   90.00000000
_cell_angle_beta   90.00000000
_cell_angle_gamma   120.00070561
_symmetry_Int_Tables_number   1
_chemical_formula_structural   CsNiF3
_chemical_formula_sum   'Cs6 Ni6 F18'
_cell_volume   475.63373231
_cell_formula_units_Z   6
loop_
 _symmetry_equiv_pos_site_id
 _symmetry_equiv_pos_as_xyz
  1  'x, y, z'
loop_
 _atom_site_type_symbol
 _atom_site_label
 _atom_site_symmetry_multiplicity
 _atom_site_fract_x
 _atom_site_fract_y
 _atom_site_fract_z
 _atom_site_occupancy
  Cs  Cs0  1  0.00000091  -0.00000091  0.75000000  1
  Cs  Cs1  1  -0.00000091  0.00000091  0.25000000  1
  Cs  Cs2  1  0.66666693  0.33333307  0.59396553  1
  Cs  Cs3  1  0.33333307  0.66666693  0.40603447  1
  Cs  Cs4  1  0.33333307  0.66666693  0.09396553  1
  Cs  Cs5  1  0.66666693  0.33333307  0.90603447  1
  Ni  Ni6  1  0.00000000  -0.00000000  0.50000000  1
  Ni  Ni7  1  0.00000000  -0.00000000  -0.00000000  1
  Ni  Ni8  1  0.66666333  0.33333667  0.34639009  1
  Ni  Ni9  1  0.33333667  0.66666333  0.65360991  1
  Ni  Ni10  1  0.33333667  0.66666333  0.84639009  1
  Ni  Ni11  1  0.66666333  0.33333667  0.15360991  1
  F  F12  1  0.47553185  0.95105982  0.75000000  1
  F  F13  1  0.47552981  0.52447019  0.75000000  1
  F  F14  1  0.04894018  0.52446815  0.75000000  1
  F  F15  1  0.52446815  0.04894018  0.25000000  1
  F  F16  1  0.52447019  0.47552981  0.25000000  1
  F  F17  1  0.95105982  0.47553185  0.25000000  1
  F  F18  1  0.16560131  0.33120200  0.57907847  1
  F  F19  1  0.16559743  0.83440257  0.57907739  1
  F  F20  1  0.66879800  0.83439869  0.57907847  1
  F  F21  1  0.83439869  0.66879800  0.42092153  1
  F  F22  1  0.83440257  0.16559743  0.42092261  1
  F  F23  1  0.33120200  0.16560131  0.42092153  1
  F  F24  1  0.83439869  0.66879800  0.07907847  1
  F  F25  1  0.83440257  0.16559743  0.07907739  1
  F  F26  1  0.33120200  0.16560131  0.07907847  1
  F  F27  1  0.16560131  0.33120200  0.92092153  1
  F  F28  1  0.16559743  0.83440257  0.92092261  1
  F  F29  1  0.66879800  0.83439869  0.92092153  1
