# generated using pymatgen
data_Fe2H10S2O11
_symmetry_space_group_name_H-M   'P 1'
_cell_length_a   9.62913248
_cell_length_b   9.62913248
_cell_length_c   10.53381490
_cell_angle_alpha   90.00000000
_cell_angle_beta   90.00000000
_cell_angle_gamma   90.00000000
_symmetry_Int_Tables_number   1
_chemical_formula_structural   Fe2H10S2O11
_chemical_formula_sum   'Fe8 H40 S8 O44'
_cell_volume   976.69734336
_cell_formula_units_Z   4
loop_
 _symmetry_equiv_pos_site_id
 _symmetry_equiv_pos_as_xyz
  1  'x, y, z'
loop_
 _atom_site_type_symbol
 _atom_site_label
 _atom_site_symmetry_multiplicity
 _atom_site_fract_x
 _atom_site_fract_y
 _atom_site_fract_z
 _atom_site_occupancy
  Fe  Fe0  1  0.63376848  0.33322950  0.47623928  1
  Fe  Fe1  1  0.36623152  0.66677050  0.97623928  1
  Fe  Fe2  1  0.83322950  0.86623152  0.22623928  1
  Fe  Fe3  1  0.16677050  0.13376848  0.72623928  1
  Fe  Fe4  1  0.66677050  0.36623152  0.02376072  1
  Fe  Fe5  1  0.33322950  0.63376848  0.52376072  1
  Fe  Fe6  1  0.86623152  0.83322950  0.77376072  1
  Fe  Fe7  1  0.13376848  0.16677050  0.27376072  1
  H  H8  1  0.48091196  0.13552287  0.60484933  1
  H  H9  1  0.51908804  0.86447713  0.10484933  1
  H  H10  1  0.63552287  0.01908804  0.35484933  1
  H  H11  1  0.36447713  0.98091196  0.85484933  1
  H  H12  1  0.86447713  0.51908804  0.89515067  1
  H  H13  1  0.13552287  0.48091196  0.39515067  1
  H  H14  1  0.01908804  0.63552287  0.64515067  1
  H  H15  1  0.98091196  0.36447713  0.14515067  1
  H  H16  1  0.64216746  0.10261771  0.62941370  1
  H  H17  1  0.35783254  0.89738229  0.12941370  1
  H  H18  1  0.60261771  0.85783254  0.37941370  1
  H  H19  1  0.39738229  0.14216746  0.87941370  1
  H  H20  1  0.89738229  0.35783254  0.87058630  1
  H  H21  1  0.10261771  0.64216746  0.37058630  1
  H  H22  1  0.85783254  0.60261771  0.62058630  1
  H  H23  1  0.14216746  0.39738229  0.12058630  1
  H  H24  1  0.72902444  0.44484961  0.71454740  1
  H  H25  1  0.27097556  0.55515039  0.21454740  1
  H  H26  1  0.94484961  0.77097556  0.46454740  1
  H  H27  1  0.05515039  0.22902444  0.96454740  1
  H  H28  1  0.55515039  0.27097556  0.78545260  1
  H  H29  1  0.44484961  0.72902444  0.28545260  1
  H  H30  1  0.77097556  0.94484961  0.53545260  1
  H  H31  1  0.22902444  0.05515039  0.03545260  1
  H  H32  1  0.87812760  0.04583066  0.60660549  1
  H  H33  1  0.12187240  0.95416934  0.10660549  1
  H  H34  1  0.54583066  0.62187240  0.35660549  1
  H  H35  1  0.45416934  0.37812760  0.85660549  1
  H  H36  1  0.95416934  0.12187240  0.89339451  1
  H  H37  1  0.04583066  0.87812760  0.39339451  1
  H  H38  1  0.62187240  0.54583066  0.64339451  1
  H  H39  1  0.37812760  0.45416934  0.14339451  1
  H  H40  1  0.86867906  0.14309439  0.32584528  1
  H  H41  1  0.13132094  0.85690561  0.82584528  1
  H  H42  1  0.64309439  0.63132094  0.07584528  1
  H  H43  1  0.35690561  0.36867906  0.57584528  1
  H  H44  1  0.85690561  0.13132094  0.17415472  1
  H  H45  1  0.14309439  0.86867906  0.67415472  1
  H  H46  1  0.63132094  0.64309439  0.92415472  1
  H  H47  1  0.36867906  0.35690561  0.42415472  1
  S  S48  1  0.96218881  0.29550931  0.52445381  1
  S  S49  1  0.03781119  0.70449069  0.02445381  1
  S  S50  1  0.79550931  0.53781119  0.27445381  1
  S  S51  1  0.20449069  0.46218881  0.77445381  1
  S  S52  1  0.70449069  0.03781119  0.97554619  1
  S  S53  1  0.29550931  0.96218881  0.47554619  1
  S  S54  1  0.53781119  0.79550931  0.72554619  1
  S  S55  1  0.46218881  0.20449069  0.22554619  1
  O  O56  1  0.57260227  0.18737593  0.33027957  1
  O  O57  1  0.42739773  0.81262407  0.83027957  1
  O  O58  1  0.68737593  0.92739773  0.08027957  1
  O  O59  1  0.31262407  0.07260227  0.58027957  1
  O  O60  1  0.81262407  0.42739773  0.16972043  1
  O  O61  1  0.18737593  0.57260227  0.66972043  1
  O  O62  1  0.92739773  0.68737593  0.91972043  1
  O  O63  1  0.07260227  0.31262407  0.41972043  1
  O  O64  1  0.83102583  0.24128316  0.45381452  1
  O  O65  1  0.16897417  0.75871684  0.95381452  1
  O  O66  1  0.74128316  0.66897417  0.20381452  1
  O  O67  1  0.25871684  0.33102583  0.70381452  1
  O  O68  1  0.75871684  0.16897417  0.04618548  1
  O  O69  1  0.24128316  0.83102583  0.54618548  1
  O  O70  1  0.66897417  0.74128316  0.79618548  1
  O  O71  1  0.33102583  0.25871684  0.29618548  1
  O  O72  1  0.66386845  0.49705345  0.35196487  1
  O  O73  1  0.33613155  0.50294655  0.85196487  1
  O  O74  1  0.99705345  0.83613155  0.10196487  1
  O  O75  1  0.00294655  0.16386845  0.60196487  1
  O  O76  1  0.50294655  0.33613155  0.14803513  1
  O  O77  1  0.49705345  0.66386845  0.64803513  1
  O  O78  1  0.83613155  0.99705345  0.89803513  1
  O  O79  1  0.16386845  0.00294655  0.39803513  1
  O  O80  1  0.57389203  0.17910839  0.62374152  1
  O  O81  1  0.42610797  0.82089161  0.12374152  1
  O  O82  1  0.67910839  0.92610797  0.37374152  1
  O  O83  1  0.32089161  0.07389203  0.87374152  1
  O  O84  1  0.82089161  0.42610797  0.87625848  1
  O  O85  1  0.17910839  0.57389203  0.37625848  1
  O  O86  1  0.92610797  0.67910839  0.62625848  1
  O  O87  1  0.07389203  0.32089161  0.12625848  1
  O  O88  1  0.69826120  0.47558644  0.62968616  1
  O  O89  1  0.30173880  0.52441356  0.12968616  1
  O  O90  1  0.97558644  0.80173880  0.37968616  1
  O  O91  1  0.02441356  0.19826120  0.87968616  1
  O  O92  1  0.52441356  0.30173880  0.87031384  1
  O  O93  1  0.47558644  0.69826120  0.37031384  1
  O  O94  1  0.80173880  0.97558644  0.62031384  1
  O  O95  1  0.19826120  0.02441356  0.12031384  1
  O  O96  1  0.90788368  0.09211632  0.25000000  1
  O  O97  1  0.09211632  0.90788368  0.75000000  1
  O  O98  1  0.59211632  0.59211632  0.00000000  1
  O  O99  1  0.40788368  0.40788368  0.50000000  1
