# generated using pymatgen
data_Hg3Te2SeO10
_symmetry_space_group_name_H-M   'P 1'
_cell_length_a   5.58303498
_cell_length_b   8.65862412
_cell_length_c   11.36849129
_cell_angle_alpha   109.22982081
_cell_angle_beta   90.00000000
_cell_angle_gamma   90.00000000
_symmetry_Int_Tables_number   1
_chemical_formula_structural   Hg3Te2SeO10
_chemical_formula_sum   'Hg6 Te4 Se2 O20'
_cell_volume   518.90565086
_cell_formula_units_Z   2
loop_
 _symmetry_equiv_pos_site_id
 _symmetry_equiv_pos_as_xyz
  1  'x, y, z'
loop_
 _atom_site_type_symbol
 _atom_site_label
 _atom_site_symmetry_multiplicity
 _atom_site_fract_x
 _atom_site_fract_y
 _atom_site_fract_z
 _atom_site_occupancy
  Hg  Hg0  1  0.08010960  0.68303052  0.29798218  1
  Hg  Hg1  1  0.58010960  0.31696948  0.70201782  1
  Hg  Hg2  1  0.09547660  0.98950038  0.11583823  1
  Hg  Hg3  1  0.59547660  0.01049962  0.88416177  1
  Hg  Hg4  1  0.08096370  0.99203817  0.62786317  1
  Hg  Hg5  1  0.58096370  0.00796183  0.37213683  1
  Te  Te6  1  0.60256478  0.70719128  0.05698462  1
  Te  Te7  1  0.10256478  0.29280872  0.94301538  1
  Te  Te8  1  0.06726717  0.27206900  0.44750021  1
  Te  Te9  1  0.56726717  0.72793100  0.55249979  1
  Se  Se10  1  0.08075221  0.64427745  0.78253307  1
  Se  Se11  1  0.58075221  0.35572255  0.21746693  1
  O  O12  1  0.27912079  0.14676279  0.51453147  1
  O  O13  1  0.77912079  0.85323721  0.48546853  1
  O  O14  1  0.73639499  0.88262500  0.01200995  1
  O  O15  1  0.23639499  0.11737500  0.98799005  1
  O  O16  1  0.25582010  0.75039331  0.90096608  1
  O  O17  1  0.75582010  0.24960669  0.09903392  1
  O  O18  1  0.40524298  0.84304562  0.19160974  1
  O  O19  1  0.90524298  0.15695438  0.80839026  1
  O  O20  1  0.95319989  0.08809767  0.31392432  1
  O  O21  1  0.45319989  0.91190233  0.68607568  1
  O  O22  1  0.91716472  0.76861026  0.72563711  1
  O  O23  1  0.41716472  0.23138974  0.27436289  1
  O  O24  1  0.25554291  0.52580996  0.66545563  1
  O  O25  1  0.75554291  0.47419004  0.33454437  1
  O  O26  1  0.89301995  0.52506763  0.83131536  1
  O  O27  1  0.39301995  0.47493237  0.16868464  1
  O  O28  1  0.78961554  0.24468878  0.53773486  1
  O  O29  1  0.28961554  0.75531122  0.46226514  1
  O  O30  1  0.89164408  0.69955458  0.14278719  1
  O  O31  1  0.39164408  0.30044542  0.85721281  1
