# generated using pymatgen
data_Tb2FeSi4
_symmetry_space_group_name_H-M   'P 1'
_cell_length_a   4.05857281
_cell_length_b   4.05149590
_cell_length_c   8.16503573
_cell_angle_alpha   75.63487287
_cell_angle_beta   90.00000000
_cell_angle_gamma   90.00000000
_symmetry_Int_Tables_number   1
_chemical_formula_structural   Tb2FeSi4
_chemical_formula_sum   'Tb2 Fe1 Si4'
_cell_volume   130.06233082
_cell_formula_units_Z   1
loop_
 _symmetry_equiv_pos_site_id
 _symmetry_equiv_pos_as_xyz
  1  'x, y, z'
loop_
 _atom_site_type_symbol
 _atom_site_label
 _atom_site_symmetry_multiplicity
 _atom_site_fract_x
 _atom_site_fract_y
 _atom_site_fract_z
 _atom_site_occupancy
  Tb  Tb0  1  0.25000000  0.60804046  0.78391909  1
  Tb  Tb1  1  0.75000000  0.38924534  0.22150931  1
  Fe  Fe2  1  0.25000000  0.24795812  0.50408375  1
  Si  Si3  1  0.25000000  0.80600091  0.38799819  1
  Si  Si4  1  0.75000000  0.19547556  0.60904887  1
  Si  Si5  1  0.25000000  0.96194272  0.07611456  1
  Si  Si6  1  0.75000000  0.04133688  0.91732623  1
