# generated using pymatgen
data_Tm2PbSe4
_symmetry_space_group_name_H-M   'P 1'
_cell_length_a   4.09974561
_cell_length_b   12.56585708
_cell_length_c   14.96122171
_cell_angle_alpha   90.00000000
_cell_angle_beta   90.00000000
_cell_angle_gamma   90.00000000
_symmetry_Int_Tables_number   1
_chemical_formula_structural   Tm2PbSe4
_chemical_formula_sum   'Tm8 Pb4 Se16'
_cell_volume   770.75452691
_cell_formula_units_Z   4
loop_
 _symmetry_equiv_pos_site_id
 _symmetry_equiv_pos_as_xyz
  1  'x, y, z'
loop_
 _atom_site_type_symbol
 _atom_site_label
 _atom_site_symmetry_multiplicity
 _atom_site_fract_x
 _atom_site_fract_y
 _atom_site_fract_z
 _atom_site_occupancy
  Tm  Tm0  1  0.25000000  0.57254005  0.10025727  1
  Tm  Tm1  1  0.25000000  0.07254005  0.39974273  1
  Tm  Tm2  1  0.75000000  0.42745995  0.89974273  1
  Tm  Tm3  1  0.75000000  0.92745995  0.60025727  1
  Tm  Tm4  1  0.25000000  0.57154659  0.60688823  1
  Tm  Tm5  1  0.25000000  0.07154659  0.89311177  1
  Tm  Tm6  1  0.75000000  0.42845341  0.39311177  1
  Tm  Tm7  1  0.75000000  0.92845341  0.10688823  1
  Pb  Pb8  1  0.25000000  0.72859983  0.83677678  1
  Pb  Pb9  1  0.25000000  0.22859983  0.66322322  1
  Pb  Pb10  1  0.75000000  0.27140017  0.16322322  1
  Pb  Pb11  1  0.75000000  0.77140017  0.33677678  1
  Se  Se12  1  0.25000000  0.86592187  0.47870932  1
  Se  Se13  1  0.25000000  0.36592187  0.02129068  1
  Se  Se14  1  0.75000000  0.13407813  0.52129068  1
  Se  Se15  1  0.75000000  0.63407813  0.97870932  1
  Se  Se16  1  0.25000000  0.78302507  0.17317129  1
  Se  Se17  1  0.25000000  0.28302507  0.32682871  1
  Se  Se18  1  0.75000000  0.21697493  0.82682871  1
  Se  Se19  1  0.75000000  0.71697493  0.67317129  1
  Se  Se20  1  0.25000000  0.58099750  0.41870424  1
  Se  Se21  1  0.25000000  0.08099750  0.08129576  1
  Se  Se22  1  0.75000000  0.41900250  0.58129576  1
  Se  Se23  1  0.75000000  0.91900250  0.91870424  1
  Se  Se24  1  0.25000000  0.49433297  0.78707410  1
  Se  Se25  1  0.25000000  0.99433297  0.71292590  1
  Se  Se26  1  0.75000000  0.50566703  0.21292590  1
  Se  Se27  1  0.75000000  0.00566703  0.28707410  1
