# generated using pymatgen
data_CoH12C2(Br2N)2
_symmetry_space_group_name_H-M   'P 1'
_cell_length_a   8.20443335
_cell_length_b   11.59902421
_cell_length_c   13.40930514
_cell_angle_alpha   90.00000000
_cell_angle_beta   90.00000000
_cell_angle_gamma   96.37024295
_symmetry_Int_Tables_number   1
_chemical_formula_structural   CoH12C2(Br2N)2
_chemical_formula_sum   'Co4 H48 C8 Br16 N8'
_cell_volume   1268.19645060
_cell_formula_units_Z   4
loop_
 _symmetry_equiv_pos_site_id
 _symmetry_equiv_pos_as_xyz
  1  'x, y, z'
loop_
 _atom_site_type_symbol
 _atom_site_label
 _atom_site_symmetry_multiplicity
 _atom_site_fract_x
 _atom_site_fract_y
 _atom_site_fract_z
 _atom_site_occupancy
  Co  Co0  1  0.26758471  0.22843499  0.56224512  1
  Co  Co1  1  0.73241529  0.27156501  0.06224512  1
  Co  Co2  1  0.73241529  0.77156501  0.43775488  1
  Co  Co3  1  0.26758471  0.72843499  0.93775488  1
  H  H4  1  0.72042371  0.46089854  0.77628185  1
  H  H5  1  0.27957629  0.03910146  0.27628185  1
  H  H6  1  0.27957629  0.53910146  0.22371815  1
  H  H7  1  0.72042371  0.96089854  0.72371815  1
  H  H8  1  0.71568685  0.57632875  0.69952378  1
  H  H9  1  0.28431315  0.92367125  0.19952378  1
  H  H10  1  0.28431315  0.42367125  0.30047622  1
  H  H11  1  0.71568685  0.07632875  0.80047622  1
  H  H12  1  0.58174198  0.45781552  0.68385381  1
  H  H13  1  0.41825802  0.04218448  0.18385381  1
  H  H14  1  0.41825802  0.54218448  0.31614619  1
  H  H15  1  0.58174198  0.95781552  0.81614619  1
  H  H16  1  0.19902189  0.91662485  0.66284566  1
  H  H17  1  0.80097811  0.58337515  0.16284566  1
  H  H18  1  0.80097811  0.08337515  0.33715434  1
  H  H19  1  0.19902189  0.41662485  0.83715434  1
  H  H20  1  0.32563646  0.91729421  0.56621879  1
  H  H21  1  0.67436354  0.58270579  0.06621879  1
  H  H22  1  0.67436354  0.08270579  0.43378121  1
  H  H23  1  0.32563646  0.41729421  0.93378121  1
  H  H24  1  0.12534881  0.88044306  0.54861063  1
  H  H25  1  0.87465119  0.61955694  0.04861063  1
  H  H26  1  0.87465119  0.11955694  0.45138937  1
  H  H27  1  0.12534881  0.38044306  0.95138937  1
  H  H28  1  0.19399981  0.15663589  0.14122878  1
  H  H29  1  0.80600019  0.34336411  0.64122878  1
  H  H30  1  0.80600019  0.84336411  0.85877122  1
  H  H31  1  0.19399981  0.65663589  0.35877122  1
  H  H32  1  0.20221844  0.03361584  0.05972229  1
  H  H33  1  0.79778156  0.46638416  0.55972229  1
  H  H34  1  0.79778156  0.96638416  0.94027771  1
  H  H35  1  0.20221844  0.53361584  0.44027771  1
  H  H36  1  0.05352994  0.02875521  0.15806437  1
  H  H37  1  0.94647006  0.47124479  0.65806437  1
  H  H38  1  0.94647006  0.97124479  0.84193563  1
  H  H39  1  0.05352994  0.52875521  0.34193563  1
  H  H40  1  0.13829500  0.71089526  0.66139379  1
  H  H41  1  0.86170500  0.78910474  0.16139379  1
  H  H42  1  0.86170500  0.28910474  0.33860621  1
  H  H43  1  0.13829500  0.21089526  0.83860621  1
  H  H44  1  0.25110309  0.70527377  0.54685120  1
  H  H45  1  0.74889691  0.79472623  0.04685120  1
  H  H46  1  0.74889691  0.29472623  0.45314880  1
  H  H47  1  0.25110309  0.20527377  0.95314880  1
  H  H48  1  0.35692147  0.74582936  0.66013899  1
  H  H49  1  0.64307853  0.75417064  0.16013899  1
  H  H50  1  0.64307853  0.25417064  0.33986101  1
  H  H51  1  0.35692147  0.24582936  0.83986101  1
  C  C52  1  0.17816644  0.06192156  0.13563751  1
  C  C53  1  0.82183356  0.43807844  0.63563751  1
  C  C54  1  0.82183356  0.93807844  0.86436249  1
  C  C55  1  0.17816644  0.56192156  0.36436249  1
  C  C56  1  0.24337974  0.74962476  0.61815868  1
  C  C57  1  0.75662026  0.75037524  0.11815868  1
  C  C58  1  0.75662026  0.25037524  0.38184132  1
  C  C59  1  0.24337974  0.24962476  0.88184132  1
  Br  Br60  1  0.01424225  0.12592044  0.61974205  1
  Br  Br61  1  0.98575775  0.37407956  0.11974205  1
  Br  Br62  1  0.98575775  0.87407956  0.38025795  1
  Br  Br63  1  0.01424225  0.62592044  0.88025795  1
  Br  Br64  1  0.30753742  0.42030652  0.63456336  1
  Br  Br65  1  0.69246258  0.07969348  0.13456336  1
  Br  Br66  1  0.69246258  0.57969348  0.36543664  1
  Br  Br67  1  0.30753742  0.92030652  0.86543664  1
  Br  Br68  1  0.24476856  0.23333735  0.38270609  1
  Br  Br69  1  0.75523144  0.26666265  0.88270609  1
  Br  Br70  1  0.75523144  0.76666265  0.61729391  1
  Br  Br71  1  0.24476856  0.73333735  0.11729391  1
  Br  Br72  1  0.49596503  0.12770451  0.60795814  1
  Br  Br73  1  0.50403497  0.37229549  0.10795814  1
  Br  Br74  1  0.50403497  0.87229549  0.39204186  1
  Br  Br75  1  0.49596503  0.62770451  0.89204186  1
  N  N76  1  0.70300722  0.48609297  0.70365684  1
  N  N77  1  0.29699278  0.01390703  0.20365684  1
  N  N78  1  0.29699278  0.51390703  0.29634316  1
  N  N79  1  0.70300722  0.98609297  0.79634316  1
  N  N80  1  0.22158891  0.87328788  0.59797406  1
  N  N81  1  0.77841109  0.62671212  0.09797406  1
  N  N82  1  0.77841109  0.12671212  0.40202594  1
  N  N83  1  0.22158891  0.37328788  0.90202594  1
