# generated using pymatgen
data_Lu2S3
_symmetry_space_group_name_H-M   'P 1'
_cell_length_a   6.74086481
_cell_length_b   6.74094817
_cell_length_c   18.44071203
_cell_angle_alpha   90.00000000
_cell_angle_beta   90.00000000
_cell_angle_gamma   119.99958828
_symmetry_Int_Tables_number   1
_chemical_formula_structural   Lu2S3
_chemical_formula_sum   'Lu12 S18'
_cell_volume   725.68262466
_cell_formula_units_Z   6
loop_
 _symmetry_equiv_pos_site_id
 _symmetry_equiv_pos_as_xyz
  1  'x, y, z'
loop_
 _atom_site_type_symbol
 _atom_site_label
 _atom_site_symmetry_multiplicity
 _atom_site_fract_x
 _atom_site_fract_y
 _atom_site_fract_z
 _atom_site_occupancy
  Lu  Lu0  1  0.00001366  0.00000000  0.45785545  1
  Lu  Lu1  1  0.99998634  1.00000000  0.95785545  1
  Lu  Lu2  1  0.00001445  1.00000000  0.15895412  1
  Lu  Lu3  1  0.99998555  0.00000000  0.65895412  1
  Lu  Lu4  1  0.66667655  0.33332895  0.49041902  1
  Lu  Lu5  1  0.33334760  0.66667105  0.49041902  1
  Lu  Lu6  1  0.33332345  0.66667105  0.99041902  1
  Lu  Lu7  1  0.66665240  0.33332895  0.99041902  1
  Lu  Lu8  1  0.66668766  0.33333381  0.29215197  1
  Lu  Lu9  1  0.33335385  0.66666619  0.29215197  1
  Lu  Lu10  1  0.33331234  0.66666619  0.79215197  1
  Lu  Lu11  1  0.66664615  0.33333381  0.79215197  1
  S  S12  1  0.63459385  1.00000000  0.39483710  1
  S  S13  1  0.36543049  0.36542146  0.39483706  1
  S  S14  1  0.00000903  0.63457854  0.39483706  1
  S  S15  1  0.36540615  0.00000000  0.89483710  1
  S  S16  1  0.63456951  0.63457854  0.89483706  1
  S  S17  1  0.99999097  0.36542146  0.89483706  1
  S  S18  1  0.69683915  0.00000000  0.05328607  1
  S  S19  1  0.30314937  0.30315990  0.05328160  1
  S  S20  1  0.99998947  0.69684010  0.05328160  1
  S  S21  1  0.30316085  1.00000000  0.55328607  1
  S  S22  1  0.69685063  0.69684010  0.55328160  1
  S  S23  1  0.00001053  0.30315990  0.55328160  1
  S  S24  1  0.34365361  0.00000000  0.22222915  1
  S  S25  1  0.65638652  0.65636538  0.22222940  1
  S  S26  1  0.00002114  0.34363462  0.22222940  1
  S  S27  1  0.65634639  1.00000000  0.72222915  1
  S  S28  1  0.34361348  0.34363462  0.72222940  1
  S  S29  1  0.99997886  0.65636538  0.72222940  1
