# generated using pymatgen
data_SiBr2
_symmetry_space_group_name_H-M   'P 1'
_cell_length_a   10.38536939
_cell_length_b   10.77583139
_cell_length_c   14.75220765
_cell_angle_alpha   107.44391029
_cell_angle_beta   90.00000000
_cell_angle_gamma   118.80842138
_symmetry_Int_Tables_number   1
_chemical_formula_structural   SiBr2
_chemical_formula_sum   'Si12 Br24'
_cell_volume   1359.31749275
_cell_formula_units_Z   12
loop_
 _symmetry_equiv_pos_site_id
 _symmetry_equiv_pos_as_xyz
  1  'x, y, z'
loop_
 _atom_site_type_symbol
 _atom_site_label
 _atom_site_symmetry_multiplicity
 _atom_site_fract_x
 _atom_site_fract_y
 _atom_site_fract_z
 _atom_site_occupancy
  Si  Si0  1  0.75650544  0.30942042  0.42186808  1
  Si  Si1  1  0.44708502  0.69057958  0.07813192  1
  Si  Si2  1  0.24349456  0.69057958  0.57813192  1
  Si  Si3  1  0.55291498  0.30942042  0.92186808  1
  Si  Si4  1  0.82154090  0.56581765  0.49554240  1
  Si  Si5  1  0.25572326  0.43418235  0.00445760  1
  Si  Si6  1  0.17845910  0.43418235  0.50445760  1
  Si  Si7  1  0.74427674  0.56581765  0.99554240  1
  Si  Si8  1  0.92193553  0.25350218  0.49067815  1
  Si  Si9  1  0.66843335  0.74649782  0.00932185  1
  Si  Si10  1  0.07806447  0.74649782  0.50932185  1
  Si  Si11  1  0.33156665  0.25350218  0.99067815  1
  Br  Br12  1  0.76914307  0.27165442  0.26557941  1
  Br  Br13  1  0.49748865  0.72834558  0.23442059  1
  Br  Br14  1  0.23085693  0.72834558  0.73442059  1
  Br  Br15  1  0.50251135  0.27165442  0.76557941  1
  Br  Br16  1  0.67922881  0.60910495  0.41102967  1
  Br  Br17  1  0.07012386  0.39089505  0.08897033  1
  Br  Br18  1  0.32077119  0.39089505  0.58897033  1
  Br  Br19  1  0.92987614  0.60910495  0.91102967  1
  Br  Br20  1  0.77721846  0.59927149  0.64667983  1
  Br  Br21  1  0.17794697  0.40072851  0.85332017  1
  Br  Br22  1  0.22278154  0.40072851  0.35332017  1
  Br  Br23  1  0.82205303  0.59927149  0.14667983  1
  Br  Br24  1  0.87093165  0.25131568  0.63774817  1
  Br  Br25  1  0.61961597  0.74868432  0.86225183  1
  Br  Br26  1  0.12906835  0.74868432  0.36225183  1
  Br  Br27  1  0.38038403  0.25131568  0.13774817  1
  Br  Br28  1  0.88489549  0.02887443  0.40032849  1
  Br  Br29  1  0.85602107  0.97112557  0.09967151  1
  Br  Br30  1  0.11510451  0.97112557  0.59967151  1
  Br  Br31  1  0.14397893  0.02887443  0.90032849  1
  Br  Br32  1  0.52337504  0.15869914  0.43659142  1
  Br  Br33  1  0.36467589  0.84130086  0.06340858  1
  Br  Br34  1  0.47662496  0.84130086  0.56340858  1
  Br  Br35  1  0.63532411  0.15869914  0.93659142  1
