# generated using pymatgen
data_KCu2BiS3
_symmetry_space_group_name_H-M   'P 1'
_cell_length_a   6.54518220
_cell_length_b   9.32211732
_cell_length_c   10.73882786
_cell_angle_alpha   90.63703670
_cell_angle_beta   90.62633515
_cell_angle_gamma   90.76426426
_symmetry_Int_Tables_number   1
_chemical_formula_structural   KCu2BiS3
_chemical_formula_sum   'K4 Cu8 Bi4 S12'
_cell_volume   655.09010195
_cell_formula_units_Z   4
loop_
 _symmetry_equiv_pos_site_id
 _symmetry_equiv_pos_as_xyz
  1  'x, y, z'
loop_
 _atom_site_type_symbol
 _atom_site_label
 _atom_site_symmetry_multiplicity
 _atom_site_fract_x
 _atom_site_fract_y
 _atom_site_fract_z
 _atom_site_occupancy
  K  K0  1  0.20883318  0.93462469  0.87462434  1
  K  K1  1  0.79116682  0.06537531  0.12537566  1
  K  K2  1  0.70140504  0.92951919  0.62735106  1
  K  K3  1  0.29859496  0.07048081  0.37264894  1
  Cu  Cu4  1  0.49361679  0.62673147  0.82968544  1
  Cu  Cu5  1  0.50638321  0.37326853  0.17031456  1
  Cu  Cu6  1  0.01773495  0.23027286  0.64159816  1
  Cu  Cu7  1  0.98226505  0.76972714  0.35840184  1
  Cu  Cu8  1  0.07093258  0.35251064  0.96011668  1
  Cu  Cu9  1  0.92906742  0.64748936  0.03988332  1
  Cu  Cu10  1  0.57244730  0.34689823  0.54484146  1
  Cu  Cu11  1  0.42755270  0.65310177  0.45515854  1
  Bi  Bi12  1  0.53529304  0.32178696  0.84742835  1
  Bi  Bi13  1  0.46470696  0.67821304  0.15257165  1
  Bi  Bi14  1  0.02621665  0.54360188  0.65061033  1
  Bi  Bi15  1  0.97378335  0.45639812  0.34938967  1
  S  S16  1  0.88616760  0.18883332  0.83228153  1
  S  S17  1  0.11383240  0.81116668  0.16771847  1
  S  S18  1  0.36088124  0.19210873  0.65579386  1
  S  S19  1  0.63911876  0.80789127  0.34420614  1
  S  S20  1  0.34122810  0.21827124  0.04268856  1
  S  S21  1  0.65877190  0.78172876  0.95731144  1
  S  S22  1  0.62412802  0.57661698  0.63920229  1
  S  S23  1  0.37587198  0.42338302  0.36079771  1
  S  S24  1  0.15819972  0.57920343  0.87855122  1
  S  S25  1  0.84180028  0.42079657  0.12144878  1
  S  S26  1  0.15705545  0.78088507  0.54210374  1
  S  S27  1  0.84294455  0.21911493  0.45789626  1
