# generated using pymatgen
data_AgH15N8
_symmetry_space_group_name_H-M   'P 1'
_cell_length_a   6.95211213
_cell_length_b   11.74830724
_cell_length_c   13.20030614
_cell_angle_alpha   90.00000000
_cell_angle_beta   90.00000000
_cell_angle_gamma   90.00000000
_symmetry_Int_Tables_number   1
_chemical_formula_structural   AgH15N8
_chemical_formula_sum   'Ag4 H60 N32'
_cell_volume   1078.14225452
_cell_formula_units_Z   4
loop_
 _symmetry_equiv_pos_site_id
 _symmetry_equiv_pos_as_xyz
  1  'x, y, z'
loop_
 _atom_site_type_symbol
 _atom_site_label
 _atom_site_symmetry_multiplicity
 _atom_site_fract_x
 _atom_site_fract_y
 _atom_site_fract_z
 _atom_site_occupancy
  Ag  Ag0  1  0.88306576  0.00558194  0.45490717  1
  Ag  Ag1  1  0.61693424  0.99441806  0.95490717  1
  Ag  Ag2  1  0.38306576  0.49441806  0.54509283  1
  Ag  Ag3  1  0.11693424  0.50558194  0.04509283  1
  H  H4  1  0.26250680  0.06547682  0.38839232  1
  H  H5  1  0.23749320  0.93452318  0.88839232  1
  H  H6  1  0.76250680  0.43452318  0.61160768  1
  H  H7  1  0.73749320  0.56547682  0.11160768  1
  H  H8  1  0.26678574  0.92594823  0.40072285  1
  H  H9  1  0.23321426  0.07405177  0.90072285  1
  H  H10  1  0.76678574  0.57405177  0.59927715  1
  H  H11  1  0.73321426  0.42594823  0.09927715  1
  H  H12  1  0.29117644  0.00942655  0.50138746  1
  H  H13  1  0.20882356  0.99057345  0.00138746  1
  H  H14  1  0.79117644  0.49057345  0.49861254  1
  H  H15  1  0.70882356  0.50942655  0.99861254  1
  H  H16  1  0.84973837  0.97274935  0.24062729  1
  H  H17  1  0.65026163  0.02725065  0.74062729  1
  H  H18  1  0.34973837  0.52725065  0.75937271  1
  H  H19  1  0.15026163  0.47274935  0.25937271  1
  H  H20  1  0.69753751  0.07774843  0.26721998  1
  H  H21  1  0.80246249  0.92225157  0.76721998  1
  H  H22  1  0.19753751  0.42225157  0.73278002  1
  H  H23  1  0.30246249  0.57774843  0.23278002  1
  H  H24  1  0.63446060  0.94305938  0.28518065  1
  H  H25  1  0.86553940  0.05694062  0.78518065  1
  H  H26  1  0.13446060  0.55694062  0.71481935  1
  H  H27  1  0.36553940  0.44305938  0.21481935  1
  H  H28  1  0.77354454  0.77832216  0.46444137  1
  H  H29  1  0.72645546  0.22167784  0.96444137  1
  H  H30  1  0.27354454  0.72167784  0.53555863  1
  H  H31  1  0.22645546  0.27832216  0.03555863  1
  H  H32  1  0.61597810  0.84118865  0.54081158  1
  H  H33  1  0.88402190  0.15881135  0.04081158  1
  H  H34  1  0.11597810  0.65881135  0.45918842  1
  H  H35  1  0.38402190  0.34118865  0.95918842  1
  H  H36  1  0.82949490  0.80730817  0.58390455  1
  H  H37  1  0.67050510  0.19269183  0.08390455  1
  H  H38  1  0.32949490  0.69269183  0.41609545  1
  H  H39  1  0.17050510  0.30730817  0.91609545  1
  H  H40  1  0.67552459  0.17094732  0.56956380  1
  H  H41  1  0.82447541  0.82905268  0.06956380  1
  H  H42  1  0.17552459  0.32905268  0.43043620  1
  H  H43  1  0.32447541  0.67094732  0.93043620  1
  H  H44  1  0.90709457  0.18664410  0.59514416  1
  H  H45  1  0.59290543  0.81335590  0.09514416  1
  H  H46  1  0.40709457  0.31335590  0.40485584  1
  H  H47  1  0.09290543  0.68664410  0.90485584  1
  H  H48  1  0.81953311  0.23716451  0.48669962  1
  H  H49  1  0.68046689  0.76283549  0.98669962  1
  H  H50  1  0.31953311  0.26283549  0.51330038  1
  H  H51  1  0.18046689  0.73716451  0.01330038  1
  H  H52  1  0.91648045  0.70440465  0.27371763  1
  H  H53  1  0.58351955  0.29559535  0.77371763  1
  H  H54  1  0.41648045  0.79559535  0.72628237  1
  H  H55  1  0.08351955  0.20440465  0.22628237  1
  H  H56  1  0.68712091  0.68854025  0.29667476  1
  H  H57  1  0.81287909  0.31145975  0.79667476  1
  H  H58  1  0.18712091  0.81145975  0.70332524  1
  H  H59  1  0.31287909  0.18854025  0.20332524  1
  H  H60  1  0.83571354  0.58071785  0.31526520  1
  H  H61  1  0.66428646  0.41928215  0.81526520  1
  H  H62  1  0.33571354  0.91928215  0.68473480  1
  H  H63  1  0.16428646  0.08071785  0.18473480  1
  N  N64  1  0.12274259  0.86396935  0.15505622  1
  N  N65  1  0.37725741  0.13603065  0.65505622  1
  N  N66  1  0.62274259  0.63603065  0.84494378  1
  N  N67  1  0.87725741  0.36396935  0.34494378  1
  N  N68  1  0.25341796  0.82758502  0.20341198  1
  N  N69  1  0.24658204  0.17241498  0.70341198  1
  N  N70  1  0.75341796  0.67241498  0.79658802  1
  N  N71  1  0.74658204  0.32758502  0.29658802  1
  N  N72  1  0.38501185  0.79139009  0.25168345  1
  N  N73  1  0.11498815  0.20860991  0.75168345  1
  N  N74  1  0.88501185  0.70860991  0.74831655  1
  N  N75  1  0.61498815  0.29139009  0.24831655  1
  N  N76  1  0.22095494  0.99974558  0.43387825  1
  N  N77  1  0.27904506  0.00025442  0.93387825  1
  N  N78  1  0.72095494  0.50025442  0.56612175  1
  N  N79  1  0.77904506  0.49974558  0.06612175  1
  N  N80  1  0.74605351  0.99964616  0.29009097  1
  N  N81  1  0.75394649  0.00035384  0.79009097  1
  N  N82  1  0.24605351  0.50035384  0.70990903  1
  N  N83  1  0.25394649  0.49964616  0.20990903  1
  N  N84  1  0.75815854  0.83703158  0.52153247  1
  N  N85  1  0.74184146  0.16296842  0.02153247  1
  N  N86  1  0.25815854  0.66296842  0.47846753  1
  N  N87  1  0.24184146  0.33703158  0.97846753  1
  N  N88  1  0.81017471  0.17241915  0.53833396  1
  N  N89  1  0.68982529  0.82758085  0.03833396  1
  N  N90  1  0.31017471  0.32758085  0.46166604  1
  N  N91  1  0.18982529  0.67241915  0.96166604  1
  N  N92  1  0.82120495  0.66717855  0.32262036  1
  N  N93  1  0.67879505  0.33282145  0.82262036  1
  N  N94  1  0.32120495  0.83282145  0.67737964  1
  N  N95  1  0.17879505  0.16717855  0.17737964  1
