# generated using pymatgen
data_Sr5Cr3O12F
_symmetry_space_group_name_H-M   'P 1'
_cell_length_a   7.31892989
_cell_length_b   10.16157341
_cell_length_c   10.16035711
_cell_angle_alpha   120.00406570
_cell_angle_beta   90.00000000
_cell_angle_gamma   90.00000000
_symmetry_Int_Tables_number   1
_chemical_formula_structural   Sr5Cr3O12F
_chemical_formula_sum   'Sr10 Cr6 O24 F2'
_cell_volume   654.38051033
_cell_formula_units_Z   2
loop_
 _symmetry_equiv_pos_site_id
 _symmetry_equiv_pos_as_xyz
  1  'x, y, z'
loop_
 _atom_site_type_symbol
 _atom_site_label
 _atom_site_symmetry_multiplicity
 _atom_site_fract_x
 _atom_site_fract_y
 _atom_site_fract_z
 _atom_site_occupancy
  Sr  Sr0  1  0.50116670  0.66666305  0.33332309  1
  Sr  Sr1  1  0.00116670  0.33333695  0.66667691  1
  Sr  Sr2  1  0.49883330  0.33333695  0.66667691  1
  Sr  Sr3  1  0.99883330  0.66666305  0.33332309  1
  Sr  Sr4  1  0.75000000  0.23956935  0.00078278  1
  Sr  Sr5  1  0.75000000  0.99925170  0.23880949  1
  Sr  Sr6  1  0.75000000  0.76125465  0.76044427  1
  Sr  Sr7  1  0.25000000  0.76043065  0.99921722  1
  Sr  Sr8  1  0.25000000  0.00074830  0.76119051  1
  Sr  Sr9  1  0.25000000  0.23874535  0.23955573  1
  Cr  Cr10  1  0.75000000  0.03046627  0.62528742  1
  Cr  Cr11  1  0.75000000  0.37479731  0.40534335  1
  Cr  Cr12  1  0.75000000  0.59485245  0.96959425  1
  Cr  Cr13  1  0.25000000  0.96953373  0.37471258  1
  Cr  Cr14  1  0.25000000  0.62520269  0.59465665  1
  Cr  Cr15  1  0.25000000  0.40514755  0.03040575  1
  O  O16  1  0.75000000  0.83549868  0.51823411  1
  O  O17  1  0.75000000  0.48183943  0.31725217  1
  O  O18  1  0.75000000  0.68275443  0.16451009  1
  O  O19  1  0.25000000  0.16450132  0.48176589  1
  O  O20  1  0.25000000  0.51816057  0.68274783  1
  O  O21  1  0.25000000  0.31724557  0.83548991  1
  O  O22  1  0.75000000  0.13001543  0.52826871  1
  O  O23  1  0.75000000  0.47175570  0.60173486  1
  O  O24  1  0.75000000  0.39827776  0.87001755  1
  O  O25  1  0.25000000  0.86998457  0.47173129  1
  O  O26  1  0.25000000  0.52824430  0.39826514  1
  O  O27  1  0.25000000  0.60172224  0.12998245  1
  O  O28  1  0.56260983  0.09193115  0.74376493  1
  O  O29  1  0.56260651  0.25629335  0.34820549  1
  O  O30  1  0.56259818  0.65185036  0.90808273  1
  O  O31  1  0.06260983  0.90806885  0.25623507  1
  O  O32  1  0.06260651  0.74370665  0.65179451  1
  O  O33  1  0.06259818  0.34814964  0.09191727  1
  O  O34  1  0.43739017  0.90806885  0.25623507  1
  O  O35  1  0.43739349  0.74370665  0.65179451  1
  O  O36  1  0.43740182  0.34814964  0.09191727  1
  O  O37  1  0.93739017  0.09193115  0.74376493  1
  O  O38  1  0.93739349  0.25629335  0.34820549  1
  O  O39  1  0.93740182  0.65185036  0.90808273  1
  F  F40  1  0.50000000  -0.00000000  -0.00000000  1
  F  F41  1  -0.00000000  -0.00000000  -0.00000000  1
