# generated using pymatgen
data_CsH2SNO3
_symmetry_space_group_name_H-M   'P 1'
_cell_length_a   7.65417351
_cell_length_b   8.32305526
_cell_length_c   8.72321789
_cell_angle_alpha   115.27251452
_cell_angle_beta   90.00000000
_cell_angle_gamma   90.00000000
_symmetry_Int_Tables_number   1
_chemical_formula_structural   CsH2SNO3
_chemical_formula_sum   'Cs4 H8 S4 N4 O12'
_cell_volume   502.53267721
_cell_formula_units_Z   4
loop_
 _symmetry_equiv_pos_site_id
 _symmetry_equiv_pos_as_xyz
  1  'x, y, z'
loop_
 _atom_site_type_symbol
 _atom_site_label
 _atom_site_symmetry_multiplicity
 _atom_site_fract_x
 _atom_site_fract_y
 _atom_site_fract_z
 _atom_site_occupancy
  Cs  Cs0  1  0.64600055  0.81628962  0.55951374  1
  Cs  Cs1  1  0.14600055  0.18371038  0.94048626  1
  Cs  Cs2  1  0.35399945  0.18371038  0.44048626  1
  Cs  Cs3  1  0.85399945  0.81628962  0.05951374  1
  H  H4  1  0.49249943  0.47039386  0.15924772  1
  H  H5  1  0.99249943  0.52960614  0.34075228  1
  H  H6  1  0.50750057  0.52960614  0.84075228  1
  H  H7  1  0.00750057  0.47039386  0.65924772  1
  H  H8  1  0.61747248  0.35656083  0.23572144  1
  H  H9  1  0.11747248  0.64343917  0.26427856  1
  H  H10  1  0.38252752  0.64343917  0.76427856  1
  H  H11  1  0.88252752  0.35656083  0.73572144  1
  S  S12  1  0.65161641  0.27131569  0.95507726  1
  S  S13  1  0.15161641  0.72868431  0.54492274  1
  S  S14  1  0.34838359  0.72868431  0.04492274  1
  S  S15  1  0.84838359  0.27131569  0.45507726  1
  N  N16  1  0.53740358  0.34556877  0.13623085  1
  N  N17  1  0.03740358  0.65443123  0.36376915  1
  N  N18  1  0.46259642  0.65443123  0.86376915  1
  N  N19  1  0.96259642  0.34556877  0.63623085  1
  O  O20  1  0.78725775  0.40359650  0.96856751  1
  O  O21  1  0.28725775  0.59640350  0.53143249  1
  O  O22  1  0.21274225  0.59640350  0.03143249  1
  O  O23  1  0.71274225  0.40359650  0.46856751  1
  O  O24  1  0.51910329  0.25378526  0.82604114  1
  O  O25  1  0.01910329  0.74621474  0.67395886  1
  O  O26  1  0.48089671  0.74621474  0.17395886  1
  O  O27  1  0.98089671  0.25378526  0.32604114  1
  O  O28  1  0.72820765  0.10157527  0.93393926  1
  O  O29  1  0.22820765  0.89842473  0.56606074  1
  O  O30  1  0.27179235  0.89842473  0.06606074  1
  O  O31  1  0.77179235  0.10157527  0.43393926  1
