# generated using pymatgen
data_Co7B24(H3O23)2
_symmetry_space_group_name_H-M   'P 1'
_cell_length_a   7.74371309
_cell_length_b   8.26390351
_cell_length_c   20.42360196
_cell_angle_alpha   90.00000000
_cell_angle_beta   90.00000000
_cell_angle_gamma   90.00000000
_symmetry_Int_Tables_number   1
_chemical_formula_structural   Co7B24(H3O23)2
_chemical_formula_sum   'Co14 B48 H12 O92'
_cell_volume   1306.97364207
_cell_formula_units_Z   2
loop_
 _symmetry_equiv_pos_site_id
 _symmetry_equiv_pos_as_xyz
  1  'x, y, z'
loop_
 _atom_site_type_symbol
 _atom_site_label
 _atom_site_symmetry_multiplicity
 _atom_site_fract_x
 _atom_site_fract_y
 _atom_site_fract_z
 _atom_site_occupancy
  Co  Co0  1  0.50000000  0.80858164  0.06868618  1
  Co  Co1  1  0.50000000  0.19141836  0.93131382  1
  Co  Co2  1  0.50000000  0.30858164  0.43131382  1
  Co  Co3  1  0.50000000  0.69141836  0.56868618  1
  Co  Co4  1  0.50000000  0.89956587  0.32684945  1
  Co  Co5  1  0.50000000  0.10043413  0.67315055  1
  Co  Co6  1  0.50000000  0.39956587  0.17315055  1
  Co  Co7  1  0.50000000  0.60043413  0.82684945  1
  Co  Co8  1  -0.00000000  0.59605050  0.11772708  1
  Co  Co9  1  -0.00000000  0.40394950  0.88227292  1
  Co  Co10  1  -0.00000000  0.09605050  0.38227292  1
  Co  Co11  1  -0.00000000  0.90394950  0.61772708  1
  Co  Co12  1  -0.00000000  0.50000000  0.50000000  1
  Co  Co13  1  -0.00000000  0.00000000  -0.00000000  1
  B  B14  1  0.33112140  0.64908275  0.42904795  1
  B  B15  1  0.33112140  0.35091725  0.57095205  1
  B  B16  1  0.66887860  0.14908275  0.07095205  1
  B  B17  1  0.66887860  0.85091725  0.92904795  1
  B  B18  1  0.66887860  0.35091725  0.57095205  1
  B  B19  1  0.66887860  0.64908275  0.42904795  1
  B  B20  1  0.33112140  0.85091725  0.92904795  1
  B  B21  1  0.33112140  0.14908275  0.07095205  1
  B  B22  1  0.17778685  0.71228970  0.32230453  1
  B  B23  1  0.17778685  0.28771030  0.67769547  1
  B  B24  1  0.82221315  0.21228970  0.17769547  1
  B  B25  1  0.82221315  0.78771030  0.82230453  1
  B  B26  1  0.82221315  0.28771030  0.67769547  1
  B  B27  1  0.82221315  0.71228970  0.32230453  1
  B  B28  1  0.17778685  0.78771030  0.82230453  1
  B  B29  1  0.17778685  0.21228970  0.17769547  1
  B  B30  1  0.33402217  0.73326399  0.20717135  1
  B  B31  1  0.33402217  0.26673601  0.79282865  1
  B  B32  1  0.66597783  0.23326399  0.29282865  1
  B  B33  1  0.66597783  0.76673601  0.70717135  1
  B  B34  1  0.66597783  0.26673601  0.79282865  1
  B  B35  1  0.66597783  0.73326399  0.20717135  1
  B  B36  1  0.33402217  0.76673601  0.70717135  1
  B  B37  1  0.33402217  0.23326399  0.29282865  1
  B  B38  1  0.16886634  0.87073509  0.49163137  1
  B  B39  1  0.16886634  0.12926491  0.50836863  1
  B  B40  1  0.83113366  0.37073509  0.00836863  1
  B  B41  1  0.83113366  0.62926491  0.99163137  1
  B  B42  1  0.83113366  0.12926491  0.50836863  1
  B  B43  1  0.83113366  0.87073509  0.49163137  1
  B  B44  1  0.16886634  0.62926491  0.99163137  1
  B  B45  1  0.16886634  0.37073509  0.00836863  1
  B  B46  1  0.16823885  0.92200564  0.13088179  1
  B  B47  1  0.16823885  0.07799436  0.86911821  1
  B  B48  1  0.83176115  0.42200564  0.36911821  1
  B  B49  1  0.83176115  0.57799436  0.63088179  1
  B  B50  1  0.83176115  0.07799436  0.86911821  1
  B  B51  1  0.83176115  0.92200564  0.13088179  1
  B  B52  1  0.16823885  0.57799436  0.63088179  1
  B  B53  1  0.16823885  0.42200564  0.36911821  1
  B  B54  1  0.16691255  0.98241962  0.26014011  1
  B  B55  1  0.16691255  0.01758038  0.73985989  1
  B  B56  1  0.83308745  0.48241962  0.23985989  1
  B  B57  1  0.83308745  0.51758038  0.76014011  1
  B  B58  1  0.83308745  0.01758038  0.73985989  1
  B  B59  1  0.83308745  0.98241962  0.26014011  1
  B  B60  1  0.16691255  0.51758038  0.76014011  1
  B  B61  1  0.16691255  0.48241962  0.23985989  1
  H  H62  1  0.38867867  0.51834074  0.06848077  1
  H  H63  1  0.38867867  0.48165926  0.93151923  1
  H  H64  1  0.61132133  0.01834074  0.43151923  1
  H  H65  1  0.61132133  0.98165926  0.56848077  1
  H  H66  1  0.61132133  0.48165926  0.93151923  1
  H  H67  1  0.61132133  0.51834074  0.06848077  1
  H  H68  1  0.38867867  0.98165926  0.56848077  1
  H  H69  1  0.38867867  0.01834074  0.43151923  1
  H  H70  1  -0.00000000  0.74928548  0.40046480  1
  H  H71  1  -0.00000000  0.25071452  0.59953520  1
  H  H72  1  -0.00000000  0.24928548  0.09953520  1
  H  H73  1  -0.00000000  0.75071452  0.90046480  1
  O  O74  1  0.19189939  0.52221319  0.42692337  1
  O  O75  1  0.19189939  0.47778681  0.57307663  1
  O  O76  1  0.80810061  0.02221319  0.07307663  1
  O  O77  1  0.80810061  0.97778681  0.92692337  1
  O  O78  1  0.80810061  0.47778681  0.57307663  1
  O  O79  1  0.80810061  0.52221319  0.42692337  1
  O  O80  1  0.19189939  0.97778681  0.92692337  1
  O  O81  1  0.19189939  0.02221319  0.07307663  1
  O  O82  1  0.18127647  0.52423169  0.05238664  1
  O  O83  1  0.18127647  0.47576831  0.94761336  1
  O  O84  1  0.81872353  0.02423169  0.44761336  1
  O  O85  1  0.81872353  0.97576831  0.55238664  1
  O  O86  1  0.81872353  0.47576831  0.94761336  1
  O  O87  1  0.81872353  0.52423169  0.05238664  1
  O  O88  1  0.18127647  0.97576831  0.55238664  1
  O  O89  1  0.18127647  0.02423169  0.44761336  1
  O  O90  1  0.17118821  0.53726858  0.30904711  1
  O  O91  1  0.17118821  0.46273142  0.69095289  1
  O  O92  1  0.82881179  0.03726858  0.19095289  1
  O  O93  1  0.82881179  0.96273142  0.80904711  1
  O  O94  1  0.82881179  0.46273142  0.69095289  1
  O  O95  1  0.82881179  0.53726858  0.30904711  1
  O  O96  1  0.17118821  0.96273142  0.80904711  1
  O  O97  1  0.17118821  0.03726858  0.19095289  1
  O  O98  1  0.30373649  0.55852801  0.20407293  1
  O  O99  1  0.30373649  0.44147199  0.79592707  1
  O  O100  1  0.69626351  0.05852801  0.29592707  1
  O  O101  1  0.69626351  0.94147199  0.70407293  1
  O  O102  1  0.69626351  0.44147199  0.79592707  1
  O  O103  1  0.69626351  0.55852801  0.20407293  1
  O  O104  1  0.30373649  0.94147199  0.70407293  1
  O  O105  1  0.30373649  0.05852801  0.29592707  1
  O  O106  1  0.31015034  0.75101951  0.36746804  1
  O  O107  1  0.31015034  0.24898049  0.63253196  1
  O  O108  1  0.68984966  0.25101951  0.13253196  1
  O  O109  1  0.68984966  0.74898049  0.86746804  1
  O  O110  1  0.68984966  0.24898049  0.63253196  1
  O  O111  1  0.68984966  0.75101951  0.36746804  1
  O  O112  1  0.31015034  0.74898049  0.86746804  1
  O  O113  1  0.31015034  0.25101951  0.13253196  1
  O  O114  1  0.30970897  0.75684719  0.48644028  1
  O  O115  1  0.30970897  0.24315281  0.51355972  1
  O  O116  1  0.69029103  0.25684719  0.01355972  1
  O  O117  1  0.69029103  0.74315281  0.98644028  1
  O  O118  1  0.69029103  0.24315281  0.51355972  1
  O  O119  1  0.69029103  0.75684719  0.48644028  1
  O  O120  1  0.30970897  0.74315281  0.98644028  1
  O  O121  1  0.30970897  0.25684719  0.01355972  1
  O  O122  1  0.19610768  0.80074113  0.25830945  1
  O  O123  1  0.19610768  0.19925887  0.74169055  1
  O  O124  1  0.80389232  0.30074113  0.24169055  1
  O  O125  1  0.80389232  0.69925887  0.75830945  1
  O  O126  1  0.80389232  0.19925887  0.74169055  1
  O  O127  1  0.80389232  0.80074113  0.25830945  1
  O  O128  1  0.19610768  0.69925887  0.75830945  1
  O  O129  1  0.19610768  0.30074113  0.24169055  1
  O  O130  1  0.30497606  0.80677669  0.14268376  1
  O  O131  1  0.30497606  0.19322331  0.85731624  1
  O  O132  1  0.69502394  0.30677669  0.35731624  1
  O  O133  1  0.69502394  0.69322331  0.64268376  1
  O  O134  1  0.69502394  0.19322331  0.85731624  1
  O  O135  1  0.69502394  0.80677669  0.14268376  1
  O  O136  1  0.30497606  0.69322331  0.64268376  1
  O  O137  1  0.30497606  0.30677669  0.35731624  1
  O  O138  1  0.50000000  0.55252455  0.08972420  1
  O  O139  1  0.50000000  0.44747545  0.91027580  1
  O  O140  1  0.50000000  0.05252455  0.41027580  1
  O  O141  1  0.50000000  0.94747545  0.58972420  1
  O  O142  1  0.50000000  0.56708727  0.43108654  1
  O  O143  1  0.50000000  0.43291273  0.56891346  1
  O  O144  1  0.50000000  0.06708727  0.06891346  1
  O  O145  1  0.50000000  0.93291273  0.93108654  1
  O  O146  1  0.50000000  0.77504396  0.23535891  1
  O  O147  1  0.50000000  0.22495604  0.76464109  1
  O  O148  1  0.50000000  0.27504396  0.26464109  1
  O  O149  1  0.50000000  0.72495604  0.73535891  1
  O  O150  1  -0.00000000  0.52192966  0.21090473  1
  O  O151  1  -0.00000000  0.47807034  0.78909527  1
  O  O152  1  -0.00000000  0.02192966  0.28909527  1
  O  O153  1  -0.00000000  0.97807034  0.71090473  1
  O  O154  1  -0.00000000  0.75838276  0.35130836  1
  O  O155  1  -0.00000000  0.24161724  0.64869164  1
  O  O156  1  -0.00000000  0.25838276  0.14869164  1
  O  O157  1  -0.00000000  0.74161724  0.85130836  1
  O  O158  1  -0.00000000  0.78820195  0.48345095  1
  O  O159  1  -0.00000000  0.21179805  0.51654905  1
  O  O160  1  -0.00000000  0.28820195  0.01654905  1
  O  O161  1  -0.00000000  0.71179805  0.98345095  1
  O  O162  1  -0.00000000  0.83868347  0.12876096  1
  O  O163  1  -0.00000000  0.16131653  0.87123904  1
  O  O164  1  -0.00000000  0.33868347  0.37123904  1
  O  O165  1  -0.00000000  0.66131653  0.62876096  1
