# generated using pymatgen
data_InSiH11C3Br3N
_symmetry_space_group_name_H-M   'P 1'
_cell_length_a   9.38619403
_cell_length_b   11.37836514
_cell_length_c   13.79963631
_cell_angle_alpha   90.00000000
_cell_angle_beta   105.35546528
_cell_angle_gamma   90.00000000
_symmetry_Int_Tables_number   1
_chemical_formula_structural   InSiH11C3Br3N
_chemical_formula_sum   'In4 Si4 H44 C12 Br12 N4'
_cell_volume   1421.18262071
_cell_formula_units_Z   4
loop_
 _symmetry_equiv_pos_site_id
 _symmetry_equiv_pos_as_xyz
  1  'x, y, z'
loop_
 _atom_site_type_symbol
 _atom_site_label
 _atom_site_symmetry_multiplicity
 _atom_site_fract_x
 _atom_site_fract_y
 _atom_site_fract_z
 _atom_site_occupancy
  In  In0  1  0.02604753  0.35406386  0.80168550  1
  In  In1  1  0.97395247  0.85406386  0.69831450  1
  In  In2  1  0.97395247  0.64593614  0.19831450  1
  In  In3  1  0.02604753  0.14593614  0.30168550  1
  Si  Si4  1  0.34901463  0.28623903  0.71629208  1
  Si  Si5  1  0.65098537  0.78623903  0.78370792  1
  Si  Si6  1  0.65098537  0.71376097  0.28370792  1
  Si  Si7  1  0.34901463  0.21376097  0.21629208  1
  H  H8  1  0.09358400  0.24436216  0.64511644  1
  H  H9  1  0.90641600  0.74436216  0.85488356  1
  H  H10  1  0.90641600  0.75563784  0.35488356  1
  H  H11  1  0.09358400  0.25563784  0.14511644  1
  H  H12  1  0.15565820  0.16397788  0.74555291  1
  H  H13  1  0.84434180  0.66397788  0.75444709  1
  H  H14  1  0.84434180  0.83602212  0.25444709  1
  H  H15  1  0.15565820  0.33602212  0.24555291  1
  H  H16  1  0.46906709  0.19922391  0.88313294  1
  H  H17  1  0.53093291  0.69922391  0.61686706  1
  H  H18  1  0.53093291  0.80077609  0.11686706  1
  H  H19  1  0.46906709  0.30077609  0.38313294  1
  H  H20  1  0.57585504  0.31442476  0.85213622  1
  H  H21  1  0.42414496  0.81442476  0.64786378  1
  H  H22  1  0.42414496  0.68557524  0.14786378  1
  H  H23  1  0.57585504  0.18557524  0.35213622  1
  H  H24  1  0.41976603  0.34896817  0.89643503  1
  H  H25  1  0.58023397  0.84896817  0.60356497  1
  H  H26  1  0.58023397  0.65103183  0.10356497  1
  H  H27  1  0.41976603  0.15103183  0.39643503  1
  H  H28  1  0.26703974  0.42579321  0.57429891  1
  H  H29  1  0.73296026  0.92579321  0.92570109  1
  H  H30  1  0.73296026  0.57420679  0.42570109  1
  H  H31  1  0.26703974  0.07420679  0.07429891  1
  H  H32  1  0.28532495  0.49881496  0.69123398  1
  H  H33  1  0.71467505  0.99881496  0.80876602  1
  H  H34  1  0.71467505  0.50118504  0.30876602  1
  H  H35  1  0.28532495  0.00118504  0.19123398  1
  H  H36  1  0.44512153  0.46225678  0.65139996  1
  H  H37  1  0.55487847  0.96225678  0.84860004  1
  H  H38  1  0.55487847  0.53774322  0.34860004  1
  H  H39  1  0.44512153  0.03774322  0.15139996  1
  H  H40  1  0.34076806  0.16497565  0.56455603  1
  H  H41  1  0.65923194  0.66497565  0.93544397  1
  H  H42  1  0.65923194  0.83502435  0.43544397  1
  H  H43  1  0.34076806  0.33502435  0.06455603  1
  H  H44  1  0.52410488  0.17932886  0.64289365  1
  H  H45  1  0.47589512  0.67932886  0.85710635  1
  H  H46  1  0.47589512  0.82067114  0.35710635  1
  H  H47  1  0.52410488  0.32067114  0.14289365  1
  H  H48  1  0.39851296  0.08006045  0.67610628  1
  H  H49  1  0.60148704  0.58006045  0.82389372  1
  H  H50  1  0.60148704  0.91993955  0.32389372  1
  H  H51  1  0.39851296  0.41993955  0.17610628  1
  C  C52  1  0.46225084  0.28732262  0.84952365  1
  C  C53  1  0.53774916  0.78732262  0.65047635  1
  C  C54  1  0.53774916  0.71267738  0.15047635  1
  C  C55  1  0.46225084  0.21267738  0.34952365  1
  C  C56  1  0.33426121  0.43177743  0.65253451  1
  C  C57  1  0.66573879  0.93177743  0.84746549  1
  C  C58  1  0.66573879  0.56822257  0.34746549  1
  C  C59  1  0.33426121  0.06822257  0.15253451  1
  C  C60  1  0.40786694  0.16659947  0.64290900  1
  C  C61  1  0.59213306  0.66659947  0.85709100  1
  C  C62  1  0.59213306  0.83340053  0.35709100  1
  C  C63  1  0.40786694  0.33340053  0.14290900  1
  Br  Br64  1  0.97460645  0.20884812  0.92655345  1
  Br  Br65  1  0.02539355  0.70884812  0.57344655  1
  Br  Br66  1  0.02539355  0.79115188  0.07344655  1
  Br  Br67  1  0.97460645  0.29115188  0.42655345  1
  Br  Br68  1  0.16563370  0.53243543  0.88503920  1
  Br  Br69  1  0.83436630  0.03243543  0.61496080  1
  Br  Br70  1  0.83436630  0.46756457  0.11496080  1
  Br  Br71  1  0.16563370  0.96756457  0.38503920  1
  Br  Br72  1  0.79554088  0.42059107  0.67173892  1
  Br  Br73  1  0.20445912  0.92059107  0.82826108  1
  Br  Br74  1  0.20445912  0.57940893  0.32826108  1
  Br  Br75  1  0.79554088  0.07940893  0.17173892  1
  N  N76  1  0.15820404  0.24814980  0.71805069  1
  N  N77  1  0.84179596  0.74814980  0.78194931  1
  N  N78  1  0.84179596  0.75185020  0.28194931  1
  N  N79  1  0.15820404  0.25185020  0.21805069  1
