# generated using pymatgen
data_CuH14C3S3N6ClO
_symmetry_space_group_name_H-M   'P 1'
_cell_length_a   8.48834863
_cell_length_b   11.96989334
_cell_length_c   15.70897280
_cell_angle_alpha   99.43369595
_cell_angle_beta   90.00000000
_cell_angle_gamma   90.00000000
_symmetry_Int_Tables_number   1
_chemical_formula_structural   CuH14C3S3N6ClO
_chemical_formula_sum   'Cu4 H56 C12 S12 N24 Cl4 O4'
_cell_volume   1574.51851943
_cell_formula_units_Z   4
loop_
 _symmetry_equiv_pos_site_id
 _symmetry_equiv_pos_as_xyz
  1  'x, y, z'
loop_
 _atom_site_type_symbol
 _atom_site_label
 _atom_site_symmetry_multiplicity
 _atom_site_fract_x
 _atom_site_fract_y
 _atom_site_fract_z
 _atom_site_occupancy
  Cu  Cu0  1  0.38446577  0.37902755  0.29430897  1
  Cu  Cu1  1  0.38446577  0.62097245  0.20569103  1
  Cu  Cu2  1  0.61553423  0.62097245  0.70569103  1
  Cu  Cu3  1  0.61553423  0.37902755  0.79430897  1
  H  H4  1  0.43182197  0.18379065  0.17427692  1
  H  H5  1  0.43182197  0.81620935  0.32572308  1
  H  H6  1  0.56817803  0.81620935  0.82572308  1
  H  H7  1  0.56817803  0.18379065  0.67427692  1
  H  H8  1  0.56544945  0.07992067  0.12209771  1
  H  H9  1  0.56544945  0.92007933  0.37790229  1
  H  H10  1  0.43455055  0.92007933  0.87790229  1
  H  H11  1  0.43455055  0.07992067  0.62209771  1
  H  H12  1  0.90150012  0.20032112  0.22659283  1
  H  H13  1  0.90150012  0.79967888  0.27340717  1
  H  H14  1  0.09849988  0.79967888  0.77340717  1
  H  H15  1  0.09849988  0.20032112  0.72659283  1
  H  H16  1  0.81932584  0.09041205  0.14971189  1
  H  H17  1  0.81932584  0.90958795  0.35028811  1
  H  H18  1  0.18067416  0.90958795  0.85028811  1
  H  H19  1  0.18067416  0.09041205  0.64971189  1
  H  H20  1  0.92062278  0.51897912  0.39060324  1
  H  H21  1  0.92062278  0.48102088  0.10939676  1
  H  H22  1  0.07937722  0.48102088  0.60939676  1
  H  H23  1  0.07937722  0.51897912  0.89060324  1
  H  H24  1  0.06538560  0.42171992  0.34165348  1
  H  H25  1  0.06538560  0.57828008  0.15834652  1
  H  H26  1  0.93461440  0.57828008  0.65834652  1
  H  H27  1  0.93461440  0.42171992  0.84165348  1
  H  H28  1  0.18214724  0.73736871  0.46726762  1
  H  H29  1  0.18214724  0.26263129  0.03273238  1
  H  H30  1  0.81785276  0.26263129  0.53273238  1
  H  H31  1  0.81785276  0.73736871  0.96726762  1
  H  H32  1  0.98779083  0.68539200  0.46285777  1
  H  H33  1  0.98779083  0.31460800  0.03714223  1
  H  H34  1  0.01220917  0.31460800  0.53714223  1
  H  H35  1  0.01220917  0.68539200  0.96285777  1
  H  H36  1  -0.00154015  0.11902454  0.37587666  1
  H  H37  1  -0.00154015  0.88097546  0.12412334  1
  H  H38  1  0.00154015  0.88097546  0.62412334  1
  H  H39  1  0.00154015  0.11902454  0.87587666  1
  H  H40  1  0.13589884  0.05313712  0.43504314  1
  H  H41  1  0.13589884  0.94686288  0.06495686  1
  H  H42  1  0.86410116  0.94686288  0.56495686  1
  H  H43  1  0.86410116  0.05313712  0.93504314  1
  H  H44  1  0.46663083  0.19221654  0.36861096  1
  H  H45  1  0.46663083  0.80778346  0.13138904  1
  H  H46  1  0.53336917  0.80778346  0.63138904  1
  H  H47  1  0.53336917  0.19221654  0.86861096  1
  H  H48  1  0.39409719  0.10013051  0.43555481  1
  H  H49  1  0.39409719  0.89986949  0.06444519  1
  H  H50  1  0.60590281  0.89986949  0.56444519  1
  H  H51  1  0.60590281  0.10013051  0.93555481  1
  H  H52  1  0.69359676  0.41283233  0.00650846  1
  H  H53  1  0.69359676  0.58716767  0.49349154  1
  H  H54  1  0.30640324  0.58716767  0.99349154  1
  H  H55  1  0.30640324  0.41283233  0.50650846  1
  H  H56  1  0.67305523  0.36236644  0.09037400  1
  H  H57  1  0.67305523  0.63763356  0.40962600  1
  H  H58  1  0.32694477  0.63763356  0.90962600  1
  H  H59  1  0.32694477  0.36236644  0.59037400  1
  C  C60  1  0.66205442  0.20693904  0.20943375  1
  C  C61  1  0.66205442  0.79306096  0.29056625  1
  C  C62  1  0.33794558  0.79306096  0.79056625  1
  C  C63  1  0.33794558  0.20693904  0.70943375  1
  C  C64  1  0.14811690  0.57593500  0.39905296  1
  C  C65  1  0.14811690  0.42406500  0.10094704  1
  C  C66  1  0.85188310  0.42406500  0.60094704  1
  C  C67  1  0.85188310  0.57593500  0.89905296  1
  C  C68  1  0.22882793  0.16350186  0.36126418  1
  C  C69  1  0.22882793  0.83649814  0.13873582  1
  C  C70  1  0.77117207  0.83649814  0.63873582  1
  C  C71  1  0.77117207  0.16350186  0.86126418  1
  S  S72  1  0.63954775  0.33279624  0.27919139  1
  S  S73  1  0.63954775  0.66720376  0.22080861  1
  S  S74  1  0.36045225  0.66720376  0.72080861  1
  S  S75  1  0.36045225  0.33279624  0.77919139  1
  S  S76  1  0.34408726  0.55277712  0.37158648  1
  S  S77  1  0.34408726  0.44722288  0.12841352  1
  S  S78  1  0.65591274  0.44722288  0.62841352  1
  S  S79  1  0.65591274  0.55277712  0.87158648  1
  S  S80  1  0.18819061  0.24849297  0.28537012  1
  S  S81  1  0.18819061  0.75150703  0.21462988  1
  S  S82  1  0.81180939  0.75150703  0.71462988  1
  S  S83  1  0.81180939  0.24849297  0.78537012  1
  N  N84  1  0.54265511  0.15202381  0.16560364  1
  N  N85  1  0.54265511  0.84797619  0.33439636  1
  N  N86  1  0.45734489  0.84797619  0.83439636  1
  N  N87  1  0.45734489  0.15202381  0.66560364  1
  N  N88  1  0.80604914  0.16111289  0.19612089  1
  N  N89  1  0.80604914  0.83888711  0.30387911  1
  N  N90  1  0.19395086  0.83888711  0.80387911  1
  N  N91  1  0.19395086  0.16111289  0.69612089  1
  N  N92  1  0.03547268  0.50006597  0.37344478  1
  N  N93  1  0.03547268  0.49993403  0.12655522  1
  N  N94  1  0.96452732  0.49993403  0.62655522  1
  N  N95  1  0.96452732  0.50006597  0.87344478  1
  N  N96  1  0.10411900  0.67390426  0.44729233  1
  N  N97  1  0.10411900  0.32609574  0.05270767  1
  N  N98  1  0.89588100  0.32609574  0.55270767  1
  N  N99  1  0.89588100  0.67390426  0.94729233  1
  N  N100  1  0.11203010  0.10600278  0.39127528  1
  N  N101  1  0.11203010  0.89399722  0.10872472  1
  N  N102  1  0.88796990  0.89399722  0.60872472  1
  N  N103  1  0.88796990  0.10600278  0.89127528  1
  N  N104  1  0.37433411  0.15082399  0.39036454  1
  N  N105  1  0.37433411  0.84917601  0.10963546  1
  N  N106  1  0.62566589  0.84917601  0.60963546  1
  N  N107  1  0.62566589  0.15082399  0.89036454  1
  Cl  Cl108  1  0.73771620  0.04811925  0.46679259  1
  Cl  Cl109  1  0.73771620  0.95188075  0.03320741  1
  Cl  Cl110  1  0.26228380  0.95188075  0.53320741  1
  Cl  Cl111  1  0.26228380  0.04811925  0.96679259  1
  O  O112  1  0.75320264  0.38359450  0.05138122  1
  O  O113  1  0.75320264  0.61640550  0.44861878  1
  O  O114  1  0.24679736  0.61640550  0.94861878  1
  O  O115  1  0.24679736  0.38359450  0.55138122  1
