# generated using pymatgen
data_Nb13Co40Si31
_symmetry_space_group_name_H-M   'P 1'
_cell_length_a   7.87363408
_cell_length_b   17.15129640
_cell_length_c   17.15330399
_cell_angle_alpha   119.99612981
_cell_angle_beta   90.00000000
_cell_angle_gamma   90.00000000
_symmetry_Int_Tables_number   1
_chemical_formula_structural   Nb13Co40Si31
_chemical_formula_sum   'Nb26 Co80 Si62'
_cell_volume   2006.16907406
_cell_formula_units_Z   2
loop_
 _symmetry_equiv_pos_site_id
 _symmetry_equiv_pos_as_xyz
  1  'x, y, z'
loop_
 _atom_site_type_symbol
 _atom_site_label
 _atom_site_symmetry_multiplicity
 _atom_site_fract_x
 _atom_site_fract_y
 _atom_site_fract_z
 _atom_site_occupancy
  Nb  Nb0  1  0.29790268  0.27262010  0.00000000  1
  Nb  Nb1  1  0.29777825  0.72732230  0.72732032  1
  Nb  Nb2  1  0.29777825  0.00000198  0.27267968  1
  Nb  Nb3  1  0.29778743  0.72734643  1.00000000  1
  Nb  Nb4  1  0.29782231  0.27265952  0.27269393  1
  Nb  Nb5  1  0.29782231  -0.00003441  0.72730607  1
  Nb  Nb6  1  0.70221257  0.72734643  1.00000000  1
  Nb  Nb7  1  0.70217769  0.27265952  0.27269393  1
  Nb  Nb8  1  0.70217769  -0.00003441  0.72730607  1
  Nb  Nb9  1  0.70209732  0.27262010  0.00000000  1
  Nb  Nb10  1  0.70222175  0.72732230  0.72732032  1
  Nb  Nb11  1  0.70222175  0.00000198  0.27267968  1
  Nb  Nb12  1  0.50000000  0.57703908  0.15400110  1
  Nb  Nb13  1  0.50000000  0.57705025  0.42302117  1
  Nb  Nb14  1  0.50000000  0.84592477  0.42296159  1
  Nb  Nb15  1  0.50000000  0.42303798  0.84599890  1
  Nb  Nb16  1  0.50000000  0.15402907  0.57697883  1
  Nb  Nb17  1  0.50000000  0.42296318  0.57703841  1
  Nb  Nb18  1  -0.00000000  0.24394200  0.48786376  1
  Nb  Nb19  1  -0.00000000  0.24392245  0.75598839  1
  Nb  Nb20  1  -0.00000000  0.51213851  0.75603337  1
  Nb  Nb21  1  -0.00000000  0.75607824  0.51213624  1
  Nb  Nb22  1  -0.00000000  0.48793406  0.24401161  1
  Nb  Nb23  1  -0.00000000  0.75610514  0.24396663  1
  Nb  Nb24  1  0.19959736  -0.00003475  1.00000000  1
  Nb  Nb25  1  0.80040264  -0.00003475  1.00000000  1
  Co  Co26  1  0.22879442  0.10284458  0.44516917  1
  Co  Co27  1  0.22890147  0.34235880  0.89720674  1
  Co  Co28  1  0.22876135  0.55481999  0.65765328  1
  Co  Co29  1  0.22879442  0.65767541  0.55483083  1
  Co  Co30  1  0.22890147  0.44515206  0.10279326  1
  Co  Co31  1  0.22876135  0.89716671  0.34234672  1
  Co  Co32  1  0.22880457  0.89715180  0.55479002  1
  Co  Co33  1  0.22886533  0.65773692  0.10287062  1
  Co  Co34  1  0.22876721  0.44517122  0.34238776  1
  Co  Co35  1  0.22880457  0.34236178  0.44520998  1
  Co  Co36  1  0.22886533  0.55486630  0.89712938  1
  Co  Co37  1  0.22876721  0.10278346  0.65761224  1
  Co  Co38  1  0.77119543  0.89715180  0.55479002  1
  Co  Co39  1  0.77113467  0.65773692  0.10287062  1
  Co  Co40  1  0.77123279  0.44517122  0.34238776  1
  Co  Co41  1  0.77119543  0.34236178  0.44520998  1
  Co  Co42  1  0.77113467  0.55486630  0.89712938  1
  Co  Co43  1  0.77123279  0.10278346  0.65761224  1
  Co  Co44  1  0.77120558  0.10284458  0.44516917  1
  Co  Co45  1  0.77109853  0.34235880  0.89720674  1
  Co  Co46  1  0.77123865  0.55481999  0.65765328  1
  Co  Co47  1  0.77120558  0.65767541  0.55483083  1
  Co  Co48  1  0.77109853  0.44515206  0.10279326  1
  Co  Co49  1  0.77123865  0.89716671  0.34234672  1
  Co  Co50  1  -0.00000000  0.08543772  0.32106239  1
  Co  Co51  1  -0.00000000  0.23550826  0.91451912  1
  Co  Co52  1  -0.00000000  0.67896017  0.76437299  1
  Co  Co53  1  -0.00000000  0.76437533  0.67893761  1
  Co  Co54  1  -0.00000000  0.32098914  0.08548088  1
  Co  Co55  1  -0.00000000  0.91458718  0.23562701  1
  Co  Co56  1  -0.00000000  0.91452181  0.67893572  1
  Co  Co57  1  -0.00000000  0.76440437  0.08544324  1
  Co  Co58  1  -0.00000000  0.32102713  0.23563658  1
  Co  Co59  1  -0.00000000  0.23558609  0.32106428  1
  Co  Co60  1  -0.00000000  0.67896112  0.91455676  1
  Co  Co61  1  -0.00000000  0.08539055  0.76436342  1
  Co  Co62  1  0.24334469  0.08875401  0.17757570  1
  Co  Co63  1  0.24327228  0.08873555  0.91120870  1
  Co  Co64  1  0.24328266  0.82241576  0.91121625  1
  Co  Co65  1  0.24334469  0.91117831  0.82242430  1
  Co  Co66  1  0.24327228  0.17752685  0.08879130  1
  Co  Co67  1  0.24328266  0.91119952  0.08878375  1
  Co  Co68  1  0.75665531  0.91117831  0.82242430  1
  Co  Co69  1  0.75671734  0.91119952  0.08878375  1
  Co  Co70  1  0.75672772  0.17752685  0.08879130  1
  Co  Co71  1  0.75665531  0.08875401  0.17757570  1
  Co  Co72  1  0.75671734  0.82241576  0.91121625  1
  Co  Co73  1  0.75672772  0.08873555  0.91120870  1
  Co  Co74  1  0.34263780  0.26166931  0.52333512  1
  Co  Co75  1  0.34256417  0.26168457  0.73827821  1
  Co  Co76  1  0.34264393  0.47665459  0.73830114  1
  Co  Co77  1  0.34263780  0.73833420  0.47666488  1
  Co  Co78  1  0.34256417  0.52340636  0.26172179  1
  Co  Co79  1  0.34264393  0.73835346  0.26169886  1
  Co  Co80  1  0.65736220  0.73833420  0.47666488  1
  Co  Co81  1  0.65735607  0.73835346  0.26169886  1
  Co  Co82  1  0.65743583  0.52340636  0.26172179  1
  Co  Co83  1  0.65736220  0.26166931  0.52333512  1
  Co  Co84  1  0.65735607  0.47665459  0.73830114  1
  Co  Co85  1  0.65743583  0.26168457  0.73827821  1
  Co  Co86  1  0.50000000  0.14176493  0.28355924  1
  Co  Co87  1  0.50000000  0.14167171  0.85822087  1
  Co  Co88  1  0.50000000  0.71651069  0.85822377  1
  Co  Co89  1  0.50000000  0.85820569  0.71644076  1
  Co  Co90  1  0.50000000  0.28345084  0.14177913  1
  Co  Co91  1  0.50000000  0.85828692  0.14177623  1
  Co  Co92  1  -0.00000000  0.54455198  0.08904186  1
  Co  Co93  1  -0.00000000  0.54452075  0.45549908  1
  Co  Co94  1  -0.00000000  0.91096469  0.45546426  1
  Co  Co95  1  -0.00000000  0.45551012  0.91095814  1
  Co  Co96  1  -0.00000000  0.08902167  0.54450092  1
  Co  Co97  1  -0.00000000  0.45550044  0.54453574  1
  Co  Co98  1  0.50000000  0.41842579  1.00000000  1
  Co  Co99  1  0.50000000  0.58159909  0.58162004  1
  Co  Co100  1  0.50000000  0.99997905  0.41837996  1
  Co  Co101  1  0.50000000  0.58169445  0.00000000  1
  Co  Co102  1  0.50000000  0.41843201  0.41844893  1
  Co  Co103  1  0.50000000  0.99998308  0.58155107  1
  Co  Co104  1  -0.00000000  0.33332846  0.66659794  1
  Co  Co105  1  -0.00000000  0.66673052  0.33340206  1
  Si  Si106  1  0.50000000  0.12843418  0.41074116  1
  Si  Si107  1  0.50000000  0.28218059  0.87149599  1
  Si  Si108  1  0.50000000  0.58921218  0.71764436  1
  Si  Si109  1  0.50000000  0.71769302  0.58925884  1
  Si  Si110  1  0.50000000  0.41068461  0.12850401  1
  Si  Si111  1  0.50000000  0.87156782  0.28235564  1
  Si  Si112  1  0.50000000  0.87150648  0.58922153  1
  Si  Si113  1  0.50000000  0.71777585  0.12846993  1
  Si  Si114  1  0.50000000  0.41076148  0.28233297  1
  Si  Si115  1  0.50000000  0.28228495  0.41077847  1
  Si  Si116  1  0.50000000  0.58930592  0.87153007  1
  Si  Si117  1  0.50000000  0.12842851  0.71766703  1
  Si  Si118  1  0.23530740  0.17877646  0.35758666  1
  Si  Si119  1  0.23539022  0.17874859  0.82117037  1
  Si  Si120  1  0.23537252  0.64241331  0.82119212  1
  Si  Si121  1  0.23530740  0.82118980  0.64241334  1
  Si  Si122  1  0.23539022  0.35757822  0.17882963  1
  Si  Si123  1  0.23537252  0.82122118  0.17880788  1
  Si  Si124  1  0.76469260  0.82118980  0.64241334  1
  Si  Si125  1  0.76462748  0.82122118  0.17880788  1
  Si  Si126  1  0.76460978  0.35757822  0.17882963  1
  Si  Si127  1  0.76469260  0.17877646  0.35758666  1
  Si  Si128  1  0.76462748  0.64241331  0.82119212  1
  Si  Si129  1  0.76460978  0.17874859  0.82117037  1
  Si  Si130  1  0.18150714  0.60501335  0.20989908  1
  Si  Si131  1  0.18154329  0.60497834  0.39517761  1
  Si  Si132  1  0.18153960  0.79023045  0.39513005  1
  Si  Si133  1  0.18150714  0.39511427  0.79010092  1
  Si  Si134  1  0.18154329  0.20980073  0.60482239  1
  Si  Si135  1  0.18153960  0.39510040  0.60486995  1
  Si  Si136  1  0.81849286  0.39511427  0.79010092  1
  Si  Si137  1  0.81846040  0.39510040  0.60486995  1
  Si  Si138  1  0.81845671  0.20980073  0.60482239  1
  Si  Si139  1  0.81849286  0.60501335  0.20989908  1
  Si  Si140  1  0.81846040  0.79023045  0.39513005  1
  Si  Si141  1  0.81845671  0.60497834  0.39517761  1
  Si  Si142  1  0.50000000  0.14526115  0.00000000  1
  Si  Si143  1  0.50000000  0.85467674  0.85468723  1
  Si  Si144  1  0.50000000  0.99998951  0.14531277  1
  Si  Si145  1  0.50000000  0.85471259  1.00000000  1
  Si  Si146  1  0.50000000  0.14528915  0.14534792  1
  Si  Si147  1  0.50000000  0.99994123  0.85465208  1
  Si  Si148  1  -0.00000000  0.16119273  1.00000000  1
  Si  Si149  1  -0.00000000  0.83866580  0.83865168  1
  Si  Si150  1  -0.00000000  0.00001412  0.16134832  1
  Si  Si151  1  -0.00000000  0.83869441  1.00000000  1
  Si  Si152  1  -0.00000000  0.16127702  0.16135756  1
  Si  Si153  1  -0.00000000  -0.00008054  0.83864244  1
  Si  Si154  1  -0.00000000  0.38761825  0.00000000  1
  Si  Si155  1  -0.00000000  0.61235143  0.61231367  1
  Si  Si156  1  -0.00000000  0.00003776  0.38768633  1
  Si  Si157  1  -0.00000000  0.61240520  1.00000000  1
  Si  Si158  1  -0.00000000  0.38761283  0.38775351  1
  Si  Si159  1  -0.00000000  0.99985933  0.61224649  1
  Si  Si160  1  0.26092754  0.50014246  0.00000000  1
  Si  Si161  1  0.26090483  0.50003589  0.50007943  1
  Si  Si162  1  0.26090483  0.99995647  0.49992057  1
  Si  Si163  1  0.73907246  0.50014246  0.00000000  1
  Si  Si164  1  0.73909517  0.50003589  0.50007943  1
  Si  Si165  1  0.73909517  0.99995647  0.49992057  1
  Si  Si166  1  0.50000000  0.33333430  0.66663461  1
  Si  Si167  1  0.50000000  0.66669969  0.33336539  1
