# generated using pymatgen
data_Tm2Al2Fe15
_symmetry_space_group_name_H-M   'P 1'
_cell_length_a   8.43343412
_cell_length_b   8.33522578
_cell_length_c   8.33522578
_cell_angle_alpha   119.95553883
_cell_angle_beta   90.00000000
_cell_angle_gamma   90.00000000
_symmetry_Int_Tables_number   1
_chemical_formula_structural   Tm2Al2Fe15
_chemical_formula_sum   'Tm4 Al4 Fe30'
_cell_volume   507.64980488
_cell_formula_units_Z   2
loop_
 _symmetry_equiv_pos_site_id
 _symmetry_equiv_pos_as_xyz
  1  'x, y, z'
loop_
 _atom_site_type_symbol
 _atom_site_label
 _atom_site_symmetry_multiplicity
 _atom_site_fract_x
 _atom_site_fract_y
 _atom_site_fract_z
 _atom_site_occupancy
  Tm  Tm0  1  0.75000000  -0.00003551  0.00003551  1
  Tm  Tm1  1  0.25000000  0.00003551  -0.00003551  1
  Tm  Tm2  1  0.25000000  0.66686133  0.33313867  1
  Tm  Tm3  1  0.75000000  0.33313867  0.66686133  1
  Al  Al4  1  0.60049356  0.66695856  0.33304144  1
  Al  Al5  1  0.39950644  0.33304144  0.66695856  1
  Al  Al6  1  0.10049356  0.33304144  0.66695856  1
  Al  Al7  1  0.89950644  0.66695856  0.33304144  1
  Fe  Fe8  1  0.50000000  0.50000000  -0.00000000  1
  Fe  Fe9  1  0.50000000  0.50000000  0.50000000  1
  Fe  Fe10  1  0.50000000  -0.00000000  0.50000000  1
  Fe  Fe11  1  -0.00000000  0.50000000  -0.00000000  1
  Fe  Fe12  1  -0.00000000  0.50000000  0.50000000  1
  Fe  Fe13  1  -0.00000000  -0.00000000  0.50000000  1
  Fe  Fe14  1  0.75000000  0.66951742  0.03532553  1
  Fe  Fe15  1  0.75000000  0.36468566  0.33088193  1
  Fe  Fe16  1  0.75000000  0.96270371  0.63237310  1
  Fe  Fe17  1  0.75000000  0.36762690  0.03729629  1
  Fe  Fe18  1  0.75000000  0.96467447  0.33048258  1
  Fe  Fe19  1  0.75000000  0.66911807  0.63531434  1
  Fe  Fe20  1  0.25000000  0.33048258  0.96467447  1
  Fe  Fe21  1  0.25000000  0.63531434  0.66911807  1
  Fe  Fe22  1  0.25000000  0.03729629  0.36762690  1
  Fe  Fe23  1  0.25000000  0.63237310  0.96270371  1
  Fe  Fe24  1  0.25000000  0.03532553  0.66951742  1
  Fe  Fe25  1  0.25000000  0.33088193  0.36468566  1
  Fe  Fe26  1  0.48840567  0.83550983  0.67023281  1
  Fe  Fe27  1  0.48813117  0.83577963  0.16422037  1
  Fe  Fe28  1  0.48840567  0.32976719  0.16449017  1
  Fe  Fe29  1  0.51159433  0.16449017  0.32976719  1
  Fe  Fe30  1  0.51186883  0.16422037  0.83577963  1
  Fe  Fe31  1  0.51159433  0.67023281  0.83550983  1
  Fe  Fe32  1  0.98840567  0.16449017  0.32976719  1
  Fe  Fe33  1  0.98813117  0.16422037  0.83577963  1
  Fe  Fe34  1  0.98840567  0.67023281  0.83550983  1
  Fe  Fe35  1  0.01159433  0.83550983  0.67023281  1
  Fe  Fe36  1  0.01186883  0.83577963  0.16422037  1
  Fe  Fe37  1  0.01159433  0.32976719  0.16449017  1
