# generated using pymatgen
data_Si3As(H3C)9
_symmetry_space_group_name_H-M   'P 1'
_cell_length_a   10.60881748
_cell_length_b   13.06447618
_cell_length_c   16.29789348
_cell_angle_alpha   90.00000000
_cell_angle_beta   90.00000000
_cell_angle_gamma   112.44635223
_symmetry_Int_Tables_number   1
_chemical_formula_structural   Si3As(H3C)9
_chemical_formula_sum   'Si12 As4 H108 C36'
_cell_volume   2087.72847206
_cell_formula_units_Z   4
loop_
 _symmetry_equiv_pos_site_id
 _symmetry_equiv_pos_as_xyz
  1  'x, y, z'
loop_
 _atom_site_type_symbol
 _atom_site_label
 _atom_site_symmetry_multiplicity
 _atom_site_fract_x
 _atom_site_fract_y
 _atom_site_fract_z
 _atom_site_occupancy
  Si  Si0  1  0.69140162  0.10090276  0.34118715  1
  Si  Si1  1  0.19140162  0.60090276  0.15881285  1
  Si  Si2  1  0.30859838  0.89909724  0.65881285  1
  Si  Si3  1  0.80859838  0.39909724  0.84118715  1
  Si  Si4  1  0.77336580  0.06297525  0.11630111  1
  Si  Si5  1  0.27336580  0.56297525  0.38369889  1
  Si  Si6  1  0.22663420  0.93702475  0.88369889  1
  Si  Si7  1  0.72663420  0.43702475  0.61630111  1
  Si  Si8  1  0.95446348  0.97366623  0.29208153  1
  Si  Si9  1  0.45446348  0.47366623  0.20791847  1
  Si  Si10  1  0.04553652  0.02633377  0.70791847  1
  Si  Si11  1  0.54553652  0.52633377  0.79208153  1
  As  As12  1  0.73834075  0.97623978  0.24919631  1
  As  As13  1  0.23834075  0.47623978  0.25080369  1
  As  As14  1  0.26165925  0.02376022  0.75080369  1
  As  As15  1  0.76165925  0.52376022  0.74919631  1
  H  H16  1  0.69415307  0.11764780  0.49275235  1
  H  H17  1  0.19415307  0.61764780  0.00724765  1
  H  H18  1  0.30584693  0.88235220  0.50724765  1
  H  H19  1  0.80584693  0.38235220  0.99275235  1
  H  H20  1  0.81602678  0.06303704  0.46038619  1
  H  H21  1  0.31602678  0.56303704  0.03961381  1
  H  H22  1  0.18397322  0.93696296  0.53961381  1
  H  H23  1  0.68397322  0.43696296  0.96038619  1
  H  H24  1  0.63908742  0.97595789  0.46354199  1
  H  H25  1  0.13908742  0.47595789  0.03645801  1
  H  H26  1  0.36091258  0.02404211  0.53645801  1
  H  H27  1  0.86091258  0.52404211  0.96354199  1
  H  H28  1  0.48299383  0.13807141  0.36951716  1
  H  H29  1  0.98299383  0.63807141  0.13048284  1
  H  H30  1  0.51700617  0.86192859  0.63048284  1
  H  H31  1  0.01700617  0.36192859  0.86951716  1
  H  H32  1  0.43740332  0.99592517  0.34447750  1
  H  H33  1  0.93740332  0.49592517  0.15552250  1
  H  H34  1  0.56259668  0.00407483  0.65552250  1
  H  H35  1  0.06259668  0.50407483  0.84447750  1
  H  H36  1  0.48362718  0.09761832  0.26537525  1
  H  H37  1  0.98362718  0.59761832  0.23462475  1
  H  H38  1  0.51637282  0.90238168  0.73462475  1
  H  H39  1  0.01637282  0.40238168  0.76537525  1
  H  H40  1  0.64688422  0.15397326  0.03597082  1
  H  H41  1  0.14688422  0.65397326  0.46402918  1
  H  H42  1  0.35311578  0.84602674  0.96402918  1
  H  H43  1  0.85311578  0.34602674  0.53597082  1
  H  H44  1  0.62818456  0.17225444  0.14259994  1
  H  H45  1  0.12818456  0.67225444  0.35740006  1
  H  H46  1  0.37181544  0.82774556  0.85740006  1
  H  H47  1  0.87181544  0.32774556  0.64259994  1
  H  H48  1  0.53137760  0.04298210  0.09480590  1
  H  H49  1  0.03137760  0.54298210  0.40519410  1
  H  H50  1  0.46862240  0.95701790  0.90519410  1
  H  H51  1  0.96862240  0.45701790  0.59480590  1
  H  H52  1  0.01333065  0.86091187  0.39654726  1
  H  H53  1  0.51333065  0.36091187  0.10345274  1
  H  H54  1  0.98666935  0.13908813  0.60345274  1
  H  H55  1  0.48666935  0.63908813  0.89654726  1
  H  H56  1  0.85283387  0.78173535  0.35141839  1
  H  H57  1  0.35283387  0.28173535  0.14858161  1
  H  H58  1  0.14716613  0.21826465  0.64858161  1
  H  H59  1  0.64716613  0.71826465  0.85141839  1
  H  H60  1  0.86449087  0.88258175  0.42737655  1
  H  H61  1  0.36449087  0.38258175  0.07262345  1
  H  H62  1  0.13550913  0.11741825  0.57262345  1
  H  H63  1  0.63550913  0.61741825  0.92737655  1
  H  H64  1  0.77417692  0.98896117  0.97638079  1
  H  H65  1  0.27417692  0.48896117  0.52361921  1
  H  H66  1  0.22582308  0.01103883  0.02361921  1
  H  H67  1  0.72582308  0.51103883  0.47638079  1
  H  H68  1  0.65558371  0.88515393  0.03903630  1
  H  H69  1  0.15558371  0.38515393  0.46096370  1
  H  H70  1  0.34441629  0.11484607  0.96096370  1
  H  H71  1  0.84441629  0.61484607  0.53903630  1
  H  H72  1  0.83322292  0.91499275  0.04839524  1
  H  H73  1  0.33322292  0.41499275  0.45160476  1
  H  H74  1  0.16677708  0.08500725  0.95160476  1
  H  H75  1  0.66677708  0.58500725  0.54839524  1
  H  H76  1  0.13036033  0.92522333  0.21984283  1
  H  H77  1  0.63036033  0.42522333  0.28015717  1
  H  H78  1  0.86963967  0.07477667  0.78015717  1
  H  H79  1  0.36963967  0.57477667  0.71984283  1
  H  H80  1  0.04506398  0.98099992  0.14961470  1
  H  H81  1  0.54506398  0.48099992  0.35038530  1
  H  H82  1  0.95493602  0.01900008  0.85038530  1
  H  H83  1  0.45493602  0.51900008  0.64961470  1
  H  H84  1  0.96384154  0.84133225  0.18433762  1
  H  H85  1  0.46384154  0.34133225  0.31566238  1
  H  H86  1  0.03615846  0.15866775  0.81566238  1
  H  H87  1  0.53615846  0.65866775  0.68433762  1
  H  H88  1  0.94715164  0.21712665  0.03774794  1
  H  H89  1  0.44715164  0.71712665  0.46225206  1
  H  H90  1  0.05284836  0.78287335  0.96225206  1
  H  H91  1  0.55284836  0.28287335  0.53774794  1
  H  H92  1  0.02677610  0.15588778  0.10733791  1
  H  H93  1  0.52677610  0.65588778  0.39266209  1
  H  H94  1  0.97322390  0.84411222  0.89266209  1
  H  H95  1  0.47322390  0.34411222  0.60733791  1
  H  H96  1  0.95522578  0.24955718  0.14439687  1
  H  H97  1  0.45522578  0.74955718  0.35560313  1
  H  H98  1  0.04477422  0.75044282  0.85560313  1
  H  H99  1  0.54477422  0.25044282  0.64439687  1
  H  H100  1  0.77538891  0.30466047  0.37069504  1
  H  H101  1  0.27538891  0.80466047  0.12930496  1
  H  H102  1  0.22461109  0.69533953  0.62930496  1
  H  H103  1  0.72461109  0.19533953  0.87069504  1
  H  H104  1  0.78683302  0.27886126  0.26446825  1
  H  H105  1  0.28683302  0.77886126  0.23553175  1
  H  H106  1  0.21316698  0.72113874  0.73553175  1
  H  H107  1  0.71316698  0.22113874  0.76446825  1
  H  H108  1  0.90982768  0.26680315  0.33334961  1
  H  H109  1  0.40982768  0.76680315  0.16665039  1
  H  H110  1  0.09017232  0.73319685  0.66665039  1
  H  H111  1  0.59017232  0.23319685  0.83334961  1
  H  H112  1  0.17883564  0.09898133  0.35019117  1
  H  H113  1  0.67883564  0.59898133  0.14980883  1
  H  H114  1  0.82116436  0.90101867  0.64980883  1
  H  H115  1  0.32116436  0.40101867  0.85019117  1
  H  H116  1  0.04346276  0.13460583  0.38743117  1
  H  H117  1  0.54346276  0.63460583  0.11256883  1
  H  H118  1  0.95653724  0.86539417  0.61256883  1
  H  H119  1  0.45653724  0.36539417  0.88743117  1
  H  H120  1  0.10794181  0.17486704  0.28696224  1
  H  H121  1  0.60794181  0.67486704  0.21303776  1
  H  H122  1  0.89205819  0.82513296  0.71303776  1
  H  H123  1  0.39205819  0.32513296  0.78696224  1
  C  C124  1  0.71210002  0.05975097  0.44963077  1
  C  C125  1  0.21210002  0.55975097  0.05036923  1
  C  C126  1  0.28789998  0.94024903  0.55036923  1
  C  C127  1  0.78789998  0.44024903  0.94963077  1
  C  C128  1  0.50621941  0.08057096  0.32841461  1
  C  C129  1  0.00621941  0.58057096  0.17158539  1
  C  C130  1  0.49378059  0.91942904  0.67158539  1
  C  C131  1  0.99378059  0.41942904  0.82841461  1
  C  C132  1  0.63091068  0.11242296  0.09608295  1
  C  C133  1  0.13091068  0.61242296  0.40391705  1
  C  C134  1  0.36908932  0.88757704  0.90391705  1
  C  C135  1  0.86908932  0.38757704  0.59608295  1
  C  C136  1  0.91665526  0.86435104  0.37455142  1
  C  C137  1  0.41665526  0.36435104  0.12544858  1
  C  C138  1  0.08334474  0.13564896  0.62544858  1
  C  C139  1  0.58334474  0.63564896  0.87455142  1
  C  C140  1  0.75723104  0.95197419  0.03817594  1
  C  C141  1  0.25723104  0.45197419  0.46182406  1
  C  C142  1  0.24276896  0.04802581  0.96182406  1
  C  C143  1  0.74276896  0.54802581  0.53817594  1
  C  C144  1  0.03014553  0.92578317  0.20251707  1
  C  C145  1  0.53014553  0.42578317  0.29748293  1
  C  C146  1  0.96985447  0.07421683  0.79748293  1
  C  C147  1  0.46985447  0.57421683  0.70251707  1
  C  C148  1  0.94105073  0.18283532  0.10010284  1
  C  C149  1  0.44105073  0.68283532  0.39989716  1
  C  C150  1  0.05894927  0.81716468  0.89989716  1
  C  C151  1  0.55894927  0.31716468  0.60010284  1
  C  C152  1  0.80097703  0.25199336  0.32626799  1
  C  C153  1  0.30097703  0.75199336  0.17373201  1
  C  C154  1  0.19902297  0.74800664  0.67373201  1
  C  C155  1  0.69902297  0.24800664  0.82626799  1
  C  C156  1  0.08316490  0.10830340  0.33260999  1
  C  C157  1  0.58316490  0.60830340  0.16739001  1
  C  C158  1  0.91683510  0.89169660  0.66739001  1
  C  C159  1  0.41683510  0.39169660  0.83260999  1
