# generated using pymatgen
data_NaCd4(GeO3)5
_symmetry_space_group_name_H-M   'P 1'
_cell_length_a   7.24088333
_cell_length_b   8.13718011
_cell_length_c   12.37386912
_cell_angle_alpha   106.77008207
_cell_angle_beta   93.03231225
_cell_angle_gamma   94.55862912
_symmetry_Int_Tables_number   1
_chemical_formula_structural   NaCd4(GeO3)5
_chemical_formula_sum   'Na2 Cd8 Ge10 O30'
_cell_volume   693.65762679
_cell_formula_units_Z   2
loop_
 _symmetry_equiv_pos_site_id
 _symmetry_equiv_pos_as_xyz
  1  'x, y, z'
loop_
 _atom_site_type_symbol
 _atom_site_label
 _atom_site_symmetry_multiplicity
 _atom_site_fract_x
 _atom_site_fract_y
 _atom_site_fract_z
 _atom_site_occupancy
  Na  Na0  1  0.62754006  0.82647348  0.36222195  1
  Na  Na1  1  0.37245994  0.17352652  0.63777805  1
  Cd  Cd2  1  0.93654963  0.90534406  0.84989400  1
  Cd  Cd3  1  0.06345037  0.09465594  0.15010600  1
  Cd  Cd4  1  0.87045337  0.68899272  0.55514579  1
  Cd  Cd5  1  0.12954663  0.31100728  0.44485421  1
  Cd  Cd6  1  0.82830936  0.46260616  0.26454819  1
  Cd  Cd7  1  0.17169064  0.53739384  0.73545181  1
  Cd  Cd8  1  0.72991235  0.26222176  0.97700720  1
  Cd  Cd9  1  0.27008765  0.73777824  0.02299280  1
  Ge  Ge10  1  0.57466361  0.03688629  0.16914776  1
  Ge  Ge11  1  0.42533639  0.96311371  0.83085224  1
  Ge  Ge12  1  0.64029255  0.24145525  0.44489054  1
  Ge  Ge13  1  0.35970745  0.75854475  0.55510946  1
  Ge  Ge14  1  0.68810872  0.49811227  0.77305485  1
  Ge  Ge15  1  0.31189128  0.50188773  0.22694515  1
  Ge  Ge16  1  0.77940171  0.68825393  0.04463849  1
  Ge  Ge17  1  0.22059829  0.31174607  0.95536151  1
  Ge  Ge18  1  0.87525423  0.15166872  0.64792592  1
  Ge  Ge19  1  0.12474577  0.84833128  0.35207408  1
  O  O20  1  0.55805756  0.07621809  0.31821255  1
  O  O21  1  0.44194244  0.92378191  0.68178745  1
  O  O22  1  0.96642646  0.82418742  0.02446955  1
  O  O23  1  0.03357354  0.17581258  0.97553045  1
  O  O24  1  0.86564803  0.62378473  0.73281579  1
  O  O25  1  0.13435197  0.37621527  0.26718421  1
  O  O26  1  0.70767985  0.10221589  0.52758849  1
  O  O27  1  0.29232015  0.89778411  0.47241151  1
  O  O28  1  0.82655722  0.38675572  0.43580560  1
  O  O29  1  0.17344278  0.61324428  0.56419440  1
  O  O30  1  0.75403570  0.18026667  0.14862360  1
  O  O31  1  0.24596430  0.81973333  0.85137640  1
  O  O32  1  0.63386506  0.58055092  0.91658552  1
  O  O33  1  0.36613494  0.41944908  0.08341448  1
  O  O34  1  0.62160494  0.81099693  0.13538054  1
  O  O35  1  0.37839506  0.18900307  0.86461946  1
  O  O36  1  0.92253922  0.96210770  0.67839748  1
  O  O37  1  0.07746078  0.03789230  0.32160252  1
  O  O38  1  0.75744419  0.28561843  0.76487232  1
  O  O39  1  0.24255581  0.71438157  0.23512768  1
  O  O40  1  0.56575057  0.68071345  0.49829566  1
  O  O41  1  0.43424943  0.31928655  0.50170434  1
  O  O42  1  0.92555781  0.73221565  0.37847973  1
  O  O43  1  0.07444219  0.26778435  0.62152027  1
  O  O44  1  0.64496281  0.97962999  0.90078103  1
  O  O45  1  0.35503719  0.02037001  0.09921897  1
  O  O46  1  0.83765821  0.51654533  0.09413641  1
  O  O47  1  0.16234179  0.48345467  0.90586359  1
  O  O48  1  0.52761584  0.52125484  0.30528715  1
  O  O49  1  0.47238416  0.47874516  0.69471285  1
