# generated using pymatgen
data_Zr2Ni2H58C24N4O41
_symmetry_space_group_name_H-M   'P 1'
_cell_length_a   10.47970068
_cell_length_b   11.63822860
_cell_length_c   11.82049889
_cell_angle_alpha   90.35669317
_cell_angle_beta   90.00000000
_cell_angle_gamma   63.24172021
_symmetry_Int_Tables_number   1
_chemical_formula_structural   Zr2Ni2H58C24N4O41
_chemical_formula_sum   'Zr2 Ni2 H58 C24 N4 O41'
_cell_volume   1287.27279840
_cell_formula_units_Z   1
loop_
 _symmetry_equiv_pos_site_id
 _symmetry_equiv_pos_as_xyz
  1  'x, y, z'
loop_
 _atom_site_type_symbol
 _atom_site_label
 _atom_site_symmetry_multiplicity
 _atom_site_fract_x
 _atom_site_fract_y
 _atom_site_fract_z
 _atom_site_occupancy
  Zr  Zr0  1  0.28842538  0.42381512  0.24994776  1
  Zr  Zr1  1  0.71224051  0.57618488  0.75005224  1
  Ni  Ni2  1  0.84039446  0.00000000  0.50000000  1
  Ni  Ni3  1  0.15758454  0.00000000  -0.00000000  1
  H  H4  1  0.80025159  0.07388323  0.27920466  1
  H  H5  1  0.87413482  0.92611677  0.72079534  1
  H  H6  1  0.19969164  0.92569138  0.77939599  1
  H  H7  1  0.12538302  0.07430862  0.22060401  1
  H  H8  1  0.63491867  0.78815115  0.12304907  1
  H  H9  1  0.42306982  0.21184885  0.87695093  1
  H  H10  1  0.35968342  0.19767483  0.61291419  1
  H  H11  1  0.55735824  0.80232517  0.38708581  1
  H  H12  1  0.94739571  0.16005447  0.42041702  1
  H  H13  1  0.10745018  0.83994553  0.57958298  1
  H  H14  1  0.04841327  0.84280698  0.92062638  1
  H  H15  1  0.89122025  0.15719302  0.07937362  1
  H  H16  1  0.60393300  0.93274959  0.14841938  1
  H  H17  1  0.53668259  0.06725041  0.85158062  1
  H  H18  1  0.39109203  0.05110655  0.60364270  1
  H  H19  1  0.44219858  0.94889345  0.39635730  1
  H  H20  1  0.95691820  0.16568676  0.55385728  1
  H  H21  1  0.12260497  0.83431324  0.44614272  1
  H  H22  1  0.04051732  0.83811073  0.05343007  1
  H  H23  1  0.87862805  0.16188927  0.94656993  1
  H  H24  1  0.55850855  0.11875672  0.53300215  1
  H  H25  1  0.67726527  0.88124328  0.46699785  1
  H  H26  1  0.43789794  0.87873031  0.03669941  1
  H  H27  1  0.31662825  0.12126969  0.96330059  1
  H  H28  1  0.58616625  0.18193220  0.42282987  1
  H  H29  1  0.76809845  0.81806780  0.57717013  1
  H  H30  1  0.41481480  0.81792378  0.92206441  1
  H  H31  1  0.23273858  0.18207622  0.07793559  1
  H  H32  1  0.31890304  0.72049752  0.12350500  1
  H  H33  1  0.03940056  0.27950248  0.87649500  1
  H  H34  1  0.68092016  0.27961843  0.62098511  1
  H  H35  1  0.96053859  0.72038157  0.37901489  1
  H  H36  1  0.47945544  0.52204348  0.97133319  1
  H  H37  1  0.00149892  0.47795652  0.02866681  1
  H  H38  1  0.52113322  0.47748297  0.47010161  1
  H  H39  1  0.99861619  0.52251703  0.52989839  1
  H  H40  1  0.29470734  0.60135738  0.00808692  1
  H  H41  1  0.89606472  0.39864262  0.99191308  1
  H  H42  1  0.70591559  0.39964194  0.50614433  1
  H  H43  1  0.10555753  0.60035806  0.49385567  1
  H  H44  1  0.47767313  0.67215104  0.20072170  1
  H  H45  1  0.14982417  0.32784896  0.79927830  1
  H  H46  1  0.52196139  0.32911645  0.69856917  1
  H  H47  1  0.85107784  0.67088355  0.30143083  1
  H  H48  1  0.62371254  0.47980334  0.23179489  1
  H  H49  1  0.10351588  0.52019666  0.76820511  1
  H  H50  1  0.37677594  0.52167064  0.73196050  1
  H  H51  1  0.89844658  0.47832936  0.26803950  1
  H  H52  1  0.64820902  0.42110673  0.09057527  1
  H  H53  1  0.06931575  0.57889327  0.90942473  1
  H  H54  1  0.35203337  0.57835753  0.59062642  1
  H  H55  1  0.93039090  0.42164247  0.40937358  1
  H  H56  1  0.88197573  0.92013948  0.27126984  1
  H  H57  1  0.80211521  0.07986052  0.72873016  1
  H  H58  1  0.11930299  0.07944568  0.77278237  1
  H  H59  1  0.19874867  0.92055432  0.22721763  1
  H  H60  1  0.69955751  0.92759313  0.98896911  1
  H  H61  1  0.62715064  0.07240687  0.01103089  1
  C  C62  1  0.61727601  0.30248855  0.21557357  1
  C  C63  1  0.91976456  0.69751145  0.78442643  1
  C  C64  1  0.38363528  0.69855833  0.71512963  1
  C  C65  1  0.08219360  0.30144167  0.28487037  1
  C  C66  1  0.37719085  0.39949165  0.99536195  1
  C  C67  1  0.77668250  0.60050835  0.00463805  1
  C  C68  1  0.62094141  0.60240792  0.49619209  1
  C  C69  1  0.22334934  0.39759208  0.50380791  1
  C  C70  1  0.58481853  0.43386395  0.16786657  1
  C  C71  1  0.01868248  0.56613605  0.83213343  1
  C  C72  1  0.41551398  0.56666325  0.66756511  1
  C  C73  1  0.98217723  0.43333675  0.33243489  1
  C  C74  1  0.39699549  0.51714747  0.02580279  1
  C  C75  1  0.91414296  0.48285253  0.97419721  1
  C  C76  1  0.60309228  0.48340049  0.52454813  1
  C  C77  1  0.08649277  0.51659951  0.47545187  1
  C  C78  1  0.30195180  0.68031923  0.29717553  1
  C  C79  1  0.98227103  0.31968077  0.70282447  1
  C  C80  1  0.69774599  0.32149755  0.79485243  1
  C  C81  1  0.01924354  0.67850245  0.20514757  1
  C  C82  1  0.38573398  0.65224869  0.18765139  1
  C  C83  1  0.03798266  0.34775131  0.81234861  1
  C  C84  1  0.61421589  0.34856114  0.68552364  1
  C  C85  1  0.96277702  0.65143886  0.31447636  1
  N  N86  1  0.43063162  0.51867902  0.14709013  1
  N  N87  1  0.94931064  0.48132098  0.85290987  1
  N  N88  1  0.56955372  0.48174638  0.64584429  1
  N  N89  1  0.05130010  0.51825362  0.35415571  1
  O  O90  1  0.73944663  0.21191639  0.20330906  1
  O  O91  1  0.95136302  0.78808361  0.79669094  1
  O  O92  1  0.26240809  0.78987930  0.70129286  1
  O  O93  1  0.05228739  0.21012070  0.29870714  1
  O  O94  1  0.51571527  0.29575554  0.27387113  1
  O  O95  1  0.81147081  0.70424446  0.72612887  1
  O  O96  1  0.48439035  0.70513900  0.77471581  1
  O  O97  1  0.18952936  0.29486100  0.22528419  1
  O  O98  1  0.62973137  0.14156159  0.49441251  1
  O  O99  1  0.77129296  0.85843841  0.50558749  1
  O  O100  1  0.36824200  0.85823512  0.99342887  1
  O  O101  1  0.22647712  0.14176488  0.00657113  1
  O  O102  1  0.56089894  0.87998327  0.11945132  1
  O  O103  1  0.44088221  0.12001673  0.88054868  1
  O  O104  1  0.43692743  0.10708677  0.61003481  1
  O  O105  1  0.54401420  0.89291323  0.38996519  1
  O  O106  1  0.34610618  0.34367847  0.07794977  1
  O  O107  1  0.68978465  0.65632153  0.92205023  1
  O  O108  1  0.65690396  0.65472369  0.57949879  1
  O  O109  1  0.31162764  0.34527631  0.42050121  1
  O  O110  1  0.28977904  0.58507737  0.34458815  1
  O  O111  1  0.87485641  0.41492263  0.65541185  1
  O  O112  1  0.70764602  0.41787282  0.84371691  1
  O  O113  1  0.12551884  0.58212718  0.15628309  1
  O  O114  1  0.38733022  0.36579690  0.89394264  1
  O  O115  1  0.75312713  0.63420310  0.10605736  1
  O  O116  1  0.60463249  0.64107344  0.39646197  1
  O  O117  1  0.24570593  0.35892656  0.60353803  1
  O  O118  1  0.24639724  0.79296771  0.33573303  1
  O  O119  1  0.03936495  0.20703229  0.66426697  1
  O  O120  1  0.75488615  0.20905252  0.83200192  1
  O  O121  1  0.96393867  0.79094748  0.16799808  1
  O  O122  1  0.84626685  0.99361450  0.32479207  1
  O  O123  1  0.83988135  0.00638550  0.67520793  1
  O  O124  1  0.15097942  0.00639962  0.82524279  1
  O  O125  1  0.15737904  0.99360038  0.17475721  1
  O  O126  1  0.90374861  0.14956612  0.49043289  1
  O  O127  1  0.05331474  0.85043388  0.50956711  1
  O  O128  1  0.09622460  0.84953913  0.98993482  1
  O  O129  1  0.94576373  0.15046087  0.01006518  1
  O  O130  1  0.72158481  -0.00000000  -0.00000000  1
