# generated using pymatgen
data_H13RuN5(ClO)2
_symmetry_space_group_name_H-M   'P 1'
_cell_length_a   6.90791740
_cell_length_b   6.90791740
_cell_length_c   11.22281544
_cell_angle_alpha   74.62619922
_cell_angle_beta   74.62619922
_cell_angle_gamma   66.98725896
_symmetry_Int_Tables_number   1
_chemical_formula_structural   H13RuN5(ClO)2
_chemical_formula_sum   'H26 Ru2 N10 Cl4 O4'
_cell_volume   467.35381279
_cell_formula_units_Z   2
loop_
 _symmetry_equiv_pos_site_id
 _symmetry_equiv_pos_as_xyz
  1  'x, y, z'
loop_
 _atom_site_type_symbol
 _atom_site_label
 _atom_site_symmetry_multiplicity
 _atom_site_fract_x
 _atom_site_fract_y
 _atom_site_fract_z
 _atom_site_occupancy
  H  H0  1  0.10310483  0.10310483  0.18006700  1
  H  H1  1  0.89689517  0.89689517  0.81993300  1
  H  H2  1  0.93162123  0.57125133  0.11901468  1
  H  H3  1  0.57125133  0.93162123  0.11901468  1
  H  H4  1  0.06837877  0.42874867  0.88098532  1
  H  H5  1  0.42874867  0.06837877  0.88098532  1
  H  H6  1  0.06127897  0.72799307  0.02422976  1
  H  H7  1  0.72799307  0.06127897  0.02422976  1
  H  H8  1  0.93872103  0.27200693  0.97577024  1
  H  H9  1  0.27200693  0.93872103  0.97577024  1
  H  H10  1  0.17598169  0.54055581  0.13801458  1
  H  H11  1  0.54055581  0.17598169  0.13801458  1
  H  H12  1  0.82401831  0.45944419  0.86198542  1
  H  H13  1  0.45944419  0.82401831  0.86198542  1
  H  H14  1  0.25844874  0.62488918  0.30223989  1
  H  H15  1  0.62488918  0.25844874  0.30223989  1
  H  H16  1  0.74155126  0.37511082  0.69776011  1
  H  H17  1  0.37511082  0.74155126  0.69776011  1
  H  H18  1  0.17412184  0.85305979  0.35471584  1
  H  H19  1  0.85305979  0.17412184  0.35471584  1
  H  H20  1  0.82587816  0.14694021  0.64528416  1
  H  H21  1  0.14694021  0.82587816  0.64528416  1
  H  H22  1  0.07589330  0.66377110  0.43547883  1
  H  H23  1  0.66377110  0.07589330  0.43547883  1
  H  H24  1  0.92410670  0.33622890  0.56452117  1
  H  H25  1  0.33622890  0.92410670  0.56452117  1
  Ru  Ru26  1  0.87523494  0.87523494  0.23889978  1
  Ru  Ru27  1  0.12476506  0.12476506  0.76110022  1
  N  N28  1  0.72442604  0.72442604  0.34110725  1
  N  N29  1  0.27557396  0.27557396  0.65889275  1
  N  N30  1  0.03328587  0.64997170  0.11577389  1
  N  N31  1  0.64997170  0.03328587  0.11577389  1
  N  N32  1  0.96671413  0.35002830  0.88422611  1
  N  N33  1  0.35002830  0.96671413  0.88422611  1
  N  N34  1  0.12629927  0.73375242  0.34630814  1
  N  N35  1  0.73375242  0.12629927  0.34630814  1
  N  N36  1  0.87370073  0.26624758  0.65369186  1
  N  N37  1  0.26624758  0.87370073  0.65369186  1
  Cl  Cl38  1  0.56902541  0.56902541  0.14063685  1
  Cl  Cl39  1  0.43097459  0.43097459  0.85936315  1
  Cl  Cl40  1  0.18549366  0.18549366  0.35184022  1
  Cl  Cl41  1  0.81450634  0.81450634  0.64815978  1
  O  O42  1  0.62881022  0.62881022  0.42014933  1
  O  O43  1  0.37118978  0.37118978  0.57985067  1
  O  O44  1  0.04750619  0.04750619  0.12902067  1
  O  O45  1  0.95249381  0.95249381  0.87097933  1
