# generated using pymatgen
data_YMo3F15
_symmetry_space_group_name_H-M   'P 1'
_cell_length_a   9.99483875
_cell_length_b   5.62738282
_cell_length_c   10.72100856
_cell_angle_alpha   90.00000000
_cell_angle_beta   90.00000000
_cell_angle_gamma   95.76205778
_symmetry_Int_Tables_number   1
_chemical_formula_structural   YMo3F15
_chemical_formula_sum   'Y2 Mo6 F30'
_cell_volume   599.95409472
_cell_formula_units_Z   2
loop_
 _symmetry_equiv_pos_site_id
 _symmetry_equiv_pos_as_xyz
  1  'x, y, z'
loop_
 _atom_site_type_symbol
 _atom_site_label
 _atom_site_symmetry_multiplicity
 _atom_site_fract_x
 _atom_site_fract_y
 _atom_site_fract_z
 _atom_site_occupancy
  Y  Y0  1  0.96272142  0.41805196  0.25000000  1
  Y  Y1  1  0.37061158  0.58194704  0.75000000  1
  Mo  Mo2  1  0.16666700  0.00000000  0.50000000  1
  Mo  Mo3  1  0.50920241  0.03347842  0.44643302  1
  Mo  Mo4  1  0.82413059  0.96652158  0.55356698  1
  Mo  Mo5  1  0.16666700  0.00000000  0.00000000  1
  Mo  Mo6  1  0.50920241  0.03347842  0.05356698  1
  Mo  Mo7  1  0.82413059  0.96652158  0.94643302  1
  F  F8  1  0.11028151  0.70136167  0.25000000  1
  F  F9  1  0.49545545  0.97515170  0.25000000  1
  F  F10  1  0.82736653  0.65855586  0.25000000  1
  F  F11  1  0.22305149  0.29863833  0.75000000  1
  F  F12  1  0.50596747  0.34144414  0.75000000  1
  F  F13  1  0.83787755  0.02484830  0.75000000  1
  F  F14  1  0.02329754  0.14722807  0.59940731  1
  F  F15  1  0.34782314  0.21646640  0.52285662  1
  F  F16  1  0.65619443  0.14854579  0.58203435  1
  F  F17  1  0.31003646  0.85277193  0.40059269  1
  F  F18  1  0.67713857  0.85145421  0.41796565  1
  F  F19  1  0.98550986  0.78353360  0.47714338  1
  F  F20  1  0.20462648  0.77310353  0.87006827  1
  F  F21  1  0.47007928  0.78944906  0.91379893  1
  F  F22  1  0.76554679  0.65688766  0.88651536  1
  F  F23  1  0.12870752  0.22689647  0.12993173  1
  F  F24  1  0.56778621  0.34311234  0.11348464  1
  F  F25  1  0.86325372  0.21055094  0.08620107  1
  F  F26  1  0.12870752  0.22689647  0.37006827  1
  F  F27  1  0.56778621  0.34311234  0.38651536  1
  F  F28  1  0.86325372  0.21055094  0.41379893  1
  F  F29  1  0.20462648  0.77310353  0.62993173  1
  F  F30  1  0.47007928  0.78944906  0.58620107  1
  F  F31  1  0.76554679  0.65688766  0.61348464  1
  F  F32  1  0.02329754  0.14722807  0.90059269  1
  F  F33  1  0.34782314  0.21646640  0.97714338  1
  F  F34  1  0.65619443  0.14854579  0.91796565  1
  F  F35  1  0.31003646  0.85277193  0.09940731  1
  F  F36  1  0.67713857  0.85145421  0.08203435  1
  F  F37  1  0.98550986  0.78353360  0.02285662  1
