# generated using pymatgen
data_Sr3Al2P(O2F5)2
_symmetry_space_group_name_H-M   'P 1'
_cell_length_a   7.22725485
_cell_length_b   7.42009732
_cell_length_c   20.73255226
_cell_angle_alpha   90.52284479
_cell_angle_beta   90.00000000
_cell_angle_gamma   90.00000000
_symmetry_Int_Tables_number   1
_chemical_formula_structural   Sr3Al2P(O2F5)2
_chemical_formula_sum   'Sr12 Al8 P4 O16 F40'
_cell_volume   1111.77692737
_cell_formula_units_Z   4
loop_
 _symmetry_equiv_pos_site_id
 _symmetry_equiv_pos_as_xyz
  1  'x, y, z'
loop_
 _atom_site_type_symbol
 _atom_site_label
 _atom_site_symmetry_multiplicity
 _atom_site_fract_x
 _atom_site_fract_y
 _atom_site_fract_z
 _atom_site_occupancy
  Sr  Sr0  1  0.79500654  0.77362805  0.50060182  1
  Sr  Sr1  1  0.29500654  0.22637195  0.99939818  1
  Sr  Sr2  1  0.20499346  0.22637195  0.49939818  1
  Sr  Sr3  1  0.70499346  0.77362805  0.00060182  1
  Sr  Sr4  1  0.55810387  0.49373399  0.30482522  1
  Sr  Sr5  1  0.05810387  0.50626601  0.19517478  1
  Sr  Sr6  1  0.44189613  0.50626601  0.69517478  1
  Sr  Sr7  1  0.94189613  0.49373399  0.80482522  1
  Sr  Sr8  1  0.44682939  0.98327843  0.19214293  1
  Sr  Sr9  1  0.94682939  0.01672157  0.30785707  1
  Sr  Sr10  1  0.55317061  0.01672157  0.80785707  1
  Sr  Sr11  1  0.05317061  0.98327843  0.69214293  1
  Al  Al12  1  0.49835641  0.97363670  0.35610807  1
  Al  Al13  1  0.99835641  0.02636330  0.14389193  1
  Al  Al14  1  0.50164359  0.02636330  0.64389193  1
  Al  Al15  1  0.00164359  0.97363670  0.85610807  1
  Al  Al16  1  0.01680327  0.47400565  0.36131020  1
  Al  Al17  1  0.51680327  0.52599435  0.13868980  1
  Al  Al18  1  0.98319673  0.52599435  0.63868980  1
  Al  Al19  1  0.48319673  0.47400565  0.86131020  1
  P  P20  1  0.26302292  0.71908103  0.44864988  1
  P  P21  1  0.76302292  0.28091897  0.05135012  1
  P  P22  1  0.73697708  0.28091897  0.55135012  1
  P  P23  1  0.23697708  0.71908103  0.94864988  1
  O  O24  1  0.39776857  0.75131714  0.39048589  1
  O  O25  1  0.89776857  0.24868286  0.10951411  1
  O  O26  1  0.60223143  0.24868286  0.60951411  1
  O  O27  1  0.10223143  0.75131714  0.89048589  1
  O  O28  1  0.15518459  0.54158379  0.43536444  1
  O  O29  1  0.65518459  0.45841621  0.06463556  1
  O  O30  1  0.84481541  0.45841621  0.56463556  1
  O  O31  1  0.34481541  0.54158379  0.93536444  1
  O  O32  1  0.12935567  0.87115513  0.46410357  1
  O  O33  1  0.62935567  0.12884487  0.03589643  1
  O  O34  1  0.87064433  0.12884487  0.53589643  1
  O  O35  1  0.37064433  0.87115513  0.96410357  1
  O  O36  1  0.41304619  0.68988018  0.50109735  1
  O  O37  1  0.91304619  0.31011982  0.99890265  1
  O  O38  1  0.58695381  0.31011982  0.49890265  1
  O  O39  1  0.08695381  0.68988018  0.00109735  1
  F  F40  1  0.71132979  0.94775391  0.40278648  1
  F  F41  1  0.21132979  0.05224609  0.09721352  1
  F  F42  1  0.28867021  0.05224609  0.59721352  1
  F  F43  1  0.78867021  0.94775391  0.90278648  1
  F  F44  1  0.61223008  0.82854667  0.29441822  1
  F  F45  1  0.11223008  0.17145333  0.20558178  1
  F  F46  1  0.38776992  0.17145333  0.70558178  1
  F  F47  1  0.88776992  0.82854667  0.79441822  1
  F  F48  1  0.39113372  0.11391236  0.41332862  1
  F  F49  1  0.89113372  0.88608764  0.08667138  1
  F  F50  1  0.60886628  0.88608764  0.58667138  1
  F  F51  1  0.10886628  0.11391236  0.91332862  1
  F  F52  1  0.29639736  0.97791308  0.30320246  1
  F  F53  1  0.79639736  0.02208692  0.19679754  1
  F  F54  1  0.70360264  0.02208692  0.69679754  1
  F  F55  1  0.20360264  0.97791308  0.80320246  1
  F  F56  1  0.59725048  0.16110107  0.31179458  1
  F  F57  1  0.09725048  0.83889893  0.18820542  1
  F  F58  1  0.40274952  0.83889893  0.68820542  1
  F  F59  1  0.90274952  0.16110107  0.81179458  1
  F  F60  1  0.22488966  0.42113189  0.31383362  1
  F  F61  1  0.72488966  0.57886811  0.18616638  1
  F  F62  1  0.77511034  0.57886811  0.68616638  1
  F  F63  1  0.27511034  0.42113189  0.81383362  1
  F  F64  1  0.01113456  0.24785145  0.39530571  1
  F  F65  1  0.51113456  0.75214855  0.10469429  1
  F  F66  1  0.98886544  0.75214855  0.60469429  1
  F  F67  1  0.48886544  0.24785145  0.89530571  1
  F  F68  1  0.88475355  0.38031911  0.29154418  1
  F  F69  1  0.38475355  0.61968089  0.20845582  1
  F  F70  1  0.11524645  0.61968089  0.70845582  1
  F  F71  1  0.61524645  0.38031911  0.79154418  1
  F  F72  1  0.79782084  0.54059181  0.39992689  1
  F  F73  1  0.29782084  0.45940819  0.10007311  1
  F  F74  1  0.20217916  0.45940819  0.60007311  1
  F  F75  1  0.70217916  0.54059181  0.89992689  1
  F  F76  1  0.01347229  0.69083226  0.31991388  1
  F  F77  1  0.51347229  0.30916774  0.18008612  1
  F  F78  1  0.98652771  0.30916774  0.68008612  1
  F  F79  1  0.48652771  0.69083226  0.81991388  1
