# generated using pymatgen
data_CeB5H7NO15
_symmetry_space_group_name_H-M   'P 1'
_cell_length_a   6.52195319
_cell_length_b   10.94129341
_cell_length_c   15.73647398
_cell_angle_alpha   90.00000000
_cell_angle_beta   90.00000000
_cell_angle_gamma   91.02583208
_symmetry_Int_Tables_number   1
_chemical_formula_structural   CeB5H7NO15
_chemical_formula_sum   'Ce4 B20 H28 N4 O60'
_cell_volume   1122.75282892
_cell_formula_units_Z   4
loop_
 _symmetry_equiv_pos_site_id
 _symmetry_equiv_pos_as_xyz
  1  'x, y, z'
loop_
 _atom_site_type_symbol
 _atom_site_label
 _atom_site_symmetry_multiplicity
 _atom_site_fract_x
 _atom_site_fract_y
 _atom_site_fract_z
 _atom_site_occupancy
  Ce  Ce0  1  0.84874804  0.63827146  0.29672057  1
  Ce  Ce1  1  0.34874804  0.13827146  0.20327943  1
  Ce  Ce2  1  0.15125196  0.36172854  0.70327943  1
  Ce  Ce3  1  0.65125196  0.86172854  0.79672057  1
  B  B4  1  0.74105383  0.91016341  0.03985273  1
  B  B5  1  0.24105383  0.41016341  0.46014727  1
  B  B6  1  0.25894617  0.08983659  0.96014727  1
  B  B7  1  0.75894617  0.58983659  0.53985273  1
  B  B8  1  0.52611108  0.86027845  0.16518053  1
  B  B9  1  0.02611108  0.36027845  0.33481947  1
  B  B10  1  0.47388892  0.13972155  0.83481947  1
  B  B11  1  0.97388892  0.63972155  0.66518053  1
  B  B12  1  0.86369372  0.96259901  0.18447375  1
  B  B13  1  0.36369372  0.46259901  0.31552625  1
  B  B14  1  0.13630628  0.03740099  0.81552625  1
  B  B15  1  0.63630628  0.53740099  0.68447375  1
  B  B16  1  0.16070563  0.82066776  0.20885741  1
  B  B17  1  0.66070563  0.32066776  0.29114259  1
  B  B18  1  0.83929437  0.17933224  0.79114259  1
  B  B19  1  0.33929437  0.67933224  0.70885741  1
  B  B20  1  0.40546971  0.65063727  0.21916048  1
  B  B21  1  0.90546971  0.15063727  0.28083952  1
  B  B22  1  0.59453029  0.34936273  0.78083952  1
  B  B23  1  0.09453029  0.84936273  0.71916048  1
  H  H24  1  0.90275956  0.96023776  0.94002069  1
  H  H25  1  0.40275956  0.46023776  0.55997931  1
  H  H26  1  0.09724044  0.03976224  0.05997931  1
  H  H27  1  0.59724044  0.53976224  0.44002069  1
  H  H28  1  0.48734057  0.56171273  0.09713592  1
  H  H29  1  0.98734057  0.06171273  0.40286408  1
  H  H30  1  0.51265943  0.43828727  0.90286408  1
  H  H31  1  0.01265943  0.93828727  0.59713592  1
  H  H32  1  0.24147838  0.59390737  0.10074963  1
  H  H33  1  0.74147838  0.09390737  0.39925037  1
  H  H34  1  0.75852162  0.40609263  0.89925037  1
  H  H35  1  0.25852162  0.90609263  0.60074963  1
  H  H36  1  0.65781301  0.88078419  0.32750227  1
  H  H37  1  0.15781301  0.38078419  0.17249773  1
  H  H38  1  0.34218699  0.11921581  0.67249773  1
  H  H39  1  0.84218699  0.61921581  0.82750227  1
  H  H40  1  0.69773141  0.83734386  0.42249601  1
  H  H41  1  0.19773141  0.33734386  0.07750399  1
  H  H42  1  0.30226859  0.16265614  0.57750399  1
  H  H43  1  0.80226859  0.66265614  0.92249601  1
  H  H44  1  0.06128055  0.70094997  0.47198230  1
  H  H45  1  0.56128055  0.20094997  0.02801770  1
  H  H46  1  0.93871945  0.29905003  0.52801770  1
  H  H47  1  0.43871945  0.79905003  0.97198230  1
  H  H48  1  0.24210418  0.72298137  0.40502586  1
  H  H49  1  0.74210418  0.22298137  0.09497414  1
  H  H50  1  0.75789582  0.27701863  0.59497414  1
  H  H51  1  0.25789582  0.77701863  0.90502586  1
  N  N52  1  0.86249533  0.58551072  0.07663053  1
  N  N53  1  0.36249533  0.08551072  0.42336947  1
  N  N54  1  0.13750467  0.41448928  0.92336947  1
  N  N55  1  0.63750467  0.91448928  0.57663053  1
  O  O56  1  0.77246798  0.91245350  0.95229083  1
  O  O57  1  0.27246798  0.41245350  0.54770917  1
  O  O58  1  0.22753202  0.08754650  0.04770917  1
  O  O59  1  0.72753202  0.58754650  0.45229083  1
  O  O60  1  0.56657011  0.85609394  0.07134812  1
  O  O61  1  0.06657011  0.35609394  0.42865188  1
  O  O62  1  0.43342989  0.14390606  0.92865188  1
  O  O63  1  0.93342989  0.64390606  0.57134812  1
  O  O64  1  0.88999233  0.96324510  0.09026184  1
  O  O65  1  0.38999233  0.46324510  0.40973816  1
  O  O66  1  0.11000767  0.03675490  0.90973816  1
  O  O67  1  0.61000767  0.53675490  0.59026184  1
  O  O68  1  0.64681081  0.95822489  0.20633721  1
  O  O69  1  0.14681081  0.45822489  0.29366279  1
  O  O70  1  0.35318919  0.04177511  0.79366279  1
  O  O71  1  0.85318919  0.54177511  0.70633721  1
  O  O72  1  0.56365678  0.73889492  0.20206054  1
  O  O73  1  0.06365678  0.23889492  0.29793946  1
  O  O74  1  0.43634322  0.26110508  0.79793946  1
  O  O75  1  0.93634322  0.76110508  0.70206054  1
  O  O76  1  0.95911767  0.84807160  0.21918071  1
  O  O77  1  0.45911767  0.34807160  0.28081929  1
  O  O78  1  0.04088233  0.15192840  0.78081929  1
  O  O79  1  0.54088233  0.65192840  0.71918071  1
  O  O80  1  0.30839187  0.89897176  0.17817535  1
  O  O81  1  0.80839187  0.39897176  0.32182465  1
  O  O82  1  0.69160813  0.10102824  0.82182465  1
  O  O83  1  0.19160813  0.60102824  0.67817535  1
  O  O84  1  0.20340599  0.70221465  0.23408759  1
  O  O85  1  0.70340599  0.20221465  0.26591241  1
  O  O86  1  0.79659401  0.29778535  0.76591241  1
  O  O87  1  0.29659401  0.79778535  0.73408759  1
  O  O88  1  0.47621985  0.57000504  0.28366031  1
  O  O89  1  0.97621985  0.07000504  0.21633969  1
  O  O90  1  0.52378015  0.42999496  0.71633969  1
  O  O91  1  0.02378015  0.92999496  0.78366031  1
  O  O92  1  0.36387639  0.56746381  0.13467646  1
  O  O93  1  0.86387639  0.06746381  0.36532354  1
  O  O94  1  0.63612361  0.43253619  0.86532354  1
  O  O95  1  0.13612361  0.93253619  0.63467646  1
  O  O96  1  0.85472324  0.54274782  0.15188015  1
  O  O97  1  0.35472324  0.04274782  0.34811985  1
  O  O98  1  0.14527676  0.45725218  0.84811985  1
  O  O99  1  0.64527676  0.95725218  0.65188015  1
  O  O100  1  0.02824256  0.63140672  0.04755394  1
  O  O101  1  0.52824256  0.13140672  0.45244606  1
  O  O102  1  0.97175744  0.36859328  0.95244606  1
  O  O103  1  0.47175744  0.86859328  0.54755394  1
  O  O104  1  0.70365047  0.58123319  0.03037748  1
  O  O105  1  0.20365047  0.08123319  0.46962252  1
  O  O106  1  0.29634953  0.41876681  0.96962252  1
  O  O107  1  0.79634953  0.91876681  0.53037748  1
  O  O108  1  0.09376047  0.71639562  0.41121390  1
  O  O109  1  0.59376047  0.21639562  0.08878610  1
  O  O110  1  0.90623953  0.28360438  0.58878610  1
  O  O111  1  0.40623953  0.78360438  0.91121390  1
  O  O112  1  0.66070644  0.80886136  0.36506648  1
  O  O113  1  0.16070644  0.30886136  0.13493352  1
  O  O114  1  0.33929356  0.19113864  0.63493352  1
  O  O115  1  0.83929356  0.69113864  0.86506648  1
