# generated using pymatgen
data_Pr(Ga4Fe)2
_symmetry_space_group_name_H-M   'P 1'
_cell_length_a   4.05563465
_cell_length_b   12.63970684
_cell_length_c   14.30809457
_cell_angle_alpha   90.00000000
_cell_angle_beta   90.00000000
_cell_angle_gamma   90.00000000
_symmetry_Int_Tables_number   1
_chemical_formula_structural   Pr(Ga4Fe)2
_chemical_formula_sum   'Pr4 Ga32 Fe8'
_cell_volume   733.46201639
_cell_formula_units_Z   4
loop_
 _symmetry_equiv_pos_site_id
 _symmetry_equiv_pos_as_xyz
  1  'x, y, z'
loop_
 _atom_site_type_symbol
 _atom_site_label
 _atom_site_symmetry_multiplicity
 _atom_site_fract_x
 _atom_site_fract_y
 _atom_site_fract_z
 _atom_site_occupancy
  Pr  Pr0  1  0.00000000  0.84280818  0.18095966  1
  Pr  Pr1  1  0.00000000  0.15719182  0.81904034  1
  Pr  Pr2  1  -0.00000000  0.65719182  0.68095966  1
  Pr  Pr3  1  0.00000000  0.34280818  0.31904034  1
  Ga  Ga4  1  -0.00000000  0.50000000  0.50000000  1
  Ga  Ga5  1  0.00000000  -0.00000000  0.00000000  1
  Ga  Ga6  1  0.50000000  -0.00000000  0.50000000  1
  Ga  Ga7  1  0.50000000  0.50000000  0.00000000  1
  Ga  Ga8  1  0.50000000  0.73871102  0.32638955  1
  Ga  Ga9  1  0.50000000  0.26128898  0.67361045  1
  Ga  Ga10  1  0.50000000  0.76128898  0.82638955  1
  Ga  Ga11  1  0.50000000  0.23871102  0.17361045  1
  Ga  Ga12  1  0.50000000  0.95163514  0.31829202  1
  Ga  Ga13  1  0.50000000  0.04836486  0.68170798  1
  Ga  Ga14  1  0.50000000  0.54836486  0.81829202  1
  Ga  Ga15  1  0.50000000  0.45163514  0.18170798  1
  Ga  Ga16  1  0.50000000  0.66353046  0.12105842  1
  Ga  Ga17  1  0.50000000  0.33646954  0.87894158  1
  Ga  Ga18  1  0.50000000  0.83646954  0.62105842  1
  Ga  Ga19  1  0.50000000  0.16353046  0.37894158  1
  Ga  Ga20  1  -0.00000000  0.83599696  0.45392094  1
  Ga  Ga21  1  0.00000000  0.16400304  0.54607906  1
  Ga  Ga22  1  0.00000000  0.66400304  0.95392094  1
  Ga  Ga23  1  -0.00000000  0.33599696  0.04607906  1
  Ga  Ga24  1  0.00000000  0.59833952  0.24545410  1
  Ga  Ga25  1  -0.00000000  0.40166048  0.75454590  1
  Ga  Ga26  1  -0.00000000  0.90166048  0.74545410  1
  Ga  Ga27  1  0.00000000  0.09833952  0.25454590  1
  Ga  Ga28  1  0.50000000  0.83132737  0.00866290  1
  Ga  Ga29  1  0.50000000  0.16867263  0.99133710  1
  Ga  Ga30  1  0.50000000  0.66867263  0.50866290  1
  Ga  Ga31  1  0.50000000  0.33132737  0.49133710  1
  Ga  Ga32  1  0.50000000  0.52506026  0.36609061  1
  Ga  Ga33  1  0.50000000  0.47493974  0.63390939  1
  Ga  Ga34  1  0.50000000  0.97493974  0.86609061  1
  Ga  Ga35  1  0.50000000  0.02506026  0.13390939  1
  Fe  Fe36  1  0.00000000  0.65204812  0.40314234  1
  Fe  Fe37  1  -0.00000000  0.34795188  0.59685766  1
  Fe  Fe38  1  0.00000000  0.84795188  0.90314234  1
  Fe  Fe39  1  0.00000000  0.15204812  0.09685766  1
  Fe  Fe40  1  -0.00000000  0.53381089  0.09088206  1
  Fe  Fe41  1  0.00000000  0.46618911  0.90911794  1
  Fe  Fe42  1  0.00000000  0.96618911  0.59088206  1
  Fe  Fe43  1  -0.00000000  0.03381089  0.40911794  1
