# generated using pymatgen
data_Ti9Ni2(B4Ru9)2
_symmetry_space_group_name_H-M   'P 1'
_cell_length_a   2.99413666
_cell_length_b   17.60740013
_cell_length_c   17.60815958
_cell_angle_alpha   90.00000000
_cell_angle_beta   90.00000000
_cell_angle_gamma   90.00000000
_symmetry_Int_Tables_number   1
_chemical_formula_structural   Ti9Ni2(B4Ru9)2
_chemical_formula_sum   'Ti18 Ni4 B16 Ru36'
_cell_volume   928.28389960
_cell_formula_units_Z   2
loop_
 _symmetry_equiv_pos_site_id
 _symmetry_equiv_pos_as_xyz
  1  'x, y, z'
loop_
 _atom_site_type_symbol
 _atom_site_label
 _atom_site_symmetry_multiplicity
 _atom_site_fract_x
 _atom_site_fract_y
 _atom_site_fract_z
 _atom_site_occupancy
  Ti  Ti0  1  0.50000000  0.30413289  0.80412911  1
  Ti  Ti1  1  0.50000000  0.69586711  0.19587089  1
  Ti  Ti2  1  0.50000000  0.19586711  0.30412911  1
  Ti  Ti3  1  0.50000000  0.80413289  0.69587089  1
  Ti  Ti4  1  0.50000000  0.50000000  0.50000000  1
  Ti  Ti5  1  0.50000000  -0.00000000  -0.00000000  1
  Ti  Ti6  1  0.50000000  0.53462263  0.68646370  1
  Ti  Ti7  1  0.50000000  0.46537737  0.31353630  1
  Ti  Ti8  1  0.50000000  0.96537737  0.18646370  1
  Ti  Ti9  1  0.50000000  0.03462263  0.81353630  1
  Ti  Ti10  1  0.50000000  0.68645868  0.46537450  1
  Ti  Ti11  1  0.50000000  0.31354132  0.53462550  1
  Ti  Ti12  1  0.50000000  0.18645868  0.03462550  1
  Ti  Ti13  1  0.50000000  0.81354132  0.96537450  1
  Ti  Ti14  1  0.50000000  0.67065944  0.82934894  1
  Ti  Ti15  1  0.50000000  0.32934056  0.17065106  1
  Ti  Ti16  1  0.50000000  0.82934056  0.32934894  1
  Ti  Ti17  1  0.50000000  0.17065944  0.67065106  1
  Ni  Ni18  1  0.50000000  0.55078057  0.94922118  1
  Ni  Ni19  1  0.50000000  0.44921943  0.05077882  1
  Ni  Ni20  1  0.50000000  0.94921943  0.44922118  1
  Ni  Ni21  1  0.50000000  0.05078057  0.55077882  1
  B  B22  1  0.50000000  0.37856068  0.66960617  1
  B  B23  1  0.50000000  0.62143932  0.33039383  1
  B  B24  1  0.50000000  0.12143932  0.16960617  1
  B  B25  1  0.50000000  0.87856068  0.83039383  1
  B  B26  1  0.50000000  0.66961116  0.62143732  1
  B  B27  1  0.50000000  0.33038884  0.37856268  1
  B  B28  1  0.50000000  0.16961116  0.87856268  1
  B  B29  1  0.50000000  0.83038884  0.12143732  1
  B  B30  1  0.50000000  0.46182198  0.83636870  1
  B  B31  1  0.50000000  0.53817802  0.16363130  1
  B  B32  1  0.50000000  0.03817802  0.33636870  1
  B  B33  1  0.50000000  0.96182198  0.66363130  1
  B  B34  1  0.50000000  0.83637346  0.53818982  1
  B  B35  1  0.50000000  0.16362654  0.46181018  1
  B  B36  1  0.50000000  0.33637346  0.96181018  1
  B  B37  1  0.50000000  0.66362654  0.03818982  1
  Ru  Ru38  1  0.00000000  0.41913148  0.75411533  1
  Ru  Ru39  1  0.00000000  0.58086852  0.24588467  1
  Ru  Ru40  1  -0.00000000  0.08086852  0.25411533  1
  Ru  Ru41  1  -0.00000000  0.91913148  0.74588467  1
  Ru  Ru42  1  0.00000000  0.75412048  0.58087494  1
  Ru  Ru43  1  0.00000000  0.24587952  0.41912506  1
  Ru  Ru44  1  0.00000000  0.25412048  0.91912506  1
  Ru  Ru45  1  0.00000000  0.74587952  0.08087494  1
  Ru  Ru46  1  -0.00000000  0.41755383  0.91755164  1
  Ru  Ru47  1  0.00000000  0.58244617  0.08244836  1
  Ru  Ru48  1  0.00000000  0.08244617  0.41755164  1
  Ru  Ru49  1  -0.00000000  0.91755383  0.58244836  1
  Ru  Ru50  1  0.00000000  0.55051389  0.83021603  1
  Ru  Ru51  1  0.00000000  0.44948611  0.16978397  1
  Ru  Ru52  1  0.00000000  0.94948611  0.33021603  1
  Ru  Ru53  1  0.00000000  0.05051389  0.66978397  1
  Ru  Ru54  1  0.00000000  0.83023305  0.44949094  1
  Ru  Ru55  1  0.00000000  0.16976695  0.55050906  1
  Ru  Ru56  1  0.00000000  0.33023305  0.05050906  1
  Ru  Ru57  1  -0.00000000  0.66976695  0.94949094  1
  Ru  Ru58  1  0.00000000  0.28854331  0.66832856  1
  Ru  Ru59  1  -0.00000000  0.71145669  0.33167144  1
  Ru  Ru60  1  -0.00000000  0.21145669  0.16832856  1
  Ru  Ru61  1  0.00000000  0.78854331  0.83167144  1
  Ru  Ru62  1  0.00000000  0.66831389  0.71145825  1
  Ru  Ru63  1  0.00000000  0.33168611  0.28854175  1
  Ru  Ru64  1  0.00000000  0.16831389  0.78854175  1
  Ru  Ru65  1  0.00000000  0.83168611  0.21145825  1
  Ru  Ru66  1  0.00000000  0.43002686  0.59750285  1
  Ru  Ru67  1  0.00000000  0.56997314  0.40249715  1
  Ru  Ru68  1  -0.00000000  0.06997314  0.09750285  1
  Ru  Ru69  1  0.00000000  0.93002686  0.90249715  1
  Ru  Ru70  1  0.00000000  0.59748383  0.56999075  1
  Ru  Ru71  1  -0.00000000  0.40251617  0.43000925  1
  Ru  Ru72  1  0.00000000  0.09748383  0.93000925  1
  Ru  Ru73  1  -0.00000000  0.90251617  0.06999075  1
