# generated using pymatgen
data_BaMnO2
_symmetry_space_group_name_H-M   'P 1'
_cell_length_a   9.75146499
_cell_length_b   10.66683978
_cell_length_c   11.49407438
_cell_angle_alpha   90.00000000
_cell_angle_beta   90.00000000
_cell_angle_gamma   90.00000000
_symmetry_Int_Tables_number   1
_chemical_formula_structural   BaMnO2
_chemical_formula_sum   'Ba16 Mn16 O32'
_cell_volume   1195.58275161
_cell_formula_units_Z   16
loop_
 _symmetry_equiv_pos_site_id
 _symmetry_equiv_pos_as_xyz
  1  'x, y, z'
loop_
 _atom_site_type_symbol
 _atom_site_label
 _atom_site_symmetry_multiplicity
 _atom_site_fract_x
 _atom_site_fract_y
 _atom_site_fract_z
 _atom_site_occupancy
  Ba  Ba0  1  0.52184601  0.26945103  0.11645690  1
  Ba  Ba1  1  0.97815399  0.76945103  0.38354310  1
  Ba  Ba2  1  0.02184601  0.73054897  0.88354310  1
  Ba  Ba3  1  0.47815399  0.23054897  0.61645690  1
  Ba  Ba4  1  0.47815399  0.73054897  0.88354310  1
  Ba  Ba5  1  0.02184601  0.23054897  0.61645690  1
  Ba  Ba6  1  0.97815399  0.26945103  0.11645690  1
  Ba  Ba7  1  0.52184601  0.76945103  0.38354310  1
  Ba  Ba8  1  0.75000000  0.43392756  0.37892167  1
  Ba  Ba9  1  0.75000000  0.93392756  0.12107833  1
  Ba  Ba10  1  0.25000000  0.56607244  0.62107833  1
  Ba  Ba11  1  0.25000000  0.06607244  0.87892167  1
  Ba  Ba12  1  0.75000000  0.92411967  0.64172629  1
  Ba  Ba13  1  0.75000000  0.42411967  0.85827371  1
  Ba  Ba14  1  0.25000000  0.07588033  0.35827371  1
  Ba  Ba15  1  0.25000000  0.57588033  0.14172629  1
  Mn  Mn16  1  0.10632149  0.38732524  0.36229513  1
  Mn  Mn17  1  0.39367851  0.88732524  0.13770487  1
  Mn  Mn18  1  0.60632149  0.61267476  0.63770487  1
  Mn  Mn19  1  0.89367851  0.11267476  0.86229513  1
  Mn  Mn20  1  0.89367851  0.61267476  0.63770487  1
  Mn  Mn21  1  0.60632149  0.11267476  0.86229513  1
  Mn  Mn22  1  0.39367851  0.38732524  0.36229513  1
  Mn  Mn23  1  0.10632149  0.88732524  0.13770487  1
  Mn  Mn24  1  0.90513274  0.57901321  0.13878227  1
  Mn  Mn25  1  0.59486726  0.07901321  0.36121773  1
  Mn  Mn26  1  0.40513274  0.42098679  0.86121773  1
  Mn  Mn27  1  0.09486726  0.92098679  0.63878227  1
  Mn  Mn28  1  0.09486726  0.42098679  0.86121773  1
  Mn  Mn29  1  0.40513274  0.92098679  0.63878227  1
  Mn  Mn30  1  0.59486726  0.57901321  0.13878227  1
  Mn  Mn31  1  0.90513274  0.07901321  0.36121773  1
  O  O32  1  0.25000000  0.05484473  0.65113533  1
  O  O33  1  0.25000000  0.55484473  0.84886467  1
  O  O34  1  0.75000000  0.94515527  0.34886467  1
  O  O35  1  0.75000000  0.44515527  0.15113533  1
  O  O36  1  0.44540216  0.73504033  0.60975612  1
  O  O37  1  0.05459784  0.23504033  0.89024388  1
  O  O38  1  0.94540216  0.26495967  0.39024388  1
  O  O39  1  0.55459784  0.76495967  0.10975612  1
  O  O40  1  0.55459784  0.26495967  0.39024388  1
  O  O41  1  0.94540216  0.76495967  0.10975612  1
  O  O42  1  0.05459784  0.73504033  0.60975612  1
  O  O43  1  0.44540216  0.23504033  0.89024388  1
  O  O44  1  0.50000000  -0.00000000  0.50000000  1
  O  O45  1  -0.00000000  0.50000000  0.00000000  1
  O  O46  1  0.00000000  -0.00000000  0.50000000  1
  O  O47  1  0.50000000  0.50000000  0.00000000  1
  O  O48  1  0.75000000  0.64615086  0.50335517  1
  O  O49  1  0.75000000  0.14615086  0.99664483  1
  O  O50  1  0.25000000  0.35384914  0.49664483  1
  O  O51  1  0.25000000  0.85384914  0.00335517  1
  O  O52  1  0.52186263  0.95701260  0.78963332  1
  O  O53  1  0.97813737  0.45701260  0.71036668  1
  O  O54  1  0.02186263  0.04298740  0.21036668  1
  O  O55  1  0.47813737  0.54298740  0.28963332  1
  O  O56  1  0.47813737  0.04298740  0.21036668  1
  O  O57  1  0.02186263  0.54298740  0.28963332  1
  O  O58  1  0.97813737  0.95701260  0.78963332  1
  O  O59  1  0.52186263  0.45701260  0.71036668  1
  O  O60  1  0.75000000  0.17308423  0.73285152  1
  O  O61  1  0.75000000  0.67308423  0.76714848  1
  O  O62  1  0.25000000  0.82691577  0.26714848  1
  O  O63  1  0.25000000  0.32691577  0.23285152  1
