# generated using pymatgen
data_KP(HO2)2
_symmetry_space_group_name_H-M   'P 1'
_cell_length_a   6.82505431
_cell_length_b   7.35428965
_cell_length_c   7.90355713
_cell_angle_alpha   86.88434207
_cell_angle_beta   83.62301784
_cell_angle_gamma   87.19911205
_symmetry_Int_Tables_number   1
_chemical_formula_structural   KP(HO2)2
_chemical_formula_sum   'K4 P4 H8 O16'
_cell_volume   393.30246294
_cell_formula_units_Z   4
loop_
 _symmetry_equiv_pos_site_id
 _symmetry_equiv_pos_as_xyz
  1  'x, y, z'
loop_
 _atom_site_type_symbol
 _atom_site_label
 _atom_site_symmetry_multiplicity
 _atom_site_fract_x
 _atom_site_fract_y
 _atom_site_fract_z
 _atom_site_occupancy
  K  K0  1  0.79052080  0.83168439  0.06464870  1
  K  K1  1  0.20947920  0.16831561  0.93535130  1
  K  K2  1  0.19555825  0.33344941  0.40335006  1
  K  K3  1  0.80444175  0.66655059  0.59664994  1
  P  P4  1  0.32099112  0.84069013  0.35394787  1
  P  P5  1  0.67900888  0.15930987  0.64605213  1
  P  P6  1  0.74180706  0.34660251  0.13801710  1
  P  P7  1  0.25819294  0.65339749  0.86198290  1
  H  H8  1  0.61000804  0.57659154  0.31584413  1
  H  H9  1  0.38999196  0.42340846  0.68415587  1
  H  H10  1  0.16317362  0.67435600  0.18925685  1
  H  H11  1  0.83682638  0.32564400  0.81074315  1
  H  H12  1  0.49212121  0.14795881  0.18310477  1
  H  H13  1  0.50787879  0.85204119  0.81689523  1
  H  H14  1  0.80743113  0.10320886  0.37695035  1
  H  H15  1  0.19256887  0.89679114  0.62304965  1
  O  O16  1  0.47404436  0.69790766  0.40851298  1
  O  O17  1  0.52595564  0.30209234  0.59148702  1
  O  O18  1  0.23848782  0.96226976  0.50782048  1
  O  O19  1  0.76151218  0.03773024  0.49217952  1
  O  O20  1  0.13246123  0.74078350  0.30821504  1
  O  O21  1  0.86753877  0.25921650  0.69178496  1
  O  O22  1  0.39384816  0.97016572  0.20504318  1
  O  O23  1  0.60615184  0.02983428  0.79495682  1
  O  O24  1  0.80384404  0.42257049  0.95790512  1
  O  O25  1  0.19615596  0.57742951  0.04209488  1
  O  O26  1  0.52029884  0.28395528  0.15413767  1
  O  O27  1  0.47970116  0.71604472  0.84586233  1
  O  O28  1  0.87821817  0.18927823  0.19758564  1
  O  O29  1  0.12178183  0.81072177  0.80241436  1
  O  O30  1  0.74109497  0.50832734  0.26253005  1
  O  O31  1  0.25890503  0.49167266  0.73746995  1
