# generated using pymatgen
data_Sm7V(Se2O)4
_symmetry_space_group_name_H-M   'P 1'
_cell_length_a   3.99021779
_cell_length_b   14.33389121
_cell_length_c   15.74942750
_cell_angle_alpha   90.00000000
_cell_angle_beta   90.00000000
_cell_angle_gamma   90.00000000
_symmetry_Int_Tables_number   1
_chemical_formula_structural   Sm7V(Se2O)4
_chemical_formula_sum   'Sm14 V2 Se16 O8'
_cell_volume   900.79398203
_cell_formula_units_Z   2
loop_
 _symmetry_equiv_pos_site_id
 _symmetry_equiv_pos_as_xyz
  1  'x, y, z'
loop_
 _atom_site_type_symbol
 _atom_site_label
 _atom_site_symmetry_multiplicity
 _atom_site_fract_x
 _atom_site_fract_y
 _atom_site_fract_z
 _atom_site_occupancy
  Sm  Sm0  1  0.50000000  0.50748934  0.31031309  1
  Sm  Sm1  1  0.50000000  0.49251066  0.68968691  1
  Sm  Sm2  1  0.50000000  0.00748934  0.18968691  1
  Sm  Sm3  1  0.50000000  0.99251066  0.81031309  1
  Sm  Sm4  1  0.50000000  0.71959729  0.16465749  1
  Sm  Sm5  1  0.50000000  0.28040271  0.83534251  1
  Sm  Sm6  1  0.50000000  0.21959729  0.33534251  1
  Sm  Sm7  1  0.50000000  0.78040271  0.66465749  1
  Sm  Sm8  1  -0.00000000  0.70953962  0.38111849  1
  Sm  Sm9  1  0.00000000  0.29046038  0.61888151  1
  Sm  Sm10  1  -0.00000000  0.20953962  0.11888151  1
  Sm  Sm11  1  -0.00000000  0.79046038  0.88111849  1
  Sm  Sm12  1  -0.00000000  0.50000000  0.00000000  1
  Sm  Sm13  1  0.00000000  0.00000000  0.50000000  1
  V  V14  1  -0.00000000  0.50000000  0.50000000  1
  V  V15  1  0.00000000  0.00000000  0.00000000  1
  Se  Se16  1  0.50000000  0.85453100  0.47134201  1
  Se  Se17  1  0.50000000  0.14546900  0.52865799  1
  Se  Se18  1  0.50000000  0.35453100  0.02865799  1
  Se  Se19  1  0.50000000  0.64546900  0.97134201  1
  Se  Se20  1  0.50000000  0.88020403  0.03285407  1
  Se  Se21  1  0.50000000  0.11979597  0.96714593  1
  Se  Se22  1  0.50000000  0.38020403  0.46714593  1
  Se  Se23  1  0.50000000  0.61979597  0.53285407  1
  Se  Se24  1  -0.00000000  0.56986301  0.17160054  1
  Se  Se25  1  -0.00000000  0.43013699  0.82839946  1
  Se  Se26  1  -0.00000000  0.06986301  0.32839946  1
  Se  Se27  1  -0.00000000  0.93013699  0.67160054  1
  Se  Se28  1  0.00000000  0.84411879  0.23554118  1
  Se  Se29  1  -0.00000000  0.15588121  0.76445882  1
  Se  Se30  1  0.00000000  0.34411879  0.26445882  1
  Se  Se31  1  -0.00000000  0.65588121  0.73554118  1
  O  O32  1  0.50000000  0.67281629  0.31169741  1
  O  O33  1  0.50000000  0.32718371  0.68830259  1
  O  O34  1  0.50000000  0.17281629  0.18830259  1
  O  O35  1  0.50000000  0.82718371  0.81169741  1
  O  O36  1  0.00000000  0.54567077  0.38038931  1
  O  O37  1  0.00000000  0.45432923  0.61961069  1
  O  O38  1  -0.00000000  0.04567077  0.11961069  1
  O  O39  1  0.00000000  0.95432923  0.88038931  1
