# generated using pymatgen
data_Lu11Cd45
_symmetry_space_group_name_H-M   'P 1'
_cell_length_a   15.34888567
_cell_length_b   15.34888567
_cell_length_c   15.34888567
_cell_angle_alpha   60.00000000
_cell_angle_beta   60.00000000
_cell_angle_gamma   60.00000000
_symmetry_Int_Tables_number   1
_chemical_formula_structural   Lu11Cd45
_chemical_formula_sum   'Lu22 Cd90'
_cell_volume   2556.91067022
_cell_formula_units_Z   2
loop_
 _symmetry_equiv_pos_site_id
 _symmetry_equiv_pos_as_xyz
  1  'x, y, z'
loop_
 _atom_site_type_symbol
 _atom_site_label
 _atom_site_symmetry_multiplicity
 _atom_site_fract_x
 _atom_site_fract_y
 _atom_site_fract_z
 _atom_site_occupancy
  Lu  Lu0  1  0.00000000  0.00000000  0.00000000  1
  Lu  Lu1  1  0.36194439  0.66564449  0.98620556  1
  Lu  Lu2  1  0.36194439  0.98620556  0.98620556  1
  Lu  Lu3  1  0.36194439  0.98620556  0.66564449  1
  Lu  Lu4  1  0.66564449  0.36194439  0.98620556  1
  Lu  Lu5  1  0.98620556  0.36194439  0.66564449  1
  Lu  Lu6  1  0.98620556  0.36194439  0.98620556  1
  Lu  Lu7  1  0.98620556  0.98620556  0.36194439  1
  Lu  Lu8  1  0.98620556  0.66564449  0.36194439  1
  Lu  Lu9  1  0.66564449  0.98620556  0.36194439  1
  Lu  Lu10  1  0.98620556  0.98620556  0.66564449  1
  Lu  Lu11  1  0.66564449  0.98620556  0.98620556  1
  Lu  Lu12  1  0.98620556  0.66564449  0.98620556  1
  Lu  Lu13  1  0.75000000  0.75000000  0.75000000  1
  Lu  Lu14  1  0.21906352  0.59364549  0.59364549  1
  Lu  Lu15  1  0.59364549  0.21906352  0.59364549  1
  Lu  Lu16  1  0.59364549  0.59364549  0.21906352  1
  Lu  Lu17  1  0.59364549  0.59364549  0.59364549  1
  Lu  Lu18  1  0.98492338  0.33835887  0.33835887  1
  Lu  Lu19  1  0.33835887  0.98492338  0.33835887  1
  Lu  Lu20  1  0.33835887  0.33835887  0.98492338  1
  Lu  Lu21  1  0.33835887  0.33835887  0.33835887  1
  Cd  Cd22  1  0.24972118  0.91675961  0.91675961  1
  Cd  Cd23  1  0.91675961  0.24972118  0.91675961  1
  Cd  Cd24  1  0.91675961  0.91675961  0.24972118  1
  Cd  Cd25  1  0.91675961  0.91675961  0.91675961  1
  Cd  Cd26  1  0.73965381  0.08678206  0.08678206  1
  Cd  Cd27  1  0.08678206  0.73965381  0.08678206  1
  Cd  Cd28  1  0.08678206  0.08678206  0.73965381  1
  Cd  Cd29  1  0.08678206  0.08678206  0.08678206  1
  Cd  Cd30  1  0.15609466  0.84390534  0.84390534  1
  Cd  Cd31  1  0.15609466  0.84390534  0.15609466  1
  Cd  Cd32  1  0.15609466  0.15609466  0.84390534  1
  Cd  Cd33  1  0.84390534  0.15609466  0.15609466  1
  Cd  Cd34  1  0.84390534  0.15609466  0.84390534  1
  Cd  Cd35  1  0.84390534  0.84390534  0.15609466  1
  Cd  Cd36  1  0.98256974  0.79869129  0.60936949  1
  Cd  Cd37  1  0.98256974  0.60936949  0.60936949  1
  Cd  Cd38  1  0.98256974  0.60936949  0.79869129  1
  Cd  Cd39  1  0.79869129  0.98256974  0.60936949  1
  Cd  Cd40  1  0.60936949  0.98256974  0.79869129  1
  Cd  Cd41  1  0.60936949  0.98256974  0.60936949  1
  Cd  Cd42  1  0.60936949  0.60936949  0.98256974  1
  Cd  Cd43  1  0.60936949  0.79869129  0.98256974  1
  Cd  Cd44  1  0.79869129  0.60936949  0.98256974  1
  Cd  Cd45  1  0.60936949  0.60936949  0.79869129  1
  Cd  Cd46  1  0.79869129  0.60936949  0.60936949  1
  Cd  Cd47  1  0.60936949  0.79869129  0.60936949  1
  Cd  Cd48  1  0.49036180  0.83654607  0.83654607  1
  Cd  Cd49  1  0.83654607  0.49036180  0.83654607  1
  Cd  Cd50  1  0.83654607  0.83654607  0.49036180  1
  Cd  Cd51  1  0.83654607  0.83654607  0.83654607  1
  Cd  Cd52  1  0.13794982  0.38840994  0.73682012  1
  Cd  Cd53  1  0.13794982  0.73682012  0.73682012  1
  Cd  Cd54  1  0.13794982  0.73682012  0.38840994  1
  Cd  Cd55  1  0.38840994  0.13794982  0.73682012  1
  Cd  Cd56  1  0.73682012  0.13794982  0.38840994  1
  Cd  Cd57  1  0.73682012  0.13794982  0.73682012  1
  Cd  Cd58  1  0.73682012  0.73682012  0.13794982  1
  Cd  Cd59  1  0.73682012  0.38840994  0.13794982  1
  Cd  Cd60  1  0.38840994  0.73682012  0.13794982  1
  Cd  Cd61  1  0.73682012  0.73682012  0.38840994  1
  Cd  Cd62  1  0.38840994  0.73682012  0.73682012  1
  Cd  Cd63  1  0.73682012  0.38840994  0.73682012  1
  Cd  Cd64  1  0.50000000  0.50000000  0.50000000  1
  Cd  Cd65  1  0.73104041  0.54969914  0.35963022  1
  Cd  Cd66  1  0.73104041  0.35963022  0.35963022  1
  Cd  Cd67  1  0.73104041  0.35963022  0.54969914  1
  Cd  Cd68  1  0.54969914  0.73104041  0.35963022  1
  Cd  Cd69  1  0.35963022  0.73104041  0.54969914  1
  Cd  Cd70  1  0.35963022  0.73104041  0.35963022  1
  Cd  Cd71  1  0.35963022  0.35963022  0.73104041  1
  Cd  Cd72  1  0.35963022  0.54969914  0.73104041  1
  Cd  Cd73  1  0.54969914  0.35963022  0.73104041  1
  Cd  Cd74  1  0.35963022  0.35963022  0.54969914  1
  Cd  Cd75  1  0.54969914  0.35963022  0.35963022  1
  Cd  Cd76  1  0.35963022  0.54969914  0.35963022  1
  Cd  Cd77  1  0.85886472  0.16633826  0.48739851  1
  Cd  Cd78  1  0.85886472  0.48739851  0.48739851  1
  Cd  Cd79  1  0.85886472  0.48739851  0.16633826  1
  Cd  Cd80  1  0.16633826  0.85886472  0.48739851  1
  Cd  Cd81  1  0.48739851  0.85886472  0.16633826  1
  Cd  Cd82  1  0.48739851  0.85886472  0.48739851  1
  Cd  Cd83  1  0.48739851  0.48739851  0.85886472  1
  Cd  Cd84  1  0.48739851  0.16633826  0.85886472  1
  Cd  Cd85  1  0.16633826  0.48739851  0.85886472  1
  Cd  Cd86  1  0.48739851  0.48739851  0.16633826  1
  Cd  Cd87  1  0.16633826  0.48739851  0.48739851  1
  Cd  Cd88  1  0.48739851  0.16633826  0.48739851  1
  Cd  Cd89  1  0.25000000  0.25000000  0.25000000  1
  Cd  Cd90  1  0.49019232  0.16993589  0.16993589  1
  Cd  Cd91  1  0.16993589  0.49019232  0.16993589  1
  Cd  Cd92  1  0.16993589  0.16993589  0.49019232  1
  Cd  Cd93  1  0.16993589  0.16993589  0.16993589  1
  Cd  Cd94  1  0.41056711  0.08943289  0.08943289  1
  Cd  Cd95  1  0.41056711  0.08943289  0.41056711  1
  Cd  Cd96  1  0.41056711  0.41056711  0.08943289  1
  Cd  Cd97  1  0.08943289  0.41056711  0.41056711  1
  Cd  Cd98  1  0.08943289  0.41056711  0.08943289  1
  Cd  Cd99  1  0.08943289  0.08943289  0.41056711  1
  Cd  Cd100  1  0.59501159  0.93316119  0.23591361  1
  Cd  Cd101  1  0.59501159  0.23591361  0.23591361  1
  Cd  Cd102  1  0.59501159  0.23591361  0.93316119  1
  Cd  Cd103  1  0.93316119  0.59501159  0.23591361  1
  Cd  Cd104  1  0.23591361  0.59501159  0.93316119  1
  Cd  Cd105  1  0.23591361  0.59501159  0.23591361  1
  Cd  Cd106  1  0.23591361  0.23591361  0.59501159  1
  Cd  Cd107  1  0.23591361  0.93316119  0.59501159  1
  Cd  Cd108  1  0.93316119  0.23591361  0.59501159  1
  Cd  Cd109  1  0.23591361  0.23591361  0.93316119  1
  Cd  Cd110  1  0.93316119  0.23591361  0.23591361  1
  Cd  Cd111  1  0.23591361  0.93316119  0.23591361  1
