# generated using pymatgen
data_Co3B11HO20
_symmetry_space_group_name_H-M   'P 1'
_cell_length_a   7.74903791
_cell_length_b   8.24368183
_cell_length_c   17.62177818
_cell_angle_alpha   90.00000000
_cell_angle_beta   90.00000000
_cell_angle_gamma   90.00000000
_symmetry_Int_Tables_number   1
_chemical_formula_structural   Co3B11HO20
_chemical_formula_sum   'Co12 B44 H4 O80'
_cell_volume   1125.68981640
_cell_formula_units_Z   4
loop_
 _symmetry_equiv_pos_site_id
 _symmetry_equiv_pos_as_xyz
  1  'x, y, z'
loop_
 _atom_site_type_symbol
 _atom_site_label
 _atom_site_symmetry_multiplicity
 _atom_site_fract_x
 _atom_site_fract_y
 _atom_site_fract_z
 _atom_site_occupancy
  Co  Co0  1  0.00000000  0.67441815  0.84345023  1
  Co  Co1  1  0.50000000  0.32558185  0.34345023  1
  Co  Co2  1  0.50000000  0.96118141  0.20476886  1
  Co  Co3  1  0.00000000  0.03881859  0.70476886  1
  Co  Co4  1  0.50000000  0.85467914  0.75637612  1
  Co  Co5  1  0.00000000  0.14532086  0.25637612  1
  Co  Co6  1  0.50000000  0.22693392  0.62699208  1
  Co  Co7  1  0.00000000  0.77306608  0.12699208  1
  Co  Co8  1  0.00000000  0.26406845  0.95980061  1
  Co  Co9  1  0.50000000  0.73593155  0.45980061  1
  Co  Co10  1  0.50000000  0.43993478  0.89876104  1
  Co  Co11  1  0.00000000  0.56006522  0.39876104  1
  B  B12  1  0.66481481  0.78940458  0.90995710  1
  B  B13  1  0.33518519  0.78940458  0.90995710  1
  B  B14  1  0.83518519  0.21059542  0.40995710  1
  B  B15  1  0.16481481  0.21059542  0.40995710  1
  B  B16  1  0.82495672  0.01864312  0.84273225  1
  B  B17  1  0.17504328  0.01864312  0.84273225  1
  B  B18  1  0.67504328  0.98135688  0.34273225  1
  B  B19  1  0.32495672  0.98135688  0.34273225  1
  B  B20  1  0.83125133  0.60094265  0.99948317  1
  B  B21  1  0.16874867  0.60094265  0.99948317  1
  B  B22  1  0.66874867  0.39905735  0.49948317  1
  B  B23  1  0.33125133  0.39905735  0.49948317  1
  B  B24  1  0.66298730  0.08556516  0.96126491  1
  B  B25  1  0.33701270  0.08556516  0.96126491  1
  B  B26  1  0.83701270  0.91443484  0.46126491  1
  B  B27  1  0.16298730  0.91443484  0.46126491  1
  B  B28  1  0.66864362  0.35093222  0.03895392  1
  B  B29  1  0.33135638  0.35093222  0.03895392  1
  B  B30  1  0.83135638  0.64906778  0.53895392  1
  B  B31  1  0.16864362  0.64906778  0.53895392  1
  B  B32  1  0.83564409  0.14830898  0.55816902  1
  B  B33  1  0.16435591  0.14830898  0.55816902  1
  B  B34  1  0.66435591  0.85169102  0.05816902  1
  B  B35  1  0.33564409  0.85169102  0.05816902  1
  B  B36  1  0.83282375  0.10179846  0.09512848  1
  B  B37  1  0.16717625  0.10179846  0.09512848  1
  B  B38  1  0.66717625  0.89820154  0.59512848  1
  B  B39  1  0.33282375  0.89820154  0.59512848  1
  B  B40  1  0.66505288  0.50629329  0.75326078  1
  B  B41  1  0.33494712  0.50629329  0.75326078  1
  B  B42  1  0.83494712  0.49370671  0.25326078  1
  B  B43  1  0.16505288  0.49370671  0.25326078  1
  B  B44  1  0.83114885  0.71404008  0.68544596  1
  B  B45  1  0.16885115  0.71404008  0.68544596  1
  B  B46  1  0.66885115  0.28595992  0.18544596  1
  B  B47  1  0.33114885  0.28595992  0.18544596  1
  B  B48  1  0.66100285  0.58677655  0.13435873  1
  B  B49  1  0.33899715  0.58677655  0.13435873  1
  B  B50  1  0.83899715  0.41322345  0.63435873  1
  B  B51  1  0.16100285  0.41322345  0.63435873  1
  B  B52  1  0.66965094  0.23998018  0.76318998  1
  B  B53  1  0.33034906  0.23998018  0.76318998  1
  B  B54  1  0.83034906  0.76001982  0.26318998  1
  B  B55  1  0.16965094  0.76001982  0.26318998  1
  H  H56  1  0.89262091  0.37673903  0.83400716  1
  H  H57  1  0.10737909  0.37673903  0.83400716  1
  H  H58  1  0.60737909  0.62326097  0.33400716  1
  H  H59  1  0.39262091  0.62326097  0.33400716  1
  O  O60  1  0.80633428  0.67677095  0.92474153  1
  O  O61  1  0.19366572  0.67677095  0.92474153  1
  O  O62  1  0.69366572  0.32322905  0.42474153  1
  O  O63  1  0.30633428  0.32322905  0.42474153  1
  O  O64  1  0.69606717  0.87499417  0.27257269  1
  O  O65  1  0.30393283  0.87499417  0.27257269  1
  O  O66  1  0.80393283  0.12500583  0.77257269  1
  O  O67  1  0.19606717  0.12500583  0.77257269  1
  O  O68  1  0.69513972  0.83241069  0.67187781  1
  O  O69  1  0.30486028  0.83241069  0.67187781  1
  O  O70  1  0.80486028  0.16758931  0.17187781  1
  O  O71  1  0.19513972  0.16758931  0.17187781  1
  O  O72  1  0.50000000  0.58482658  0.74673612  1
  O  O73  1  0.00000000  0.41517342  0.24673612  1
  O  O74  1  0.50000000  0.20576497  0.18548101  1
  O  O75  1  0.00000000  0.79423503  0.68548101  1
  O  O76  1  0.00000000  0.94156934  0.83379414  1
  O  O77  1  0.50000000  0.05843066  0.33379414  1
  O  O78  1  0.50000000  0.89270526  0.09348767  1
  O  O79  1  0.00000000  0.10729474  0.59348767  1
  O  O80  1  0.80666743  0.61872597  0.75402710  1
  O  O81  1  0.19333257  0.61872597  0.75402710  1
  O  O82  1  0.69333257  0.38127403  0.25402710  1
  O  O83  1  0.30666743  0.38127403  0.25402710  1
  O  O84  1  0.50000000  0.39419103  0.00864182  1
  O  O85  1  0.00000000  0.60580897  0.50864182  1
  O  O86  1  0.80827533  0.11832510  0.91160976  1
  O  O87  1  0.19172467  0.11832510  0.91160976  1
  O  O88  1  0.69172467  0.88167490  0.41160976  1
  O  O89  1  0.30827533  0.88167490  0.41160976  1
  O  O90  1  0.00000000  0.14568723  0.06350431  1
  O  O91  1  0.50000000  0.85431277  0.56350431  1
  O  O92  1  0.80127240  0.42676460  0.99404026  1
  O  O93  1  0.19872760  0.42676460  0.99404026  1
  O  O94  1  0.69872760  0.57323540  0.49404026  1
  O  O95  1  0.30127240  0.57323540  0.49404026  1
  O  O96  1  0.50000000  0.69987354  0.90635616  1
  O  O97  1  0.00000000  0.30012646  0.40635616  1
  O  O98  1  0.69153377  0.88889743  0.84227630  1
  O  O99  1  0.30846623  0.88889743  0.84227630  1
  O  O100  1  0.80846623  0.11110257  0.34227630  1
  O  O101  1  0.19153377  0.11110257  0.34227630  1
  O  O102  1  0.67421202  0.38212053  0.81513116  1
  O  O103  1  0.32578798  0.38212053  0.81513116  1
  O  O104  1  0.82578798  0.61787947  0.31513116  1
  O  O105  1  0.17421202  0.61787947  0.31513116  1
  O  O106  1  0.69516565  0.36931537  0.68940241  1
  O  O107  1  0.30483435  0.36931537  0.68940241  1
  O  O108  1  0.80483435  0.63068463  0.18940241  1
  O  O109  1  0.19516565  0.63068463  0.18940241  1
  O  O110  1  0.50000000  0.36035872  0.53178607  1
  O  O111  1  0.00000000  0.63964128  0.03178607  1
  O  O112  1  0.69375891  0.07408779  0.59837120  1
  O  O113  1  0.30624109  0.07408779  0.59837120  1
  O  O114  1  0.80624109  0.92591221  0.09837120  1
  O  O115  1  0.19375891  0.92591221  0.09837120  1
  O  O116  1  0.66518379  0.90613350  0.97819910  1
  O  O117  1  0.33481621  0.90613350  0.97819910  1
  O  O118  1  0.83481621  0.09386650  0.47819910  1
  O  O119  1  0.16518379  0.09386650  0.47819910  1
  O  O120  1  0.69708544  0.17057033  0.03925964  1
  O  O121  1  0.30291456  0.17057033  0.03925964  1
  O  O122  1  0.80291456  0.82942967  0.53925964  1
  O  O123  1  0.19708544  0.82942967  0.53925964  1
  O  O124  1  0.68035059  0.40867108  0.11919167  1
  O  O125  1  0.31964941  0.40867108  0.11919167  1
  O  O126  1  0.81964941  0.59132892  0.61919167  1
  O  O127  1  0.18035059  0.59132892  0.61919167  1
  O  O128  1  0.69658169  0.67015961  0.05792760  1
  O  O129  1  0.30341831  0.67015961  0.05792760  1
  O  O130  1  0.80341831  0.32984039  0.55792760  1
  O  O131  1  0.19658169  0.32984039  0.55792760  1
  O  O132  1  0.50000000  0.13599407  0.93082487  1
  O  O133  1  0.00000000  0.86400593  0.43082487  1
  O  O134  1  0.50000000  0.16723390  0.74879352  1
  O  O135  1  0.00000000  0.83276610  0.24879352  1
  O  O136  1  0.00000000  0.41156226  0.86035959  1
  O  O137  1  0.50000000  0.58843774  0.36035959  1
  O  O138  1  0.50000000  0.62821949  0.16572638  1
  O  O139  1  0.00000000  0.37178051  0.66572638  1
