# generated using pymatgen
data_ZnH4C2(N2Cl)2
_symmetry_space_group_name_H-M   'P 1'
_cell_length_a   7.41885043
_cell_length_b   7.85384317
_cell_length_c   13.94200638
_cell_angle_alpha   90.00000000
_cell_angle_beta   90.00000000
_cell_angle_gamma   90.00000000
_symmetry_Int_Tables_number   1
_chemical_formula_structural   ZnH4C2(N2Cl)2
_chemical_formula_sum   'Zn4 H16 C8 N16 Cl8'
_cell_volume   812.35174435
_cell_formula_units_Z   4
loop_
 _symmetry_equiv_pos_site_id
 _symmetry_equiv_pos_as_xyz
  1  'x, y, z'
loop_
 _atom_site_type_symbol
 _atom_site_label
 _atom_site_symmetry_multiplicity
 _atom_site_fract_x
 _atom_site_fract_y
 _atom_site_fract_z
 _atom_site_occupancy
  Zn  Zn0  1  0.77632443  0.71916649  0.92606849  1
  Zn  Zn1  1  0.22367557  0.21916649  0.07393151  1
  Zn  Zn2  1  0.77632443  0.21916649  0.57393151  1
  Zn  Zn3  1  0.22367557  0.71916649  0.42606849  1
  H  H4  1  0.51688317  0.60892401  0.19846795  1
  H  H5  1  0.48311683  0.10892401  0.80153205  1
  H  H6  1  0.51688317  0.10892401  0.30153205  1
  H  H7  1  0.48311683  0.60892401  0.69846795  1
  H  H8  1  0.53426648  0.62806968  0.07391703  1
  H  H9  1  0.46573352  0.12806968  0.92608297  1
  H  H10  1  0.53426648  0.12806968  0.42608297  1
  H  H11  1  0.46573352  0.62806968  0.57391703  1
  H  H12  1  0.71579441  0.75663217  0.29719671  1
  H  H13  1  0.28420559  0.25663217  0.70280329  1
  H  H14  1  0.71579441  0.25663217  0.20280329  1
  H  H15  1  0.28420559  0.75663217  0.79719671  1
  H  H16  1  0.90901479  0.85133292  0.25021455  1
  H  H17  1  0.09098521  0.35133292  0.74978545  1
  H  H18  1  0.90901479  0.35133292  0.24978545  1
  H  H19  1  0.09098521  0.85133292  0.75021455  1
  C  C20  1  0.73228437  0.74704907  0.15103646  1
  C  C21  1  0.26771563  0.24704907  0.84896354  1
  C  C22  1  0.73228437  0.24704907  0.34896354  1
  C  C23  1  0.26771563  0.74704907  0.65103646  1
  C  C24  1  0.94296640  0.91740843  0.07739325  1
  C  C25  1  0.05703360  0.41740843  0.92260675  1
  C  C26  1  0.94296640  0.41740843  0.42260675  1
  C  C27  1  0.05703360  0.91740843  0.57739325  1
  N  N28  1  0.59006756  0.64539320  0.14041152  1
  N  N29  1  0.40993244  0.14539320  0.85958848  1
  N  N30  1  0.59006756  0.14539320  0.35958848  1
  N  N31  1  0.40993244  0.64539320  0.64041152  1
  N  N32  1  0.78561164  0.79613263  0.23802767  1
  N  N33  1  0.21438836  0.29613263  0.76197233  1
  N  N34  1  0.78561164  0.29613263  0.26197233  1
  N  N35  1  0.21438836  0.79613263  0.73802767  1
  N  N36  1  0.82089080  0.79912707  0.06987848  1
  N  N37  1  0.17910920  0.29912707  0.93012152  1
  N  N38  1  0.82089080  0.29912707  0.43012152  1
  N  N39  1  0.17910920  0.79912707  0.56987848  1
  N  N40  1  0.05306594  0.02462933  0.07896322  1
  N  N41  1  0.94693406  0.52462933  0.92103678  1
  N  N42  1  0.05306594  0.52462933  0.42103678  1
  N  N43  1  0.94693406  0.02462933  0.57896322  1
  Cl  Cl44  1  0.48808033  0.63310690  0.91124647  1
  Cl  Cl45  1  0.51191967  0.13310690  0.08875353  1
  Cl  Cl46  1  0.48808033  0.13310690  0.58875353  1
  Cl  Cl47  1  0.51191967  0.63310690  0.41124647  1
  Cl  Cl48  1  0.85136221  0.94603810  0.83803449  1
  Cl  Cl49  1  0.14863779  0.44603810  0.16196551  1
  Cl  Cl50  1  0.85136221  0.44603810  0.66196551  1
  Cl  Cl51  1  0.14863779  0.94603810  0.33803449  1
