# generated using pymatgen
data_KNdH6C4O11
_symmetry_space_group_name_H-M   'P 1'
_cell_length_a   7.53809768
_cell_length_b   12.28719679
_cell_length_c   13.02089857
_cell_angle_alpha   98.10252615
_cell_angle_beta   90.00000000
_cell_angle_gamma   107.86323842
_symmetry_Int_Tables_number   1
_chemical_formula_structural   KNdH6C4O11
_chemical_formula_sum   'K4 Nd4 H24 C16 O44'
_cell_volume   1135.22656526
_cell_formula_units_Z   4
loop_
 _symmetry_equiv_pos_site_id
 _symmetry_equiv_pos_as_xyz
  1  'x, y, z'
loop_
 _atom_site_type_symbol
 _atom_site_label
 _atom_site_symmetry_multiplicity
 _atom_site_fract_x
 _atom_site_fract_y
 _atom_site_fract_z
 _atom_site_occupancy
  K  K0  1  0.42144578  0.83800417  0.63107898  1
  K  K1  1  0.58344161  0.16199583  0.86892102  1
  K  K2  1  0.57855422  0.16199583  0.36892102  1
  K  K3  1  0.41655839  0.83800417  0.13107898  1
  Nd  Nd4  1  0.86424866  0.72649819  0.98589348  1
  Nd  Nd5  1  0.13775048  0.27350181  0.51410652  1
  Nd  Nd6  1  0.13575134  0.27350181  0.01410652  1
  Nd  Nd7  1  0.86224952  0.72649819  0.48589348  1
  H  H8  1  0.46471855  0.63982320  0.87803977  1
  H  H9  1  0.82489535  0.36017680  0.62196023  1
  H  H10  1  0.53528145  0.36017680  0.12196023  1
  H  H11  1  0.17510465  0.63982320  0.37803977  1
  H  H12  1  0.44525200  0.59757704  0.98899088  1
  H  H13  1  0.84767496  0.40242296  0.51100912  1
  H  H14  1  0.55474800  0.40242296  0.01100912  1
  H  H15  1  0.15232504  0.59757704  0.48899088  1
  H  H16  1  0.19745851  0.63061322  0.78218988  1
  H  H17  1  0.56684529  0.36938678  0.71781012  1
  H  H18  1  0.80254149  0.36938678  0.21781012  1
  H  H19  1  0.43315471  0.63061322  0.28218988  1
  H  H20  1  0.30618633  0.57408921  0.70025043  1
  H  H21  1  0.73209712  0.42591079  0.79974957  1
  H  H22  1  0.69381367  0.42591079  0.29974957  1
  H  H23  1  0.26790288  0.57408921  0.20025043  1
  H  H24  1  0.35586039  0.89584678  0.88516477  1
  H  H25  1  0.46001360  0.10415322  0.61483523  1
  H  H26  1  0.64413961  0.10415322  0.11483523  1
  H  H27  1  0.53998640  0.89584678  0.38516477  1
  H  H28  1  0.55527310  0.88155663  0.86374910  1
  H  H29  1  0.67371648  0.11844337  0.63625090  1
  H  H30  1  0.44472690  0.11844337  0.13625090  1
  H  H31  1  0.32628352  0.88155663  0.36374910  1
  C  C32  1  0.94143182  0.69946268  0.73120541  1
  C  C33  1  0.24196914  0.30053732  0.76879459  1
  C  C34  1  0.05856818  0.30053732  0.26879459  1
  C  C35  1  0.75803086  0.69946268  0.23120541  1
  C  C36  1  0.80898399  0.77560657  0.74296102  1
  C  C37  1  0.03337742  0.22439343  0.75703898  1
  C  C38  1  0.19101601  0.22439343  0.25703898  1
  C  C39  1  0.96662258  0.77560657  0.24296102  1
  C  C40  1  0.90452059  0.00184927  0.02423990  1
  C  C41  1  0.90267133  0.99815073  0.47576010  1
  C  C42  1  0.09547941  0.99815073  0.97576010  1
  C  C43  1  0.09732867  0.00184927  0.52423990  1
  C  C44  1  0.89908378  0.45802775  0.98803708  1
  C  C45  1  0.44105603  0.54197225  0.51196292  1
  C  C46  1  0.10091622  0.54197225  0.01196292  1
  C  C47  1  0.55894397  0.45802775  0.48803708  1
  O  O48  1  0.99986670  0.67943167  0.64186980  1
  O  O49  1  0.32043503  0.32056833  0.85813020  1
  O  O50  1  0.00013330  0.32056833  0.35813020  1
  O  O51  1  0.67956497  0.67943167  0.14186980  1
  O  O52  1  0.98340363  0.66372588  0.81204388  1
  O  O53  1  0.31967775  0.33627412  0.68795612  1
  O  O54  1  0.01659637  0.33627412  0.18795612  1
  O  O55  1  0.68032225  0.66372588  0.31204388  1
  O  O56  1  0.76159194  0.80436376  0.66048308  1
  O  O57  1  0.95722818  0.19563624  0.83951692  1
  O  O58  1  0.23840806  0.19563624  0.33951692  1
  O  O59  1  0.04277182  0.80436376  0.16048308  1
  O  O60  1  0.76036743  0.80214905  0.83383257  1
  O  O61  1  0.95821838  0.19785095  0.66616743  1
  O  O62  1  0.23963257  0.19785095  0.16616743  1
  O  O63  1  0.04178162  0.80214905  0.33383257  1
  O  O64  1  0.79353099  0.90859563  0.04510932  1
  O  O65  1  0.88493536  0.09140437  0.45489068  1
  O  O66  1  0.20646901  0.09140437  0.95489068  1
  O  O67  1  0.11506464  0.90859563  0.54510932  1
  O  O68  1  0.87596573  0.09964970  0.03895230  1
  O  O69  1  0.77631603  0.90035030  0.46104770  1
  O  O70  1  0.12403427  0.90035030  0.96104770  1
  O  O71  1  0.22368397  0.09964970  0.53895230  1
  O  O72  1  0.77409447  0.50368278  0.97020715  1
  O  O73  1  0.27041169  0.49631722  0.52979285  1
  O  O74  1  0.22590553  0.49631722  0.02979285  1
  O  O75  1  0.72958831  0.50368278  0.47020715  1
  O  O76  1  0.87368578  0.35168062  0.98754201  1
  O  O77  1  0.52200517  0.64831938  0.51245799  1
  O  O78  1  0.12631422  0.64831938  0.01245799  1
  O  O79  1  0.47799483  0.35168062  0.48754201  1
  O  O80  1  0.52853510  0.65191909  0.94751870  1
  O  O81  1  0.87661601  0.34808091  0.55248130  1
  O  O82  1  0.47146490  0.34808091  0.05248130  1
  O  O83  1  0.12338399  0.65191909  0.44751870  1
  O  O84  1  0.32455165  0.62776587  0.76500067  1
  O  O85  1  0.69678578  0.37223413  0.73499933  1
  O  O86  1  0.67544835  0.37223413  0.23499933  1
  O  O87  1  0.30321422  0.62776587  0.26500067  1
  O  O88  1  0.46875892  0.92249726  0.84631416  1
  O  O89  1  0.54626166  0.07750274  0.65368584  1
  O  O90  1  0.53124108  0.07750274  0.15368584  1
  O  O91  1  0.45373834  0.92249726  0.34631416  1
