# generated using pymatgen
data_RbPH3O4
_symmetry_space_group_name_H-M   'P 1'
_cell_length_a   7.02365071
_cell_length_b   9.20023632
_cell_length_c   14.98705038
_cell_angle_alpha   90.00000000
_cell_angle_beta   100.21633957
_cell_angle_gamma   90.00000000
_symmetry_Int_Tables_number   1
_chemical_formula_structural   RbPH3O4
_chemical_formula_sum   'Rb8 P8 H24 O32'
_cell_volume   953.09716081
_cell_formula_units_Z   8
loop_
 _symmetry_equiv_pos_site_id
 _symmetry_equiv_pos_as_xyz
  1  'x, y, z'
loop_
 _atom_site_type_symbol
 _atom_site_label
 _atom_site_symmetry_multiplicity
 _atom_site_fract_x
 _atom_site_fract_y
 _atom_site_fract_z
 _atom_site_occupancy
  Rb  Rb0  1  0.11309271  0.65635385  0.63040292  1
  Rb  Rb1  1  0.38690729  0.15635385  0.36959708  1
  Rb  Rb2  1  0.88690729  0.34364615  0.36959708  1
  Rb  Rb3  1  0.61309271  0.84364615  0.63040292  1
  Rb  Rb4  1  0.90766759  0.11579902  0.82294932  1
  Rb  Rb5  1  0.59233241  0.61579902  0.17705068  1
  Rb  Rb6  1  0.09233241  0.88420098  0.17705068  1
  Rb  Rb7  1  0.40766759  0.38420098  0.82294932  1
  P  P8  1  0.35464799  0.94970169  0.98613852  1
  P  P9  1  0.14535201  0.44970169  0.01386148  1
  P  P10  1  0.64535201  0.05029831  0.01386148  1
  P  P11  1  0.85464799  0.55029831  0.98613852  1
  P  P12  1  0.06679317  0.06781948  0.55859930  1
  P  P13  1  0.43320683  0.56781948  0.44140070  1
  P  P14  1  0.93320683  0.93218052  0.44140070  1
  P  P15  1  0.56679317  0.43218052  0.55859930  1
  H  H16  1  0.20006864  0.16251018  0.00573652  1
  H  H17  1  0.29993136  0.66251018  0.99426348  1
  H  H18  1  0.79993136  0.83748982  0.99426348  1
  H  H19  1  0.70006864  0.33748982  0.00573652  1
  H  H20  1  0.79451189  0.18551671  0.57440473  1
  H  H21  1  0.70548811  0.68551671  0.42559527  1
  H  H22  1  0.20548811  0.81448329  0.42559527  1
  H  H23  1  0.29451189  0.31448329  0.57440473  1
  H  H24  1  0.43778137  0.04527409  0.80859994  1
  H  H25  1  0.06221863  0.54527409  0.19140006  1
  H  H26  1  0.56221863  0.95472591  0.19140006  1
  H  H27  1  0.93778137  0.45472591  0.80859994  1
  H  H28  1  0.37457661  0.06190280  0.70510564  1
  H  H29  1  0.12542339  0.56190280  0.29489436  1
  H  H30  1  0.62542339  0.93809720  0.29489436  1
  H  H31  1  0.87457661  0.43809720  0.70510564  1
  H  H32  1  0.56872960  0.67566105  0.82534519  1
  H  H33  1  0.93127040  0.17566105  0.17465481  1
  H  H34  1  0.43127040  0.32433895  0.17465481  1
  H  H35  1  0.06872960  0.82433895  0.82534519  1
  H  H36  1  0.40101602  0.78883854  0.82456968  1
  H  H37  1  0.09898398  0.28883854  0.17543032  1
  H  H38  1  0.59898398  0.21116146  0.17543032  1
  H  H39  1  0.90101602  0.71116146  0.82456968  1
  O  O40  1  0.28728096  0.93857028  0.88338854  1
  O  O41  1  0.21271904  0.43857028  0.11661146  1
  O  O42  1  0.71271904  0.06142972  0.11661146  1
  O  O43  1  0.78728096  0.56142972  0.88338854  1
  O  O44  1  0.35935059  0.80727223  0.03867969  1
  O  O45  1  0.14064941  0.30727223  0.96132031  1
  O  O46  1  0.64064941  0.19272777  0.96132031  1
  O  O47  1  0.85935059  0.69272777  0.03867969  1
  O  O48  1  0.22637814  0.05917420  0.03280500  1
  O  O49  1  0.27362186  0.55917420  0.96719500  1
  O  O50  1  0.77362186  0.94082580  0.96719500  1
  O  O51  1  0.72637814  0.44082580  0.03280500  1
  O  O52  1  0.20604723  0.97509153  0.62378255  1
  O  O53  1  0.29395277  0.47509153  0.37621745  1
  O  O54  1  0.79395277  0.02490847  0.37621745  1
  O  O55  1  0.70604723  0.52490847  0.62378255  1
  O  O56  1  0.14928962  0.20444299  0.52096676  1
  O  O57  1  0.35071038  0.70444299  0.47903324  1
  O  O58  1  0.85071038  0.79555701  0.47903324  1
  O  O59  1  0.64928962  0.29555701  0.52096676  1
  O  O60  1  0.88683930  0.10772474  0.60748016  1
  O  O61  1  0.61316070  0.60772474  0.39251984  1
  O  O62  1  0.11316070  0.89227526  0.39251984  1
  O  O63  1  0.38683930  0.39227526  0.60748016  1
  O  O64  1  0.47680711  0.09424443  0.75623797  1
  O  O65  1  0.02319289  0.59424443  0.24376203  1
  O  O66  1  0.52319289  0.90575557  0.24376203  1
  O  O67  1  0.97680711  0.40575557  0.75623797  1
  O  O68  1  0.45027586  0.71325615  0.78729181  1
  O  O69  1  0.04972414  0.21325615  0.21270819  1
  O  O70  1  0.54972414  0.28674385  0.21270819  1
  O  O71  1  0.95027586  0.78674385  0.78729181  1
