# generated using pymatgen
data_Na2Mg3H10(SO6)3
_symmetry_space_group_name_H-M   'P 1'
_cell_length_a   7.32758861
_cell_length_b   10.09567480
_cell_length_c   10.85149823
_cell_angle_alpha   90.00000000
_cell_angle_beta   109.73256104
_cell_angle_gamma   90.00000000
_symmetry_Int_Tables_number   1
_chemical_formula_structural   Na2Mg3H10(SO6)3
_chemical_formula_sum   'Na4 Mg6 H20 S6 O36'
_cell_volume   755.62170298
_cell_formula_units_Z   2
loop_
 _symmetry_equiv_pos_site_id
 _symmetry_equiv_pos_as_xyz
  1  'x, y, z'
loop_
 _atom_site_type_symbol
 _atom_site_label
 _atom_site_symmetry_multiplicity
 _atom_site_fract_x
 _atom_site_fract_y
 _atom_site_fract_z
 _atom_site_occupancy
  Na  Na0  1  0.18863328  0.26908581  0.42214407  1
  Na  Na1  1  0.76648921  0.26908581  0.57785593  1
  Na  Na2  1  0.81136672  0.76908581  0.57785593  1
  Na  Na3  1  0.23351079  0.76908581  0.42214407  1
  Mg  Mg4  1  0.77821422  0.49401689  0.00000000  1
  Mg  Mg5  1  0.22178578  0.99401689  1.00000000  1
  Mg  Mg6  1  0.64357056  0.77845385  0.15726225  1
  Mg  Mg7  1  0.48630831  0.77845385  0.84273775  1
  Mg  Mg8  1  0.35642944  0.27845385  0.84273775  1
  Mg  Mg9  1  0.51369169  0.27845385  0.15726225  1
  H  H10  1  0.81810772  0.73089664  0.00000000  1
  H  H11  1  0.18189228  0.23089664  1.00000000  1
  H  H12  1  0.56240796  0.98941306  0.00000000  1
  H  H13  1  0.43759204  0.48941306  1.00000000  1
  H  H14  1  0.83531343  0.86709392  0.83236594  1
  H  H15  1  0.00294749  0.86709392  0.16763406  1
  H  H16  1  0.16468657  0.36709392  0.16763406  1
  H  H17  1  0.99705251  0.36709392  0.83236594  1
  H  H18  1  0.32758438  0.43869937  0.27828448  1
  H  H19  1  0.04929990  0.43869937  0.72171552  1
  H  H20  1  0.67241562  0.93869937  0.72171552  1
  H  H21  1  0.95070010  0.93869937  0.27828448  1
  H  H22  1  0.51716306  0.05768596  0.57901971  1
  H  H23  1  0.93814336  0.05768596  0.42098029  1
  H  H24  1  0.48283694  0.55768596  0.42098029  1
  H  H25  1  0.06185664  0.55768596  0.57901971  1
  H  H26  1  0.58730691  0.11957637  0.72558158  1
  H  H27  1  0.86172532  0.11957637  0.27441842  1
  H  H28  1  0.41269309  0.61957637  0.27441842  1
  H  H29  1  0.13827468  0.61957637  0.72558158  1
  S  S30  1  0.84523154  0.49838241  0.31075678  1
  S  S31  1  0.53447476  0.49838241  0.68924322  1
  S  S32  1  0.15476846  0.99838241  0.68924322  1
  S  S33  1  0.46552524  0.99838241  0.31075678  1
  S  S34  1  0.80511619  0.18100335  0.00000000  1
  S  S35  1  0.19488381  0.68100335  1.00000000  1
  O  O36  1  0.90804176  0.48889662  0.19506558  1
  O  O37  1  0.71297618  0.48889662  0.80493442  1
  O  O38  1  0.09195824  0.98889662  0.80493442  1
  O  O39  1  0.28702382  0.98889662  0.19506558  1
  O  O40  1  0.70059279  0.39186834  0.30675463  1
  O  O41  1  0.39383816  0.39186834  0.69324537  1
  O  O42  1  0.29940721  0.89186834  0.69324537  1
  O  O43  1  0.60616184  0.89186834  0.30675463  1
  O  O44  1  0.01874874  0.47783256  0.42938805  1
  O  O45  1  0.58936068  0.47783256  0.57061195  1
  O  O46  1  0.98125126  0.97783256  0.57061195  1
  O  O47  1  0.41063932  0.97783256  0.42938805  1
  O  O48  1  0.75644357  0.63103894  0.31444488  1
  O  O49  1  0.44199869  0.63103894  0.68555512  1
  O  O50  1  0.24355643  0.13103894  0.68555512  1
  O  O51  1  0.55800131  0.13103894  0.31444488  1
  O  O52  1  0.92580309  0.06522935  0.00000000  1
  O  O53  1  0.07419691  0.56522935  1.00000000  1
  O  O54  1  0.74152491  0.17936908  0.11740135  1
  O  O55  1  0.62412356  0.17936908  0.88259865  1
  O  O56  1  0.25847509  0.67936908  0.88259865  1
  O  O57  1  0.37587644  0.67936908  0.11740135  1
  O  O58  1  0.91745015  0.30549335  0.00000000  1
  O  O59  1  0.08254985  0.80549335  1.00000000  1
  O  O60  1  0.69750960  0.68855803  1.00000000  1
  O  O61  1  0.30249040  0.18855803  0.00000000  1
  O  O62  1  0.51461594  0.41036561  0.00000000  1
  O  O63  1  0.48538406  0.91036561  1.00000000  1
  O  O64  1  0.94084062  0.85003916  0.23332402  1
  O  O65  1  0.70751660  0.85003916  0.76667598  1
  O  O66  1  0.05915938  0.35003916  0.76667598  1
  O  O67  1  0.29248340  0.35003916  0.23332402  1
  O  O68  1  0.36985423  0.58776947  0.34666569  1
  O  O69  1  0.02318853  0.58776947  0.65333431  1
  O  O70  1  0.63014577  0.08776947  0.65333431  1
  O  O71  1  0.97681147  0.08776947  0.34666569  1
