# generated using pymatgen
data_Na3(PO3)4
_symmetry_space_group_name_H-M   'P 1'
_cell_length_a   8.84461042
_cell_length_b   10.09338353
_cell_length_c   11.52675647
_cell_angle_alpha   90.00000000
_cell_angle_beta   89.97449013
_cell_angle_gamma   90.00000000
_symmetry_Int_Tables_number   1
_chemical_formula_structural   Na3(PO3)4
_chemical_formula_sum   'Na12 P16 O48'
_cell_volume   1029.01702212
_cell_formula_units_Z   4
loop_
 _symmetry_equiv_pos_site_id
 _symmetry_equiv_pos_as_xyz
  1  'x, y, z'
loop_
 _atom_site_type_symbol
 _atom_site_label
 _atom_site_symmetry_multiplicity
 _atom_site_fract_x
 _atom_site_fract_y
 _atom_site_fract_z
 _atom_site_occupancy
  Na  Na0  1  0.56274110  0.46752258  0.74741766  1
  Na  Na1  1  0.06274110  0.03247742  0.24741766  1
  Na  Na2  1  0.43725890  0.53247742  0.25258234  1
  Na  Na3  1  0.93725890  0.96752258  0.75258234  1
  Na  Na4  1  0.94624844  0.51357236  0.67896424  1
  Na  Na5  1  0.44624844  0.98642764  0.17896424  1
  Na  Na6  1  0.05375156  0.48642764  0.32103576  1
  Na  Na7  1  0.55375156  0.01357236  0.82103576  1
  Na  Na8  1  0.30315188  0.48272620  0.53968138  1
  Na  Na9  1  0.80315188  0.01727380  0.03968138  1
  Na  Na10  1  0.69684812  0.51727380  0.46031862  1
  Na  Na11  1  0.19684812  0.98272620  0.96031862  1
  P  P12  1  0.06480415  0.22043605  0.52149682  1
  P  P13  1  0.56480415  0.27956395  0.02149682  1
  P  P14  1  0.93519585  0.77956395  0.47850318  1
  P  P15  1  0.43519585  0.72043605  0.97850318  1
  P  P16  1  0.26047144  0.22072948  0.73009993  1
  P  P17  1  0.76047144  0.27927052  0.23009993  1
  P  P18  1  0.73952856  0.77927052  0.26990007  1
  P  P19  1  0.23952856  0.72072948  0.76990007  1
  P  P20  1  0.47133470  0.77786667  0.59086746  1
  P  P21  1  0.97133470  0.72213333  0.09086746  1
  P  P22  1  0.52866530  0.22213333  0.40913254  1
  P  P23  1  0.02866530  0.27786667  0.90913254  1
  P  P24  1  0.74581605  0.21755548  0.60898344  1
  P  P25  1  0.24581605  0.28244452  0.10898344  1
  P  P26  1  0.25418395  0.78244452  0.39101656  1
  P  P27  1  0.75418395  0.71755548  0.89101656  1
  O  O28  1  0.13980338  0.15591600  0.63763766  1
  O  O29  1  0.63980338  0.34408400  0.13763766  1
  O  O30  1  0.86019662  0.84408400  0.36236234  1
  O  O31  1  0.36019662  0.65591600  0.86236234  1
  O  O32  1  0.07886254  0.36859309  0.52350209  1
  O  O33  1  0.57886254  0.13140691  0.02350209  1
  O  O34  1  0.92113746  0.63140691  0.47649791  1
  O  O35  1  0.42113746  0.86859309  0.97649791  1
  O  O36  1  0.87998058  0.85559245  0.58381685  1
  O  O37  1  0.37998058  0.64440755  0.08381685  1
  O  O38  1  0.12001942  0.14440755  0.41618315  1
  O  O39  1  0.62001942  0.35559245  0.91618315  1
  O  O40  1  0.35232960  0.81406453  0.69172066  1
  O  O41  1  0.85232960  0.68593547  0.19172066  1
  O  O42  1  0.64767040  0.18593547  0.30827934  1
  O  O43  1  0.14767040  0.31406453  0.80827934  1
  O  O44  1  0.18489445  0.60853742  0.69649113  1
  O  O45  1  0.68489445  0.89146258  0.19649113  1
  O  O46  1  0.81510555  0.39146258  0.30350887  1
  O  O47  1  0.31510555  0.10853742  0.80350887  1
  O  O48  1  0.36687942  0.31443181  0.67194704  1
  O  O49  1  0.86687942  0.18556819  0.17194704  1
  O  O50  1  0.63312058  0.68556819  0.32805296  1
  O  O51  1  0.13312058  0.81443181  0.82805296  1
  O  O52  1  0.61392393  0.16785837  0.52201548  1
  O  O53  1  0.11392393  0.33214163  0.02201548  1
  O  O54  1  0.38607607  0.83214163  0.47798452  1
  O  O55  1  0.88607607  0.66785837  0.97798452  1
  O  O56  1  0.60033723  0.87497974  0.61500375  1
  O  O57  1  0.10033723  0.62502026  0.11500375  1
  O  O58  1  0.39966277  0.12502026  0.38499625  1
  O  O59  1  0.89966277  0.37497974  0.88499625  1
  O  O60  1  0.50626520  0.63239254  0.58487918  1
  O  O61  1  0.00626520  0.86760746  0.08487918  1
  O  O62  1  0.49373480  0.36760746  0.41512082  1
  O  O63  1  0.99373480  0.13239254  0.91512082  1
  O  O64  1  0.89356925  0.17162037  0.53298242  1
  O  O65  1  0.39356925  0.32837963  0.03298242  1
  O  O66  1  0.10643075  0.82837963  0.46701758  1
  O  O67  1  0.60643075  0.67162037  0.96701758  1
  O  O68  1  0.74333204  0.36644271  0.61790220  1
  O  O69  1  0.24333204  0.13355729  0.11790220  1
  O  O70  1  0.25666796  0.63355729  0.38209780  1
  O  O71  1  0.75666796  0.86644271  0.88209780  1
  O  O72  1  0.74121725  0.13207587  0.71432787  1
  O  O73  1  0.24121725  0.36792413  0.21432787  1
  O  O74  1  0.25878275  0.86792413  0.28567213  1
  O  O75  1  0.75878275  0.63207587  0.78567213  1
