# generated using pymatgen
data_PrP3(H5O7)2
_symmetry_space_group_name_H-M   'P 1'
_cell_length_a   7.71702742
_cell_length_b   8.99669490
_cell_length_c   9.79989579
_cell_angle_alpha   78.17376112
_cell_angle_beta   79.09055090
_cell_angle_gamma   66.58237695
_symmetry_Int_Tables_number   1
_chemical_formula_structural   PrP3(H5O7)2
_chemical_formula_sum   'Pr2 P6 H20 O28'
_cell_volume   606.67237496
_cell_formula_units_Z   2
loop_
 _symmetry_equiv_pos_site_id
 _symmetry_equiv_pos_as_xyz
  1  'x, y, z'
loop_
 _atom_site_type_symbol
 _atom_site_label
 _atom_site_symmetry_multiplicity
 _atom_site_fract_x
 _atom_site_fract_y
 _atom_site_fract_z
 _atom_site_occupancy
  Pr  Pr0  1  0.56985764  0.75522326  0.27151129  1
  Pr  Pr1  1  0.43014236  0.24477674  0.72848871  1
  P  P2  1  0.37176889  0.21817010  0.12695981  1
  P  P3  1  0.62823111  0.78182990  0.87304019  1
  P  P4  1  0.63543956  0.57655322  0.66307956  1
  P  P5  1  0.36456044  0.42344678  0.33692044  1
  P  P6  1  0.02371677  0.36951473  0.30772479  1
  P  P7  1  0.97628323  0.63048527  0.69227521  1
  H  H8  1  0.77607368  0.85141880  0.46585303  1
  H  H9  1  0.22392632  0.14858120  0.53414697  1
  H  H10  1  0.75241133  0.98500982  0.33275283  1
  H  H11  1  0.24758867  0.01499018  0.66724717  1
  H  H12  1  0.86961679  0.90921462  0.13141873  1
  H  H13  1  0.13038321  0.09078538  0.86858127  1
  H  H14  1  0.97213599  0.73563180  0.08024603  1
  H  H15  1  0.02786401  0.26436820  0.91975397  1
  H  H16  1  0.15027087  0.82790323  0.45112925  1
  H  H17  1  0.84972913  0.17209677  0.54887075  1
  H  H18  1  0.16312890  0.00010595  0.39163868  1
  H  H19  1  0.83687110  -0.00010595  0.60836132  1
  H  H20  1  0.83926358  0.18138464  0.12403206  1
  H  H21  1  0.16073642  0.81861536  0.87596794  1
  H  H22  1  0.02678090  0.04752275  0.18286369  1
  H  H23  1  0.97321910  0.95247725  0.81713631  1
  H  H24  1  0.31270361  0.64199489  0.05564329  1
  H  H25  1  0.68729639  0.35800511  0.94435671  1
  H  H26  1  0.26965542  0.54025180  0.96382444  1
  H  H27  1  0.73034458  0.45974820  0.03617556  1
  O  O28  1  0.42815479  0.28774833  0.98011069  1
  O  O29  1  0.57184521  0.71225167  0.01988931  1
  O  O30  1  0.42695971  0.03709813  0.16575859  1
  O  O31  1  0.57304029  0.96290187  0.83424141  1
  O  O32  1  0.59225563  0.42999274  0.73837654  1
  O  O33  1  0.40774437  0.57000726  0.26162346  1
  O  O34  1  0.57553070  0.64889163  0.52058995  1
  O  O35  1  0.42446930  0.35110837  0.47941005  1
  O  O36  1  0.04241012  0.22240681  0.41892115  1
  O  O37  1  0.95758988  0.77759319  0.58107885  1
  O  O38  1  0.83131646  0.48748144  0.27400247  1
  O  O39  1  0.16868354  0.51251856  0.72599753  1
  O  O40  1  0.14329888  0.30876755  0.16075117  1
  O  O41  1  0.85670112  0.69123245  0.83924883  1
  O  O42  1  0.45051663  0.28010957  0.23786892  1
  O  O43  1  0.54948337  0.71989043  0.76213108  1
  O  O44  1  0.86311313  0.52721765  0.65796184  1
  O  O45  1  0.13688687  0.47278235  0.34203816  1
  O  O46  1  0.69441538  0.90926920  0.38992460  1
  O  O47  1  0.30558462  0.09073080  0.61007540  1
  O  O48  1  0.84663548  0.81347672  0.11431295  1
  O  O49  1  0.15336452  0.18652328  0.88568705  1
  O  O50  1  0.22009240  0.88383276  0.37824959  1
  O  O51  1  0.77990760  0.11616724  0.62175041  1
  O  O52  1  0.89207838  0.07168242  0.18191468  1
  O  O53  1  0.10792162  0.92831758  0.81808532  1
  O  O54  1  0.21826859  0.64639677  0.99863220  1
  O  O55  1  0.78173141  0.35360323  0.00136780  1
