# generated using pymatgen
data_CaRe3H9(S2O3)2
_symmetry_space_group_name_H-M   'P 1'
_cell_length_a   8.97388261
_cell_length_b   8.97461483
_cell_length_c   9.09907437
_cell_angle_alpha   89.99139632
_cell_angle_beta   89.99805385
_cell_angle_gamma   119.99556451
_symmetry_Int_Tables_number   1
_chemical_formula_structural   CaRe3H9(S2O3)2
_chemical_formula_sum   'Ca2 Re6 H18 S8 O12'
_cell_volume   634.66339436
_cell_formula_units_Z   2
loop_
 _symmetry_equiv_pos_site_id
 _symmetry_equiv_pos_as_xyz
  1  'x, y, z'
loop_
 _atom_site_type_symbol
 _atom_site_label
 _atom_site_symmetry_multiplicity
 _atom_site_fract_x
 _atom_site_fract_y
 _atom_site_fract_z
 _atom_site_occupancy
  Ca  Ca0  1  0.33337049  0.66669851  0.66870684  1
  Ca  Ca1  1  0.66662951  0.33330149  0.33129316  1
  Re  Re2  1  0.05660909  0.18961817  0.88349736  1
  Re  Re3  1  0.81044589  0.86704518  0.88344144  1
  Re  Re4  1  0.13304890  0.94347046  0.88348501  1
  Re  Re5  1  0.94339091  0.81038183  0.11650264  1
  Re  Re6  1  0.18955411  0.13295482  0.11655856  1
  Re  Re7  1  0.86695110  0.05652954  0.11651499  1
  H  H8  1  0.02398391  0.37160495  0.68508973  1
  H  H9  1  0.62850248  0.65245084  0.68513431  1
  H  H10  1  0.34766359  0.97609749  0.68503803  1
  H  H11  1  0.97601609  0.62839505  0.31491027  1
  H  H12  1  0.37149752  0.34754916  0.31486569  1
  H  H13  1  0.65233641  0.02390251  0.31496197  1
  H  H14  1  0.66235252  0.82883870  0.48256793  1
  H  H15  1  0.17110729  0.83356855  0.48259461  1
  H  H16  1  0.16647982  0.33766079  0.48259192  1
  H  H17  1  0.33764748  0.17116130  0.51743207  1
  H  H18  1  0.82889271  0.16643145  0.51740539  1
  H  H19  1  0.83352018  0.66233921  0.51740808  1
  H  H20  1  0.53388674  0.77082786  0.35354584  1
  H  H21  1  0.22912081  0.76306016  0.35359596  1
  H  H22  1  0.23693334  0.46610935  0.35351413  1
  H  H23  1  0.46611326  0.22917214  0.64645416  1
  H  H24  1  0.77087919  0.23693984  0.64640404  1
  H  H25  1  0.76306666  0.53389065  0.64648587  1
  S  S26  1  0.00010377  0.00015070  0.67484721  1
  S  S27  1  0.99989623  0.99984930  0.32515279  1
  S  S28  1  0.75183253  0.10337599  0.88976717  1
  S  S29  1  0.89672732  0.64853458  0.88975742  1
  S  S30  1  0.35153788  0.24823370  0.88980353  1
  S  S31  1  0.24816747  0.89662401  0.11023283  1
  S  S32  1  0.10327268  0.35146542  0.11024258  1
  S  S33  1  0.64846212  0.75176630  0.11019647  1
  O  O34  1  0.12252482  0.40541089  0.75018944  1
  O  O35  1  0.59466110  0.71724031  0.75012808  1
  O  O36  1  0.28295814  0.87757430  0.75018075  1
  O  O37  1  0.87747518  0.59458911  0.24981056  1
  O  O38  1  0.40533890  0.28275969  0.24987192  1
  O  O39  1  0.71704186  0.12242570  0.24981925  1
  O  O40  1  0.55340809  0.82031674  0.45302170  1
  O  O41  1  0.17963267  0.73314541  0.45308900  1
  O  O42  1  0.26690374  0.44656196  0.45299021  1
  O  O43  1  0.44659191  0.17968326  0.54697830  1
  O  O44  1  0.82036733  0.26685459  0.54691100  1
  O  O45  1  0.73309626  0.55343804  0.54700979  1
