# generated using pymatgen
data_Na3VP3NO9
_symmetry_space_group_name_H-M   'P 1'
_cell_length_a   9.57255131
_cell_length_b   9.57255131
_cell_length_c   9.57255131
_cell_angle_alpha   90.00000000
_cell_angle_beta   90.00000000
_cell_angle_gamma   90.00000000
_symmetry_Int_Tables_number   1
_chemical_formula_structural   Na3VP3NO9
_chemical_formula_sum   'Na12 V4 P12 N4 O36'
_cell_volume   877.16866431
_cell_formula_units_Z   4
loop_
 _symmetry_equiv_pos_site_id
 _symmetry_equiv_pos_as_xyz
  1  'x, y, z'
loop_
 _atom_site_type_symbol
 _atom_site_label
 _atom_site_symmetry_multiplicity
 _atom_site_fract_x
 _atom_site_fract_y
 _atom_site_fract_z
 _atom_site_occupancy
  Na  Na0  1  0.48763221  0.98763221  0.51236779  1
  Na  Na1  1  0.98763221  0.51236779  0.48763221  1
  Na  Na2  1  0.51236779  0.48763221  0.98763221  1
  Na  Na3  1  0.01236779  0.01236779  0.01236779  1
  Na  Na4  1  0.10744624  0.60744624  0.89255376  1
  Na  Na5  1  0.60744624  0.89255376  0.10744624  1
  Na  Na6  1  0.89255376  0.10744624  0.60744624  1
  Na  Na7  1  0.39255376  0.39255376  0.39255376  1
  Na  Na8  1  0.19876408  0.30123592  0.69876408  1
  Na  Na9  1  0.30123592  0.69876408  0.19876408  1
  Na  Na10  1  0.80123592  0.80123592  0.80123592  1
  Na  Na11  1  0.69876408  0.19876408  0.30123592  1
  V  V12  1  0.08028796  0.91971204  0.41971204  1
  V  V13  1  0.58028796  0.58028796  0.58028796  1
  V  V14  1  0.41971204  0.08028796  0.91971204  1
  V  V15  1  0.91971204  0.41971204  0.08028796  1
  P  P16  1  0.25511886  0.66784233  0.58499881  1
  P  P17  1  0.41500119  0.75511886  0.83215767  1
  P  P18  1  0.16784233  0.91500119  0.74488114  1
  P  P19  1  0.75511886  0.83215767  0.41500119  1
  P  P20  1  0.91500119  0.74488114  0.16784233  1
  P  P21  1  0.66784233  0.58499881  0.25511886  1
  P  P22  1  0.74488114  0.16784233  0.91500119  1
  P  P23  1  0.58499881  0.25511886  0.66784233  1
  P  P24  1  0.83215767  0.41500119  0.75511886  1
  P  P25  1  0.24488114  0.33215767  0.08499881  1
  P  P26  1  0.08499881  0.24488114  0.33215767  1
  P  P27  1  0.33215767  0.08499881  0.24488114  1
  N  N28  1  0.30291754  0.80291754  0.69708246  1
  N  N29  1  0.80291754  0.69708246  0.30291754  1
  N  N30  1  0.69708246  0.30291754  0.80291754  1
  N  N31  1  0.19708246  0.19708246  0.19708246  1
  O  O32  1  0.15083502  0.72833046  0.47766337  1
  O  O33  1  0.52233663  0.65083502  0.77166954  1
  O  O34  1  0.22833046  0.02233663  0.84916498  1
  O  O35  1  0.65083502  0.77166954  0.52233663  1
  O  O36  1  0.02233663  0.84916498  0.22833046  1
  O  O37  1  0.72833046  0.47766337  0.15083502  1
  O  O38  1  0.84916498  0.22833046  0.02233663  1
  O  O39  1  0.47766337  0.15083502  0.72833046  1
  O  O40  1  0.77166954  0.52233663  0.65083502  1
  O  O41  1  0.34916498  0.27166954  0.97766337  1
  O  O42  1  0.97766337  0.34916498  0.27166954  1
  O  O43  1  0.27166954  0.97766337  0.34916498  1
  O  O44  1  0.38851240  0.62714506  0.50505773  1
  O  O45  1  0.49494227  0.88851240  0.87285494  1
  O  O46  1  0.12714506  0.99494227  0.61148760  1
  O  O47  1  0.88851240  0.87285494  0.49494227  1
  O  O48  1  0.99494227  0.61148760  0.12714506  1
  O  O49  1  0.62714506  0.50505773  0.38851240  1
  O  O50  1  0.61148760  0.12714506  0.99494227  1
  O  O51  1  0.50505773  0.38851240  0.62714506  1
  O  O52  1  0.87285494  0.49494227  0.88851240  1
  O  O53  1  0.11148760  0.37285494  0.00505773  1
  O  O54  1  0.00505773  0.11148760  0.37285494  1
  O  O55  1  0.37285494  0.00505773  0.11148760  1
  O  O56  1  0.19076264  0.54979730  0.66784947  1
  O  O57  1  0.33215053  0.69076264  0.95020270  1
  O  O58  1  0.04979730  0.83215053  0.80923736  1
  O  O59  1  0.69076264  0.95020270  0.33215053  1
  O  O60  1  0.83215053  0.80923736  0.04979730  1
  O  O61  1  0.54979730  0.66784947  0.19076264  1
  O  O62  1  0.80923736  0.04979730  0.83215053  1
  O  O63  1  0.66784947  0.19076264  0.54979730  1
  O  O64  1  0.95020270  0.33215053  0.69076264  1
  O  O65  1  0.30923736  0.45020270  0.16784947  1
  O  O66  1  0.16784947  0.30923736  0.45020270  1
  O  O67  1  0.45020270  0.16784947  0.30923736  1
