# generated using pymatgen
data_IrClOF6
_symmetry_space_group_name_H-M   'P 1'
_cell_length_a   5.69064714
_cell_length_b   12.52533234
_cell_length_c   19.72695627
_cell_angle_alpha   90.00000000
_cell_angle_beta   90.00000000
_cell_angle_gamma   99.87806031
_symmetry_Int_Tables_number   1
_chemical_formula_structural   IrClOF6
_chemical_formula_sum   'Ir8 Cl8 O8 F48'
_cell_volume   1385.23807093
_cell_formula_units_Z   8
loop_
 _symmetry_equiv_pos_site_id
 _symmetry_equiv_pos_as_xyz
  1  'x, y, z'
loop_
 _atom_site_type_symbol
 _atom_site_label
 _atom_site_symmetry_multiplicity
 _atom_site_fract_x
 _atom_site_fract_y
 _atom_site_fract_z
 _atom_site_occupancy
  Ir  Ir0  1  0.66365554  0.41546241  0.88477520  1
  Ir  Ir1  1  0.33634446  0.08453759  0.38477520  1
  Ir  Ir2  1  0.33634446  0.58453759  0.11522480  1
  Ir  Ir3  1  0.66365554  0.91546241  0.61522480  1
  Ir  Ir4  1  0.48952834  0.82841229  0.89037125  1
  Ir  Ir5  1  0.51047166  0.67158771  0.39037125  1
  Ir  Ir6  1  0.51047166  0.17158771  0.10962875  1
  Ir  Ir7  1  0.48952834  0.32841229  0.60962875  1
  Cl  Cl8  1  0.00946319  0.18676305  0.77827055  1
  Cl  Cl9  1  0.99053681  0.31323695  0.27827055  1
  Cl  Cl10  1  0.99053681  0.81323695  0.22172945  1
  Cl  Cl11  1  0.00946319  0.68676305  0.72172945  1
  Cl  Cl12  1  0.15781485  0.05673839  0.77984197  1
  Cl  Cl13  1  0.84218515  0.44326161  0.27984197  1
  Cl  Cl14  1  0.84218515  0.94326161  0.22015803  1
  Cl  Cl15  1  0.15781485  0.55673839  0.72015803  1
  O  O16  1  0.02310684  0.16354139  0.92020861  1
  O  O17  1  0.97689316  0.33645861  0.42020861  1
  O  O18  1  0.97689316  0.83645861  0.07979139  1
  O  O19  1  0.02310684  0.66354139  0.57979139  1
  O  O20  1  0.11724808  0.08393977  0.92260760  1
  O  O21  1  0.88275192  0.41606023  0.42260760  1
  O  O22  1  0.88275192  0.91606023  0.07739240  1
  O  O23  1  0.11724808  0.58393977  0.57739240  1
  F  F24  1  0.79036704  0.56359488  0.89380436  1
  F  F25  1  0.20963296  0.93640512  0.39380436  1
  F  F26  1  0.20963296  0.43640512  0.10619564  1
  F  F27  1  0.79036704  0.06359488  0.60619564  1
  F  F28  1  0.53543883  0.26681752  0.87475714  1
  F  F29  1  0.46456117  0.23318248  0.37475714  1
  F  F30  1  0.46456117  0.73318248  0.12524286  1
  F  F31  1  0.53543883  0.76681752  0.62524286  1
  F  F32  1  0.92943930  0.39458212  0.83157365  1
  F  F33  1  0.07056070  0.10541788  0.33157365  1
  F  F34  1  0.07056070  0.60541788  0.16842635  1
  F  F35  1  0.92943930  0.89458212  0.66842635  1
  F  F36  1  0.39739814  0.43365815  0.93740659  1
  F  F37  1  0.60260186  0.06634185  0.43740659  1
  F  F38  1  0.60260186  0.56634185  0.06259341  1
  F  F39  1  0.39739814  0.93365815  0.56259341  1
  F  F40  1  0.50511982  0.44639556  0.80497228  1
  F  F41  1  0.49488018  0.05360444  0.30497228  1
  F  F42  1  0.49488018  0.55360444  0.19502772  1
  F  F43  1  0.50511982  0.94639556  0.69502772  1
  F  F44  1  0.82728300  0.38283595  0.96269579  1
  F  F45  1  0.17271700  0.11716405  0.46269579  1
  F  F46  1  0.17271700  0.61716405  0.03730421  1
  F  F47  1  0.82728300  0.88283595  0.53730421  1
  F  F48  1  0.35295870  0.68365566  0.90821108  1
  F  F49  1  0.64704130  0.81634434  0.40821108  1
  F  F50  1  0.64704130  0.31634434  0.09178892  1
  F  F51  1  0.35295870  0.18365566  0.59178892  1
  F  F52  1  0.21397495  0.84637090  0.84071700  1
  F  F53  1  0.78602505  0.65362910  0.34071700  1
  F  F54  1  0.78602505  0.15362910  0.15928300  1
  F  F55  1  0.21397495  0.34637090  0.65928300  1
  F  F56  1  0.62886154  0.78278970  0.81107218  1
  F  F57  1  0.37113846  0.71721030  0.31107218  1
  F  F58  1  0.37113846  0.21721030  0.18892782  1
  F  F59  1  0.62886154  0.28278970  0.68892782  1
  F  F60  1  0.35076547  0.87543697  0.96935934  1
  F  F61  1  0.64923453  0.62456303  0.46935934  1
  F  F62  1  0.64923453  0.12456303  0.03064066  1
  F  F63  1  0.35076547  0.37543697  0.53064066  1
  F  F64  1  0.62496941  0.97371458  0.87084892  1
  F  F65  1  0.37503059  0.52628542  0.37084892  1
  F  F66  1  0.37503059  0.02628542  0.12915108  1
  F  F67  1  0.62496941  0.47371458  0.62915108  1
  F  F68  1  0.76409271  0.81291578  0.94055424  1
  F  F69  1  0.23590729  0.68708422  0.44055424  1
  F  F70  1  0.23590729  0.18708422  0.05944576  1
  F  F71  1  0.76409271  0.31291578  0.55944576  1
