# generated using pymatgen
data_FeAs2S4(O2F3)4
_symmetry_space_group_name_H-M   'P 1'
_cell_length_a   8.92779111
_cell_length_b   14.08372878
_cell_length_c   15.45991822
_cell_angle_alpha   90.00000000
_cell_angle_beta   99.20861648
_cell_angle_gamma   90.00000000
_symmetry_Int_Tables_number   1
_chemical_formula_structural   FeAs2S4(O2F3)4
_chemical_formula_sum   'Fe4 As8 S16 O32 F48'
_cell_volume   1918.82509464
_cell_formula_units_Z   4
loop_
 _symmetry_equiv_pos_site_id
 _symmetry_equiv_pos_as_xyz
  1  'x, y, z'
loop_
 _atom_site_type_symbol
 _atom_site_label
 _atom_site_symmetry_multiplicity
 _atom_site_fract_x
 _atom_site_fract_y
 _atom_site_fract_z
 _atom_site_occupancy
  Fe  Fe0  1  0.27509623  0.18900799  0.75613855  1
  Fe  Fe1  1  0.72490377  0.68900799  0.74386145  1
  Fe  Fe2  1  0.72490377  0.81099201  0.24386145  1
  Fe  Fe3  1  0.27509623  0.31099201  0.25613855  1
  As  As4  1  0.46602967  0.35435736  0.60827238  1
  As  As5  1  0.53397033  0.85435736  0.89172762  1
  As  As6  1  0.53397033  0.64564264  0.39172762  1
  As  As7  1  0.46602967  0.14564264  0.10827238  1
  As  As8  1  0.09019858  0.38797688  0.86829267  1
  As  As9  1  0.90980142  0.88797688  0.63170733  1
  As  As10  1  0.90980142  0.61202312  0.13170733  1
  As  As11  1  0.09019858  0.11202312  0.36829267  1
  S  S12  1  0.12468110  0.02511460  0.89285629  1
  S  S13  1  0.87531890  0.52511460  0.60714371  1
  S  S14  1  0.87531890  0.97488540  0.10714371  1
  S  S15  1  0.12468110  0.47488540  0.39285629  1
  S  S16  1  0.65902514  0.17179699  0.84285639  1
  S  S17  1  0.34097486  0.67179699  0.65714361  1
  S  S18  1  0.34097486  0.82820301  0.15714361  1
  S  S19  1  0.65902514  0.32820301  0.34285639  1
  S  S20  1  0.92110131  0.20110025  0.61044539  1
  S  S21  1  0.07889869  0.70110025  0.88955461  1
  S  S22  1  0.07889869  0.79889975  0.38955461  1
  S  S23  1  0.92110131  0.29889975  0.11044539  1
  S  S24  1  0.40669091  0.02942549  0.60442176  1
  S  S25  1  0.59330909  0.52942549  0.89557824  1
  S  S26  1  0.59330909  0.97057451  0.39557824  1
  S  S27  1  0.40669091  0.47057451  0.10442176  1
  O  O28  1  0.20884400  0.07773249  0.83443748  1
  O  O29  1  0.79115600  0.57773249  0.66556252  1
  O  O30  1  0.79115600  0.92226751  0.16556252  1
  O  O31  1  0.20884400  0.42226751  0.33443748  1
  O  O32  1  0.98417104  0.06600211  0.90906853  1
  O  O33  1  0.01582896  0.56600211  0.59093147  1
  O  O34  1  0.01582896  0.93399789  0.09093147  1
  O  O35  1  0.98417104  0.43399789  0.40906853  1
  O  O36  1  0.49597973  0.18954263  0.83821715  1
  O  O37  1  0.50402027  0.68954263  0.66178285  1
  O  O38  1  0.50402027  0.81045737  0.16178285  1
  O  O39  1  0.49597973  0.31045737  0.33821715  1
  O  O40  1  0.70973200  0.14238534  0.76333515  1
  O  O41  1  0.29026800  0.64238534  0.73666485  1
  O  O42  1  0.29026800  0.85761466  0.23666485  1
  O  O43  1  0.70973200  0.35761466  0.26333515  1
  O  O44  1  0.05373481  0.18815509  0.67837449  1
  O  O45  1  0.94626519  0.68815509  0.82162551  1
  O  O46  1  0.94626519  0.81184491  0.32162551  1
  O  O47  1  0.05373481  0.31184491  0.17837449  1
  O  O48  1  0.90578898  0.29112587  0.56586368  1
  O  O49  1  0.09421102  0.79112587  0.93413632  1
  O  O50  1  0.09421102  0.70887413  0.43413632  1
  O  O51  1  0.90578898  0.20887413  0.06586368  1
  O  O52  1  0.34633946  0.07788316  0.67520101  1
  O  O53  1  0.65366054  0.57788316  0.82479899  1
  O  O54  1  0.65366054  0.92211684  0.32479899  1
  O  O55  1  0.34633946  0.42211684  0.17520101  1
  O  O56  1  0.37731857  0.92922714  0.59508479  1
  O  O57  1  0.62268143  0.42922714  0.90491521  1
  O  O58  1  0.62268143  0.07077286  0.40491521  1
  O  O59  1  0.37731857  0.57077286  0.09508479  1
  F  F60  1  0.30135777  0.35862833  0.52849272  1
  F  F61  1  0.69864223  0.85862833  0.97150728  1
  F  F62  1  0.69864223  0.64137167  0.47150728  1
  F  F63  1  0.30135777  0.14137167  0.02849272  1
  F  F64  1  0.34676597  0.29611504  0.68284356  1
  F  F65  1  0.65323403  0.79611504  0.81715644  1
  F  F66  1  0.65323403  0.70388496  0.31715644  1
  F  F67  1  0.34676597  0.20388496  0.18284356  1
  F  F68  1  0.62080417  0.34673232  0.69428461  1
  F  F69  1  0.37919583  0.84673232  0.80571539  1
  F  F70  1  0.37919583  0.65326768  0.30571539  1
  F  F71  1  0.62080417  0.15326768  0.19428461  1
  F  F72  1  0.41567732  0.46413718  0.65009379  1
  F  F73  1  0.58432268  0.96413718  0.84990621  1
  F  F74  1  0.58432268  0.53586282  0.34990621  1
  F  F75  1  0.41567732  0.03586282  0.15009379  1
  F  F76  1  0.57715499  0.40789255  0.53808308  1
  F  F77  1  0.42284501  0.90789255  0.96191692  1
  F  F78  1  0.42284501  0.59210745  0.46191692  1
  F  F79  1  0.57715499  0.09210745  0.03808308  1
  F  F80  1  0.50713445  0.23968729  0.57317510  1
  F  F81  1  0.49286555  0.73968729  0.92682490  1
  F  F82  1  0.49286555  0.76031271  0.42682490  1
  F  F83  1  0.50713445  0.26031271  0.07317510  1
  F  F84  1  0.13740098  0.35939967  0.98092604  1
  F  F85  1  0.86259902  0.85939967  0.51907396  1
  F  F86  1  0.86259902  0.64060033  0.01907396  1
  F  F87  1  0.13740098  0.14060033  0.48092604  1
  F  F88  1  0.24928852  0.46420526  0.87904039  1
  F  F89  1  0.75071148  0.96420526  0.62095961  1
  F  F90  1  0.75071148  0.53579474  0.12095961  1
  F  F91  1  0.24928852  0.03579474  0.37904039  1
  F  F92  1  0.94030006  0.30537152  0.85793941  1
  F  F93  1  0.05969994  0.80537152  0.64206059  1
  F  F94  1  0.05969994  0.69462848  0.14206059  1
  F  F95  1  0.94030006  0.19462848  0.35793941  1
  F  F96  1  0.97163482  0.48116560  0.89053632  1
  F  F97  1  0.02836518  0.98116560  0.60946368  1
  F  F98  1  0.02836518  0.51883440  0.10946368  1
  F  F99  1  0.97163482  0.01883440  0.39053632  1
  F  F100  1  0.05205958  0.41078368  0.75441196  1
  F  F101  1  0.94794042  0.91078368  0.74558804  1
  F  F102  1  0.94794042  0.58921632  0.24558804  1
  F  F103  1  0.05205958  0.08921632  0.25441196  1
  F  F104  1  0.21586488  0.29062223  0.84513414  1
  F  F105  1  0.78413512  0.79062223  0.65486586  1
  F  F106  1  0.78413512  0.70937777  0.15486586  1
  F  F107  1  0.21586488  0.20937777  0.34513414  1
