# generated using pymatgen
data_Ag2H12C3S3(BrN3)2
_symmetry_space_group_name_H-M   'P 1'
_cell_length_a   4.44249112
_cell_length_b   8.40714446
_cell_length_c   22.01302056
_cell_angle_alpha   90.00000000
_cell_angle_beta   101.07856437
_cell_angle_gamma   90.00000000
_symmetry_Int_Tables_number   1
_chemical_formula_structural   Ag2H12C3S3(BrN3)2
_chemical_formula_sum   'Ag4 H24 C6 S6 Br4 N12'
_cell_volume   806.83571661
_cell_formula_units_Z   2
loop_
 _symmetry_equiv_pos_site_id
 _symmetry_equiv_pos_as_xyz
  1  'x, y, z'
loop_
 _atom_site_type_symbol
 _atom_site_label
 _atom_site_symmetry_multiplicity
 _atom_site_fract_x
 _atom_site_fract_y
 _atom_site_fract_z
 _atom_site_occupancy
  Ag  Ag0  1  0.52419055  0.44279523  0.17825921  1
  Ag  Ag1  1  0.47580945  0.44279523  0.32174079  1
  Ag  Ag2  1  0.47580945  0.55720477  0.82174079  1
  Ag  Ag3  1  0.52419055  0.55720477  0.67825921  1
  H  H4  1  0.82296754  0.61508076  0.02151981  1
  H  H5  1  0.17703246  0.61508076  0.47848019  1
  H  H6  1  0.17703246  0.38491924  0.97848019  1
  H  H7  1  0.82296754  0.38491924  0.52151981  1
  H  H8  1  0.02046243  0.48944770  0.07931366  1
  H  H9  1  0.97953757  0.48944770  0.42068634  1
  H  H10  1  0.97953757  0.51055230  0.92068634  1
  H  H11  1  0.02046243  0.51055230  0.57931366  1
  H  H12  1  0.85679198  0.88167744  0.03000912  1
  H  H13  1  0.14320802  0.88167744  0.46999088  1
  H  H14  1  0.14320802  0.11832256  0.96999088  1
  H  H15  1  0.85679198  0.11832256  0.53000912  1
  H  H16  1  0.09955756  0.97402549  0.09197912  1
  H  H17  1  0.90044244  0.97402549  0.40802088  1
  H  H18  1  0.90044244  0.02597451  0.90802088  1
  H  H19  1  0.09955756  0.02597451  0.59197912  1
  H  H20  1  0.18528937  0.93261223  0.29541217  1
  H  H21  1  0.81471063  0.93261223  0.20458783  1
  H  H22  1  0.81471063  0.06738777  0.70458783  1
  H  H23  1  0.18528937  0.06738777  0.79541217  1
  H  H24  1  0.30554372  0.11111161  0.33301338  1
  H  H25  1  0.69445628  0.11111161  0.16698662  1
  H  H26  1  0.69445628  0.88888839  0.66698662  1
  H  H27  1  0.30554372  0.88888839  0.83301338  1
  C  C28  1  0.08589027  0.72916315  0.09572224  1
  C  C29  1  0.91410973  0.72916315  0.40427776  1
  C  C30  1  0.91410973  0.27083685  0.90427776  1
  C  C31  1  0.08589027  0.27083685  0.59572224  1
  C  C32  1  -0.00000000  0.13324464  0.25000000  1
  C  C33  1  -0.00000000  0.86675536  0.75000000  1
  S  S34  1  0.32701452  0.71672577  0.16658729  1
  S  S35  1  0.67298548  0.71672577  0.33341271  1
  S  S36  1  0.67298548  0.28327423  0.83341271  1
  S  S37  1  0.32701452  0.28327423  0.66658729  1
  S  S38  1  -0.00000000  0.33989650  0.25000000  1
  S  S39  1  -0.00000000  0.66010350  0.75000000  1
  Br  Br40  1  0.43274312  0.24357302  0.07821162  1
  Br  Br41  1  0.56725688  0.24357302  0.42178838  1
  Br  Br42  1  0.56725688  0.75642698  0.92178838  1
  Br  Br43  1  0.43274312  0.75642698  0.57821162  1
  N  N44  1  0.96973915  0.60135127  0.06312864  1
  N  N45  1  0.03026085  0.60135127  0.43687136  1
  N  N46  1  0.03026085  0.39864873  0.93687136  1
  N  N47  1  0.96973915  0.39864873  0.56312864  1
  N  N48  1  0.00131789  0.87280225  0.07186567  1
  N  N49  1  0.99868211  0.87280225  0.42813433  1
  N  N50  1  0.99868211  0.12719775  0.92813433  1
  N  N51  1  0.00131789  0.12719775  0.57186567  1
  N  N52  1  0.17852580  0.05366181  0.29544441  1
  N  N53  1  0.82147420  0.05366181  0.20455559  1
  N  N54  1  0.82147420  0.94633819  0.70455559  1
  N  N55  1  0.17852580  0.94633819  0.79544441  1
