# generated using pymatgen
data_Mg(BH3)2
_symmetry_space_group_name_H-M   'P 1'
_cell_length_a   8.30631510
_cell_length_b   8.32120698
_cell_length_c   9.21849461
_cell_angle_alpha   90.00009184
_cell_angle_beta   89.91900159
_cell_angle_gamma   90.00027363
_symmetry_Int_Tables_number   1
_chemical_formula_structural   Mg(BH3)2
_chemical_formula_sum   'Mg4 B8 H24'
_cell_volume   637.16850227
_cell_formula_units_Z   4
loop_
 _symmetry_equiv_pos_site_id
 _symmetry_equiv_pos_as_xyz
  1  'x, y, z'
loop_
 _atom_site_type_symbol
 _atom_site_label
 _atom_site_symmetry_multiplicity
 _atom_site_fract_x
 _atom_site_fract_y
 _atom_site_fract_z
 _atom_site_occupancy
  Mg  Mg0  1  0.11046181  0.47403262  0.19206567  1
  Mg  Mg1  1  0.39002046  0.80389533  0.05788132  1
  Mg  Mg2  1  0.88958023  0.97401923  0.05792916  1
  Mg  Mg3  1  0.60996420  0.30388126  0.19210442  1
  B  B4  1  0.14601366  0.87945606  0.98060418  1
  B  B5  1  0.57413374  0.01619218  0.12718492  1
  B  B6  1  0.07315939  0.76162667  0.12800243  1
  B  B7  1  0.92685938  0.26161983  0.12200084  1
  B  B8  1  0.85400567  0.37950298  0.26935678  1
  B  B9  1  0.42580145  0.51612350  0.12279830  1
  B  B10  1  0.35393167  0.39813421  0.27059242  1
  B  B11  1  0.64608593  0.89816556  0.97945650  1
  H  H12  1  0.46937319  0.96058499  0.20942946  1
  H  H13  1  0.22081591  0.79388344  0.89399726  1
  H  H14  1  0.82143187  0.22737709  0.03245116  1
  H  H15  1  0.96813853  0.81760411  0.20980024  1
  H  H16  1  0.48711172  0.63833940  0.17694348  1
  H  H17  1  0.76477397  0.48954611  0.22896247  1
  H  H18  1  0.72091862  0.98355693  0.89278442  1
  H  H19  1  0.44965748  0.33263407  0.35314824  1
  H  H20  1  0.23522906  0.98952714  0.02096870  1
  H  H21  1  0.68006054  0.05030726  0.21631793  1
  H  H22  1  0.01166371  0.63959514  0.07378555  1
  H  H23  1  0.98832185  0.13959687  0.17625571  1
  H  H24  1  0.05097293  0.94548958  0.89780367  1
  H  H25  1  0.51284229  0.13838378  0.07300411  1
  H  H26  1  0.03192713  0.31755532  0.04021009  1
  H  H27  1  0.17860750  0.72738592  0.21753201  1
  H  H28  1  0.77919740  0.29394009  0.35599332  1
  H  H29  1  0.31984990  0.55021743  0.03368731  1
  H  H30  1  0.27911346  0.48354954  0.35726144  1
  H  H31  1  0.55040027  0.83262471  0.89688880  1
  H  H32  1  0.94902740  0.44557142  0.35214276  1
  H  H33  1  0.53054072  0.46051493  0.04054581  1
  H  H34  1  0.73512559  0.78780818  0.01944600  1
  H  H35  1  0.26488038  0.28775713  0.23066310  1
