# generated using pymatgen
data_MnH6SO7
_symmetry_space_group_name_H-M   'P 1'
_cell_length_a   10.21057134
_cell_length_b   10.21951478
_cell_length_c   12.08624039
_cell_angle_alpha   90.00000000
_cell_angle_beta   90.00000000
_cell_angle_gamma   90.00000000
_symmetry_Int_Tables_number   1
_chemical_formula_structural   MnH6SO7
_chemical_formula_sum   'Mn8 H48 S8 O56'
_cell_volume   1261.16394994
_cell_formula_units_Z   8
loop_
 _symmetry_equiv_pos_site_id
 _symmetry_equiv_pos_as_xyz
  1  'x, y, z'
loop_
 _atom_site_type_symbol
 _atom_site_label
 _atom_site_symmetry_multiplicity
 _atom_site_fract_x
 _atom_site_fract_y
 _atom_site_fract_z
 _atom_site_occupancy
  Mn  Mn0  1  0.58871774  0.80188293  0.27426619  1
  Mn  Mn1  1  0.08871774  0.69811707  0.72573381  1
  Mn  Mn2  1  0.41128226  0.30188293  0.22573381  1
  Mn  Mn3  1  0.91128226  0.19811707  0.77426619  1
  Mn  Mn4  1  0.41128226  0.19811707  0.72573381  1
  Mn  Mn5  1  0.91128226  0.30188293  0.27426619  1
  Mn  Mn6  1  0.58871774  0.69811707  0.77426619  1
  Mn  Mn7  1  0.08871774  0.80188293  0.22573381  1
  H  H8  1  0.38450157  0.80568949  0.11046473  1
  H  H9  1  0.88450157  0.69431051  0.88953527  1
  H  H10  1  0.61549843  0.30568949  0.38953527  1
  H  H11  1  0.11549843  0.19431051  0.61046473  1
  H  H12  1  0.61549843  0.19431051  0.88953527  1
  H  H13  1  0.11549843  0.30568949  0.11046473  1
  H  H14  1  0.38450157  0.69431051  0.61046473  1
  H  H15  1  0.88450157  0.80568949  0.38953527  1
  H  H16  1  0.49786527  0.89480739  0.06600228  1
  H  H17  1  0.99786527  0.60519261  0.93399772  1
  H  H18  1  0.50213473  0.39480739  0.43399772  1
  H  H19  1  0.00213473  0.10519261  0.56600228  1
  H  H20  1  0.50213473  0.10519261  0.93399772  1
  H  H21  1  0.00213473  0.39480739  0.06600228  1
  H  H22  1  0.49786527  0.60519261  0.56600228  1
  H  H23  1  0.99786527  0.89480739  0.43399772  1
  H  H24  1  0.36071063  0.66184104  0.32806291  1
  H  H25  1  0.86071063  0.83815896  0.67193709  1
  H  H26  1  0.63928937  0.16184104  0.17193709  1
  H  H27  1  0.13928937  0.33815896  0.82806291  1
  H  H28  1  0.63928937  0.33815896  0.67193709  1
  H  H29  1  0.13928937  0.16184104  0.32806291  1
  H  H30  1  0.36071063  0.83815896  0.82806291  1
  H  H31  1  0.86071063  0.66184104  0.17193709  1
  H  H32  1  0.47467641  0.57847338  0.27673912  1
  H  H33  1  0.97467641  0.92152662  0.72326088  1
  H  H34  1  0.52532359  0.07847338  0.22326088  1
  H  H35  1  0.02532359  0.42152662  0.77673912  1
  H  H36  1  0.52532359  0.42152662  0.72326088  1
  H  H37  1  0.02532359  0.07847338  0.27673912  1
  H  H38  1  0.47467641  0.92152662  0.77673912  1
  H  H39  1  0.97467641  0.57847338  0.22326088  1
  H  H40  1  0.72705338  0.69210419  0.46935961  1
  H  H41  1  0.22705338  0.80789581  0.53064039  1
  H  H42  1  0.27294662  0.19210419  0.03064039  1
  H  H43  1  0.77294662  0.30789581  0.96935961  1
  H  H44  1  0.27294662  0.30789581  0.53064039  1
  H  H45  1  0.77294662  0.19210419  0.46935961  1
  H  H46  1  0.72705338  0.80789581  0.96935961  1
  H  H47  1  0.22705338  0.69210419  0.03064039  1
  H  H48  1  0.70537444  0.84811824  0.47777104  1
  H  H49  1  0.20537444  0.65188176  0.52222896  1
  H  H50  1  0.29462556  0.34811824  0.02222896  1
  H  H51  1  0.79462556  0.15188176  0.97777104  1
  H  H52  1  0.29462556  0.15188176  0.52222896  1
  H  H53  1  0.79462556  0.34811824  0.47777104  1
  H  H54  1  0.70537444  0.65188176  0.97777104  1
  H  H55  1  0.20537444  0.84811824  0.02222896  1
  S  S56  1  0.66845974  0.50038987  0.15002139  1
  S  S57  1  0.16845974  0.99961013  0.84997861  1
  S  S58  1  0.33154026  0.00038987  0.34997861  1
  S  S59  1  0.83154026  0.49961013  0.65002139  1
  S  S60  1  0.33154026  0.49961013  0.84997861  1
  S  S61  1  0.83154026  0.00038987  0.15002139  1
  S  S62  1  0.66845974  0.99961013  0.65002139  1
  S  S63  1  0.16845974  0.50038987  0.34997861  1
  O  O64  1  0.52493177  0.47368583  0.16642245  1
  O  O65  1  0.02493177  0.02631417  0.83357755  1
  O  O66  1  0.47506823  0.97368583  0.33357755  1
  O  O67  1  0.97506823  0.52631417  0.66642245  1
  O  O68  1  0.47506823  0.52631417  0.83357755  1
  O  O69  1  0.97506823  0.97368583  0.16642245  1
  O  O70  1  0.52493177  0.02631417  0.66642245  1
  O  O71  1  0.02493177  0.47368583  0.33357755  1
  O  O72  1  0.74516527  0.41167950  0.22224925  1
  O  O73  1  0.24516527  0.08832050  0.77775075  1
  O  O74  1  0.25483473  0.91167950  0.27775075  1
  O  O75  1  0.75483473  0.58832050  0.72224925  1
  O  O76  1  0.25483473  0.58832050  0.77775075  1
  O  O77  1  0.75483473  0.91167950  0.22224925  1
  O  O78  1  0.74516527  0.08832050  0.72224925  1
  O  O79  1  0.24516527  0.41167950  0.27775075  1
  O  O80  1  0.70734575  0.48449209  0.03262058  1
  O  O81  1  0.20734575  0.01550791  0.96737942  1
  O  O82  1  0.29265425  0.98449209  0.46737942  1
  O  O83  1  0.79265425  0.51550791  0.53262058  1
  O  O84  1  0.29265425  0.51550791  0.96737942  1
  O  O85  1  0.79265425  0.98449209  0.03262058  1
  O  O86  1  0.70734575  0.01550791  0.53262058  1
  O  O87  1  0.20734575  0.48449209  0.46737942  1
  O  O88  1  0.69416825  0.63982629  0.18421555  1
  O  O89  1  0.19416825  0.86017371  0.81578445  1
  O  O90  1  0.30583175  0.13982629  0.31578445  1
  O  O91  1  0.80583175  0.36017371  0.68421555  1
  O  O92  1  0.30583175  0.36017371  0.81578445  1
  O  O93  1  0.80583175  0.13982629  0.18421555  1
  O  O94  1  0.69416825  0.86017371  0.68421555  1
  O  O95  1  0.19416825  0.63982629  0.31578445  1
  O  O96  1  0.48058558  0.82164681  0.11515371  1
  O  O97  1  0.98058558  0.67835319  0.88484629  1
  O  O98  1  0.51941442  0.32164681  0.38484629  1
  O  O99  1  0.01941442  0.17835319  0.61515371  1
  O  O100  1  0.51941442  0.17835319  0.88484629  1
  O  O101  1  0.01941442  0.32164681  0.11515371  1
  O  O102  1  0.48058558  0.67835319  0.61515371  1
  O  O103  1  0.98058558  0.82164681  0.38484629  1
  O  O104  1  0.45776369  0.64895724  0.33154247  1
  O  O105  1  0.95776369  0.85104276  0.66845753  1
  O  O106  1  0.54223631  0.14895724  0.16845753  1
  O  O107  1  0.04223631  0.35104276  0.83154247  1
  O  O108  1  0.54223631  0.35104276  0.66845753  1
  O  O109  1  0.04223631  0.14895724  0.33154247  1
  O  O110  1  0.45776369  0.85104276  0.83154247  1
  O  O111  1  0.95776369  0.64895724  0.16845753  1
  O  O112  1  0.71837086  0.77319306  0.42603417  1
  O  O113  1  0.21837086  0.72680694  0.57396583  1
  O  O114  1  0.28162914  0.27319306  0.07396583  1
  O  O115  1  0.78162914  0.22680694  0.92603417  1
  O  O116  1  0.28162914  0.22680694  0.57396583  1
  O  O117  1  0.78162914  0.27319306  0.42603417  1
  O  O118  1  0.71837086  0.72680694  0.92603417  1
  O  O119  1  0.21837086  0.77319306  0.07396583  1
