# generated using pymatgen
data_CuP4Se3I
_symmetry_space_group_name_H-M   'P 1'
_cell_length_a   7.99166967
_cell_length_b   11.01829190
_cell_length_c   12.13244369
_cell_angle_alpha   90.00000000
_cell_angle_beta   109.22940303
_cell_angle_gamma   90.00000000
_symmetry_Int_Tables_number   1
_chemical_formula_structural   CuP4Se3I
_chemical_formula_sum   'Cu4 P16 Se12 I4'
_cell_volume   1008.71276796
_cell_formula_units_Z   4
loop_
 _symmetry_equiv_pos_site_id
 _symmetry_equiv_pos_as_xyz
  1  'x, y, z'
loop_
 _atom_site_type_symbol
 _atom_site_label
 _atom_site_symmetry_multiplicity
 _atom_site_fract_x
 _atom_site_fract_y
 _atom_site_fract_z
 _atom_site_occupancy
  Cu  Cu0  1  0.79986686  0.50000000  0.00000000  1
  Cu  Cu1  1  0.29986686  0.00000000  0.00000000  1
  Cu  Cu2  1  0.20013314  0.50000000  1.00000000  1
  Cu  Cu3  1  0.70013314  0.00000000  1.00000000  1
  P  P4  1  0.71880019  0.52668771  0.43760038  1
  P  P5  1  0.28119981  0.47331229  0.56239962  1
  P  P6  1  0.78119981  0.02668771  0.56239962  1
  P  P7  1  0.21880019  0.97331229  0.43760038  1
  P  P8  1  0.61470806  0.29162774  0.22941612  1
  P  P9  1  0.38529194  0.70837226  0.77058388  1
  P  P10  1  0.88529194  0.79162774  0.77058388  1
  P  P11  1  0.11470806  0.20837226  0.22941612  1
  P  P12  1  0.72012617  0.45630645  0.15961538  1
  P  P13  1  0.56051079  0.54369355  0.84038462  1
  P  P14  1  0.06051079  0.95630645  0.84038462  1
  P  P15  1  0.22012617  0.04369355  0.15961538  1
  P  P16  1  0.27987383  0.54369355  0.84038462  1
  P  P17  1  0.43948921  0.45630645  0.15961538  1
  P  P18  1  0.93948921  0.04369355  0.15961538  1
  P  P19  1  0.77987383  0.95630645  0.84038462  1
  Se  Se20  1  0.87582297  0.56880606  0.31571891  1
  Se  Se21  1  0.56010407  0.43119394  0.68428109  1
  Se  Se22  1  0.06010407  0.06880606  0.68428109  1
  Se  Se23  1  0.37582297  0.93119394  0.31571891  1
  Se  Se24  1  0.12417703  0.43119394  0.68428109  1
  Se  Se25  1  0.43989593  0.56880606  0.31571891  1
  Se  Se26  1  0.93989593  0.93119394  0.31571891  1
  Se  Se27  1  0.62417703  0.06880606  0.68428109  1
  Se  Se28  1  0.71296160  0.31909174  0.42592319  1
  Se  Se29  1  0.28703840  0.68090826  0.57407681  1
  Se  Se30  1  0.78703840  0.81909174  0.57407681  1
  Se  Se31  1  0.21296160  0.18090826  0.42592319  1
  I  I32  1  0.96738618  0.32124679  0.93477236  1
  I  I33  1  0.03261382  0.67875321  0.06522764  1
  I  I34  1  0.53261382  0.82124679  0.06522764  1
  I  I35  1  0.46738618  0.17875321  0.93477236  1
