# generated using pymatgen
data_LiMnP3(H5O7)2
_symmetry_space_group_name_H-M   'P 1'
_cell_length_a   7.30586822
_cell_length_b   10.04432911
_cell_length_c   10.07727833
_cell_angle_alpha   61.58293720
_cell_angle_beta   70.66106488
_cell_angle_gamma   86.28449658
_symmetry_Int_Tables_number   1
_chemical_formula_structural   LiMnP3(H5O7)2
_chemical_formula_sum   'Li2 Mn2 P6 H20 O28'
_cell_volume   609.84628875
_cell_formula_units_Z   2
loop_
 _symmetry_equiv_pos_site_id
 _symmetry_equiv_pos_as_xyz
  1  'x, y, z'
loop_
 _atom_site_type_symbol
 _atom_site_label
 _atom_site_symmetry_multiplicity
 _atom_site_fract_x
 _atom_site_fract_y
 _atom_site_fract_z
 _atom_site_occupancy
  Li  Li0  1  0.12778465  0.32032452  0.31986822  1
  Li  Li1  1  0.87221535  0.67967548  0.68013178  1
  Mn  Mn2  1  0.44244241  0.28791511  0.80593303  1
  Mn  Mn3  1  0.55755759  0.71208489  0.19406697  1
  P  P4  1  0.99133700  0.86249672  0.84359528  1
  P  P5  1  0.00866300  0.13750328  0.15640472  1
  P  P6  1  0.83195728  0.32294399  0.90191954  1
  P  P7  1  0.16804272  0.67705601  0.09808046  1
  P  P8  1  0.91165069  0.79973920  0.30691505  1
  P  P9  1  0.08834931  0.20026080  0.69308495  1
  H  H10  1  0.51934281  0.69455630  0.87138636  1
  H  H11  1  0.48065719  0.30544370  0.12861364  1
  H  H12  1  0.57282386  0.80794386  0.68719196  1
  H  H13  1  0.42717614  0.19205614  0.31280804  1
  H  H14  1  0.79968366  0.96143488  0.61821009  1
  H  H15  1  0.20031634  0.03856512  0.38178991  1
  H  H16  1  0.24077690  0.91775139  0.53071297  1
  H  H17  1  0.75922310  0.08224861  0.46928703  1
  H  H18  1  0.70688958  0.51124485  0.49635802  1
  H  H19  1  0.29311042  0.48875515  0.50364198  1
  H  H20  1  0.18689306  0.64102555  0.44231574  1
  H  H21  1  0.81310694  0.35897445  0.55768426  1
  H  H22  1  0.80305771  0.48330819  0.21766084  1
  H  H23  1  0.19694229  0.51669181  0.78233916  1
  H  H24  1  0.40566944  0.58251534  0.77204565  1
  H  H25  1  0.59433056  0.41748466  0.22795435  1
  H  H26  1  0.37296870  0.98583605  0.11776857  1
  H  H27  1  0.62703130  0.01416395  0.88223143  1
  H  H28  1  0.42149632  0.93857870  0.27394127  1
  H  H29  1  0.57850368  0.06142130  0.72605873  1
  O  O30  1  0.12005835  0.02237962  0.77292167  1
  O  O31  1  0.87994165  0.97762038  0.22707833  1
  O  O32  1  0.87061392  0.25341577  0.07131132  1
  O  O33  1  0.12938608  0.74658423  0.92868868  1
  O  O34  1  0.00377636  0.16120738  0.29462988  1
  O  O35  1  0.99622364  0.83879262  0.70537012  1
  O  O36  1  0.20393677  0.14643252  0.03831166  1
  O  O37  1  0.79606323  0.85356748  0.96168834  1
  O  O38  1  0.05195238  0.52340016  0.20910610  1
  O  O39  1  0.94804762  0.47659984  0.79089390  1
  O  O40  1  0.61336363  0.30996608  0.94495215  1
  O  O41  1  0.38663637  0.69003392  0.05504785  1
  O  O42  1  0.27125617  0.28747852  0.66141888  1
  O  O43  1  0.72874383  0.71252148  0.33858112  1
  O  O44  1  0.01701741  0.24480202  0.55537090  1
  O  O45  1  0.98298259  0.75519798  0.44462910  1
  O  O46  1  0.91143295  0.20038633  0.84196693  1
  O  O47  1  0.08856705  0.79961367  0.15803307  1
  O  O48  1  0.57558805  0.70039645  0.76370186  1
  O  O49  1  0.42441195  0.29960355  0.23629814  1
  O  O50  1  0.31042443  0.99406873  0.41820907  1
  O  O51  1  0.68957557  0.00593127  0.58179093  1
  O  O52  1  0.69599156  0.40794107  0.58644834  1
  O  O53  1  0.30400844  0.59205893  0.41355166  1
  O  O54  1  0.66807800  0.50158448  0.22128349  1
  O  O55  1  0.33192200  0.49841552  0.77871651  1
  O  O56  1  0.45998929  0.92695929  0.17588071  1
  O  O57  1  0.54001071  0.07304071  0.82411929  1
