# generated using pymatgen
data_CoP4F12
_symmetry_space_group_name_H-M   'P 1'
_cell_length_a   7.87464723
_cell_length_b   7.87464723
_cell_length_c   12.15699033
_cell_angle_alpha   96.97499267
_cell_angle_beta   102.03208282
_cell_angle_gamma   119.38678015
_symmetry_Int_Tables_number   1
_chemical_formula_structural   CoP4F12
_chemical_formula_sum   'Co2 P8 F24'
_cell_volume   619.89000158
_cell_formula_units_Z   2
loop_
 _symmetry_equiv_pos_site_id
 _symmetry_equiv_pos_as_xyz
  1  'x, y, z'
loop_
 _atom_site_type_symbol
 _atom_site_label
 _atom_site_symmetry_multiplicity
 _atom_site_fract_x
 _atom_site_fract_y
 _atom_site_fract_z
 _atom_site_occupancy
  Co  Co0  1  0.85341241  0.60341241  0.75000000  1
  Co  Co1  1  0.14658759  0.39658759  0.25000000  1
  P  P2  1  0.85996146  0.72515365  0.60239289  1
  P  P3  1  0.12276076  0.75756857  0.89760711  1
  P  P4  1  0.14003854  0.27484635  0.39760711  1
  P  P5  1  0.87723924  0.24243143  0.10239289  1
  P  P6  1  0.60035600  0.56984989  0.80732843  1
  P  P7  1  0.76252146  0.29302757  0.69267157  1
  P  P8  1  0.39964400  0.43015011  0.19267157  1
  P  P9  1  0.23747854  0.70697243  0.30732843  1
  F  F10  1  0.69033838  0.77230605  0.55051523  1
  F  F11  1  0.22179082  0.63982316  0.94948477  1
  F  F12  1  0.30966162  0.22769395  0.44948477  1
  F  F13  1  0.77820918  0.36017684  0.05051523  1
  F  F14  1  0.84256359  0.60032793  0.48385103  1
  F  F15  1  0.11647689  0.85871256  0.01614897  1
  F  F16  1  0.15743641  0.39967207  0.51614897  1
  F  F17  1  0.88352311  0.14128744  0.98385103  1
  F  F18  1  0.05434343  0.93469093  0.60930595  1
  F  F19  1  0.32538499  0.94503748  0.89069405  1
  F  F20  1  0.94565657  0.06530907  0.39069405  1
  F  F21  1  0.67461501  0.05496252  0.10930595  1
  F  F22  1  0.39944238  0.35834211  0.78713498  1
  F  F23  1  0.57120713  0.11230739  0.71286502  1
  F  F24  1  0.60055762  0.64165789  0.21286502  1
  F  F25  1  0.42879287  0.88769261  0.28713498  1
  F  F26  1  0.49437130  0.68471911  0.75949744  1
  F  F27  1  0.92522167  0.23487387  0.74050256  1
  F  F28  1  0.50562870  0.31528089  0.24050256  1
  F  F29  1  0.07477833  0.76512613  0.25949744  1
  F  F30  1  0.64245262  0.65427171  0.94131728  1
  F  F31  1  0.71295443  0.20113534  0.55868272  1
  F  F32  1  0.35754738  0.34572829  0.05868272  1
  F  F33  1  0.28704557  0.79886466  0.44131728  1
