# generated using pymatgen
data_TaTiCo
_symmetry_space_group_name_H-M   'P 1'
_cell_length_a   5.08520477
_cell_length_b   5.08575128
_cell_length_c   7.96535816
_cell_angle_alpha   90.00000000
_cell_angle_beta   90.00000000
_cell_angle_gamma   60.40488491
_symmetry_Int_Tables_number   1
_chemical_formula_structural   TaTiCo
_chemical_formula_sum   'Ta4 Ti4 Co4'
_cell_volume   179.12531071
_cell_formula_units_Z   4
loop_
 _symmetry_equiv_pos_site_id
 _symmetry_equiv_pos_as_xyz
  1  'x, y, z'
loop_
 _atom_site_type_symbol
 _atom_site_label
 _atom_site_symmetry_multiplicity
 _atom_site_fract_x
 _atom_site_fract_y
 _atom_site_fract_z
 _atom_site_occupancy
  Ta  Ta0  1  0.32187704  0.32186397  0.56826469  1
  Ta  Ta1  1  0.65344868  0.65352299  0.45601411  1
  Ta  Ta2  1  0.65344868  0.65352299  0.04398589  1
  Ta  Ta3  1  0.32187704  0.32186397  0.93173531  1
  Ti  Ti4  1  0.85177891  0.85176809  0.75000000  1
  Ti  Ti5  1  0.15646453  0.66142512  0.25000000  1
  Ti  Ti6  1  0.66146293  0.15648588  0.25000000  1
  Ti  Ti7  1  0.16724804  0.16723755  0.25000000  1
  Co  Co8  1  0.00583167  0.00576826  0.50013620  1
  Co  Co9  1  0.00583167  0.00576826  0.99986380  1
  Co  Co10  1  0.84223208  0.35854017  0.75000000  1
  Co  Co11  1  0.35849874  0.84223275  0.75000000  1
