# generated using pymatgen
data_Pr2Ge6Pd
_symmetry_space_group_name_H-M   'P 1'
_cell_length_a   4.13258276
_cell_length_b   4.19927092
_cell_length_c   11.47907067
_cell_angle_alpha   90.00000000
_cell_angle_beta   100.37005746
_cell_angle_gamma   90.00000000
_symmetry_Int_Tables_number   1
_chemical_formula_structural   Pr2Ge6Pd
_chemical_formula_sum   'Pr2 Ge6 Pd1'
_cell_volume   195.95200007
_cell_formula_units_Z   1
loop_
 _symmetry_equiv_pos_site_id
 _symmetry_equiv_pos_as_xyz
  1  'x, y, z'
loop_
 _atom_site_type_symbol
 _atom_site_label
 _atom_site_symmetry_multiplicity
 _atom_site_fract_x
 _atom_site_fract_y
 _atom_site_fract_z
 _atom_site_occupancy
  Pr  Pr0  1  0.77935088  0.50000000  0.55870177  1
  Pr  Pr1  1  0.11535330  0.50000000  0.23070661  1
  Ge  Ge2  1  0.49550393  0.50000000  0.99100787  1
  Ge  Ge3  1  0.38501078  0.50000000  0.77002156  1
  Ge  Ge4  1  0.99375832  -0.00000000  0.98751664  1
  Ge  Ge5  1  0.88294717  0.00000000  0.76589433  1
  Ge  Ge6  1  0.66585646  -0.00000000  0.33171291  1
  Ge  Ge7  1  0.23255845  0.00000000  0.46511689  1
  Pd  Pd8  1  0.55666071  0.00000000  0.11332142  1
