# generated using pymatgen
data_LaCBr
_symmetry_space_group_name_H-M   'P 1'
_cell_length_a   4.11846653
_cell_length_b   4.27266859
_cell_length_c   10.19668247
_cell_angle_alpha   93.64703095
_cell_angle_beta   90.00000000
_cell_angle_gamma   118.81316083
_symmetry_Int_Tables_number   1
_chemical_formula_structural   LaCBr
_chemical_formula_sum   'La2 C2 Br2'
_cell_volume   156.80049430
_cell_formula_units_Z   2
loop_
 _symmetry_equiv_pos_site_id
 _symmetry_equiv_pos_as_xyz
  1  'x, y, z'
loop_
 _atom_site_type_symbol
 _atom_site_label
 _atom_site_symmetry_multiplicity
 _atom_site_fract_x
 _atom_site_fract_y
 _atom_site_fract_z
 _atom_site_occupancy
  La  La0  1  0.85546684  0.71093368  0.84962238  1
  La  La1  1  0.14453316  0.28906632  0.15037762  1
  C  C2  1  0.57317026  0.14634052  0.96765589  1
  C  C3  1  0.42682974  0.85365948  0.03234411  1
  Br  Br4  1  0.82467325  0.64934649  0.33962424  1
  Br  Br5  1  0.17532675  0.35065351  0.66037576  1
