# generated using pymatgen
data_TaAgWO7
_symmetry_space_group_name_H-M   'P 1'
_cell_length_a   7.42240358
_cell_length_b   7.28398654
_cell_length_c   7.50965058
_cell_angle_alpha   90.00000000
_cell_angle_beta   59.61039490
_cell_angle_gamma   119.38500477
_symmetry_Int_Tables_number   1
_chemical_formula_structural   TaAgWO7
_chemical_formula_sum   'Ta2 Ag2 W2 O14'
_cell_volume   288.04338304
_cell_formula_units_Z   2
loop_
 _symmetry_equiv_pos_site_id
 _symmetry_equiv_pos_as_xyz
  1  'x, y, z'
loop_
 _atom_site_type_symbol
 _atom_site_label
 _atom_site_symmetry_multiplicity
 _atom_site_fract_x
 _atom_site_fract_y
 _atom_site_fract_z
 _atom_site_occupancy
  Ta  Ta0  1  -0.00000000  0.50000000  -0.00000000  1
  Ta  Ta1  1  0.00000000  0.50000000  0.50000000  1
  Ag  Ag2  1  0.50000000  0.50000000  -0.00000000  1
  Ag  Ag3  1  0.50000000  -0.00000000  -0.00000000  1
  W  W4  1  0.50000000  -0.00000000  0.50000000  1
  W  W5  1  0.50000000  0.50000000  0.50000000  1
  O  O6  1  0.34299310  0.17149655  0.07850345  1
  O  O7  1  0.65700690  0.82850345  0.92149655  1
  O  O8  1  0.61617135  0.80808568  0.44191432  1
  O  O9  1  0.86637357  0.43318678  0.81681322  1
  O  O10  1  0.25507296  0.81482112  0.80575897  1
  O  O11  1  0.25507296  0.44025185  0.43916806  1
  O  O12  1  0.25507296  0.44025185  0.80575897  1
  O  O13  1  0.25507296  0.81482112  0.43916806  1
  O  O14  1  0.38382865  0.19191432  0.55808568  1
  O  O15  1  0.13362643  0.56681322  0.18318678  1
  O  O16  1  0.74492704  0.18517888  0.19424103  1
  O  O17  1  0.74492704  0.55974815  0.56083194  1
  O  O18  1  0.74492704  0.55974815  0.19424103  1
  O  O19  1  0.74492704  0.18517888  0.56083194  1
