# generated using pymatgen
data_Ce2NiGe6
_symmetry_space_group_name_H-M   'P 1'
_cell_length_a   4.07451693
_cell_length_b   4.11832826
_cell_length_c   11.09284225
_cell_angle_alpha   90.00000000
_cell_angle_beta   100.58273929
_cell_angle_gamma   90.00000000
_symmetry_Int_Tables_number   1
_chemical_formula_structural   Ce2NiGe6
_chemical_formula_sum   'Ce2 Ni1 Ge6'
_cell_volume   182.97398299
_cell_formula_units_Z   1
loop_
 _symmetry_equiv_pos_site_id
 _symmetry_equiv_pos_as_xyz
  1  'x, y, z'
loop_
 _atom_site_type_symbol
 _atom_site_label
 _atom_site_symmetry_multiplicity
 _atom_site_fract_x
 _atom_site_fract_y
 _atom_site_fract_z
 _atom_site_occupancy
  Ce  Ce0  1  0.77951733  0.50000000  0.55903466  1
  Ce  Ce1  1  0.11144968  0.50000000  0.22289935  1
  Ni  Ni2  1  0.55494779  0.00000000  0.10989558  1
  Ge  Ge3  1  0.49986325  0.50000000  0.99972649  1
  Ge  Ge4  1  0.38472670  0.50000000  0.76945341  1
  Ge  Ge5  1  0.99907162  -0.00000000  0.99814325  1
  Ge  Ge6  1  0.88363334  -0.00000000  0.76726669  1
  Ge  Ge7  1  0.66186979  -0.00000000  0.32373958  1
  Ge  Ge8  1  0.23192050  -0.00000000  0.46384099  1
