# generated using pymatgen
data_TmCu(MoO4)2
_symmetry_space_group_name_H-M   'P 1'
_cell_length_a   5.06422985
_cell_length_b   7.67539506
_cell_length_c   7.67539506
_cell_angle_alpha   100.29236432
_cell_angle_beta   91.31424661
_cell_angle_gamma   91.31424661
_symmetry_Int_Tables_number   1
_chemical_formula_structural   TmCu(MoO4)2
_chemical_formula_sum   'Tm2 Cu2 Mo4 O16'
_cell_volume   293.35359475
_cell_formula_units_Z   2
loop_
 _symmetry_equiv_pos_site_id
 _symmetry_equiv_pos_as_xyz
  1  'x, y, z'
loop_
 _atom_site_type_symbol
 _atom_site_label
 _atom_site_symmetry_multiplicity
 _atom_site_fract_x
 _atom_site_fract_y
 _atom_site_fract_z
 _atom_site_occupancy
  Tm  Tm0  1  0.75000000  0.84677444  0.15322556  1
  Tm  Tm1  1  0.25000000  0.15322556  0.84677444  1
  Cu  Cu2  1  0.75000000  0.34019372  0.65980628  1
  Cu  Cu3  1  0.25000000  0.65980628  0.34019372  1
  Mo  Mo4  1  0.74307792  0.35211160  0.17454509  1
  Mo  Mo5  1  0.25692208  0.64788840  0.82545491  1
  Mo  Mo6  1  0.75692208  0.82545491  0.64788840  1
  Mo  Mo7  1  0.24307792  0.17454509  0.35211160  1
  O  O8  1  0.39554619  0.68312148  0.05117250  1
  O  O9  1  0.60445381  0.31687852  0.94882750  1
  O  O10  1  0.10445381  0.94882750  0.31687852  1
  O  O11  1  0.89554619  0.05117250  0.68312148  1
  O  O12  1  0.95944985  0.80366743  0.90257593  1
  O  O13  1  0.04055015  0.19633257  0.09742407  1
  O  O14  1  0.54055015  0.09742407  0.19633257  1
  O  O15  1  0.45944985  0.90257593  0.80366743  1
  O  O16  1  0.90043690  0.57185810  0.19876329  1
  O  O17  1  0.09956310  0.42814190  0.80123671  1
  O  O18  1  0.59956310  0.80123671  0.42814190  1
  O  O19  1  0.40043690  0.19876329  0.57185810  1
  O  O20  1  0.56824261  0.58707822  0.69454157  1
  O  O21  1  0.43175739  0.41292178  0.30545843  1
  O  O22  1  0.93175739  0.30545843  0.41292178  1
  O  O23  1  0.06824261  0.69454157  0.58707822  1
