# generated using pymatgen
data_SrLaAlCuO5
_symmetry_space_group_name_H-M   'P 1'
_cell_length_a   5.47864469
_cell_length_b   8.07208746
_cell_length_c   11.07007527
_cell_angle_alpha   90.00000000
_cell_angle_beta   90.00000000
_cell_angle_gamma   90.00000000
_symmetry_Int_Tables_number   1
_chemical_formula_structural   SrLaAlCuO5
_chemical_formula_sum   'Sr4 La4 Al4 Cu4 O20'
_cell_volume   489.56410578
_cell_formula_units_Z   4
loop_
 _symmetry_equiv_pos_site_id
 _symmetry_equiv_pos_as_xyz
  1  'x, y, z'
loop_
 _atom_site_type_symbol
 _atom_site_label
 _atom_site_symmetry_multiplicity
 _atom_site_fract_x
 _atom_site_fract_y
 _atom_site_fract_z
 _atom_site_occupancy
  Sr  Sr0  1  0.25000000  0.25843235  0.40012757  1
  Sr  Sr1  1  0.75000000  0.74156765  0.59987243  1
  Sr  Sr2  1  0.25000000  0.74156765  0.90012757  1
  Sr  Sr3  1  0.75000000  0.25843235  0.09987243  1
  La  La4  1  0.25000000  0.81016248  0.36815227  1
  La  La5  1  0.75000000  0.18983752  0.63184773  1
  La  La6  1  0.25000000  0.18983752  0.86815227  1
  La  La7  1  0.75000000  0.81016248  0.13184773  1
  Al  Al8  1  0.25000000  0.49757082  0.15729550  1
  Al  Al9  1  0.75000000  0.50242918  0.84270450  1
  Al  Al10  1  0.25000000  0.50242918  0.65729550  1
  Al  Al11  1  0.75000000  0.49757082  0.34270450  1
  Cu  Cu12  1  0.25000000  0.02353577  0.12674838  1
  Cu  Cu13  1  0.75000000  0.97646423  0.87325162  1
  Cu  Cu14  1  0.25000000  0.97646423  0.62674838  1
  Cu  Cu15  1  0.75000000  0.02353577  0.37325162  1
  O  O16  1  0.25000000  0.28347180  0.64221266  1
  O  O17  1  0.75000000  0.71652820  0.35778734  1
  O  O18  1  0.25000000  0.71652820  0.14221266  1
  O  O19  1  0.75000000  0.28347180  0.85778734  1
  O  O20  1  0.00000000  0.03200207  0.25000000  1
  O  O21  1  -0.00000000  0.96799793  0.75000000  1
  O  O22  1  0.50000000  0.96799793  0.75000000  1
  O  O23  1  0.50000000  0.03200207  0.25000000  1
  O  O24  1  -0.00000000  0.44019871  0.25000000  1
  O  O25  1  0.00000000  0.55980129  0.75000000  1
  O  O26  1  0.50000000  0.55980129  0.75000000  1
  O  O27  1  0.50000000  0.44019871  0.25000000  1
  O  O28  1  0.00000000  -0.00000000  -0.00000000  1
  O  O29  1  0.50000000  -0.00000000  0.00000000  1
  O  O30  1  0.50000000  -0.00000000  0.50000000  1
  O  O31  1  0.00000000  0.00000000  0.50000000  1
  O  O32  1  0.25000000  0.37464279  0.02666046  1
  O  O33  1  0.75000000  0.62535721  0.97333954  1
  O  O34  1  0.25000000  0.62535721  0.52666046  1
  O  O35  1  0.75000000  0.37464279  0.47333954  1
