# generated using pymatgen
data_Zr3TiO8
_symmetry_space_group_name_H-M   'P 1'
_cell_length_a   5.09975193
_cell_length_b   5.09975193
_cell_length_c   6.42107787
_cell_angle_alpha   113.39765127
_cell_angle_beta   113.39765127
_cell_angle_gamma   90.00000000
_symmetry_Int_Tables_number   1
_chemical_formula_structural   Zr3TiO8
_chemical_formula_sum   'Zr3 Ti1 O8'
_cell_volume   138.17410658
_cell_formula_units_Z   1
loop_
 _symmetry_equiv_pos_site_id
 _symmetry_equiv_pos_as_xyz
  1  'x, y, z'
loop_
 _atom_site_type_symbol
 _atom_site_label
 _atom_site_symmetry_multiplicity
 _atom_site_fract_x
 _atom_site_fract_y
 _atom_site_fract_z
 _atom_site_occupancy
  Zr  Zr0  1  0.25000000  0.75000000  0.50000000  1
  Zr  Zr1  1  0.75000000  0.25000000  0.50000000  1
  Zr  Zr2  1  0.50000000  0.50000000  -0.00000000  1
  Ti  Ti3  1  -0.00000000  -0.00000000  -0.00000000  1
  O  O4  1  0.55025850  0.55025850  0.68437102  1
  O  O5  1  0.13411252  0.13411252  0.68437102  1
  O  O6  1  0.86588748  0.44974150  0.31562898  1
  O  O7  1  0.44974150  0.86588748  0.31562898  1
  O  O8  1  0.31284950  0.31284950  0.18001564  1
  O  O9  1  0.86716614  0.86716614  0.18001564  1
  O  O10  1  0.13283386  0.68715050  0.81998436  1
  O  O11  1  0.68715050  0.13283386  0.81998436  1
