# generated using pymatgen
data_YMnCrO5
_symmetry_space_group_name_H-M   'P 1'
_cell_length_a   5.81692429
_cell_length_b   7.25047633
_cell_length_c   8.63666132
_cell_angle_alpha   90.00000000
_cell_angle_beta   90.00000000
_cell_angle_gamma   90.00000000
_symmetry_Int_Tables_number   1
_chemical_formula_structural   YMnCrO5
_chemical_formula_sum   'Y4 Mn4 Cr4 O20'
_cell_volume   364.25526662
_cell_formula_units_Z   4
loop_
 _symmetry_equiv_pos_site_id
 _symmetry_equiv_pos_as_xyz
  1  'x, y, z'
loop_
 _atom_site_type_symbol
 _atom_site_label
 _atom_site_symmetry_multiplicity
 _atom_site_fract_x
 _atom_site_fract_y
 _atom_site_fract_z
 _atom_site_occupancy
  Y  Y0  1  0.50000000  0.36152363  0.32686947  1
  Y  Y1  1  0.50000000  0.63847637  0.67313053  1
  Y  Y2  1  0.50000000  0.13847637  0.82686947  1
  Y  Y3  1  0.50000000  0.86152363  0.17313053  1
  Mn  Mn4  1  0.00000000  0.09362730  0.14955795  1
  Mn  Mn5  1  0.00000000  0.90637270  0.85044205  1
  Mn  Mn6  1  0.00000000  0.40637270  0.64955795  1
  Mn  Mn7  1  0.00000000  0.59362730  0.35044205  1
  Cr  Cr8  1  0.24845601  0.00000000  0.50000000  1
  Cr  Cr9  1  0.75154399  0.00000000  0.50000000  1
  Cr  Cr10  1  0.75154399  0.50000000  -0.00000000  1
  Cr  Cr11  1  0.24845601  0.50000000  -0.00000000  1
  O  O12  1  0.00000000  0.35286477  0.07789705  1
  O  O13  1  0.00000000  0.64713523  0.92210295  1
  O  O14  1  0.00000000  0.14713523  0.57789705  1
  O  O15  1  0.00000000  0.85286477  0.42210295  1
  O  O16  1  0.50000000  0.33202861  0.05524798  1
  O  O17  1  0.50000000  0.66797139  0.94475202  1
  O  O18  1  0.50000000  0.16797139  0.55524798  1
  O  O19  1  0.50000000  0.83202861  0.44475202  1
  O  O20  1  0.22393163  0.00000000  -0.00000000  1
  O  O21  1  0.77606837  0.00000000  -0.00000000  1
  O  O22  1  0.77606837  0.50000000  0.50000000  1
  O  O23  1  0.22393163  0.50000000  0.50000000  1
  O  O24  1  0.25933803  0.10823267  0.28892593  1
  O  O25  1  0.74066197  0.89176733  0.71107407  1
  O  O26  1  0.25933803  0.89176733  0.71107407  1
  O  O27  1  0.74066197  0.39176733  0.78892593  1
  O  O28  1  0.74066197  0.10823267  0.28892593  1
  O  O29  1  0.25933803  0.60823267  0.21107407  1
  O  O30  1  0.74066197  0.60823267  0.21107407  1
  O  O31  1  0.25933803  0.39176733  0.78892593  1
