# generated using pymatgen
data_Zn10Cr(B4Rh9)2
_symmetry_space_group_name_H-M   'P 1'
_cell_length_a   2.86910701
_cell_length_b   18.02066997
_cell_length_c   18.02066997
_cell_angle_alpha   90.00000000
_cell_angle_beta   90.00000000
_cell_angle_gamma   90.00000000
_symmetry_Int_Tables_number   1
_chemical_formula_structural   Zn10Cr(B4Rh9)2
_chemical_formula_sum   'Zn20 Cr2 B16 Rh36'
_cell_volume   931.72685387
_cell_formula_units_Z   2
loop_
 _symmetry_equiv_pos_site_id
 _symmetry_equiv_pos_as_xyz
  1  'x, y, z'
loop_
 _atom_site_type_symbol
 _atom_site_label
 _atom_site_symmetry_multiplicity
 _atom_site_fract_x
 _atom_site_fract_y
 _atom_site_fract_z
 _atom_site_occupancy
  Zn  Zn0  1  -0.00000000  0.05003383  0.55003383  1
  Zn  Zn1  1  0.00000000  0.94996617  0.44996617  1
  Zn  Zn2  1  0.00000000  0.44996617  0.05003383  1
  Zn  Zn3  1  -0.00000000  0.55003383  0.94996617  1
  Zn  Zn4  1  -0.00000000  0.18853242  0.03194158  1
  Zn  Zn5  1  0.00000000  0.81146758  0.96805842  1
  Zn  Zn6  1  0.00000000  0.96805842  0.18853242  1
  Zn  Zn7  1  0.00000000  0.31146758  0.53194158  1
  Zn  Zn8  1  -0.00000000  0.03194158  0.81146758  1
  Zn  Zn9  1  -0.00000000  0.68853242  0.46805842  1
  Zn  Zn10  1  0.00000000  0.53194158  0.68853242  1
  Zn  Zn11  1  -0.00000000  0.46805842  0.31146758  1
  Zn  Zn12  1  0.00000000  0.70916575  0.20916575  1
  Zn  Zn13  1  -0.00000000  0.29083425  0.79083425  1
  Zn  Zn14  1  -0.00000000  0.79083425  0.70916575  1
  Zn  Zn15  1  0.00000000  0.20916575  0.29083425  1
  Zn  Zn16  1  -0.00000000  0.16886159  0.66886159  1
  Zn  Zn17  1  0.00000000  0.83113841  0.33113841  1
  Zn  Zn18  1  0.00000000  0.33113841  0.16886159  1
  Zn  Zn19  1  -0.00000000  0.66886159  0.83113841  1
  Cr  Cr20  1  0.00000000  -0.00000000  0.00000000  1
  Cr  Cr21  1  0.00000000  0.50000000  0.50000000  1
  B  B22  1  -0.00000000  0.03889293  0.33439395  1
  B  B23  1  0.00000000  0.96110707  0.66560605  1
  B  B24  1  -0.00000000  0.66560605  0.03889293  1
  B  B25  1  -0.00000000  0.46110707  0.83439395  1
  B  B26  1  0.00000000  0.33439395  0.96110707  1
  B  B27  1  0.00000000  0.53889293  0.16560605  1
  B  B28  1  0.00000000  0.83439395  0.53889293  1
  B  B29  1  -0.00000000  0.16560605  0.46110707  1
  B  B30  1  -0.00000000  0.12577590  0.16888220  1
  B  B31  1  0.00000000  0.87422410  0.83111780  1
  B  B32  1  0.00000000  0.83111780  0.12577590  1
  B  B33  1  0.00000000  0.37422410  0.66888220  1
  B  B34  1  -0.00000000  0.16888220  0.87422410  1
  B  B35  1  -0.00000000  0.62577590  0.33111780  1
  B  B36  1  0.00000000  0.66888220  0.62577590  1
  B  B37  1  -0.00000000  0.33111780  0.37422410  1
  Rh  Rh38  1  0.50000000  0.08712119  0.25445253  1
  Rh  Rh39  1  0.50000000  0.91287881  0.74554747  1
  Rh  Rh40  1  0.50000000  0.74554747  0.08712119  1
  Rh  Rh41  1  0.50000000  0.41287881  0.75445253  1
  Rh  Rh42  1  0.50000000  0.25445253  0.91287881  1
  Rh  Rh43  1  0.50000000  0.58712119  0.24554747  1
  Rh  Rh44  1  0.50000000  0.75445253  0.58712119  1
  Rh  Rh45  1  0.50000000  0.24554747  0.41287881  1
  Rh  Rh46  1  0.50000000  0.32598714  0.04751166  1
  Rh  Rh47  1  0.50000000  0.67401286  0.95248834  1
  Rh  Rh48  1  0.50000000  0.95248834  0.32598714  1
  Rh  Rh49  1  0.50000000  0.17401286  0.54751166  1
  Rh  Rh50  1  0.50000000  0.04751166  0.67401286  1
  Rh  Rh51  1  0.50000000  0.82598714  0.45248834  1
  Rh  Rh52  1  0.50000000  0.54751166  0.82598714  1
  Rh  Rh53  1  0.50000000  0.45248834  0.17401286  1
  Rh  Rh54  1  0.50000000  0.21070543  0.15935350  1
  Rh  Rh55  1  0.50000000  0.78929457  0.84064650  1
  Rh  Rh56  1  0.50000000  0.84064650  0.21070543  1
  Rh  Rh57  1  0.50000000  0.28929457  0.65935350  1
  Rh  Rh58  1  0.50000000  0.15935350  0.78929457  1
  Rh  Rh59  1  0.50000000  0.71070543  0.34064650  1
  Rh  Rh60  1  0.50000000  0.65935350  0.71070543  1
  Rh  Rh61  1  0.50000000  0.34064650  0.28929457  1
  Rh  Rh62  1  0.50000000  0.06619348  0.09793021  1
  Rh  Rh63  1  0.50000000  0.93380652  0.90206979  1
  Rh  Rh64  1  0.50000000  0.90206979  0.06619348  1
  Rh  Rh65  1  0.50000000  0.43380652  0.59793021  1
  Rh  Rh66  1  0.50000000  0.09793021  0.93380652  1
  Rh  Rh67  1  0.50000000  0.56619348  0.40206979  1
  Rh  Rh68  1  0.50000000  0.59793021  0.56619348  1
  Rh  Rh69  1  0.50000000  0.40206979  0.43380652  1
  Rh  Rh70  1  0.50000000  0.58237613  0.08237613  1
  Rh  Rh71  1  0.50000000  0.41762387  0.91762387  1
  Rh  Rh72  1  0.50000000  0.91762387  0.58237613  1
  Rh  Rh73  1  0.50000000  0.08237613  0.41762387  1
