# generated using pymatgen
data_Rb3Bi2
_symmetry_space_group_name_H-M   'P 1'
_cell_length_a   7.13414036
_cell_length_b   7.13414036
_cell_length_c   9.93833605
_cell_angle_alpha   101.19858778
_cell_angle_beta   101.19858778
_cell_angle_gamma   91.92147141
_symmetry_Int_Tables_number   1
_chemical_formula_structural   Rb3Bi2
_chemical_formula_sum   'Rb6 Bi4'
_cell_volume   485.40681309
_cell_formula_units_Z   2
loop_
 _symmetry_equiv_pos_site_id
 _symmetry_equiv_pos_as_xyz
  1  'x, y, z'
loop_
 _atom_site_type_symbol
 _atom_site_label
 _atom_site_symmetry_multiplicity
 _atom_site_fract_x
 _atom_site_fract_y
 _atom_site_fract_z
 _atom_site_occupancy
  Rb  Rb0  1  0.66031783  0.75464576  0.97537584  1
  Rb  Rb1  1  0.33968217  0.24535424  0.02462416  1
  Rb  Rb2  1  0.24535424  0.33968217  0.52462416  1
  Rb  Rb3  1  0.75464576  0.66031783  0.47537584  1
  Rb  Rb4  1  0.83260700  0.16739300  0.75000000  1
  Rb  Rb5  1  0.16739300  0.83260700  0.25000000  1
  Bi  Bi6  1  0.30774432  0.88243913  0.65768262  1
  Bi  Bi7  1  0.69225568  0.11756087  0.34231738  1
  Bi  Bi8  1  0.11756087  0.69225568  0.84231738  1
  Bi  Bi9  1  0.88243913  0.30774432  0.15768262  1
