# generated using pymatgen
data_LiGd2RuO6
_symmetry_space_group_name_H-M   'P 1'
_cell_length_a   5.38658967
_cell_length_b   5.77609562
_cell_length_c   7.68719081
_cell_angle_alpha   90.00000000
_cell_angle_beta   90.52939298
_cell_angle_gamma   90.00000000
_symmetry_Int_Tables_number   1
_chemical_formula_structural   LiGd2RuO6
_chemical_formula_sum   'Li2 Gd4 Ru2 O12'
_cell_volume   239.16487167
_cell_formula_units_Z   2
loop_
 _symmetry_equiv_pos_site_id
 _symmetry_equiv_pos_as_xyz
  1  'x, y, z'
loop_
 _atom_site_type_symbol
 _atom_site_label
 _atom_site_symmetry_multiplicity
 _atom_site_fract_x
 _atom_site_fract_y
 _atom_site_fract_z
 _atom_site_occupancy
  Li  Li0  1  0.00000000  0.00000000  0.50000000  1
  Li  Li1  1  0.50000000  0.50000000  -0.00000000  1
  Gd  Gd2  1  0.98262630  0.57695753  0.25178443  1
  Gd  Gd3  1  0.01737370  0.42304247  0.74821557  1
  Gd  Gd4  1  0.51737370  0.07695753  0.24821557  1
  Gd  Gd5  1  0.48262630  0.92304247  0.75178443  1
  Ru  Ru6  1  0.00000000  0.00000000  -0.00000000  1
  Ru  Ru7  1  0.50000000  0.50000000  0.50000000  1
  O  O8  1  0.11126594  0.96188142  0.24472392  1
  O  O9  1  0.88873406  0.03811858  0.75527608  1
  O  O10  1  0.38873406  0.46188142  0.25527608  1
  O  O11  1  0.61126594  0.53811858  0.74472392  1
  O  O12  1  0.69622987  0.81978437  0.05343074  1
  O  O13  1  0.30377013  0.18021563  0.94656926  1
  O  O14  1  0.80377013  0.31978437  0.44656926  1
  O  O15  1  0.19622987  0.68021563  0.55343074  1
  O  O16  1  0.82654556  0.29443925  0.05948296  1
  O  O17  1  0.17345444  0.70556075  0.94051704  1
  O  O18  1  0.67345444  0.79443925  0.44051704  1
  O  O19  1  0.32654556  0.20556075  0.55948296  1
