# generated using pymatgen
data_Sr4CaCr5O15
_symmetry_space_group_name_H-M   'P 1'
_cell_length_a   5.47948645
_cell_length_b   5.47948645
_cell_length_c   11.59954885
_cell_angle_alpha   103.66201682
_cell_angle_beta   76.33798318
_cell_angle_gamma   120.00000009
_symmetry_Int_Tables_number   1
_chemical_formula_structural   Sr4CaCr5O15
_chemical_formula_sum   'Sr4 Ca1 Cr5 O15'
_cell_volume   290.17967535
_cell_formula_units_Z   1
loop_
 _symmetry_equiv_pos_site_id
 _symmetry_equiv_pos_as_xyz
  1  'x, y, z'
loop_
 _atom_site_type_symbol
 _atom_site_label
 _atom_site_symmetry_multiplicity
 _atom_site_fract_x
 _atom_site_fract_y
 _atom_site_fract_z
 _atom_site_occupancy
  Sr  Sr0  1  0.30038311  0.69961689  0.09885067  1
  Sr  Sr1  1  0.90006354  0.09993646  0.29980938  1
  Sr  Sr2  1  0.49993646  0.50006354  0.50019062  1
  Sr  Sr3  1  0.09961689  0.90038311  0.70114933  1
  Ca  Ca4  1  0.70000000  0.30000000  0.90000000  1
  Cr  Cr5  1  0.39973641  0.60026359  0.80079076  1
  Cr  Cr6  1  0.20000000  0.80000000  0.40000000  1
  Cr  Cr7  1  0.79977876  0.20022124  0.60066373  1
  Cr  Cr8  1  0.00026359  0.99973641  0.99920924  1
  Cr  Cr9  1  0.60022124  0.39977876  0.19933627  1
  O  O10  1  0.60228985  0.39771015  0.70044663  1
  O  O11  1  0.40282022  0.59717978  0.29815076  1
  O  O12  1  0.99717978  0.00282022  0.50184924  1
  O  O13  1  0.20000000  0.80000000  0.90000000  1
  O  O14  1  0.79771015  0.20228985  0.09955337  1
  O  O15  1  0.70000000  0.80000000  0.90000000  1
  O  O16  1  0.50379119  0.00282022  0.50184924  1
  O  O17  1  0.09497367  0.39771015  0.70044663  1
  O  O18  1  0.30502633  0.20228985  0.09955337  1
  O  O19  1  0.89620881  0.59717978  0.29815076  1
  O  O20  1  0.60228985  0.90502633  0.70044663  1
  O  O21  1  0.40282022  0.10379119  0.29815076  1
  O  O22  1  0.99717978  0.49620881  0.50184924  1
  O  O23  1  0.20000000  0.30000000  0.90000000  1
  O  O24  1  0.79771015  0.69497367  0.09955337  1
