# generated using pymatgen
data_RbTbF5
_symmetry_space_group_name_H-M   'P 1'
_cell_length_a   7.73919870
_cell_length_b   8.85829593
_cell_length_c   11.46923421
_cell_angle_alpha   77.07347190
_cell_angle_beta   74.43542255
_cell_angle_gamma   69.43553196
_symmetry_Int_Tables_number   1
_chemical_formula_structural   RbTbF5
_chemical_formula_sum   'Rb6 Tb6 F30'
_cell_volume   701.84303210
_cell_formula_units_Z   6
loop_
 _symmetry_equiv_pos_site_id
 _symmetry_equiv_pos_as_xyz
  1  'x, y, z'
loop_
 _atom_site_type_symbol
 _atom_site_label
 _atom_site_symmetry_multiplicity
 _atom_site_fract_x
 _atom_site_fract_y
 _atom_site_fract_z
 _atom_site_occupancy
  Rb  Rb0  1  0.74048290  0.66401202  0.07903495  1
  Rb  Rb1  1  0.25951710  0.33598798  0.92096505  1
  Rb  Rb2  1  0.22398297  0.99928010  0.26619732  1
  Rb  Rb3  1  0.77601703  0.00071990  0.73380268  1
  Rb  Rb4  1  0.23098788  0.66411635  0.57004893  1
  Rb  Rb5  1  0.76901212  0.33588365  0.42995107  1
  Tb  Tb6  1  0.23886245  0.18038892  0.59434877  1
  Tb  Tb7  1  0.76113755  0.81961108  0.40565123  1
  Tb  Tb8  1  0.77176092  0.16127119  0.05330810  1
  Tb  Tb9  1  0.22823908  0.83872881  0.94669190  1
  Tb  Tb10  1  0.21639615  0.53396808  0.24242229  1
  Tb  Tb11  1  0.78360385  0.46603192  0.75757771  1
  F  F12  1  0.10728485  0.39490069  0.70394540  1
  F  F13  1  0.89271515  0.60509931  0.29605460  1
  F  F14  1  0.19770682  0.36902998  0.42761806  1
  F  F15  1  0.80229318  0.63097002  0.57238194  1
  F  F16  1  0.48759249  0.24262286  0.62125213  1
  F  F17  1  0.51240751  0.75737714  0.37874787  1
  F  F18  1  0.08890606  0.06408057  0.04254696  1
  F  F19  1  0.91109394  0.93591943  0.95745304  1
  F  F20  1  0.33850070  0.73401768  0.12368108  1
  F  F21  1  0.66149930  0.26598232  0.87631892  1
  F  F22  1  0.08006138  0.74022426  0.35865586  1
  F  F23  1  0.91993862  0.25977574  0.64134414  1
  F  F24  1  0.15397788  0.01118363  0.52216855  1
  F  F25  1  0.84602212  0.98881637  0.47783145  1
  F  F26  1  0.14987330  0.32645050  0.19536468  1
  F  F27  1  0.85012670  0.67354950  0.80463532  1
  F  F28  1  0.49152333  0.33905767  0.15303026  1
  F  F29  1  0.50847667  0.66094233  0.84696974  1
  F  F30  1  0.45516233  0.53631848  0.33474707  1
  F  F31  1  0.54483767  0.46368152  0.66525293  1
  F  F32  1  0.51518041  0.05206855  0.06621299  1
  F  F33  1  0.48481959  0.94793145  0.93378701  1
  F  F34  1  0.49475953  0.07531968  0.42199128  1
  F  F35  1  0.50524047  0.92468032  0.57800872  1
  F  F36  1  0.22152981  0.03125857  0.77855516  1
  F  F37  1  0.77847019  0.96874143  0.22144484  1
  F  F38  1  0.81047158  0.29695701  0.18946557  1
  F  F39  1  0.18952842  0.70304299  0.81053443  1
  F  F40  1  0.13343653  0.62245399  0.05676769  1
  F  F41  1  0.86656347  0.37754601  0.94323231  1
