# generated using pymatgen
data_Nb3TlCuCl9
_symmetry_space_group_name_H-M   'P 1'
_cell_length_a   9.37858243
_cell_length_b   9.40366504
_cell_length_c   9.38646820
_cell_angle_alpha   119.46482431
_cell_angle_beta   96.11559679
_cell_angle_gamma   105.21942161
_symmetry_Int_Tables_number   1
_chemical_formula_structural   Nb3TlCuCl9
_chemical_formula_sum   'Nb6 Tl2 Cu2 Cl18'
_cell_volume   667.54798868
_cell_formula_units_Z   2
loop_
 _symmetry_equiv_pos_site_id
 _symmetry_equiv_pos_as_xyz
  1  'x, y, z'
loop_
 _atom_site_type_symbol
 _atom_site_label
 _atom_site_symmetry_multiplicity
 _atom_site_fract_x
 _atom_site_fract_y
 _atom_site_fract_z
 _atom_site_occupancy
  Nb  Nb0  1  0.85828053  0.97964678  0.79942182  1
  Nb  Nb1  1  0.14171947  0.02035322  0.20057818  1
  Nb  Nb2  1  0.13344927  0.89319976  0.84309099  1
  Nb  Nb3  1  0.86655073  0.10680024  0.15690901  1
  Nb  Nb4  1  0.86026347  0.75037059  0.92656389  1
  Nb  Nb5  1  0.13973653  0.24962941  0.07343611  1
  Tl  Tl6  1  0.33974383  0.48170390  0.76699805  1
  Tl  Tl7  1  0.66025617  0.51829610  0.23300195  1
  Cu  Cu8  1  0.37975601  0.80998138  0.44988707  1
  Cu  Cu9  1  0.62024399  0.19001862  0.55011293  1
  Cl  Cl10  1  0.66875272  0.67935768  0.67467930  1
  Cl  Cl11  1  0.33124728  0.32064232  0.32532070  1
  Cl  Cl12  1  0.66981113  0.42744799  0.82832778  1
  Cl  Cl13  1  0.33018887  0.57255201  0.17167222  1
  Cl  Cl14  1  0.67747341  0.82963437  0.09866770  1
  Cl  Cl15  1  0.32252659  0.17036563  0.90133230  1
  Cl  Cl16  1  0.99357323  0.58099071  0.73285315  1
  Cl  Cl17  1  0.00642677  0.41900929  0.26714685  1
  Cl  Cl18  1  0.98932823  0.84941689  0.57835316  1
  Cl  Cl19  1  0.01067177  0.15058311  0.42164684  1
  Cl  Cl20  1  0.66802431  0.94784929  0.53797256  1
  Cl  Cl21  1  0.33197569  0.05215071  0.46202744  1
  Cl  Cl22  1  0.30421368  0.75392901  0.64704027  1
  Cl  Cl23  1  0.69578632  0.24607099  0.35295973  1
  Cl  Cl24  1  0.67671327  0.10015095  0.94730442  1
  Cl  Cl25  1  0.32328673  0.89984905  0.05269558  1
  Cl  Cl26  1  0.99915042  0.26967542  0.84909673  1
  Cl  Cl27  1  0.00084958  0.73032458  0.15090327  1
