# generated using pymatgen
data_Sm2ZnPtO6
_symmetry_space_group_name_H-M   'P 1'
_cell_length_a   5.46093442
_cell_length_b   5.82535868
_cell_length_c   7.82431090
_cell_angle_alpha   90.00000000
_cell_angle_beta   90.23070977
_cell_angle_gamma   90.00000000
_symmetry_Int_Tables_number   1
_chemical_formula_structural   Sm2ZnPtO6
_chemical_formula_sum   'Sm4 Zn2 Pt2 O12'
_cell_volume   248.90419119
_cell_formula_units_Z   2
loop_
 _symmetry_equiv_pos_site_id
 _symmetry_equiv_pos_as_xyz
  1  'x, y, z'
loop_
 _atom_site_type_symbol
 _atom_site_label
 _atom_site_symmetry_multiplicity
 _atom_site_fract_x
 _atom_site_fract_y
 _atom_site_fract_z
 _atom_site_occupancy
  Sm  Sm0  1  0.02212193  0.42745390  0.25096361  1
  Sm  Sm1  1  0.97787807  0.57254610  0.74903639  1
  Sm  Sm2  1  0.47787807  0.92745390  0.24903639  1
  Sm  Sm3  1  0.52212193  0.07254610  0.75096361  1
  Zn  Zn4  1  0.00000000  0.00000000  0.50000000  1
  Zn  Zn5  1  0.50000000  0.50000000  0.00000000  1
  Pt  Pt6  1  0.00000000  0.00000000  0.00000000  1
  Pt  Pt7  1  0.50000000  0.50000000  0.50000000  1
  O  O8  1  0.88467333  0.04103310  0.24703137  1
  O  O9  1  0.11532667  0.95896690  0.75296863  1
  O  O10  1  0.61532667  0.54103310  0.25296863  1
  O  O11  1  0.38467333  0.45896690  0.74703137  1
  O  O12  1  0.18563902  0.70210666  0.06049631  1
  O  O13  1  0.81436098  0.29789334  0.93950369  1
  O  O14  1  0.31436098  0.20210666  0.43950369  1
  O  O15  1  0.68563902  0.79789334  0.56049631  1
  O  O16  1  0.30608895  0.19297117  0.05584207  1
  O  O17  1  0.69391105  0.80702883  0.94415793  1
  O  O18  1  0.19391105  0.69297117  0.44415793  1
  O  O19  1  0.80608895  0.30702883  0.55584207  1
