# generated using pymatgen
data_NaEuCl4
_symmetry_space_group_name_H-M   'P 1'
_cell_length_a   6.95107246
_cell_length_b   7.01894077
_cell_length_c   7.11149123
_cell_angle_alpha   89.41377500
_cell_angle_beta   88.02396609
_cell_angle_gamma   77.54649603
_symmetry_Int_Tables_number   1
_chemical_formula_structural   NaEuCl4
_chemical_formula_sum   'Na2 Eu2 Cl8'
_cell_volume   338.59726906
_cell_formula_units_Z   2
loop_
 _symmetry_equiv_pos_site_id
 _symmetry_equiv_pos_as_xyz
  1  'x, y, z'
loop_
 _atom_site_type_symbol
 _atom_site_label
 _atom_site_symmetry_multiplicity
 _atom_site_fract_x
 _atom_site_fract_y
 _atom_site_fract_z
 _atom_site_occupancy
  Na  Na0  1  0.23159787  0.19535178  0.53479291  1
  Na  Na1  1  0.76840213  0.80464822  0.46520709  1
  Eu  Eu2  1  0.78841099  0.30463279  0.05094077  1
  Eu  Eu3  1  0.21158901  0.69536721  0.94905923  1
  Cl  Cl4  1  0.60774994  0.20219196  0.36962422  1
  Cl  Cl5  1  0.39225006  0.79780804  0.63037578  1
  Cl  Cl6  1  0.09134634  0.00274867  0.21250994  1
  Cl  Cl7  1  0.90865366  0.99725133  0.78749006  1
  Cl  Cl8  1  0.04694652  0.50339969  0.24608662  1
  Cl  Cl9  1  0.95305348  0.49660031  0.75391338  1
  Cl  Cl10  1  0.56708916  0.68988286  0.12270975  1
  Cl  Cl11  1  0.43291084  0.31011714  0.87729025  1
