# generated using pymatgen
data_Na2GdTa5O15
_symmetry_space_group_name_H-M   'P 1'
_cell_length_a   3.92434622
_cell_length_b   12.61211396
_cell_length_c   12.61211396
_cell_angle_alpha   90.00000000
_cell_angle_beta   90.00000000
_cell_angle_gamma   90.00000000
_symmetry_Int_Tables_number   1
_chemical_formula_structural   Na2GdTa5O15
_chemical_formula_sum   'Na4 Gd2 Ta10 O30'
_cell_volume   624.22777398
_cell_formula_units_Z   2
loop_
 _symmetry_equiv_pos_site_id
 _symmetry_equiv_pos_as_xyz
  1  'x, y, z'
loop_
 _atom_site_type_symbol
 _atom_site_label
 _atom_site_symmetry_multiplicity
 _atom_site_fract_x
 _atom_site_fract_y
 _atom_site_fract_z
 _atom_site_occupancy
  Na  Na0  1  0.50000000  0.17148334  0.67148334  1
  Na  Na1  1  0.50000000  0.82851666  0.32851666  1
  Na  Na2  1  0.50000000  0.32851666  0.17148334  1
  Na  Na3  1  0.50000000  0.67148334  0.82851666  1
  Gd  Gd4  1  0.50000000  -0.00000000  -0.00000000  1
  Gd  Gd5  1  0.50000000  0.50000000  0.50000000  1
  Ta  Ta6  1  -0.00000000  -0.00000000  0.50000000  1
  Ta  Ta7  1  -0.00000000  0.50000000  -0.00000000  1
  Ta  Ta8  1  0.00000000  0.07854141  0.21206420  1
  Ta  Ta9  1  -0.00000000  0.92145859  0.78793580  1
  Ta  Ta10  1  -0.00000000  0.78793580  0.07854141  1
  Ta  Ta11  1  -0.00000000  0.42145859  0.71206420  1
  Ta  Ta12  1  0.00000000  0.21206420  0.92145859  1
  Ta  Ta13  1  0.00000000  0.57854141  0.28793580  1
  Ta  Ta14  1  0.00000000  0.71206420  0.57854141  1
  Ta  Ta15  1  -0.00000000  0.28793580  0.42145859  1
  O  O16  1  0.50000000  0.08062334  0.19010465  1
  O  O17  1  0.50000000  0.91937666  0.80989535  1
  O  O18  1  0.50000000  0.80989535  0.08062334  1
  O  O19  1  0.50000000  0.41937666  0.69010465  1
  O  O20  1  0.50000000  0.19010465  0.91937666  1
  O  O21  1  0.50000000  0.58062334  0.30989535  1
  O  O22  1  0.50000000  0.69010465  0.58062334  1
  O  O23  1  0.50000000  0.30989535  0.41937666  1
  O  O24  1  0.00000000  0.72284745  0.22284745  1
  O  O25  1  -0.00000000  0.27715255  0.77715255  1
  O  O26  1  -0.00000000  0.77715255  0.72284745  1
  O  O27  1  0.00000000  0.22284745  0.27715255  1
  O  O28  1  0.50000000  -0.00000000  0.50000000  1
  O  O29  1  0.50000000  0.50000000  -0.00000000  1
  O  O30  1  -0.00000000  0.13127571  0.05824694  1
  O  O31  1  0.00000000  0.86872429  0.94175306  1
  O  O32  1  -0.00000000  0.94175306  0.13127571  1
  O  O33  1  0.00000000  0.36872429  0.55824694  1
  O  O34  1  0.00000000  0.05824694  0.86872429  1
  O  O35  1  -0.00000000  0.63127571  0.44175306  1
  O  O36  1  0.00000000  0.55824694  0.63127571  1
  O  O37  1  -0.00000000  0.44175306  0.36872429  1
  O  O38  1  0.00000000  0.99866347  0.34155147  1
  O  O39  1  -0.00000000  0.00133653  0.65844853  1
  O  O40  1  0.00000000  0.65844853  0.99866347  1
  O  O41  1  -0.00000000  0.50133653  0.84155147  1
  O  O42  1  -0.00000000  0.34155147  0.00133653  1
  O  O43  1  0.00000000  0.49866347  0.15844853  1
  O  O44  1  -0.00000000  0.84155147  0.49866347  1
  O  O45  1  0.00000000  0.15844853  0.50133653  1
