# generated using pymatgen
data_PrCu(WO4)2
_symmetry_space_group_name_H-M   'P 1'
_cell_length_a   7.27039100
_cell_length_b   7.46554980
_cell_length_c   7.62898878
_cell_angle_alpha   113.93861965
_cell_angle_beta   115.88165907
_cell_angle_gamma   91.15601336
_symmetry_Int_Tables_number   1
_chemical_formula_structural   PrCu(WO4)2
_chemical_formula_sum   'Pr2 Cu2 W4 O16'
_cell_volume   330.55654857
_cell_formula_units_Z   2
loop_
 _symmetry_equiv_pos_site_id
 _symmetry_equiv_pos_as_xyz
  1  'x, y, z'
loop_
 _atom_site_type_symbol
 _atom_site_label
 _atom_site_symmetry_multiplicity
 _atom_site_fract_x
 _atom_site_fract_y
 _atom_site_fract_z
 _atom_site_occupancy
  Pr  Pr0  1  0.18334155  0.28630085  0.45945542  1
  Pr  Pr1  1  0.81665845  0.71369915  0.54054458  1
  Cu  Cu2  1  0.24779926  0.68213953  0.00716653  1
  Cu  Cu3  1  0.75220074  0.31786047  0.99283347  1
  W  W4  1  0.26142754  0.29507424  0.02895788  1
  W  W5  1  0.73857246  0.70492576  0.97104212  1
  W  W6  1  0.64660305  0.10427713  0.28730482  1
  W  W7  1  0.35339695  0.89572287  0.71269518  1
  O  O8  1  0.18404142  0.35840802  0.80093237  1
  O  O9  1  0.81595858  0.64159198  0.19906763  1
  O  O10  1  0.45097734  0.53609115  0.25405318  1
  O  O11  1  0.54902266  0.46390885  0.74594682  1
  O  O12  1  0.85925702  0.00899450  0.19836329  1
  O  O13  1  0.14074298  0.99100550  0.80163671  1
  O  O14  1  0.70797909  0.01094129  0.48370622  1
  O  O15  1  0.29202091  0.98905871  0.51629378  1
  O  O16  1  0.17888855  0.64065200  0.55942936  1
  O  O17  1  0.82111145  0.35934800  0.44057064  1
  O  O18  1  0.48155243  0.82609592  0.00994527  1
  O  O19  1  0.51844757  0.17390408  0.99005473  1
  O  O20  1  0.04079752  0.30421004  0.08797953  1
  O  O21  1  0.95920248  0.69578996  0.91202047  1
  O  O22  1  0.38454187  0.17329795  0.25637755  1
  O  O23  1  0.61545813  0.82670205  0.74362245  1
