# generated using pymatgen
data_Na3Pd5F12
_symmetry_space_group_name_H-M   'P 1'
_cell_length_a   6.88956588
_cell_length_b   6.94762182
_cell_length_c   7.49536959
_cell_angle_alpha   117.61066106
_cell_angle_beta   106.22351524
_cell_angle_gamma   90.00000000
_symmetry_Int_Tables_number   1
_chemical_formula_structural   Na3Pd5F12
_chemical_formula_sum   'Na3 Pd5 F12'
_cell_volume   301.70061935
_cell_formula_units_Z   1
loop_
 _symmetry_equiv_pos_site_id
 _symmetry_equiv_pos_as_xyz
  1  'x, y, z'
loop_
 _atom_site_type_symbol
 _atom_site_label
 _atom_site_symmetry_multiplicity
 _atom_site_fract_x
 _atom_site_fract_y
 _atom_site_fract_z
 _atom_site_occupancy
  Na  Na0  1  -0.00000000  -0.00000000  -0.00000000  1
  Na  Na1  1  0.50000000  0.73987653  -0.00000000  1
  Na  Na2  1  0.50000000  0.26012347  -0.00000000  1
  Pd  Pd3  1  0.52359230  0.76557603  0.53115206  1
  Pd  Pd4  1  0.47640770  0.23442397  0.46884794  1
  Pd  Pd5  1  -0.00000000  0.50000000  -0.00000000  1
  Pd  Pd6  1  -0.00000000  0.50000000  0.50000000  1
  Pd  Pd7  1  -0.00000000  -0.00000000  0.50000000  1
  F  F8  1  0.45983134  0.60805970  0.21611940  1
  F  F9  1  0.54016866  0.39194030  0.78388060  1
  F  F10  1  0.83013254  0.78633890  0.57267780  1
  F  F11  1  0.16986746  0.21366110  0.42732220  1
  F  F12  1  0.60310502  0.92357592  0.84715184  1
  F  F13  1  0.39689498  0.07642408  0.15284816  1
  F  F14  1  0.88889887  0.36287708  0.14752243  1
  F  F15  1  0.11110113  0.63712292  0.85247757  1
  F  F16  1  0.11110113  0.21535465  0.85247757  1
  F  F17  1  0.88889887  0.78464535  0.14752243  1
  F  F18  1  0.77609519  0.24513213  0.49026426  1
  F  F19  1  0.22390481  0.75486787  0.50973574  1
