# generated using pymatgen
data_Na2FeCl4
_symmetry_space_group_name_H-M   'P 1'
_cell_length_a   3.87158450
_cell_length_b   6.90443108
_cell_length_c   11.88652661
_cell_angle_alpha   90.00000000
_cell_angle_beta   90.00000000
_cell_angle_gamma   90.00000000
_symmetry_Int_Tables_number   1
_chemical_formula_structural   Na2FeCl4
_chemical_formula_sum   'Na4 Fe2 Cl8'
_cell_volume   317.73979299
_cell_formula_units_Z   2
loop_
 _symmetry_equiv_pos_site_id
 _symmetry_equiv_pos_as_xyz
  1  'x, y, z'
loop_
 _atom_site_type_symbol
 _atom_site_label
 _atom_site_symmetry_multiplicity
 _atom_site_fract_x
 _atom_site_fract_y
 _atom_site_fract_z
 _atom_site_occupancy
  Na  Na0  1  0.50000000  0.07386096  0.31894949  1
  Na  Na1  1  0.50000000  0.92613904  0.68105051  1
  Na  Na2  1  0.50000000  0.42613904  0.81894949  1
  Na  Na3  1  0.50000000  0.57386096  0.18105051  1
  Fe  Fe4  1  0.00000000  0.00000000  0.00000000  1
  Fe  Fe5  1  0.00000000  0.50000000  0.50000000  1
  Cl  Cl6  1  -0.00000000  0.36837028  0.30970127  1
  Cl  Cl7  1  -0.00000000  0.63162972  0.69029873  1
  Cl  Cl8  1  -0.00000000  0.13162972  0.80970127  1
  Cl  Cl9  1  -0.00000000  0.86837028  0.19029873  1
  Cl  Cl10  1  0.50000000  0.22675581  0.04971007  1
  Cl  Cl11  1  0.50000000  0.77324419  0.95028993  1
  Cl  Cl12  1  0.50000000  0.27324419  0.54971007  1
  Cl  Cl13  1  0.50000000  0.72675581  0.45028993  1
