# generated using pymatgen
data_EuDy2O4
_symmetry_space_group_name_H-M   'P 1'
_cell_length_a   3.43415768
_cell_length_b   10.05393712
_cell_length_c   12.01998763
_cell_angle_alpha   90.00000000
_cell_angle_beta   90.00000000
_cell_angle_gamma   90.00000000
_symmetry_Int_Tables_number   1
_chemical_formula_structural   EuDy2O4
_chemical_formula_sum   'Eu4 Dy8 O16'
_cell_volume   415.01177351
_cell_formula_units_Z   4
loop_
 _symmetry_equiv_pos_site_id
 _symmetry_equiv_pos_as_xyz
  1  'x, y, z'
loop_
 _atom_site_type_symbol
 _atom_site_label
 _atom_site_symmetry_multiplicity
 _atom_site_fract_x
 _atom_site_fract_y
 _atom_site_fract_z
 _atom_site_occupancy
  Eu  Eu0  1  0.75000000  0.75251790  0.35218769  1
  Eu  Eu1  1  0.25000000  0.24748210  0.64781231  1
  Eu  Eu2  1  0.25000000  0.74748210  0.85218769  1
  Eu  Eu3  1  0.75000000  0.25251790  0.14781231  1
  Dy  Dy4  1  0.75000000  0.92590854  0.61142023  1
  Dy  Dy5  1  0.25000000  0.07409146  0.38857977  1
  Dy  Dy6  1  0.25000000  0.57409146  0.11142023  1
  Dy  Dy7  1  0.75000000  0.42590854  0.88857977  1
  Dy  Dy8  1  0.75000000  0.41881418  0.38825040  1
  Dy  Dy9  1  0.25000000  0.58118582  0.61174960  1
  Dy  Dy10  1  0.25000000  0.08118582  0.88825040  1
  Dy  Dy11  1  0.75000000  0.91881418  0.11174960  1
  O  O12  1  0.75000000  0.71482390  0.67754870  1
  O  O13  1  0.25000000  0.28517610  0.32245130  1
  O  O14  1  0.25000000  0.78517610  0.17754870  1
  O  O15  1  0.75000000  0.21482390  0.82245130  1
  O  O16  1  0.75000000  0.50651186  0.21422184  1
  O  O17  1  0.25000000  0.49348814  0.78577816  1
  O  O18  1  0.25000000  0.99348814  0.71422184  1
  O  O19  1  0.75000000  0.00651186  0.28577816  1
  O  O20  1  0.75000000  0.62912960  0.98169508  1
  O  O21  1  0.25000000  0.37087040  0.01830492  1
  O  O22  1  0.25000000  0.87087040  0.48169508  1
  O  O23  1  0.75000000  0.12912960  0.51830492  1
  O  O24  1  0.75000000  0.92489906  0.92024306  1
  O  O25  1  0.25000000  0.07510094  0.07975694  1
  O  O26  1  0.25000000  0.57510094  0.42024306  1
  O  O27  1  0.75000000  0.42489906  0.57975694  1
