# generated using pymatgen
data_K5(TmI4)3
_symmetry_space_group_name_H-M   'P 1'
_cell_length_a   4.52392244
_cell_length_b   14.71333169
_cell_length_c   14.71333169
_cell_angle_alpha   120.00000266
_cell_angle_beta   90.00000000
_cell_angle_gamma   90.00000000
_symmetry_Int_Tables_number   1
_chemical_formula_structural   K5(TmI4)3
_chemical_formula_sum   'K5 Tm3 I12'
_cell_volume   848.14053908
_cell_formula_units_Z   1
loop_
 _symmetry_equiv_pos_site_id
 _symmetry_equiv_pos_as_xyz
  1  'x, y, z'
loop_
 _atom_site_type_symbol
 _atom_site_label
 _atom_site_symmetry_multiplicity
 _atom_site_fract_x
 _atom_site_fract_y
 _atom_site_fract_z
 _atom_site_occupancy
  K  K0  1  0.00000000  0.66666700  0.33333300  1
  K  K1  1  0.00000000  0.33333300  0.66666700  1
  K  K2  1  -0.00000000  0.28430309  0.28430309  1
  K  K3  1  0.00000000  0.00000000  0.71569691  1
  K  K4  1  0.00000000  0.71569691  0.00000000  1
  Tm  Tm5  1  0.50000000  0.67773844  0.67773844  1
  Tm  Tm6  1  0.50000000  1.00000000  0.32226156  1
  Tm  Tm7  1  0.50000000  0.32226156  1.00000000  1
  I  I8  1  0.00000000  0.82038416  0.82038416  1
  I  I9  1  -0.00000000  0.00000000  0.17961584  1
  I  I10  1  -0.00000000  0.17961584  0.00000000  1
  I  I11  1  -0.00000000  0.53847703  0.53847703  1
  I  I12  1  0.00000000  1.00000000  0.46152297  1
  I  I13  1  0.00000000  0.46152297  1.00000000  1
  I  I14  1  0.50000000  0.76070473  0.20391968  1
  I  I15  1  0.50000000  0.44321495  0.23929527  1
  I  I16  1  0.50000000  0.55678505  0.79608032  1
  I  I17  1  0.50000000  0.79608032  0.55678505  1
  I  I18  1  0.50000000  0.20391968  0.76070473  1
  I  I19  1  0.50000000  0.23929527  0.44321495  1
