# generated using pymatgen
data_In9Sn4S17
_symmetry_space_group_name_H-M   'P 1'
_cell_length_a   3.88636826
_cell_length_b   15.39342488
_cell_length_c   22.83683906
_cell_angle_alpha   90.00000000
_cell_angle_beta   90.00000000
_cell_angle_gamma   90.00000000
_symmetry_Int_Tables_number   1
_chemical_formula_structural   In9Sn4S17
_chemical_formula_sum   'In18 Sn8 S34'
_cell_volume   1366.20288636
_cell_formula_units_Z   2
loop_
 _symmetry_equiv_pos_site_id
 _symmetry_equiv_pos_as_xyz
  1  'x, y, z'
loop_
 _atom_site_type_symbol
 _atom_site_label
 _atom_site_symmetry_multiplicity
 _atom_site_fract_x
 _atom_site_fract_y
 _atom_site_fract_z
 _atom_site_occupancy
  In  In0  1  0.00000000  0.05162683  0.42058402  1
  In  In1  1  -0.00000000  0.94837317  0.57941598  1
  In  In2  1  -0.00000000  0.44837317  0.92058402  1
  In  In3  1  0.00000000  0.55162683  0.07941598  1
  In  In4  1  0.50000000  0.27077762  0.38924189  1
  In  In5  1  0.50000000  0.72922238  0.61075811  1
  In  In6  1  0.50000000  0.22922238  0.88924189  1
  In  In7  1  0.50000000  0.77077762  0.11075811  1
  In  In8  1  0.00000000  0.16851638  0.25915670  1
  In  In9  1  0.00000000  0.83148362  0.74084330  1
  In  In10  1  0.00000000  0.33148362  0.75915670  1
  In  In11  1  0.00000000  0.66851638  0.24084330  1
  In  In12  1  0.50000000  0.06722611  0.13619523  1
  In  In13  1  0.50000000  0.93277389  0.86380477  1
  In  In14  1  0.50000000  0.43277389  0.63619523  1
  In  In15  1  0.50000000  0.56722611  0.36380477  1
  In  In16  1  0.00000000  -0.00000000  -0.00000000  1
  In  In17  1  0.00000000  0.50000000  0.50000000  1
  Sn  Sn18  1  0.50000000  0.40968040  0.21624670  1
  Sn  Sn19  1  0.50000000  0.59031960  0.78375330  1
  Sn  Sn20  1  0.50000000  0.09031960  0.71624670  1
  Sn  Sn21  1  0.50000000  0.90968040  0.28375330  1
  Sn  Sn22  1  0.50000000  0.29534245  0.06424152  1
  Sn  Sn23  1  0.50000000  0.70465755  0.93575848  1
  Sn  Sn24  1  0.50000000  0.20465755  0.56424152  1
  Sn  Sn25  1  0.50000000  0.79534245  0.43575848  1
  S  S26  1  0.00000000  0.01957572  0.21017768  1
  S  S27  1  0.00000000  0.98042428  0.78982232  1
  S  S28  1  0.00000000  0.48042428  0.71017768  1
  S  S29  1  0.00000000  0.51957572  0.28982232  1
  S  S30  1  0.00000000  0.21145696  0.45968127  1
  S  S31  1  0.00000000  0.78854304  0.54031873  1
  S  S32  1  0.00000000  0.28854304  0.95968127  1
  S  S33  1  0.00000000  0.71145696  0.04031873  1
  S  S34  1  0.50000000  0.22302672  0.19155893  1
  S  S35  1  0.50000000  0.77697328  0.80844107  1
  S  S36  1  0.50000000  0.27697328  0.69155893  1
  S  S37  1  0.50000000  0.72302672  0.30844107  1
  S  S38  1  0.50000000  0.43255120  0.43346255  1
  S  S39  1  0.50000000  0.56744880  0.56653745  1
  S  S40  1  0.50000000  0.06744880  0.93346255  1
  S  S41  1  0.50000000  0.93255120  0.06653745  1
  S  S42  1  0.50000000  -0.00000000  0.50000000  1
  S  S43  1  0.50000000  0.50000000  -0.00000000  1
  S  S44  1  0.00000000  0.13384114  0.07036251  1
  S  S45  1  -0.00000000  0.86615886  0.92963749  1
  S  S46  1  0.00000000  0.36615886  0.57036251  1
  S  S47  1  0.00000000  0.63384114  0.42963749  1
  S  S48  1  0.00000000  0.31009006  0.31675062  1
  S  S49  1  0.00000000  0.68990994  0.68324938  1
  S  S50  1  -0.00000000  0.18990994  0.81675062  1
  S  S51  1  0.00000000  0.81009006  0.18324938  1
  S  S52  1  0.00000000  0.39590984  0.12748453  1
  S  S53  1  -0.00000000  0.60409016  0.87251547  1
  S  S54  1  -0.00000000  0.10409016  0.62748453  1
  S  S55  1  0.00000000  0.89590984  0.37251547  1
  S  S56  1  0.50000000  0.10067478  0.34127242  1
  S  S57  1  0.50000000  0.89932522  0.65872758  1
  S  S58  1  0.50000000  0.39932522  0.84127242  1
  S  S59  1  0.50000000  0.60067478  0.15872758  1
