# generated using pymatgen
data_LaFe8Si5
_symmetry_space_group_name_H-M   'P 1'
_cell_length_a   7.90077197
_cell_length_b   7.90077197
_cell_length_c   8.02477549
_cell_angle_alpha   119.49013166
_cell_angle_beta   119.49013166
_cell_angle_gamma   90.00000000
_symmetry_Int_Tables_number   1
_chemical_formula_structural   LaFe8Si5
_chemical_formula_sum   'La2 Fe16 Si10'
_cell_volume   359.59699575
_cell_formula_units_Z   2
loop_
 _symmetry_equiv_pos_site_id
 _symmetry_equiv_pos_as_xyz
  1  'x, y, z'
loop_
 _atom_site_type_symbol
 _atom_site_label
 _atom_site_symmetry_multiplicity
 _atom_site_fract_x
 _atom_site_fract_y
 _atom_site_fract_z
 _atom_site_occupancy
  La  La0  1  0.25000000  0.25000000  0.50000000  1
  La  La1  1  0.75000000  0.75000000  0.50000000  1
  Fe  Fe2  1  0.78787444  0.28787444  0.34915928  1
  Fe  Fe3  1  0.21212556  0.71212556  0.65084072  1
  Fe  Fe4  1  0.56128484  0.06128484  0.34915928  1
  Fe  Fe5  1  0.06128484  0.78787444  0.34915928  1
  Fe  Fe6  1  0.71212556  0.43871516  0.65084072  1
  Fe  Fe7  1  0.43871516  0.93871516  0.65084072  1
  Fe  Fe8  1  0.93871516  0.21212556  0.65084072  1
  Fe  Fe9  1  0.28787444  0.56128484  0.34915928  1
  Fe  Fe10  1  0.05999510  0.20246547  0.00000000  1
  Fe  Fe11  1  0.94000490  0.79753453  1.00000000  1
  Fe  Fe12  1  0.79753453  0.05999510  0.00000000  1
  Fe  Fe13  1  0.44000490  0.70246547  1.00000000  1
  Fe  Fe14  1  0.20246547  0.94000490  1.00000000  1
  Fe  Fe15  1  0.55999510  0.29753453  0.00000000  1
  Fe  Fe16  1  0.70246547  0.55999510  0.00000000  1
  Fe  Fe17  1  0.29753453  0.44000490  1.00000000  1
  Si  Si18  1  0.31038301  0.81038301  0.25624136  1
  Si  Si19  1  0.68961699  0.18961699  0.74375864  1
  Si  Si20  1  0.94585835  0.44585835  0.25624136  1
  Si  Si21  1  0.44585835  0.31038301  0.25624136  1
  Si  Si22  1  0.18961699  0.05414165  0.74375864  1
  Si  Si23  1  0.05414165  0.55414165  0.74375864  1
  Si  Si24  1  0.55414165  0.68961699  0.74375864  1
  Si  Si25  1  0.81038301  0.94585835  0.25624136  1
  Si  Si26  1  0.00000000  0.50000000  0.00000000  1
  Si  Si27  1  0.50000000  0.00000000  0.00000000  1
