# generated using pymatgen
data_SrGd2(FeO3)3
_symmetry_space_group_name_H-M   'P 1'
_cell_length_a   5.51478347
_cell_length_b   5.51478347
_cell_length_c   6.72895496
_cell_angle_alpha   90.00000000
_cell_angle_beta   90.00000000
_cell_angle_gamma   120.00000000
_symmetry_Int_Tables_number   1
_chemical_formula_structural   SrGd2(FeO3)3
_chemical_formula_sum   'Sr1 Gd2 Fe3 O9'
_cell_volume   177.22916202
_cell_formula_units_Z   1
loop_
 _symmetry_equiv_pos_site_id
 _symmetry_equiv_pos_as_xyz
  1  'x, y, z'
loop_
 _atom_site_type_symbol
 _atom_site_label
 _atom_site_symmetry_multiplicity
 _atom_site_fract_x
 _atom_site_fract_y
 _atom_site_fract_z
 _atom_site_occupancy
  Sr  Sr0  1  0.66666700  0.33333300  0.83333300  1
  Gd  Gd1  1  0.33333300  0.66666700  0.18423895  1
  Gd  Gd2  1  -0.00000000  0.00000000  0.48242805  1
  Fe  Fe3  1  0.33333300  0.66666700  0.67191542  1
  Fe  Fe4  1  0.00000000  -0.00000000  0.99475158  1
  Fe  Fe5  1  0.66666700  0.33333300  0.33333300  1
  O  O6  1  0.49392676  0.50607324  0.48772182  1
  O  O7  1  0.16666700  0.83333300  0.83333300  1
  O  O8  1  0.83940624  0.16059376  0.17894518  1
  O  O9  1  0.66666700  0.83333300  0.83333300  1
  O  O10  1  0.32118651  0.16059376  0.17894518  1
  O  O11  1  0.01214649  0.50607324  0.48772182  1
  O  O12  1  0.49392676  0.98785351  0.48772182  1
  O  O13  1  0.16666700  0.33333300  0.83333300  1
  O  O14  1  0.83940624  0.67881349  0.17894518  1
