# generated using pymatgen
data_La5CoGe3
_symmetry_space_group_name_H-M   'P 1'
_cell_length_a   7.15458314
_cell_length_b   9.05948726
_cell_length_c   9.05948726
_cell_angle_alpha   120.00000100
_cell_angle_beta   90.00000000
_cell_angle_gamma   90.00000000
_symmetry_Int_Tables_number   1
_chemical_formula_structural   La5CoGe3
_chemical_formula_sum   'La10 Co2 Ge6'
_cell_volume   508.53658120
_cell_formula_units_Z   2
loop_
 _symmetry_equiv_pos_site_id
 _symmetry_equiv_pos_as_xyz
  1  'x, y, z'
loop_
 _atom_site_type_symbol
 _atom_site_label
 _atom_site_symmetry_multiplicity
 _atom_site_fract_x
 _atom_site_fract_y
 _atom_site_fract_z
 _atom_site_occupancy
  La  La0  1  0.75000000  0.76167574  0.76167574  1
  La  La1  1  0.25000000  0.23832426  0.23832426  1
  La  La2  1  0.75000000  1.00000000  0.23832426  1
  La  La3  1  0.25000000  0.00000000  0.76167574  1
  La  La4  1  0.75000000  0.23832426  1.00000000  1
  La  La5  1  0.25000000  0.76167574  0.00000000  1
  La  La6  1  0.00000000  0.66666700  0.33333300  1
  La  La7  1  -0.00000000  0.33333300  0.66666700  1
  La  La8  1  0.50000000  0.33333300  0.66666700  1
  La  La9  1  0.50000000  0.66666700  0.33333300  1
  Co  Co10  1  0.00000000  0.00000000  -0.00000000  1
  Co  Co11  1  0.50000000  0.00000000  -0.00000000  1
  Ge  Ge12  1  0.75000000  0.40916763  0.40916763  1
  Ge  Ge13  1  0.25000000  0.59083237  0.59083237  1
  Ge  Ge14  1  0.75000000  1.00000000  0.59083237  1
  Ge  Ge15  1  0.25000000  0.00000000  0.40916763  1
  Ge  Ge16  1  0.75000000  0.59083237  1.00000000  1
  Ge  Ge17  1  0.25000000  0.40916763  0.00000000  1
