# generated using pymatgen
data_Fe7(SiO3)8
_symmetry_space_group_name_H-M   'P 1'
_cell_length_a   5.36921134
_cell_length_b   9.73947280
_cell_length_c   10.43648710
_cell_angle_alpha   62.18573485
_cell_angle_beta   84.11871990
_cell_angle_gamma   77.31438100
_symmetry_Int_Tables_number   1
_chemical_formula_structural   Fe7(SiO3)8
_chemical_formula_sum   'Fe7 Si8 O24'
_cell_volume   470.92100368
_cell_formula_units_Z   1
loop_
 _symmetry_equiv_pos_site_id
 _symmetry_equiv_pos_as_xyz
  1  'x, y, z'
loop_
 _atom_site_type_symbol
 _atom_site_label
 _atom_site_symmetry_multiplicity
 _atom_site_fract_x
 _atom_site_fract_y
 _atom_site_fract_z
 _atom_site_occupancy
  Fe  Fe0  1  0.50000000  0.25797690  0.48404620  1
  Fe  Fe1  1  0.50000000  0.74202310  0.51595380  1
  Fe  Fe2  1  0.00000000  0.17868548  0.64262905  1
  Fe  Fe3  1  1.00000000  0.82131452  0.35737095  1
  Fe  Fe4  1  -0.00000000  0.00000000  0.00000000  1
  Fe  Fe5  1  0.50000000  0.08023461  0.83953078  1
  Fe  Fe6  1  0.50000000  0.91976539  0.16046922  1
  Si  Si7  1  0.27314245  0.79283336  0.83412411  1
  Si  Si8  1  0.72685755  0.20716664  0.16587589  1
  Si  Si9  1  0.72685755  0.37304253  0.83412411  1
  Si  Si10  1  0.27314245  0.62695747  0.16587589  1
  Si  Si11  1  0.22223936  0.13016484  0.33371580  1
  Si  Si12  1  0.77776064  0.86983516  0.66628420  1
  Si  Si13  1  0.77776064  0.53611936  0.33371580  1
  Si  Si14  1  0.22223936  0.46388064  0.66628420  1
  O  O15  1  0.44428176  0.23192578  0.23658841  1
  O  O16  1  0.55571824  0.76807422  0.76341159  1
  O  O17  1  0.55571824  0.53148581  0.23658841  1
  O  O18  1  0.44428176  0.46851419  0.76341159  1
  O  O19  1  0.27342490  0.65410869  1.00000000  1
  O  O20  1  0.72657510  0.34589131  0.00000000  1
  O  O21  1  0.72163010  0.90073345  1.00000000  1
  O  O22  1  0.27836990  0.09926655  0.00000000  1
  O  O23  1  0.06459929  0.78165776  0.73678090  1
  O  O24  1  0.93540071  0.21834224  0.26321910  1
  O  O25  1  0.93540071  0.48156134  0.73678090  1
  O  O26  1  0.06459929  0.51843866  0.26321910  1
  O  O27  1  0.23387665  0.13752295  0.48602940  1
  O  O28  1  0.76612335  0.86247705  0.51397060  1
  O  O29  1  0.76612335  0.37644764  0.48602940  1
  O  O30  1  0.23387665  0.62355236  0.51397060  1
  O  O31  1  0.20554535  0.96866120  0.82888896  1
  O  O32  1  0.79445465  0.03133880  0.17111104  1
  O  O33  1  0.79445465  0.20244984  0.82888896  1
  O  O34  1  0.20554535  0.79755016  0.17111104  1
  O  O35  1  0.29078023  0.95280683  0.34214915  1
  O  O36  1  0.70921977  0.04719317  0.65785085  1
  O  O37  1  0.70921977  0.70504402  0.34214915  1
  O  O38  1  0.29078023  0.29495598  0.65785085  1
