# generated using pymatgen
data_H7C2SIN4
_symmetry_space_group_name_H-M   'P 1'
_cell_length_a   8.11176806
_cell_length_b   13.44043184
_cell_length_c   10.89058132
_cell_angle_alpha   120.01534694
_cell_angle_beta   90.00000000
_cell_angle_gamma   90.00000000
_symmetry_Int_Tables_number   1
_chemical_formula_structural   H7C2SIN4
_chemical_formula_sum   'H28 C8 S4 I4 N16'
_cell_volume   1028.11869986
_cell_formula_units_Z   4
loop_
 _symmetry_equiv_pos_site_id
 _symmetry_equiv_pos_as_xyz
  1  'x, y, z'
loop_
 _atom_site_type_symbol
 _atom_site_label
 _atom_site_symmetry_multiplicity
 _atom_site_fract_x
 _atom_site_fract_y
 _atom_site_fract_z
 _atom_site_occupancy
  H  H0  1  0.96154309  0.87034159  0.74523040  1
  H  H1  1  0.03845691  0.12965841  0.25476960  1
  H  H2  1  0.46154309  0.12965841  0.75476960  1
  H  H3  1  0.53845691  0.87034159  0.24523040  1
  H  H4  1  0.43031494  0.89997323  0.88426148  1
  H  H5  1  0.56968506  0.10002677  0.11573852  1
  H  H6  1  0.93031494  0.10002677  0.61573852  1
  H  H7  1  0.06968506  0.89997323  0.38426148  1
  H  H8  1  0.72489489  0.57605107  0.92040804  1
  H  H9  1  0.27510511  0.42394893  0.07959196  1
  H  H10  1  0.22489489  0.42394893  0.57959196  1
  H  H11  1  0.77510511  0.57605107  0.42040804  1
  H  H12  1  0.51715015  0.60959101  0.91583426  1
  H  H13  1  0.48284985  0.39040899  0.08416574  1
  H  H14  1  0.01715015  0.39040899  0.58416574  1
  H  H15  1  0.98284985  0.60959101  0.41583426  1
  H  H16  1  0.41535305  0.77504653  0.71583336  1
  H  H17  1  0.58464695  0.22495347  0.28416664  1
  H  H18  1  0.91535305  0.22495347  0.78416664  1
  H  H19  1  0.08464695  0.77504653  0.21583336  1
  H  H20  1  0.60763110  0.70185173  0.58126841  1
  H  H21  1  0.39236890  0.29814827  0.41873159  1
  H  H22  1  0.10763110  0.29814827  0.91873159  1
  H  H23  1  0.89236890  0.70185173  0.08126841  1
  H  H24  1  0.59675046  0.22764494  0.89707485  1
  H  H25  1  0.40324954  0.77235506  0.10292515  1
  H  H26  1  0.09675046  0.77235506  0.60292515  1
  H  H27  1  0.90324954  0.22764494  0.39707485  1
  C  C28  1  0.85483940  0.72944593  0.58737580  1
  C  C29  1  0.14516060  0.27055407  0.41262420  1
  C  C30  1  0.35483940  0.27055407  0.91262420  1
  C  C31  1  0.64516060  0.72944593  0.08737580  1
  C  C32  1  0.64763868  0.84447148  0.77644263  1
  C  C33  1  0.35236132  0.15552852  0.22355737  1
  C  C34  1  0.14763868  0.15552852  0.72355737  1
  C  C35  1  0.85236132  0.84447148  0.27644263  1
  S  S36  1  0.76557173  0.95174480  0.89660748  1
  S  S37  1  0.23442827  0.04825520  0.10339252  1
  S  S38  1  0.26557173  0.04825520  0.60339252  1
  S  S39  1  0.73442827  0.95174480  0.39660748  1
  I  I40  1  0.66249638  0.36210958  0.56446737  1
  I  I41  1  0.33750362  0.63789042  0.43553263  1
  I  I42  1  0.16249638  0.63789042  0.93553263  1
  I  I43  1  0.83750362  0.36210958  0.06446737  1
  N  N44  1  0.48634956  0.83636362  0.79610612  1
  N  N45  1  0.51365044  0.16363638  0.20389388  1
  N  N46  1  0.98634956  0.16363638  0.70389388  1
  N  N47  1  0.01365044  0.83636362  0.29610612  1
  N  N48  1  0.70114268  0.75401078  0.64706002  1
  N  N49  1  0.29885732  0.24598922  0.35293998  1
  N  N50  1  0.20114268  0.24598922  0.85293998  1
  N  N51  1  0.79885732  0.75401078  0.14706002  1
  N  N52  1  0.98193763  0.79795455  0.64796761  1
  N  N53  1  0.01806237  0.20204545  0.35203239  1
  N  N54  1  0.48193763  0.20204545  0.85203239  1
  N  N55  1  0.51806237  0.79795455  0.14796761  1
  N  N56  1  0.63057403  0.63285948  0.96232816  1
  N  N57  1  0.36942597  0.36714052  0.03767184  1
  N  N58  1  0.13057403  0.36714052  0.53767184  1
  N  N59  1  0.86942597  0.63285948  0.46232816  1
