# generated using pymatgen
data_K2UC2S2NO8
_symmetry_space_group_name_H-M   'P 1'
_cell_length_a   7.23502640
_cell_length_b   11.69559206
_cell_length_c   14.14458139
_cell_angle_alpha   93.37512732
_cell_angle_beta   90.00000000
_cell_angle_gamma   90.00000000
_symmetry_Int_Tables_number   1
_chemical_formula_structural   K2UC2S2NO8
_chemical_formula_sum   'K8 U4 C8 S8 N4 O32'
_cell_volume   1194.80899689
_cell_formula_units_Z   4
loop_
 _symmetry_equiv_pos_site_id
 _symmetry_equiv_pos_as_xyz
  1  'x, y, z'
loop_
 _atom_site_type_symbol
 _atom_site_label
 _atom_site_symmetry_multiplicity
 _atom_site_fract_x
 _atom_site_fract_y
 _atom_site_fract_z
 _atom_site_occupancy
  K  K0  1  0.57161910  0.82772991  0.86090424  1
  K  K1  1  0.42838090  0.17227009  0.13909576  1
  K  K2  1  0.07161910  0.17227009  0.63909576  1
  K  K3  1  0.92838090  0.82772991  0.36090424  1
  K  K4  1  0.84458330  0.54112049  0.64821656  1
  K  K5  1  0.15541670  0.45887951  0.35178344  1
  K  K6  1  0.34458330  0.45887951  0.85178344  1
  K  K7  1  0.65541670  0.54112049  0.14821656  1
  U  U8  1  0.86093615  0.25646048  0.96230860  1
  U  U9  1  0.13906385  0.74353952  0.03769140  1
  U  U10  1  0.36093615  0.74353952  0.53769140  1
  U  U11  1  0.63906385  0.25646048  0.46230860  1
  C  C12  1  0.91020598  0.97575891  0.97884740  1
  C  C13  1  0.08979402  0.02424109  0.02115260  1
  C  C14  1  0.41020598  0.02424109  0.52115260  1
  C  C15  1  0.58979402  0.97575891  0.47884740  1
  C  C16  1  0.96204959  0.84727325  0.64502699  1
  C  C17  1  0.03795041  0.15272675  0.35497301  1
  C  C18  1  0.46204959  0.15272675  0.85497301  1
  C  C19  1  0.53795041  0.84727325  0.14502699  1
  S  S20  1  0.84023341  0.94363016  0.70143461  1
  S  S21  1  0.15976659  0.05636984  0.29856539  1
  S  S22  1  0.34023341  0.05636984  0.79856539  1
  S  S23  1  0.65976659  0.94363016  0.20143461  1
  S  S24  1  0.82322489  0.55174875  0.90205876  1
  S  S25  1  0.17677511  0.44825125  0.09794124  1
  S  S26  1  0.32322489  0.44825125  0.59794124  1
  S  S27  1  0.67677511  0.55174875  0.40205876  1
  N  N28  1  0.55331095  0.22365548  0.89780146  1
  N  N29  1  0.44668905  0.77634452  0.10219854  1
  N  N30  1  0.05331095  0.77634452  0.60219854  1
  N  N31  1  0.94668905  0.22365548  0.39780146  1
  O  O32  1  0.45939481  0.75463775  0.65551355  1
  O  O33  1  0.54060519  0.24536225  0.34448645  1
  O  O34  1  0.95939481  0.24536225  0.84448645  1
  O  O35  1  0.04060519  0.75463775  0.15551355  1
  O  O36  1  0.29358206  0.95250268  0.54846275  1
  O  O37  1  0.70641794  0.04749732  0.45153725  1
  O  O38  1  0.79358206  0.04749732  0.95153725  1
  O  O39  1  0.20641794  0.95250268  0.04846275  1
  O  O40  1  0.97831160  0.52393822  0.83857474  1
  O  O41  1  0.02168840  0.47606178  0.16142526  1
  O  O42  1  0.47831160  0.47606178  0.66142526  1
  O  O43  1  0.52168840  0.52393822  0.33857474  1
  O  O44  1  0.74889195  0.44429264  0.94515602  1
  O  O45  1  0.25110805  0.55570736  0.05484398  1
  O  O46  1  0.24889195  0.55570736  0.55484398  1
  O  O47  1  0.75110805  0.44429264  0.44515602  1
  O  O48  1  0.89319129  0.86777114  0.97421046  1
  O  O49  1  0.10680871  0.13222886  0.02578954  1
  O  O50  1  0.39319129  0.13222886  0.52578954  1
  O  O51  1  0.60680871  0.86777114  0.47421046  1
  O  O52  1  0.23890288  0.73466636  0.91970609  1
  O  O53  1  0.76109712  0.26533364  0.08029391  1
  O  O54  1  0.73890288  0.26533364  0.58029391  1
  O  O55  1  0.26109712  0.73466636  0.41970609  1
  O  O56  1  0.66857351  0.60560213  0.85388162  1
  O  O57  1  0.33142649  0.39439787  0.14611838  1
  O  O58  1  0.16857351  0.39439787  0.64611838  1
  O  O59  1  0.83142649  0.60560213  0.35388162  1
  O  O60  1  0.88404188  0.62847690  0.98657565  1
  O  O61  1  0.11595812  0.37152310  0.01342435  1
  O  O62  1  0.38404188  0.37152310  0.51342435  1
  O  O63  1  0.61595812  0.62847690  0.48657565  1
