# generated using pymatgen
data_H30Ru2Pt(NCl)10
_symmetry_space_group_name_H-M   'P 1'
_cell_length_a   7.32796059
_cell_length_b   7.32796059
_cell_length_c   13.40568180
_cell_angle_alpha   82.62130021
_cell_angle_beta   82.62130021
_cell_angle_gamma   70.11970459
_symmetry_Int_Tables_number   1
_chemical_formula_structural   H30Ru2Pt(NCl)10
_chemical_formula_sum   'H30 Ru2 Pt1 N10 Cl10'
_cell_volume   668.58701793
_cell_formula_units_Z   1
loop_
 _symmetry_equiv_pos_site_id
 _symmetry_equiv_pos_as_xyz
  1  'x, y, z'
loop_
 _atom_site_type_symbol
 _atom_site_label
 _atom_site_symmetry_multiplicity
 _atom_site_fract_x
 _atom_site_fract_y
 _atom_site_fract_z
 _atom_site_occupancy
  H  H0  1  0.45266631  0.02981458  0.75560520  1
  H  H1  1  0.54733369  0.97018542  0.24439480  1
  H  H2  1  0.97018542  0.54733369  0.24439480  1
  H  H3  1  0.02981458  0.45266631  0.75560520  1
  H  H4  1  0.38543618  0.95097879  0.60737990  1
  H  H5  1  0.61456382  0.04902121  0.39262010  1
  H  H6  1  0.04902121  0.61456382  0.39262010  1
  H  H7  1  0.95097879  0.38543618  0.60737990  1
  H  H8  1  0.59521121  0.40077370  0.83609215  1
  H  H9  1  0.40478879  0.59922630  0.16390785  1
  H  H10  1  0.59922630  0.40478879  0.16390785  1
  H  H11  1  0.40077370  0.59521121  0.83609215  1
  H  H12  1  0.47799315  0.88223119  0.86041491  1
  H  H13  1  0.52200685  0.11776881  0.13958509  1
  H  H14  1  0.11776881  0.52200685  0.13958509  1
  H  H15  1  0.88223119  0.47799315  0.86041491  1
  H  H16  1  0.65742586  0.95946966  0.81014615  1
  H  H17  1  0.34257414  0.04053034  0.18985385  1
  H  H18  1  0.04053034  0.34257414  0.18985385  1
  H  H19  1  0.95946966  0.65742586  0.81014615  1
  H  H20  1  0.32180200  0.75299846  0.62774659  1
  H  H21  1  0.67819800  0.24700154  0.37225341  1
  H  H22  1  0.24700154  0.67819800  0.37225341  1
  H  H23  1  0.75299846  0.32180200  0.62774659  1
  H  H24  1  0.45015221  0.45015221  0.74308498  1
  H  H25  1  0.54984779  0.54984779  0.25691502  1
  H  H26  1  0.48329706  0.77294551  0.53309736  1
  H  H27  1  0.51670294  0.22705449  0.46690264  1
  H  H28  1  0.22705449  0.51670294  0.46690264  1
  H  H29  1  0.77294551  0.48329706  0.53309736  1
  Ru  Ru30  1  0.67486160  0.67486160  0.70035650  1
  Ru  Ru31  1  0.32513840  0.32513840  0.29964350  1
  Pt  Pt32  1  -0.00000000  -0.00000000  0.00000000  1
  N  N33  1  0.54962116  0.91197348  0.79249029  1
  N  N34  1  0.45037884  0.08802652  0.20750971  1
  N  N35  1  0.08802652  0.45037884  0.20750971  1
  N  N36  1  0.91197348  0.54962116  0.79249029  1
  N  N37  1  0.51221185  0.51221185  0.78931713  1
  N  N38  1  0.48778815  0.48778815  0.21068287  1
  N  N39  1  0.43810664  0.80189646  0.60736895  1
  N  N40  1  0.56189336  0.19810354  0.39263105  1
  N  N41  1  0.19810354  0.56189336  0.39263105  1
  N  N42  1  0.80189646  0.43810664  0.60736895  1
  Cl  Cl43  1  0.99878231  0.99878231  0.82436107  1
  Cl  Cl44  1  0.00121769  0.00121769  0.17563893  1
  Cl  Cl45  1  0.14837257  0.14837257  0.39974773  1
  Cl  Cl46  1  0.85162743  0.85162743  0.60025227  1
  Cl  Cl47  1  0.19846951  0.19846951  0.97466439  1
  Cl  Cl48  1  0.80153049  0.80153049  0.02533561  1
  Cl  Cl49  1  0.27747891  0.72252109  -0.00000000  1
  Cl  Cl50  1  0.72252109  0.27747891  0.00000000  1
  Cl  Cl51  1  0.33052459  0.33052459  0.62904110  1
  Cl  Cl52  1  0.66947541  0.66947541  0.37095890  1
