# generated using pymatgen
data_Cu5As2(HO3)4
_symmetry_space_group_name_H-M   'P 1'
_cell_length_a   4.65821690
_cell_length_b   5.84208727
_cell_length_c   17.76805397
_cell_angle_alpha   90.00000000
_cell_angle_beta   92.64753125
_cell_angle_gamma   90.00000000
_symmetry_Int_Tables_number   1
_chemical_formula_structural   Cu5As2(HO3)4
_chemical_formula_sum   'Cu10 As4 H8 O24'
_cell_volume   483.01853363
_cell_formula_units_Z   2
loop_
 _symmetry_equiv_pos_site_id
 _symmetry_equiv_pos_as_xyz
  1  'x, y, z'
loop_
 _atom_site_type_symbol
 _atom_site_label
 _atom_site_symmetry_multiplicity
 _atom_site_fract_x
 _atom_site_fract_y
 _atom_site_fract_z
 _atom_site_occupancy
  Cu  Cu0  1  0.49578782  0.31681620  0.25268858  1
  Cu  Cu1  1  0.50421218  0.68318380  0.74731142  1
  Cu  Cu2  1  0.50421218  0.81681620  0.24731142  1
  Cu  Cu3  1  0.49578782  0.18318380  0.75268858  1
  Cu  Cu4  1  0.54417116  0.47791941  0.08460015  1
  Cu  Cu5  1  0.45582884  0.52208059  0.91539985  1
  Cu  Cu6  1  0.45582884  0.97791941  0.41539985  1
  Cu  Cu7  1  0.54417116  0.02208059  0.58460015  1
  Cu  Cu8  1  0.50000000  0.00000000  0.00000000  1
  Cu  Cu9  1  0.50000000  0.50000000  0.50000000  1
  As  As10  1  0.02168275  0.08219199  0.13101721  1
  As  As11  1  0.97831725  0.91780801  0.86898279  1
  As  As12  1  0.97831725  0.58219199  0.36898279  1
  As  As13  1  0.02168275  0.41780801  0.63101721  1
  H  H14  1  0.12592215  0.70113768  0.01646176  1
  H  H15  1  0.87407785  0.29886232  0.98353824  1
  H  H16  1  0.87407785  0.20113768  0.48353824  1
  H  H17  1  0.12592215  0.79886232  0.51646176  1
  H  H18  1  0.14208842  0.57202766  0.17518240  1
  H  H19  1  0.85791158  0.42797234  0.82481760  1
  H  H20  1  0.85791158  0.07202766  0.32481760  1
  H  H21  1  0.14208842  0.92797234  0.67518240  1
  O  O22  1  0.25327492  0.06716506  0.21183195  1
  O  O23  1  0.74672508  0.93283494  0.78816805  1
  O  O24  1  0.74672508  0.56716506  0.28816805  1
  O  O25  1  0.25327492  0.43283494  0.71183195  1
  O  O26  1  0.81615282  0.31914355  0.15137547  1
  O  O27  1  0.18384718  0.68085645  0.84862453  1
  O  O28  1  0.18384718  0.81914355  0.34862453  1
  O  O29  1  0.81615282  0.18085645  0.65137547  1
  O  O30  1  0.33456949  0.68162996  0.01192137  1
  O  O31  1  0.66543051  0.31837004  0.98807863  1
  O  O32  1  0.66543051  0.18162996  0.48807863  1
  O  O33  1  0.33456949  0.81837004  0.51192137  1
  O  O34  1  0.16490471  0.33579984  0.37878013  1
  O  O35  1  0.83509529  0.66420016  0.62121987  1
  O  O36  1  0.83509529  0.83579984  0.12121987  1
  O  O37  1  0.16490471  0.16420016  0.87878013  1
  O  O38  1  0.35439216  0.56569271  0.18188300  1
  O  O39  1  0.64560784  0.43430729  0.81811700  1
  O  O40  1  0.64560784  0.06569271  0.31811700  1
  O  O41  1  0.35439216  0.93430729  0.68188300  1
  O  O42  1  0.21492286  0.16527912  0.05458160  1
  O  O43  1  0.78507714  0.83472088  0.94541840  1
  O  O44  1  0.78507714  0.66527912  0.44541840  1
  O  O45  1  0.21492286  0.33472088  0.55458160  1
