# generated using pymatgen
data_Dy2CoPtO6
_symmetry_space_group_name_H-M   'P 1'
_cell_length_a   5.33552578
_cell_length_b   5.77352483
_cell_length_c   7.69524491
_cell_angle_alpha   90.00000000
_cell_angle_beta   89.78452920
_cell_angle_gamma   90.00000000
_symmetry_Int_Tables_number   1
_chemical_formula_structural   Dy2CoPtO6
_chemical_formula_sum   'Dy4 Co2 Pt2 O12'
_cell_volume   237.04873151
_cell_formula_units_Z   2
loop_
 _symmetry_equiv_pos_site_id
 _symmetry_equiv_pos_as_xyz
  1  'x, y, z'
loop_
 _atom_site_type_symbol
 _atom_site_label
 _atom_site_symmetry_multiplicity
 _atom_site_fract_x
 _atom_site_fract_y
 _atom_site_fract_z
 _atom_site_occupancy
  Dy  Dy0  1  0.02548470  0.42432461  0.25167070  1
  Dy  Dy1  1  0.97451530  0.57567539  0.74832930  1
  Dy  Dy2  1  0.47451530  0.92432461  0.24832930  1
  Dy  Dy3  1  0.52548470  0.07567539  0.75167070  1
  Co  Co4  1  0.00000000  0.00000000  0.50000000  1
  Co  Co5  1  0.50000000  0.50000000  0.00000000  1
  Pt  Pt6  1  -0.00000000  -0.00000000  -0.00000000  1
  Pt  Pt7  1  0.50000000  0.50000000  0.50000000  1
  O  O8  1  0.87282436  0.05067447  0.24943457  1
  O  O9  1  0.12717564  0.94932553  0.75056543  1
  O  O10  1  0.62717564  0.55067447  0.25056543  1
  O  O11  1  0.37282436  0.44932553  0.74943457  1
  O  O12  1  0.18321608  0.69768103  0.06625697  1
  O  O13  1  0.81678392  0.30231897  0.93374303  1
  O  O14  1  0.31678392  0.19768103  0.43374303  1
  O  O15  1  0.68321608  0.80231897  0.56625697  1
  O  O16  1  0.31525782  0.18943251  0.05839577  1
  O  O17  1  0.68474218  0.81056749  0.94160423  1
  O  O18  1  0.18474218  0.68943251  0.44160423  1
  O  O19  1  0.81525782  0.31056749  0.55839577  1
