# generated using pymatgen
data_Cu2AgH(SO5)2
_symmetry_space_group_name_H-M   'P 1'
_cell_length_a   5.32762147
_cell_length_b   5.32762147
_cell_length_c   7.63241696
_cell_angle_alpha   101.30484524
_cell_angle_beta   105.38103551
_cell_angle_gamma   109.82719627
_symmetry_Int_Tables_number   1
_chemical_formula_structural   Cu2AgH(SO5)2
_chemical_formula_sum   'Cu2 Ag1 H1 S2 O10'
_cell_volume   186.47042260
_cell_formula_units_Z   1
loop_
 _symmetry_equiv_pos_site_id
 _symmetry_equiv_pos_as_xyz
  1  'x, y, z'
loop_
 _atom_site_type_symbol
 _atom_site_label
 _atom_site_symmetry_multiplicity
 _atom_site_fract_x
 _atom_site_fract_y
 _atom_site_fract_z
 _atom_site_occupancy
  Cu  Cu0  1  -0.00000000  0.00000000  0.50000000  1
  Cu  Cu1  1  0.50000000  0.50000000  0.50000000  1
  Ag  Ag2  1  -0.00000000  0.00000000  0.00000000  1
  H  H3  1  0.50000000  0.00000000  0.50000000  1
  S  S4  1  0.78940279  0.41654644  0.20594923  1
  S  S5  1  0.21059721  0.58345356  0.79405077  1
  O  O6  1  0.39129510  0.15606046  0.54735556  1
  O  O7  1  0.60870490  0.84393954  0.45264444  1
  O  O8  1  0.93166160  0.73625688  0.26081677  1
  O  O9  1  0.06833840  0.26374312  0.73918323  1
  O  O10  1  0.47544011  0.67084483  0.73918323  1
  O  O11  1  0.52455989  0.32915517  0.26081677  1
  O  O12  1  0.30277348  0.69783857  0.00061205  1
  O  O13  1  0.69722652  0.30216143  -0.00061205  1
  O  O14  1  0.99255624  0.31539104  0.30794728  1
  O  O15  1  0.00744376  0.68460896  0.69205272  1
