# generated using pymatgen
data_Sr4Cu2Bi4O13
_symmetry_space_group_name_H-M   'P 1'
_cell_length_a   5.64290600
_cell_length_b   5.71536023
_cell_length_c   12.75397164
_cell_angle_alpha   77.05227284
_cell_angle_beta   90.46918490
_cell_angle_gamma   92.09443869
_symmetry_Int_Tables_number   1
_chemical_formula_structural   Sr4Cu2Bi4O13
_chemical_formula_sum   'Sr4 Cu2 Bi4 O13'
_cell_volume   400.60545620
_cell_formula_units_Z   1
loop_
 _symmetry_equiv_pos_site_id
 _symmetry_equiv_pos_as_xyz
  1  'x, y, z'
loop_
 _atom_site_type_symbol
 _atom_site_label
 _atom_site_symmetry_multiplicity
 _atom_site_fract_x
 _atom_site_fract_y
 _atom_site_fract_z
 _atom_site_occupancy
  Sr  Sr0  1  0.49916806  0.93137323  0.62741072  1
  Sr  Sr1  1  0.51055966  0.06608773  0.34859094  1
  Sr  Sr2  1  0.98944034  0.58532133  0.34859094  1
  Sr  Sr3  1  0.00083194  0.44121605  0.62741072  1
  Cu  Cu4  1  0.49775619  0.49828061  0.49860967  1
  Cu  Cu5  1  0.00224381  0.00310972  0.49860967  1
  Bi  Bi6  1  0.50765066  0.32130066  0.85505755  1
  Bi  Bi7  1  0.47862325  0.68700457  0.13198332  1
  Bi  Bi8  1  0.02137675  0.18101211  0.13198332  1
  Bi  Bi9  1  0.99234934  0.82364179  0.85505755  1
  O  O10  1  0.75000000  0.24834672  0.50330655  1
  O  O11  1  0.75000000  0.75586796  0.48826408  1
  O  O12  1  0.25000000  0.75942735  0.48114531  1
  O  O13  1  0.25000000  0.24608786  0.50782427  1
  O  O14  1  0.45755615  0.46774109  0.68968706  1
  O  O15  1  0.51300502  0.50079933  0.28907112  1
  O  O16  1  0.98699498  0.21012954  0.28907112  1
  O  O17  1  0.04244385  0.84257185  0.68968706  1
  O  O18  1  0.75000000  0.10141320  0.79717360  1
  O  O19  1  0.75000000  0.91542836  0.16914328  1
  O  O20  1  0.25000000  0.90089759  0.19820481  1
  O  O21  1  0.25000000  0.03674945  0.92650111  1
  O  O22  1  0.75000000  0.53119188  0.93761623  1
