# generated using pymatgen
data_CuAsHO4
_symmetry_space_group_name_H-M   'P 1'
_cell_length_a   6.38817595
_cell_length_b   7.26728863
_cell_length_c   17.02410830
_cell_angle_alpha   92.42518468
_cell_angle_beta   83.12762553
_cell_angle_gamma   82.90168965
_symmetry_Int_Tables_number   1
_chemical_formula_structural   CuAsHO4
_chemical_formula_sum   'Cu8 As8 H8 O32'
_cell_volume   777.33807626
_cell_formula_units_Z   8
loop_
 _symmetry_equiv_pos_site_id
 _symmetry_equiv_pos_as_xyz
  1  'x, y, z'
loop_
 _atom_site_type_symbol
 _atom_site_label
 _atom_site_symmetry_multiplicity
 _atom_site_fract_x
 _atom_site_fract_y
 _atom_site_fract_z
 _atom_site_occupancy
  Cu  Cu0  1  0.41486075  0.40119058  0.93270608  1
  Cu  Cu1  1  0.58513925  0.59880942  0.06729392  1
  Cu  Cu2  1  0.35519355  0.35562748  0.53560212  1
  Cu  Cu3  1  0.64480645  0.64437252  0.46439788  1
  Cu  Cu4  1  0.87935669  0.84666903  0.96350120  1
  Cu  Cu5  1  0.12064331  0.15333097  0.03649880  1
  Cu  Cu6  1  0.87525013  0.91541271  0.56842719  1
  Cu  Cu7  1  0.12474987  0.08458729  0.43157281  1
  As  As8  1  0.14499636  0.65694590  0.41852115  1
  As  As9  1  0.85500364  0.34305410  0.58147885  1
  As  As10  1  0.08150872  0.55355015  0.11484100  1
  As  As11  1  0.91849128  0.44644985  0.88515900  1
  As  As12  1  0.34573240  0.97721316  0.61687859  1
  As  As13  1  0.65426760  0.02278684  0.38312141  1
  As  As14  1  0.41057074  0.82241952  0.91827251  1
  As  As15  1  0.58942926  0.17758048  0.08172749  1
  H  H16  1  0.77423173  0.60464369  0.66213108  1
  H  H17  1  0.22576827  0.39535631  0.33786892  1
  H  H18  1  0.39302939  0.06037887  0.83594242  1
  H  H19  1  0.60697061  0.93962113  0.16405758  1
  H  H20  1  0.23974236  0.78426464  0.71391269  1
  H  H21  1  0.76025764  0.21573536  0.28608731  1
  H  H22  1  0.89291343  0.21614768  0.79113441  1
  H  H23  1  0.10708657  0.78385232  0.20886559  1
  O  O24  1  0.58891268  0.84454450  0.59131209  1
  O  O25  1  0.41108732  0.15545550  0.40868791  1
  O  O26  1  0.40702759  0.61704972  0.86722732  1
  O  O27  1  0.59297241  0.38295028  0.13277268  1
  O  O28  1  0.07744738  0.30952811  0.50985241  1
  O  O29  1  0.92255262  0.69047189  0.49014759  1
  O  O30  1  0.18327581  0.90924380  0.54986263  1
  O  O31  1  0.81672419  0.09075620  0.45013737  1
  O  O32  1  0.17766338  0.85001664  0.36794220  1
  O  O33  1  0.82233662  0.14998336  0.63205780  1
  O  O34  1  0.11249070  0.64854413  0.20918248  1
  O  O35  1  0.88750930  0.35145587  0.79081752  1
  O  O36  1  0.15830247  0.93317847  0.95909330  1
  O  O37  1  0.84169753  0.06682153  0.04090670  1
  O  O38  1  0.36898233  0.55844477  0.46017174  1
  O  O39  1  0.63101767  0.44155523  0.53982826  1
  O  O40  1  0.92629765  0.67702436  0.87127658  1
  O  O41  1  0.07370235  0.32297564  0.12872342  1
  O  O42  1  0.09070533  0.47474212  0.35505628  1
  O  O43  1  0.90929467  0.52525788  0.64494372  1
  O  O44  1  0.14078327  0.32786931  0.91652882  1
  O  O45  1  0.85921673  0.67213069  0.08347118  1
  O  O46  1  0.58381313  0.80848898  0.99012487  1
  O  O47  1  0.41618687  0.19151102  0.00987513  1
  O  O48  1  0.70846959  0.39826410  0.95146565  1
  O  O49  1  0.29153041  0.60173590  0.04853435  1
  O  O50  1  0.23978810  0.91907047  0.71284968  1
  O  O51  1  0.76021190  0.08092953  0.28715032  1
  O  O52  1  0.51408936  0.98028478  0.85201615  1
  O  O53  1  0.48591064  0.01971522  0.14798385  1
  O  O54  1  0.65127521  0.78889842  0.37250306  1
  O  O55  1  0.34872479  0.21110158  0.62749694  1
