# generated using pymatgen
data_ZnCdS2
_symmetry_space_group_name_H-M   'P 1'
_cell_length_a   4.01081879
_cell_length_b   4.01078366
_cell_length_c   6.63060072
_cell_angle_alpha   90.00000000
_cell_angle_beta   89.99974545
_cell_angle_gamma   60.00028972
_symmetry_Int_Tables_number   1
_chemical_formula_structural   ZnCdS2
_chemical_formula_sum   'Zn1 Cd1 S2'
_cell_volume   92.37342647
_cell_formula_units_Z   1
loop_
 _symmetry_equiv_pos_site_id
 _symmetry_equiv_pos_as_xyz
  1  'x, y, z'
loop_
 _atom_site_type_symbol
 _atom_site_label
 _atom_site_symmetry_multiplicity
 _atom_site_fract_x
 _atom_site_fract_y
 _atom_site_fract_z
 _atom_site_occupancy
  Zn  Zn0  1  0.33333777  0.33333112  0.00023606  1
  Cd  Cd1  1  0.66665940  0.66667030  0.49437471  1
  S  S2  1  0.66666825  0.66666588  0.10798734  1
  S  S3  1  0.33333459  0.33333271  0.64540189  1
