# generated using pymatgen
data_ZrGa6(FeCo)3
_symmetry_space_group_name_H-M   'P 1'
_cell_length_a   4.97837210
_cell_length_b   6.47991485
_cell_length_c   6.50513451
_cell_angle_alpha   96.84189786
_cell_angle_beta   113.04543907
_cell_angle_gamma   67.85163704
_symmetry_Int_Tables_number   1
_chemical_formula_structural   ZrGa6(FeCo)3
_chemical_formula_sum   'Zr1 Ga6 Fe3 Co3'
_cell_volume   178.75587284
_cell_formula_units_Z   1
loop_
 _symmetry_equiv_pos_site_id
 _symmetry_equiv_pos_as_xyz
  1  'x, y, z'
loop_
 _atom_site_type_symbol
 _atom_site_label
 _atom_site_symmetry_multiplicity
 _atom_site_fract_x
 _atom_site_fract_y
 _atom_site_fract_z
 _atom_site_occupancy
  Zr  Zr0  1  -0.00000000  0.00000000  0.00000000  1
  Ga  Ga1  1  0.49590926  0.17609828  0.17111472  1
  Ga  Ga2  1  0.50409074  0.82390172  0.82888528  1
  Ga  Ga3  1  0.33034488  0.66253022  0.33347141  1
  Ga  Ga4  1  0.66965512  0.33746978  0.66652859  1
  Ga  Ga5  1  -0.00032648  0.65626917  0.66153820  1
  Ga  Ga6  1  0.00032648  0.34373083  0.33846180  1
  Fe  Fe7  1  0.50000000  0.50000000  0.00000000  1
  Fe  Fe8  1  0.50000000  0.00000000  0.50000000  1
  Fe  Fe9  1  -0.00000000  0.00000000  0.50000000  1
  Co  Co10  1  0.26326361  0.24217192  0.75224453  1
  Co  Co11  1  0.73673639  0.75782808  0.24775547  1
  Co  Co12  1  -0.00000000  0.50000000  0.00000000  1
