# generated using pymatgen
data_Zr10Al6O
_symmetry_space_group_name_H-M   'P 1'
_cell_length_a   5.58719927
_cell_length_b   8.27947070
_cell_length_c   8.27947125
_cell_angle_alpha   60.04816926
_cell_angle_beta   89.99213445
_cell_angle_gamma   90.00786560
_symmetry_Int_Tables_number   1
_chemical_formula_structural   Zr10Al6O
_chemical_formula_sum   'Zr10 Al6 O1'
_cell_volume   331.84902670
_cell_formula_units_Z   1
loop_
 _symmetry_equiv_pos_site_id
 _symmetry_equiv_pos_as_xyz
  1  'x, y, z'
loop_
 _atom_site_type_symbol
 _atom_site_label
 _atom_site_symmetry_multiplicity
 _atom_site_fract_x
 _atom_site_fract_y
 _atom_site_fract_z
 _atom_site_occupancy
  Zr  Zr0  1  0.74798318  0.23277141  0.76722859  1
  Zr  Zr1  1  0.74812191  0.76722546  0.00009492  1
  Zr  Zr2  1  0.74812191  0.99990508  0.23277454  1
  Zr  Zr3  1  0.25200434  0.76721490  0.23278510  1
  Zr  Zr4  1  0.25188370  0.23276205  0.99993336  1
  Zr  Zr5  1  0.25188370  0.00006664  0.76723795  1
  Zr  Zr6  1  0.50001797  0.33338375  0.33337223  1
  Zr  Zr7  1  0.50001797  0.66662777  0.66661625  1
  Zr  Zr8  1  -0.00001919  0.66670803  0.66669648  1
  Zr  Zr9  1  -0.00001919  0.33330352  0.33329197  1
  Al  Al10  1  0.75349472  0.60151738  0.39848262  1
  Al  Al11  1  0.75329724  0.39865766  0.00000196  1
  Al  Al12  1  0.75329724  -0.00000196  0.60134234  1
  Al  Al13  1  0.24649273  0.39849691  0.60150309  1
  Al  Al14  1  0.24670928  0.60136032  0.00000526  1
  Al  Al15  1  0.24670928  -0.00000526  0.39863968  1
  O  O16  1  0.50000319  0.00000634  -0.00000634  1
