# generated using pymatgen
data_Ce4In5S13
_symmetry_space_group_name_H-M   'P 1'
_cell_length_a   3.97492815
_cell_length_b   12.06321219
_cell_length_c   21.78278183
_cell_angle_alpha   90.00000000
_cell_angle_beta   90.00000000
_cell_angle_gamma   90.00000000
_symmetry_Int_Tables_number   1
_chemical_formula_structural   Ce4In5S13
_chemical_formula_sum   'Ce8 In10 S26'
_cell_volume   1044.49313919
_cell_formula_units_Z   2
loop_
 _symmetry_equiv_pos_site_id
 _symmetry_equiv_pos_as_xyz
  1  'x, y, z'
loop_
 _atom_site_type_symbol
 _atom_site_label
 _atom_site_symmetry_multiplicity
 _atom_site_fract_x
 _atom_site_fract_y
 _atom_site_fract_z
 _atom_site_occupancy
  Ce  Ce0  1  0.00000000  0.01629448  0.33354567  1
  Ce  Ce1  1  0.00000000  0.98370552  0.66645433  1
  Ce  Ce2  1  -0.00000000  0.48370552  0.83354567  1
  Ce  Ce3  1  0.00000000  0.51629448  0.16645433  1
  Ce  Ce4  1  -0.00000000  0.16636231  0.15867019  1
  Ce  Ce5  1  -0.00000000  0.83363769  0.84132981  1
  Ce  Ce6  1  0.00000000  0.33363769  0.65867019  1
  Ce  Ce7  1  0.00000000  0.66636231  0.34132981  1
  In  In8  1  0.50000000  0.34612564  0.32990627  1
  In  In9  1  0.50000000  0.65387436  0.67009373  1
  In  In10  1  0.50000000  0.15387436  0.82990627  1
  In  In11  1  0.50000000  0.84612564  0.17009373  1
  In  In12  1  0.50000000  0.34464951  0.00782281  1
  In  In13  1  0.50000000  0.65535049  0.99217719  1
  In  In14  1  0.50000000  0.15535049  0.50782281  1
  In  In15  1  0.50000000  0.84464951  0.49217719  1
  In  In16  1  -0.00000000  -0.00000000  0.00000000  1
  In  In17  1  -0.00000000  0.50000000  0.50000000  1
  S  S18  1  0.00000000  0.32897951  0.26055718  1
  S  S19  1  -0.00000000  0.67102049  0.73944282  1
  S  S20  1  -0.00000000  0.17102049  0.76055718  1
  S  S21  1  -0.00000000  0.82897951  0.23944282  1
  S  S22  1  0.50000000  0.07814054  0.24162201  1
  S  S23  1  0.50000000  0.92185946  0.75837799  1
  S  S24  1  0.50000000  0.42185946  0.74162201  1
  S  S25  1  0.50000000  0.57814054  0.25837799  1
  S  S26  1  0.50000000  0.00345945  0.09286085  1
  S  S27  1  0.50000000  0.99654055  0.90713915  1
  S  S28  1  0.50000000  0.49654055  0.59286085  1
  S  S29  1  0.50000000  0.50345945  0.40713915  1
  S  S30  1  0.50000000  0.16257476  0.38736958  1
  S  S31  1  0.50000000  0.83742524  0.61263042  1
  S  S32  1  0.50000000  0.33742524  0.88736958  1
  S  S33  1  0.50000000  0.66257476  0.11263042  1
  S  S34  1  -0.00000000  -0.00000000  0.50000000  1
  S  S35  1  -0.00000000  0.50000000  0.00000000  1
  S  S36  1  0.00000000  0.20256142  0.02201404  1
  S  S37  1  -0.00000000  0.79743858  0.97798596  1
  S  S38  1  -0.00000000  0.29743858  0.52201404  1
  S  S39  1  0.00000000  0.70256142  0.47798596  1
  S  S40  1  0.50000000  0.34480775  0.13296924  1
  S  S41  1  0.50000000  0.65519225  0.86703076  1
  S  S42  1  0.50000000  0.15519225  0.63296924  1
  S  S43  1  0.50000000  0.84480775  0.36703076  1
