# generated using pymatgen
data_Ba3Cd(GeO4)2
_symmetry_space_group_name_H-M   'P 1'
_cell_length_a   5.93462480
_cell_length_b   5.93462480
_cell_length_c   7.62879553
_cell_angle_alpha   90.00000000
_cell_angle_beta   90.00000000
_cell_angle_gamma   120.00000382
_symmetry_Int_Tables_number   1
_chemical_formula_structural   Ba3Cd(GeO4)2
_chemical_formula_sum   'Ba3 Cd1 Ge2 O8'
_cell_volume   232.68753801
_cell_formula_units_Z   1
loop_
 _symmetry_equiv_pos_site_id
 _symmetry_equiv_pos_as_xyz
  1  'x, y, z'
loop_
 _atom_site_type_symbol
 _atom_site_label
 _atom_site_symmetry_multiplicity
 _atom_site_fract_x
 _atom_site_fract_y
 _atom_site_fract_z
 _atom_site_occupancy
  Ba  Ba0  1  0.66666700  0.33333300  0.33599115  1
  Ba  Ba1  1  0.33333300  0.66666700  0.66400885  1
  Ba  Ba2  1  -0.00000000  -0.00000000  0.00000000  1
  Cd  Cd3  1  -0.00000000  -0.00000000  0.50000000  1
  Ge  Ge4  1  0.66666700  0.33333300  0.78397605  1
  Ge  Ge5  1  0.33333300  0.66666700  0.21602395  1
  O  O6  1  0.66666700  0.33333300  0.01136368  1
  O  O7  1  0.33333300  0.66666700  0.98863632  1
  O  O8  1  0.82756688  0.65513375  0.69447815  1
  O  O9  1  0.17243312  0.34486625  0.30552185  1
  O  O10  1  0.82756688  0.17243312  0.69447815  1
  O  O11  1  0.17243312  0.82756688  0.30552185  1
  O  O12  1  0.34486625  0.17243312  0.69447815  1
  O  O13  1  0.65513375  0.82756688  0.30552185  1
