# generated using pymatgen
data_Ag3Bi8S13
_symmetry_space_group_name_H-M   'P 1'
_cell_length_a   4.17117055
_cell_length_b   6.92208087
_cell_length_c   21.84405486
_cell_angle_alpha   93.17944842
_cell_angle_beta   90.00000000
_cell_angle_gamma   107.53537817
_symmetry_Int_Tables_number   1
_chemical_formula_structural   Ag3Bi8S13
_chemical_formula_sum   'Ag3 Bi8 S13'
_cell_volume   600.38082112
_cell_formula_units_Z   1
loop_
 _symmetry_equiv_pos_site_id
 _symmetry_equiv_pos_as_xyz
  1  'x, y, z'
loop_
 _atom_site_type_symbol
 _atom_site_label
 _atom_site_symmetry_multiplicity
 _atom_site_fract_x
 _atom_site_fract_y
 _atom_site_fract_z
 _atom_site_occupancy
  Ag  Ag0  1  0.41817168  0.83634337  0.62455853  1
  Ag  Ag1  1  0.58182832  0.16365663  0.37544147  1
  Ag  Ag2  1  -0.00000000  -0.00000000  0.00000000  1
  Bi  Bi3  1  0.69895595  0.39791190  0.70379620  1
  Bi  Bi4  1  0.30104405  0.60208810  0.29620380  1
  Bi  Bi5  1  0.85948440  0.71896880  0.45831899  1
  Bi  Bi6  1  0.14051560  0.28103120  0.54168101  1
  Bi  Bi7  1  0.97722470  0.95444939  0.78648978  1
  Bi  Bi8  1  0.02277530  0.04555061  0.21351022  1
  Bi  Bi9  1  0.25965609  0.51931218  0.91907119  1
  Bi  Bi10  1  0.74034391  0.48068782  0.08092881  1
  S  S11  1  0.77739896  0.55479792  0.57698651  1
  S  S12  1  0.22260104  0.44520208  0.42301349  1
  S  S13  1  0.64454579  0.28909159  0.97219739  1
  S  S14  1  0.35545421  0.71090841  0.02780261  1
  S  S15  1  0.61546537  0.23093075  0.81389804  1
  S  S16  1  0.38453463  0.76906925  0.18610196  1
  S  S17  1  0.93578466  0.87156931  0.34177734  1
  S  S18  1  0.06421534  0.12843069  0.65822266  1
  S  S19  1  0.34149262  0.68298524  0.73506703  1
  S  S20  1  0.65850738  0.31701476  0.26493297  1
  S  S21  1  0.50000000  -0.00000000  0.50000000  1
  S  S22  1  0.90150762  0.80301523  0.89693700  1
  S  S23  1  0.09849238  0.19698477  0.10306300  1
