# generated using pymatgen
data_Ca3Mg2(AsO4)3
_symmetry_space_group_name_H-M   'P 1'
_cell_length_a   10.91443132
_cell_length_b   10.91443132
_cell_length_c   10.91443132
_cell_angle_alpha   109.47122063
_cell_angle_beta   109.47122063
_cell_angle_gamma   109.47122063
_symmetry_Int_Tables_number   1
_chemical_formula_structural   Ca3Mg2(AsO4)3
_chemical_formula_sum   'Ca12 Mg8 As12 O48'
_cell_volume   1000.87869825
_cell_formula_units_Z   4
loop_
 _symmetry_equiv_pos_site_id
 _symmetry_equiv_pos_as_xyz
  1  'x, y, z'
loop_
 _atom_site_type_symbol
 _atom_site_label
 _atom_site_symmetry_multiplicity
 _atom_site_fract_x
 _atom_site_fract_y
 _atom_site_fract_z
 _atom_site_occupancy
  Ca  Ca0  1  0.87500000  0.62500000  0.75000000  1
  Ca  Ca1  1  0.12500000  0.37500000  0.25000000  1
  Ca  Ca2  1  0.62500000  0.87500000  0.25000000  1
  Ca  Ca3  1  0.62500000  0.75000000  0.87500000  1
  Ca  Ca4  1  0.87500000  0.25000000  0.62500000  1
  Ca  Ca5  1  0.37500000  0.12500000  0.75000000  1
  Ca  Ca6  1  0.37500000  0.25000000  0.12500000  1
  Ca  Ca7  1  0.12500000  0.75000000  0.37500000  1
  Ca  Ca8  1  0.75000000  0.87500000  0.62500000  1
  Ca  Ca9  1  0.25000000  0.12500000  0.37500000  1
  Ca  Ca10  1  0.25000000  0.62500000  0.87500000  1
  Ca  Ca11  1  0.75000000  0.37500000  0.12500000  1
  Mg  Mg12  1  0.00000000  0.00000000  0.00000000  1
  Mg  Mg13  1  0.50000000  0.00000000  0.50000000  1
  Mg  Mg14  1  0.50000000  0.50000000  0.00000000  1
  Mg  Mg15  1  0.00000000  0.00000000  0.50000000  1
  Mg  Mg16  1  0.00000000  0.50000000  0.50000000  1
  Mg  Mg17  1  0.50000000  0.50000000  0.50000000  1
  Mg  Mg18  1  0.50000000  0.00000000  0.00000000  1
  Mg  Mg19  1  0.00000000  0.50000000  0.00000000  1
  As  As20  1  0.62500000  0.37500000  0.75000000  1
  As  As21  1  0.37500000  0.62500000  0.25000000  1
  As  As22  1  0.87500000  0.12500000  0.25000000  1
  As  As23  1  0.37500000  0.75000000  0.62500000  1
  As  As24  1  0.62500000  0.25000000  0.37500000  1
  As  As25  1  0.12500000  0.87500000  0.75000000  1
  As  As26  1  0.12500000  0.25000000  0.87500000  1
  As  As27  1  0.87500000  0.75000000  0.12500000  1
  As  As28  1  0.75000000  0.62500000  0.37500000  1
  As  As29  1  0.25000000  0.37500000  0.62500000  1
  As  As30  1  0.25000000  0.87500000  0.12500000  1
  As  As31  1  0.75000000  0.12500000  0.87500000  1
  O  O32  1  0.70807934  0.62084413  0.51717803  1
  O  O33  1  0.29192066  0.37915587  0.48282197  1
  O  O34  1  0.79192066  0.80909869  0.41276479  1
  O  O35  1  0.39633390  0.87915587  0.08723521  1
  O  O36  1  0.62084413  0.51717803  0.70807934  1
  O  O37  1  0.70807934  0.08723521  0.69090131  1
  O  O38  1  0.20807934  0.19090131  0.58723521  1
  O  O39  1  0.60366610  0.12084413  0.91276479  1
  O  O40  1  0.37915587  0.48282197  0.29192066  1
  O  O41  1  0.29192066  0.91276479  0.30909869  1
  O  O42  1  0.10366610  0.69090131  0.98282197  1
  O  O43  1  0.80909869  0.41276479  0.79192066  1
  O  O44  1  0.79192066  0.98282197  0.87915587  1
  O  O45  1  0.89633390  0.30909869  0.01717803  1
  O  O46  1  0.19090131  0.58723521  0.20807934  1
  O  O47  1  0.20807934  0.01717803  0.12084413  1
  O  O48  1  0.87915587  0.08723521  0.39633390  1
  O  O49  1  0.39633390  0.51717803  0.80909869  1
  O  O50  1  0.12084413  0.91276479  0.60366610  1
  O  O51  1  0.60366610  0.48282197  0.19090131  1
  O  O52  1  0.69090131  0.98282197  0.10366610  1
  O  O53  1  0.10366610  0.41276479  0.62084413  1
  O  O54  1  0.30909869  0.01717803  0.89633390  1
  O  O55  1  0.89633390  0.58723521  0.37915587  1
  O  O56  1  0.51717803  0.70807934  0.62084413  1
  O  O57  1  0.62084413  0.10366610  0.41276479  1
  O  O58  1  0.48282197  0.29192066  0.37915587  1
  O  O59  1  0.37915587  0.89633390  0.58723521  1
  O  O60  1  0.08723521  0.39633390  0.87915587  1
  O  O61  1  0.87915587  0.79192066  0.98282197  1
  O  O62  1  0.91276479  0.60366610  0.12084413  1
  O  O63  1  0.12084413  0.20807934  0.01717803  1
  O  O64  1  0.98282197  0.10366610  0.69090131  1
  O  O65  1  0.69090131  0.70807934  0.08723521  1
  O  O66  1  0.01717803  0.89633390  0.30909869  1
  O  O67  1  0.30909869  0.29192066  0.91276479  1
  O  O68  1  0.41276479  0.79192066  0.80909869  1
  O  O69  1  0.80909869  0.39633390  0.51717803  1
  O  O70  1  0.58723521  0.20807934  0.19090131  1
  O  O71  1  0.19090131  0.60366610  0.48282197  1
  O  O72  1  0.08723521  0.69090131  0.70807934  1
  O  O73  1  0.91276479  0.30909869  0.29192066  1
  O  O74  1  0.98282197  0.87915587  0.79192066  1
  O  O75  1  0.01717803  0.12084413  0.20807934  1
  O  O76  1  0.41276479  0.62084413  0.10366610  1
  O  O77  1  0.58723521  0.37915587  0.89633390  1
  O  O78  1  0.51717803  0.80909869  0.39633390  1
  O  O79  1  0.48282197  0.19090131  0.60366610  1
