# generated using pymatgen
data_ZnCdSb2
_symmetry_space_group_name_H-M   'P 1'
_cell_length_a   6.48096430
_cell_length_b   8.10145311
_cell_length_c   8.52293370
_cell_angle_alpha   90.00000000
_cell_angle_beta   90.00000000
_cell_angle_gamma   90.00000000
_symmetry_Int_Tables_number   1
_chemical_formula_structural   ZnCdSb2
_chemical_formula_sum   'Zn4 Cd4 Sb8'
_cell_volume   447.49858042
_cell_formula_units_Z   4
loop_
 _symmetry_equiv_pos_site_id
 _symmetry_equiv_pos_as_xyz
  1  'x, y, z'
loop_
 _atom_site_type_symbol
 _atom_site_label
 _atom_site_symmetry_multiplicity
 _atom_site_fract_x
 _atom_site_fract_y
 _atom_site_fract_z
 _atom_site_occupancy
  Zn  Zn0  1  0.94835197  0.38645839  0.13358141  1
  Zn  Zn1  1  0.44835197  0.11354161  0.86641859  1
  Zn  Zn2  1  0.05164803  0.88645839  0.36641859  1
  Zn  Zn3  1  0.55164803  0.61354161  0.63358141  1
  Cd  Cd4  1  0.04107075  0.61890055  0.86915863  1
  Cd  Cd5  1  0.54107075  0.88109945  0.13084137  1
  Cd  Cd6  1  0.95892925  0.11890055  0.63084137  1
  Cd  Cd7  1  0.45892925  0.38109945  0.36915863  1
  Sb  Sb8  1  0.64492636  0.07007777  0.39775725  1
  Sb  Sb9  1  0.14492636  0.42992223  0.60224275  1
  Sb  Sb10  1  0.35507364  0.57007777  0.10224275  1
  Sb  Sb11  1  0.85507364  0.92992223  0.89775725  1
  Sb  Sb12  1  0.36497396  0.91348903  0.60973178  1
  Sb  Sb13  1  0.86497396  0.58651097  0.39026822  1
  Sb  Sb14  1  0.63502604  0.41348903  0.89026822  1
  Sb  Sb15  1  0.13502604  0.08651097  0.10973178  1
