# generated using pymatgen
data_SnSb
_symmetry_space_group_name_H-M   'P 1'
_cell_length_a   4.47615215
_cell_length_b   4.47615288
_cell_length_c   4.47615215
_cell_angle_alpha   69.31980256
_cell_angle_beta   110.68019851
_cell_angle_gamma   110.68019744
_symmetry_Int_Tables_number   1
_chemical_formula_structural   SnSb
_chemical_formula_sum   'Sn1 Sb1'
_cell_volume   75.77836586
_cell_formula_units_Z   1
loop_
 _symmetry_equiv_pos_site_id
 _symmetry_equiv_pos_as_xyz
  1  'x, y, z'
loop_
 _atom_site_type_symbol
 _atom_site_label
 _atom_site_symmetry_multiplicity
 _atom_site_fract_x
 _atom_site_fract_y
 _atom_site_fract_z
 _atom_site_occupancy
  Sn  Sn0  1  0.64326003  0.35673997  0.35673997  1
  Sb  Sb1  1  0.35673997  0.64326003  0.64326003  1
