# generated using pymatgen
data_TiNb2O7
_symmetry_space_group_name_H-M   'P 1'
_cell_length_a   3.86004062
_cell_length_b   10.48423543
_cell_length_c   11.46314737
_cell_angle_alpha   70.94288061
_cell_angle_beta   80.30709025
_cell_angle_gamma   100.60795645
_symmetry_Int_Tables_number   1
_chemical_formula_structural   TiNb2O7
_chemical_formula_sum   'Ti3 Nb6 O21'
_cell_volume   417.75356037
_cell_formula_units_Z   3
loop_
 _symmetry_equiv_pos_site_id
 _symmetry_equiv_pos_as_xyz
  1  'x, y, z'
loop_
 _atom_site_type_symbol
 _atom_site_label
 _atom_site_symmetry_multiplicity
 _atom_site_fract_x
 _atom_site_fract_y
 _atom_site_fract_z
 _atom_site_occupancy
  Ti  Ti0  1  0.07052931  0.77844170  0.63738307  1
  Ti  Ti1  1  0.92417593  0.21817327  0.36982142  1
  Ti  Ti2  1  0.82322165  0.63422826  0.98778496  1
  Nb  Nb3  1  0.56158674  0.47991164  0.35673816  1
  Nb  Nb4  1  0.44168424  0.52182306  0.63845457  1
  Nb  Nb5  1  0.25699740  0.14302623  0.62903142  1
  Nb  Nb6  1  0.74206418  0.85575402  0.37162566  1
  Nb  Nb7  1  0.99572998  0.99160164  0.00014168  1
  Nb  Nb8  1  0.17671522  0.36617309  0.01274264  1
  O  O9  1  0.20693710  0.83119360  0.41731940  1
  O  O10  1  0.79476945  0.16995851  0.58041961  1
  O  O11  1  0.14285850  0.08861686  0.80289986  1
  O  O12  1  0.85715021  0.91155161  0.19725120  1
  O  O13  1  0.97646238  0.57537287  0.62244811  1
  O  O14  1  0.02394161  0.42489661  0.37701338  1
  O  O15  1  0.68559079  0.55627183  0.18509026  1
  O  O16  1  0.31686737  0.44542554  0.81169079  1
  O  O17  1  0.90675766  0.80821009  0.99469477  1
  O  O18  1  0.09309341  0.19102939  0.00484256  1
  O  O19  1  0.42272134  0.24867484  0.40323217  1
  O  O20  1  0.57749437  0.75146086  0.59647211  1
  O  O21  1  0.70812795  0.41794977  0.00169387  1
  O  O22  1  0.29468866  0.58639195  0.99701462  1
  O  O23  1  0.17959993  0.96751488  0.60831502  1
  O  O24  1  0.82045313  0.03330581  0.39239954  1
  O  O25  1  0.95121397  0.70674094  0.80431300  1
  O  O26  1  0.04664298  0.29260560  0.19931963  1
  O  O27  1  0.39049086  0.36669945  0.58571774  1
  O  O28  1  0.60974193  0.63331771  0.41383385  1
  O  O29  1  0.50169174  0.00367839  0.00029491  1
