# generated using pymatgen
data_TlSbSe2
_symmetry_space_group_name_H-M   'P 1'
_cell_length_a   4.15768178
_cell_length_b   4.16713819
_cell_length_c   7.53720179
_cell_angle_alpha   90.00000000
_cell_angle_beta   73.98966769
_cell_angle_gamma   90.00000000
_symmetry_Int_Tables_number   1
_chemical_formula_structural   TlSbSe2
_chemical_formula_sum   'Tl1 Sb1 Se2'
_cell_volume   125.52159922
_cell_formula_units_Z   1
loop_
 _symmetry_equiv_pos_site_id
 _symmetry_equiv_pos_as_xyz
  1  'x, y, z'
loop_
 _atom_site_type_symbol
 _atom_site_label
 _atom_site_symmetry_multiplicity
 _atom_site_fract_x
 _atom_site_fract_y
 _atom_site_fract_z
 _atom_site_occupancy
  Tl  Tl0  1  0.09599497  0.75000000  0.80801006  1
  Sb  Sb1  1  0.84881759  0.25000000  0.30236482  1
  Se  Se2  1  0.38102551  0.75000000  0.23794898  1
  Se  Se3  1  0.67416193  0.25000000  0.65167614  1
