# generated using pymatgen
data_TlBiF4
_symmetry_space_group_name_H-M   'P 1'
_cell_length_a   3.85757347
_cell_length_b   6.64915973
_cell_length_c   8.22262729
_cell_angle_alpha   90.00000000
_cell_angle_beta   90.00000000
_cell_angle_gamma   90.00000000
_symmetry_Int_Tables_number   1
_chemical_formula_structural   TlBiF4
_chemical_formula_sum   'Tl2 Bi2 F8'
_cell_volume   210.90728325
_cell_formula_units_Z   2
loop_
 _symmetry_equiv_pos_site_id
 _symmetry_equiv_pos_as_xyz
  1  'x, y, z'
loop_
 _atom_site_type_symbol
 _atom_site_label
 _atom_site_symmetry_multiplicity
 _atom_site_fract_x
 _atom_site_fract_y
 _atom_site_fract_z
 _atom_site_occupancy
  Tl  Tl0  1  0.25000000  0.25289822  0.38445424  1
  Tl  Tl1  1  0.25000000  0.75289822  0.11554576  1
  Bi  Bi2  1  0.75000000  0.76719029  0.61322689  1
  Bi  Bi3  1  0.75000000  0.26719029  0.88677311  1
  F  F4  1  0.25000000  0.48827395  0.84541907  1
  F  F5  1  0.25000000  -0.01172605  0.65458093  1
  F  F6  1  0.75000000  0.44135556  0.11093289  1
  F  F7  1  0.75000000  0.94135556  0.38906711  1
  F  F8  1  0.25000000  0.65370277  0.48230645  1
  F  F9  1  0.25000000  0.15370277  0.01769355  1
  F  F10  1  0.75000000  0.39657920  0.61395555  1
  F  F11  1  0.75000000  0.89657920  0.88604445  1
