# generated using pymatgen
data_Y2CoNi5
_symmetry_space_group_name_H-M   'P 1'
_cell_length_a   4.97222173
_cell_length_b   4.97222173
_cell_length_c   16.45327825
_cell_angle_alpha   81.30925029
_cell_angle_beta   89.99999996
_cell_angle_gamma   59.99999557
_symmetry_Int_Tables_number   1
_chemical_formula_structural   Y2CoNi5
_chemical_formula_sum   'Y6 Co3 Ni15'
_cell_volume   346.87332390
_cell_formula_units_Z   3
loop_
 _symmetry_equiv_pos_site_id
 _symmetry_equiv_pos_as_xyz
  1  'x, y, z'
loop_
 _atom_site_type_symbol
 _atom_site_label
 _atom_site_symmetry_multiplicity
 _atom_site_fract_x
 _atom_site_fract_y
 _atom_site_fract_z
 _atom_site_occupancy
  Y  Y0  1  0.43013431  0.13973138  0.29040294  1
  Y  Y1  1  0.93008604  0.13982792  0.79025813  1
  Y  Y2  1  0.06996336  0.86007328  0.20989008  1
  Y  Y3  1  0.56992148  0.86015703  0.70976445  1
  Y  Y4  1  0.00003869  0.99992262  0.00011607  1
  Y  Y5  1  0.49995300  0.00009400  0.49985899  1
  Co  Co6  1  0.66655094  0.66689812  0.99965282  1
  Co  Co7  1  0.75004626  0.49990748  0.25013879  1
  Co  Co8  1  0.24986284  0.50027433  0.74958851  1
  Ni  Ni9  1  0.45925195  0.58180074  0.37714657  1
  Ni  Ni10  1  0.95938272  0.58127754  0.87806221  1
  Ni  Ni11  1  0.95894731  0.58180074  0.37714657  1
  Ni  Ni12  1  0.45933974  0.58127754  0.87806221  1
  Ni  Ni13  1  0.95894731  0.08210538  0.37714657  1
  Ni  Ni14  1  0.45933974  0.08132051  0.87806221  1
  Ni  Ni15  1  0.03964089  0.41909327  0.12217256  1
  Ni  Ni16  1  0.54057491  0.41832112  0.62278286  1
  Ni  Ni17  1  0.54126583  0.41909327  0.12217256  1
  Ni  Ni18  1  0.04110397  0.41832112  0.62278286  1
  Ni  Ni19  1  0.54126583  0.91746834  0.12217256  1
  Ni  Ni20  1  0.04110397  0.91779205  0.62278286  1
  Ni  Ni21  1  0.33333754  0.33332492  0.00001262  1
  Ni  Ni22  1  0.83324516  0.33350968  0.49973548  1
  Ni  Ni23  1  0.16669618  0.66660763  0.50008855  1
