# generated using pymatgen
data_Y9Ga5S21
_symmetry_space_group_name_H-M   'P 1'
_cell_length_a   11.50176685
_cell_length_b   11.50159657
_cell_length_c   11.50182521
_cell_angle_alpha   94.22751790
_cell_angle_beta   85.77323597
_cell_angle_gamma   85.77163273
_symmetry_Int_Tables_number   1
_chemical_formula_structural   Y9Ga5S21
_chemical_formula_sum   'Y18 Ga10 S42'
_cell_volume   1508.49269163
_cell_formula_units_Z   2
loop_
 _symmetry_equiv_pos_site_id
 _symmetry_equiv_pos_as_xyz
  1  'x, y, z'
loop_
 _atom_site_type_symbol
 _atom_site_label
 _atom_site_symmetry_multiplicity
 _atom_site_fract_x
 _atom_site_fract_y
 _atom_site_fract_z
 _atom_site_occupancy
  Y  Y0  1  0.25998576  0.11553531  0.88046594  1
  Y  Y1  1  0.92157840  0.45652292  0.22665606  1
  Y  Y2  1  0.60412505  0.77245468  0.54850716  1
  Y  Y3  1  0.45149876  0.39587208  0.77245136  1
  Y  Y4  1  0.11952411  0.74001911  0.11554477  1
  Y  Y5  1  0.77335077  0.07840407  0.45652914  1
  Y  Y6  1  0.54348755  0.22665752  0.07840802  1
  Y  Y7  1  0.22754298  0.54851114  0.39587334  1
  Y  Y8  1  0.88444820  0.88047788  0.74001450  1
  Y  Y9  1  0.41561525  0.20912307  0.43744213  1
  Y  Y10  1  0.06988040  0.55161859  0.78194056  1
  Y  Y11  1  0.75272784  0.87073296  0.10169675  1
  Y  Y12  1  0.21802593  0.93012988  0.55162382  1
  Y  Y13  1  0.89830846  0.24726921  0.87075363  1
  Y  Y14  1  0.56256957  0.58440593  0.20912468  1
  Y  Y15  1  0.12925337  0.10168933  0.24726119  1
  Y  Y16  1  0.79088227  0.43744345  0.58440896  1
  Y  Y17  1  0.44837627  0.78195046  0.93011367  1
  Ga  Ga18  1  0.94998533  0.72250440  0.39049360  1
  Ga  Ga19  1  0.60950603  0.05001604  0.72250976  1
  Ga  Ga20  1  0.27749693  0.39048775  0.05001826  1
  Ga  Ga21  1  0.44877532  0.88586178  0.22593131  1
  Ga  Ga22  1  0.11414291  0.22593607  0.55122072  1
  Ga  Ga23  1  0.77406443  0.55122714  0.88585971  1
  Ga  Ga24  1  0.14166045  0.85833727  0.85833639  1
  Ga  Ga25  1  0.84250725  0.15749349  0.15749286  1
  Ga  Ga26  1  0.34315930  0.65684011  0.65683881  1
  Ga  Ga27  1  0.64173298  0.35827482  0.35827366  1
  S  S28  1  0.98867952  0.53861611  0.44716621  1
  S  S29  1  0.64412477  0.86721544  0.78112274  1
  S  S30  1  0.30753094  0.20300597  0.10586183  1
  S  S31  1  0.89414142  0.69246795  0.20302297  1
  S  S32  1  0.55283661  0.01132571  0.53861826  1
  S  S33  1  0.21887002  0.35587503  0.86721605  1
  S  S34  1  0.13277963  0.78112783  0.35587509  1
  S  S35  1  0.79698700  0.10585418  0.69246976  1
  S  S36  1  0.46137940  0.44716207  0.01133133  1
  S  S37  1  0.52505065  0.96515134  0.06390099  1
  S  S38  1  0.18924417  0.29799839  0.38477530  1
  S  S39  1  0.84413920  0.63054750  0.71937829  1
  S  S40  1  0.61520577  0.81077126  0.29799157  1
  S  S41  1  0.28062098  0.15586470  0.63055120  1
  S  S42  1  0.93610329  0.47494986  0.96515101  1
  S  S43  1  0.36945021  0.71937520  0.15585889  1
  S  S44  1  0.03484902  0.06390596  0.47494865  1
  S  S45  1  0.70200245  0.38478015  0.81076415  1
  S  S46  1  0.82434985  0.84667799  0.51122468  1
  S  S47  1  0.48877168  0.17565484  0.84669374  1
  S  S48  1  0.15331093  0.51122684  0.17565780  1
  S  S49  1  0.65350146  0.67704932  0.00999074  1
  S  S50  1  0.32295197  0.00998848  0.34649827  1
  S  S51  1  0.99000764  0.34650634  0.67704345  1
  S  S52  1  0.68839028  0.56097533  0.41343624  1
  S  S53  1  0.33375277  0.89986296  0.76339395  1
  S  S54  1  0.00639862  0.24130619  0.09976812  1
  S  S55  1  0.90022905  0.99360407  0.24130954  1
  S  S56  1  0.58655374  0.31162110  0.56097314  1
  S  S57  1  0.23659613  0.66624451  0.89985537  1
  S  S58  1  0.10013409  0.76340102  0.66624774  1
  S  S59  1  0.75869503  0.09976345  0.99360239  1
  S  S60  1  0.43902884  0.41344087  0.31161749  1
  S  S61  1  0.61440850  0.15256804  0.28896845  1
  S  S62  1  0.26931675  0.48273688  0.62151818  1
  S  S63  1  0.95423739  0.79611882  0.94626207  1
  S  S64  1  0.37847429  0.73069195  0.48274705  1
  S  S65  1  0.05373602  0.04575912  0.79611681  1
  S  S66  1  0.71103514  0.38559324  0.15257284  1
  S  S67  1  0.20388073  0.94626238  0.04576042  1
  S  S68  1  0.84742882  0.28896825  0.38559595  1
  S  S69  1  0.51726936  0.62152093  0.73068452  1
