# generated using pymatgen
data_Re3Mo
_symmetry_space_group_name_H-M   'P 1'
_cell_length_a   2.78409452
_cell_length_b   2.78409452
_cell_length_c   9.13056562
_cell_angle_alpha   90.00000000
_cell_angle_beta   90.00000000
_cell_angle_gamma   119.99775710
_symmetry_Int_Tables_number   1
_chemical_formula_structural   Re3Mo
_chemical_formula_sum   'Re3 Mo1'
_cell_volume   61.29232255
_cell_formula_units_Z   1
loop_
 _symmetry_equiv_pos_site_id
 _symmetry_equiv_pos_as_xyz
  1  'x, y, z'
loop_
 _atom_site_type_symbol
 _atom_site_label
 _atom_site_symmetry_multiplicity
 _atom_site_fract_x
 _atom_site_fract_y
 _atom_site_fract_z
 _atom_site_occupancy
  Re  Re0  1  0.66669457  0.33330543  0.87500000  1
  Re  Re1  1  0.33331110  0.66668890  0.11949488  1
  Re  Re2  1  0.33331110  0.66668890  0.63050512  1
  Mo  Mo3  1  0.66668324  0.33331676  0.37500000  1
