# generated using pymatgen
data_V6CuO15
_symmetry_space_group_name_H-M   'P 1'
_cell_length_a   7.37201696
_cell_length_b   10.32272778
_cell_length_c   7.96432522
_cell_angle_alpha   106.91707412
_cell_angle_beta   103.33108753
_cell_angle_gamma   89.99879584
_symmetry_Int_Tables_number   1
_chemical_formula_structural   V6CuO15
_chemical_formula_sum   'V12 Cu2 O30'
_cell_volume   562.76166515
_cell_formula_units_Z   2
loop_
 _symmetry_equiv_pos_site_id
 _symmetry_equiv_pos_as_xyz
  1  'x, y, z'
loop_
 _atom_site_type_symbol
 _atom_site_label
 _atom_site_symmetry_multiplicity
 _atom_site_fract_x
 _atom_site_fract_y
 _atom_site_fract_z
 _atom_site_occupancy
  V  V0  1  0.64269351  0.40611346  0.57385776  1
  V  V1  1  0.14268266  0.40511626  0.56644021  1
  V  V2  1  0.35730649  0.59388654  0.42614224  1
  V  V3  1  0.85731734  0.59488374  0.43355979  1
  V  V4  1  0.55753049  0.11856932  0.22764654  1
  V  V5  1  0.05640969  0.11591539  0.22767830  1
  V  V6  1  0.44246951  0.88143068  0.77235346  1
  V  V7  1  0.94359031  0.88408461  0.77232170  1
  V  V8  1  0.66584505  0.09127543  0.66304792  1
  V  V9  1  0.16615740  0.09644969  0.66778982  1
  V  V10  1  0.33415495  0.90872457  0.33695208  1
  V  V11  1  0.83384260  0.90355031  0.33221018  1
  Cu  Cu12  1  0.76336557  0.36342016  0.05504452  1
  Cu  Cu13  1  0.23663443  0.63657984  0.94495548  1
  O  O14  1  0.31640112  0.08349030  0.26544975  1
  O  O15  1  0.81532562  0.07885187  0.26370868  1
  O  O16  1  0.68359888  0.91650970  0.73455025  1
  O  O17  1  0.18467438  0.92114813  0.73629132  1
  O  O18  1  0.69771213  0.45807366  0.79278752  1
  O  O19  1  0.19801233  0.46458113  0.79043938  1
  O  O20  1  0.30228787  0.54192634  0.20721248  1
  O  O21  1  0.80198767  0.53541887  0.20956062  1
  O  O22  1  0.62894779  0.22398867  0.51475470  1
  O  O23  1  0.12911534  0.22069095  0.51857646  1
  O  O24  1  0.37105221  0.77601133  0.48524530  1
  O  O25  1  0.87088466  0.77930905  0.48142354  1
  O  O26  1  0.56253096  0.26913763  0.19729270  1
  O  O27  1  0.03781596  0.26915102  0.20345112  1
  O  O28  1  0.43746904  0.73086237  0.80270730  1
  O  O29  1  0.96218404  0.73084898  0.79654888  1
  O  O30  1  0.50000000  -0.00000000  0.00000000  1
  O  O31  1  0.00000000  -0.00000000  0.00000000  1
  O  O32  1  0.71482083  0.20761002  0.86688628  1
  O  O33  1  0.21882178  0.20785479  0.86396947  1
  O  O34  1  0.28517917  0.79238998  0.13311372  1
  O  O35  1  0.78117822  0.79214521  0.13603053  1
  O  O36  1  0.62354500  0.57342084  0.48900884  1
  O  O37  1  0.12035613  0.57256116  0.48660850  1
  O  O38  1  0.37645500  0.42657916  0.51099116  1
  O  O39  1  0.87964387  0.42743884  0.51339150  1
  O  O40  1  0.39644237  0.04074572  0.61642894  1
  O  O41  1  0.91546623  0.04548311  0.63085060  1
  O  O42  1  0.60355763  0.95925428  0.38357106  1
  O  O43  1  0.08453377  0.95451689  0.36914940  1
