# generated using pymatgen
data_Si2SnO6
_symmetry_space_group_name_H-M   'P 1'
_cell_length_a   5.14178982
_cell_length_b   10.89766561
_cell_length_c   19.13784611
_cell_angle_alpha   90.00029274
_cell_angle_beta   90.00186539
_cell_angle_gamma   90.01357597
_symmetry_Int_Tables_number   1
_chemical_formula_structural   Si2SnO6
_chemical_formula_sum   'Si16 Sn8 O48'
_cell_volume   1072.36058472
_cell_formula_units_Z   8
loop_
 _symmetry_equiv_pos_site_id
 _symmetry_equiv_pos_as_xyz
  1  'x, y, z'
loop_
 _atom_site_type_symbol
 _atom_site_label
 _atom_site_symmetry_multiplicity
 _atom_site_fract_x
 _atom_site_fract_y
 _atom_site_fract_z
 _atom_site_occupancy
  Si  Si0  1  0.62121930  0.67045189  0.22365560  1
  Si  Si1  1  0.75903740  0.82809005  0.52630347  1
  Si  Si2  1  0.74134559  0.82823299  0.02640192  1
  Si  Si3  1  0.87870092  0.17050671  0.77632176  1
  Si  Si4  1  0.12126202  0.32952491  0.27629982  1
  Si  Si5  1  0.37874447  0.82951743  0.72371568  1
  Si  Si6  1  0.25894961  0.67180752  0.52631624  1
  Si  Si7  1  0.75885402  0.32812782  0.97367648  1
  Si  Si8  1  0.74106651  0.32818294  0.47362237  1
  Si  Si9  1  0.87868406  0.67049620  0.72370791  1
  Si  Si10  1  0.37875092  0.32952961  0.77632121  1
  Si  Si11  1  0.62120243  0.17045617  0.27629826  1
  Si  Si12  1  0.24098330  0.17189245  0.47363482  1
  Si  Si13  1  0.12126110  0.82952792  0.22365740  1
  Si  Si14  1  0.24124913  0.67187246  0.02638810  1
  Si  Si15  1  0.25876426  0.17177636  0.97367083  1
  Sn  Sn16  1  0.43674877  0.04542932  0.12595540  1
  Sn  Sn17  1  0.56322851  0.95448969  0.87409657  1
  Sn  Sn18  1  0.93655935  0.95452291  0.37400344  1
  Sn  Sn19  1  0.06343200  0.04552541  0.62595522  1
  Sn  Sn20  1  0.43676554  0.54549301  0.37402773  1
  Sn  Sn21  1  0.56321733  0.45446434  0.62593212  1
  Sn  Sn22  1  0.93664040  0.45458095  0.12597292  1
  Sn  Sn23  1  0.06342111  0.54549729  0.87405939  1
  O  O24  1  0.82258031  0.54529058  0.67995505  1
  O  O25  1  0.31422202  0.04709837  0.92979208  1
  O  O26  1  0.17712852  0.45472345  0.32009487  1
  O  O27  1  0.75940750  0.35114753  0.05828173  1
  O  O28  1  0.25932521  0.14876212  0.05827486  1
  O  O29  1  0.96797942  0.22032777  0.95329081  1
  O  O30  1  0.86465961  0.64514001  0.80810345  1
  O  O31  1  0.13532548  0.85491959  0.30804036  1
  O  O32  1  0.75955147  0.85098206  0.44167827  1
  O  O33  1  0.86472931  0.14516955  0.69192856  1
  O  O34  1  0.32287263  0.45478826  0.82005216  1
  O  O35  1  0.74044987  0.35107531  0.55825219  1
  O  O36  1  0.68599998  0.95289097  0.07028149  1
  O  O37  1  0.36463223  0.85477834  0.80812072  1
  O  O38  1  0.67688187  0.04523039  0.32008388  1
  O  O39  1  0.31449370  0.54711983  0.57016362  1
  O  O40  1  0.32277611  0.95475578  0.67997720  1
  O  O41  1  0.16922818  0.72157619  0.70412056  1
  O  O42  1  0.33085997  0.72167092  0.20408518  1
  O  O43  1  0.53201667  0.72048340  0.04679375  1
  O  O44  1  0.74075065  0.85123073  0.94178233  1
  O  O45  1  0.63539700  0.64513686  0.30804664  1
  O  O46  1  0.81455078  0.45278986  0.92980267  1
  O  O47  1  0.16919282  0.22161987  0.79593603  1
  O  O48  1  0.24042646  0.14901930  0.55826767  1
  O  O49  1  0.63542589  0.14508914  0.19191659  1
  O  O50  1  0.68562989  0.45288194  0.42978157  1
  O  O51  1  0.25950703  0.64890307  0.44169457  1
  O  O52  1  0.18571886  0.54721223  0.07025364  1
  O  O53  1  0.66927340  0.77846253  0.70415030  1
  O  O54  1  0.17700352  0.95475853  0.17989418  1
  O  O55  1  0.83090207  0.77829565  0.20405216  1
  O  O56  1  0.83080077  0.27836050  0.29587354  1
  O  O57  1  0.81484464  0.95276752  0.57013865  1
  O  O58  1  0.24060095  0.64889955  0.94176402  1
  O  O59  1  0.18528990  0.04719413  0.42981040  1
  O  O60  1  0.33075546  0.22160545  0.29584643  1
  O  O61  1  0.03207777  0.77963519  0.04679819  1
  O  O62  1  0.46818704  0.77960011  0.54672626  1
  O  O63  1  0.66924059  0.27844246  0.79589309  1
  O  O64  1  0.46804753  0.27955510  0.95328041  1
  O  O65  1  0.53178584  0.22041903  0.45319770  1
  O  O66  1  0.03184244  0.27966799  0.45321294  1
  O  O67  1  0.36461310  0.35478561  0.69192285  1
  O  O68  1  0.67683099  0.54520645  0.17989162  1
  O  O69  1  0.96812214  0.72027682  0.54671025  1
  O  O70  1  0.13538817  0.35496869  0.19192452  1
  O  O71  1  0.82259018  0.04528591  0.82006132  1
