# generated using pymatgen
data_Ta4C3
_symmetry_space_group_name_H-M   'P 1'
_cell_length_a   3.13513406
_cell_length_b   3.13513406
_cell_length_c   10.41286398
_cell_angle_alpha   81.34169524
_cell_angle_beta   81.34169524
_cell_angle_gamma   59.99999411
_symmetry_Int_Tables_number   1
_chemical_formula_structural   Ta4C3
_chemical_formula_sum   'Ta4 C3'
_cell_volume   87.28715233
_cell_formula_units_Z   1
loop_
 _symmetry_equiv_pos_site_id
 _symmetry_equiv_pos_as_xyz
  1  'x, y, z'
loop_
 _atom_site_type_symbol
 _atom_site_label
 _atom_site_symmetry_multiplicity
 _atom_site_fract_x
 _atom_site_fract_y
 _atom_site_fract_z
 _atom_site_occupancy
  Ta  Ta0  1  0.37341857  0.37341857  0.87974430  1
  Ta  Ta1  1  0.62468216  0.62468216  0.12595351  1
  Ta  Ta2  1  0.20959709  0.20959709  0.37120874  1
  Ta  Ta3  1  0.79431995  0.79431995  0.61704015  1
  C  C4  1  0.50250331  0.50250331  0.49249008  1
  C  C5  1  0.99593684  0.99593684  0.01218949  1
  C  C6  1  0.08454209  0.08454209  0.74637374  1
