# generated using pymatgen
data_SmMnGe
_symmetry_space_group_name_H-M   'P 1'
_cell_length_a   4.25292617
_cell_length_b   7.30496356
_cell_length_c   7.88121118
_cell_angle_alpha   90.00000000
_cell_angle_beta   90.00000000
_cell_angle_gamma   90.00000000
_symmetry_Int_Tables_number   1
_chemical_formula_structural   SmMnGe
_chemical_formula_sum   'Sm4 Mn4 Ge4'
_cell_volume   244.84929738
_cell_formula_units_Z   4
loop_
 _symmetry_equiv_pos_site_id
 _symmetry_equiv_pos_as_xyz
  1  'x, y, z'
loop_
 _atom_site_type_symbol
 _atom_site_label
 _atom_site_symmetry_multiplicity
 _atom_site_fract_x
 _atom_site_fract_y
 _atom_site_fract_z
 _atom_site_occupancy
  Sm  Sm0  1  0.75000000  0.98710576  0.81703175  1
  Sm  Sm1  1  0.75000000  0.48710576  0.68296825  1
  Sm  Sm2  1  0.25000000  0.01289424  0.18296825  1
  Sm  Sm3  1  0.25000000  0.51289424  0.31703175  1
  Mn  Mn4  1  0.75000000  0.36713369  0.05499215  1
  Mn  Mn5  1  0.75000000  0.86713369  0.44500785  1
  Mn  Mn6  1  0.25000000  0.63286631  0.94500785  1
  Mn  Mn7  1  0.25000000  0.13286631  0.55499215  1
  Ge  Ge8  1  0.75000000  0.71873935  0.11400766  1
  Ge  Ge9  1  0.75000000  0.21873935  0.38599234  1
  Ge  Ge10  1  0.25000000  0.28126065  0.88599234  1
  Ge  Ge11  1  0.25000000  0.78126065  0.61400766  1
