# generated using pymatgen
data_U3(PS4)4
_symmetry_space_group_name_H-M   'P 1'
_cell_length_a   10.95999273
_cell_length_b   10.95999273
_cell_length_c   12.18009333
_cell_angle_alpha   63.26182384
_cell_angle_beta   63.26182384
_cell_angle_gamma   90.00000000
_symmetry_Int_Tables_number   1
_chemical_formula_structural   U3(PS4)4
_chemical_formula_sum   'U6 P8 S32'
_cell_volume   1128.71946172
_cell_formula_units_Z   2
loop_
 _symmetry_equiv_pos_site_id
 _symmetry_equiv_pos_as_xyz
  1  'x, y, z'
loop_
 _atom_site_type_symbol
 _atom_site_label
 _atom_site_symmetry_multiplicity
 _atom_site_fract_x
 _atom_site_fract_y
 _atom_site_fract_z
 _atom_site_occupancy
  U  U0  1  0.12500000  0.37500000  0.75000000  1
  U  U1  1  0.62500000  0.87500000  0.75000000  1
  U  U2  1  0.87500000  0.62500000  0.25000000  1
  U  U3  1  0.37500000  0.12500000  0.25000000  1
  U  U4  1  0.12500000  0.87500000  0.75000000  1
  U  U5  1  0.62500000  0.37500000  0.75000000  1
  P  P6  1  0.28478628  0.75244907  0.49924758  1
  P  P7  1  0.71596614  0.25244907  0.49924758  1
  P  P8  1  0.75169665  0.71521372  0.00075242  1
  P  P9  1  0.74755093  0.21521372  0.00075242  1
  P  P10  1  0.25169665  0.28403386  0.00075242  1
  P  P11  1  0.24755093  0.78403386  0.00075242  1
  P  P12  1  0.78478628  0.74830335  0.49924758  1
  P  P13  1  0.21596614  0.24830335  0.49924758  1
  S  S14  1  0.08625576  0.66747070  0.68047866  1
  S  S15  1  0.73326557  0.16747070  0.68047866  1
  S  S16  1  0.66741294  0.72269567  0.18304428  1
  S  S17  1  0.64954278  0.22269567  0.18304428  1
  S  S18  1  0.90573995  0.35045722  0.31695572  1
  S  S19  1  0.27730433  0.85045722  0.31695572  1
  S  S20  1  0.34794936  0.26673443  0.81952134  1
  S  S21  1  0.33252930  0.76673443  0.81952134  1
  S  S22  1  0.58625576  0.65205064  0.68047866  1
  S  S23  1  0.23326557  0.15205064  0.68047866  1
  S  S24  1  0.16741294  0.09426005  0.18304428  1
  S  S25  1  0.14954278  0.59426005  0.18304428  1
  S  S26  1  0.40573995  0.33258706  0.31695572  1
  S  S27  1  0.77730433  0.83258706  0.31695572  1
  S  S28  1  0.84794936  0.91374424  0.81952134  1
  S  S29  1  0.83252930  0.41374424  0.81952134  1
  S  S30  1  0.11674193  0.08684624  0.49869258  1
  S  S31  1  0.88456549  0.58684624  0.49869258  1
  S  S32  1  0.41699690  0.90274895  0.96859837  1
  S  S33  1  0.11440472  0.40274895  0.96859837  1
  S  S34  1  0.87134732  0.88559528  0.53140163  1
  S  S35  1  0.09725105  0.38559528  0.53140163  1
  S  S36  1  0.58553881  0.11543451  0.00130742  1
  S  S37  1  0.91315376  0.61543451  0.00130742  1
  S  S38  1  0.61674193  0.41446119  0.49869258  1
  S  S39  1  0.38456549  0.91446119  0.49869258  1
  S  S40  1  0.91699690  0.12865268  0.96859837  1
  S  S41  1  0.61440472  0.62865268  0.96859837  1
  S  S42  1  0.37134732  0.58300310  0.53140163  1
  S  S43  1  0.59725105  0.08300310  0.53140163  1
  S  S44  1  0.08553881  0.88325807  0.00130742  1
  S  S45  1  0.41315376  0.38325807  0.00130742  1
