# generated using pymatgen
data_SrLa3Mn4O10
_symmetry_space_group_name_H-M   'P 1'
_cell_length_a   5.59332227
_cell_length_b   9.07248497
_cell_length_c   11.63341460
_cell_angle_alpha   108.70152416
_cell_angle_beta   90.00000000
_cell_angle_gamma   72.04575195
_symmetry_Int_Tables_number   1
_chemical_formula_structural   SrLa3Mn4O10
_chemical_formula_sum   'Sr2 La6 Mn8 O20'
_cell_volume   528.73262202
_cell_formula_units_Z   2
loop_
 _symmetry_equiv_pos_site_id
 _symmetry_equiv_pos_as_xyz
  1  'x, y, z'
loop_
 _atom_site_type_symbol
 _atom_site_label
 _atom_site_symmetry_multiplicity
 _atom_site_fract_x
 _atom_site_fract_y
 _atom_site_fract_z
 _atom_site_occupancy
  Sr  Sr0  1  0.62819167  0.76868678  0.95120355  1
  Sr  Sr1  1  0.39687844  0.23131322  0.54879645  1
  La  La2  1  0.37443805  0.21734209  0.04739838  1
  La  La3  1  0.59178015  0.78265791  0.45260162  1
  La  La4  1  0.12922345  0.77961334  0.68227389  1
  La  La5  1  0.90883679  0.22038666  0.81772611  1
  La  La6  1  0.86271749  0.22623160  0.31741442  1
  La  La7  1  0.08894909  0.77376840  0.18258558  1
  Mn  Mn8  1  0.70353011  0.49831342  0.15146473  1
  Mn  Mn9  1  0.20184353  0.50168658  0.34853527  1
  Mn  Mn10  1  0.29559162  0.50160000  0.84884337  1
  Mn  Mn11  1  0.79719162  0.49840000  0.65115663  1
  Mn  Mn12  1  0.49409559  0.00000000  0.25000000  1
  Mn  Mn13  1  0.50424148  0.00000000  0.75000000  1
  Mn  Mn14  1  0.99639940  0.00686181  0.50055486  1
  Mn  Mn15  1  0.00326121  0.99313819  0.99944514  1
  O  O16  1  0.60123270  0.72114523  0.63532003  1
  O  O17  1  0.32237793  0.27885477  0.86467997  1
  O  O18  1  0.40052299  0.27750073  0.35096050  1
  O  O19  1  0.67802372  0.72249927  0.14903950  1
  O  O20  1  0.22997533  0.03626679  0.14182644  1
  O  O21  1  0.26624212  0.96373321  0.35817356  1
  O  O22  1  0.76128692  0.98100464  0.86332819  1
  O  O23  1  0.74229156  0.01899536  0.63667181  1
  O  O24  1  0.16431092  0.73101460  0.46774186  1
  O  O25  1  0.89532552  0.26898540  0.03225814  1
  O  O26  1  0.85592924  0.26927123  0.52550326  1
  O  O27  1  0.12520047  0.73072877  0.97449674  1
  O  O28  1  0.68001143  0.48280785  0.81754227  1
  O  O29  1  0.16281927  0.51719215  0.68245773  1
  O  O30  1  0.32211003  0.49608372  0.17187916  1
  O  O31  1  0.81819374  0.50391628  0.32812084  1
  O  O32  1  0.75929943  0.96380634  0.36196518  1
  O  O33  1  0.72310578  0.03619366  0.13803482  1
  O  O34  1  0.24113821  0.03229481  0.63822408  1
  O  O35  1  0.27343302  0.96770519  0.86177592  1
