# generated using pymatgen
data_SrLiAlSb2
_symmetry_space_group_name_H-M   'P 1'
_cell_length_a   4.60022872
_cell_length_b   4.60018287
_cell_length_c   7.83127752
_cell_angle_alpha   89.99999998
_cell_angle_beta   90.00005972
_cell_angle_gamma   119.99967735
_symmetry_Int_Tables_number   1
_chemical_formula_structural   SrLiAlSb2
_chemical_formula_sum   'Sr1 Li1 Al1 Sb2'
_cell_volume   143.52223199
_cell_formula_units_Z   1
loop_
 _symmetry_equiv_pos_site_id
 _symmetry_equiv_pos_as_xyz
  1  'x, y, z'
loop_
 _atom_site_type_symbol
 _atom_site_label
 _atom_site_symmetry_multiplicity
 _atom_site_fract_x
 _atom_site_fract_y
 _atom_site_fract_z
 _atom_site_occupancy
  Sr  Sr0  1  0.99998932  0.99999466  0.02622920  1
  Li  Li1  1  0.33331038  0.66665519  0.36666089  1
  Al  Al2  1  0.66666903  0.33333451  0.60331706  1
  Sb  Sb3  1  0.66665513  0.33332756  0.26691309  1
  Sb  Sb4  1  0.33337615  0.66668807  0.73687976  1
