# generated using pymatgen
data_Th2MnSi3
_symmetry_space_group_name_H-M   'P 1'
_cell_length_a   4.00532547
_cell_length_b   4.25925060
_cell_length_c   7.74034803
_cell_angle_alpha   74.03005879
_cell_angle_beta   75.00526271
_cell_angle_gamma   90.00000000
_symmetry_Int_Tables_number   1
_chemical_formula_structural   Th2MnSi3
_chemical_formula_sum   'Th2 Mn1 Si3'
_cell_volume   122.26811459
_cell_formula_units_Z   1
loop_
 _symmetry_equiv_pos_site_id
 _symmetry_equiv_pos_as_xyz
  1  'x, y, z'
loop_
 _atom_site_type_symbol
 _atom_site_label
 _atom_site_symmetry_multiplicity
 _atom_site_fract_x
 _atom_site_fract_y
 _atom_site_fract_z
 _atom_site_occupancy
  Th  Th0  1  0.74806570  0.24806570  0.50386861  1
  Th  Th1  1  0.99823551  0.99823551  0.00352898  1
  Mn  Mn2  1  0.33676663  0.83676663  0.32646674  1
  Si  Si3  1  0.41264100  0.41264100  0.17471799  1
  Si  Si4  1  0.17343876  0.67343876  0.65312249  1
  Si  Si5  1  0.58085240  0.58085240  0.83829519  1
