# generated using pymatgen
data_Tm(VFe5)2
_symmetry_space_group_name_H-M   'P 1'
_cell_length_a   4.69147693
_cell_length_b   6.41300721
_cell_length_c   6.41300721
_cell_angle_alpha   97.68154768
_cell_angle_beta   111.45548062
_cell_angle_gamma   68.54451938
_symmetry_Int_Tables_number   1
_chemical_formula_structural   Tm(VFe5)2
_chemical_formula_sum   'Tm1 V2 Fe10'
_cell_volume   167.12999051
_cell_formula_units_Z   1
loop_
 _symmetry_equiv_pos_site_id
 _symmetry_equiv_pos_as_xyz
  1  'x, y, z'
loop_
 _atom_site_type_symbol
 _atom_site_label
 _atom_site_symmetry_multiplicity
 _atom_site_fract_x
 _atom_site_fract_y
 _atom_site_fract_z
 _atom_site_occupancy
  Tm  Tm0  1  -0.00000000  -0.00000000  -0.00000000  1
  V  V1  1  -0.00000000  0.35735760  0.35735760  1
  V  V2  1  0.00000000  0.64264240  0.64264240  1
  Fe  Fe3  1  0.72667945  0.77332055  0.22667945  1
  Fe  Fe4  1  0.27332055  0.22667945  0.77332055  1
  Fe  Fe5  1  0.50000000  0.77923141  0.77923141  1
  Fe  Fe6  1  0.50000000  0.22076859  0.22076859  1
  Fe  Fe7  1  0.50000000  -0.00000000  0.50000000  1
  Fe  Fe8  1  -0.00000000  -0.00000000  0.50000000  1
  Fe  Fe9  1  0.50000000  0.50000000  -0.00000000  1
  Fe  Fe10  1  -0.00000000  0.50000000  -0.00000000  1
  Fe  Fe11  1  0.64046005  0.35953995  0.64046005  1
  Fe  Fe12  1  0.35953995  0.64046005  0.35953995  1
