# generated using pymatgen
data_Ta8Ni(CS2)4
_symmetry_space_group_name_H-M   'P 1'
_cell_length_a   6.58292071
_cell_length_b   9.36736433
_cell_length_c   6.58292071
_cell_angle_alpha   110.57145603
_cell_angle_beta   120.00000510
_cell_angle_gamma   69.42854397
_symmetry_Int_Tables_number   1
_chemical_formula_structural   Ta8Ni(CS2)4
_chemical_formula_sum   'Ta8 Ni1 C4 S8'
_cell_volume   321.31237550
_cell_formula_units_Z   1
loop_
 _symmetry_equiv_pos_site_id
 _symmetry_equiv_pos_as_xyz
  1  'x, y, z'
loop_
 _atom_site_type_symbol
 _atom_site_label
 _atom_site_symmetry_multiplicity
 _atom_site_fract_x
 _atom_site_fract_y
 _atom_site_fract_z
 _atom_site_occupancy
  Ta  Ta0  1  0.11933503  0.63657427  0.37795465  1
  Ta  Ta1  1  0.12156062  0.63531813  0.87843938  1
  Ta  Ta2  1  0.62204535  0.63657427  0.37795465  1
  Ta  Ta3  1  0.62204535  0.63657427  0.88066497  1
  Ta  Ta4  1  0.88066497  0.36342573  0.62204535  1
  Ta  Ta5  1  0.87843938  0.36468187  0.12156062  1
  Ta  Ta6  1  0.37795465  0.36342573  0.62204535  1
  Ta  Ta7  1  0.37795465  0.36342573  0.11933503  1
  Ni  Ni8  1  0.00000000  0.00000000  0.00000000  1
  C  C9  1  0.00000000  0.50000000  0.50000000  1
  C  C10  1  0.00000000  0.50000000  0.00000000  1
  C  C11  1  0.50000000  0.50000000  0.50000000  1
  C  C12  1  0.50000000  0.50000000  0.00000000  1
  S  S13  1  0.27766032  0.17085449  0.22425740  1
  S  S14  1  0.27530328  0.17409016  0.72469672  1
  S  S15  1  0.77574260  0.17085449  0.22425740  1
  S  S16  1  0.77574260  0.17085449  0.72233968  1
  S  S17  1  0.72233968  0.82914551  0.77574260  1
  S  S18  1  0.72469672  0.82590984  0.27530328  1
  S  S19  1  0.22425740  0.82914551  0.77574260  1
  S  S20  1  0.22425740  0.82914551  0.27766032  1
