# generated using pymatgen
data_TaTiGaO6
_symmetry_space_group_name_H-M   'P 1'
_cell_length_a   4.67834612
_cell_length_b   4.67834612
_cell_length_c   9.08080338
_cell_angle_alpha   90.00000000
_cell_angle_beta   90.00000000
_cell_angle_gamma   90.00000000
_symmetry_Int_Tables_number   1
_chemical_formula_structural   TaTiGaO6
_chemical_formula_sum   'Ta2 Ti2 Ga2 O12'
_cell_volume   198.75083908
_cell_formula_units_Z   2
loop_
 _symmetry_equiv_pos_site_id
 _symmetry_equiv_pos_as_xyz
  1  'x, y, z'
loop_
 _atom_site_type_symbol
 _atom_site_label
 _atom_site_symmetry_multiplicity
 _atom_site_fract_x
 _atom_site_fract_y
 _atom_site_fract_z
 _atom_site_occupancy
  Ta  Ta0  1  0.50000000  0.50000000  0.83343841  1
  Ta  Ta1  1  0.00000000  0.00000000  0.33343841  1
  Ti  Ti2  1  0.50000000  0.50000000  0.49936688  1
  Ti  Ti3  1  0.00000000  0.00000000  0.99936688  1
  Ga  Ga4  1  0.50000000  0.50000000  0.16734209  1
  Ga  Ga5  1  0.00000000  0.00000000  0.66734209  1
  O  O6  1  0.19481624  0.80518376  0.16577725  1
  O  O7  1  0.19931239  0.80068761  0.49899556  1
  O  O8  1  0.19540159  0.80459841  0.83515349  1
  O  O9  1  0.80518376  0.19481624  0.16577725  1
  O  O10  1  0.80068761  0.19931239  0.49899556  1
  O  O11  1  0.80459841  0.19540159  0.83515349  1
  O  O12  1  0.30068761  0.30068761  0.99899556  1
  O  O13  1  0.30459841  0.30459841  0.33515349  1
  O  O14  1  0.30518376  0.30518376  0.66577725  1
  O  O15  1  0.69931239  0.69931239  0.99899556  1
  O  O16  1  0.69540159  0.69540159  0.33515349  1
  O  O17  1  0.69481624  0.69481624  0.66577725  1
