# generated using pymatgen
data_SrCa3Mn2O8
_symmetry_space_group_name_H-M   'P 1'
_cell_length_a   3.78656181
_cell_length_b   3.78656181
_cell_length_c   12.05861860
_cell_angle_alpha   90.00000000
_cell_angle_beta   90.00000000
_cell_angle_gamma   90.00000000
_symmetry_Int_Tables_number   1
_chemical_formula_structural   SrCa3Mn2O8
_chemical_formula_sum   'Sr1 Ca3 Mn2 O8'
_cell_volume   172.89708053
_cell_formula_units_Z   1
loop_
 _symmetry_equiv_pos_site_id
 _symmetry_equiv_pos_as_xyz
  1  'x, y, z'
loop_
 _atom_site_type_symbol
 _atom_site_label
 _atom_site_symmetry_multiplicity
 _atom_site_fract_x
 _atom_site_fract_y
 _atom_site_fract_z
 _atom_site_occupancy
  Sr  Sr0  1  0.50000000  0.50000000  0.14566594  1
  Ca  Ca1  1  -0.00000000  0.00000000  0.64543084  1
  Ca  Ca2  1  0.00000000  0.00000000  0.35996449  1
  Ca  Ca3  1  0.50000000  0.50000000  0.85398296  1
  Mn  Mn4  1  0.00000000  -0.00000000  0.99556548  1
  Mn  Mn5  1  0.50000000  0.50000000  0.50379779  1
  O  O6  1  -0.00000000  0.50000000  0.50254178  1
  O  O7  1  0.50000000  -0.00000000  0.99281203  1
  O  O8  1  0.50000000  0.00000000  0.50254178  1
  O  O9  1  0.00000000  0.50000000  0.99281203  1
  O  O10  1  0.50000000  0.50000000  0.34393539  1
  O  O11  1  0.00000000  -0.00000000  0.83472842  1
  O  O12  1  -0.00000000  -0.00000000  0.16153269  1
  O  O13  1  0.50000000  0.50000000  0.66468836  1
