# generated using pymatgen
data_Sr2La2MnZnO8
_symmetry_space_group_name_H-M   'P 1'
_cell_length_a   5.52195828
_cell_length_b   5.55938224
_cell_length_c   12.56806330
_cell_angle_alpha   90.00000000
_cell_angle_beta   90.00000000
_cell_angle_gamma   90.00000000
_symmetry_Int_Tables_number   1
_chemical_formula_structural   Sr2La2MnZnO8
_chemical_formula_sum   'Sr4 La4 Mn2 Zn2 O16'
_cell_volume   385.82291315
_cell_formula_units_Z   2
loop_
 _symmetry_equiv_pos_site_id
 _symmetry_equiv_pos_as_xyz
  1  'x, y, z'
loop_
 _atom_site_type_symbol
 _atom_site_label
 _atom_site_symmetry_multiplicity
 _atom_site_fract_x
 _atom_site_fract_y
 _atom_site_fract_z
 _atom_site_occupancy
  Sr  Sr0  1  0.00000000  0.00000000  0.35611548  1
  Sr  Sr1  1  0.00000000  0.50000000  0.14271383  1
  Sr  Sr2  1  0.50000000  0.00000000  0.85586406  1
  Sr  Sr3  1  0.50000000  0.50000000  0.64284870  1
  La  La4  1  0.00000000  -0.00000000  0.63701890  1
  La  La5  1  0.00000000  0.50000000  0.86143011  1
  La  La6  1  0.50000000  0.00000000  0.13692718  1
  La  La7  1  0.50000000  0.50000000  0.36136084  1
  Mn  Mn8  1  0.00000000  0.00000000  0.00234996  1
  Mn  Mn9  1  0.50000000  -0.00000000  0.50218552  1
  Zn  Zn10  1  0.50000000  0.50000000  0.99741051  1
  Zn  Zn11  1  0.00000000  0.50000000  0.49717059  1
  O  O12  1  0.50000000  0.50000000  0.17869114  1
  O  O13  1  0.50000000  0.50000000  0.83238130  1
  O  O14  1  0.00000000  -0.00000000  0.15829726  1
  O  O15  1  0.00000000  0.00000000  0.83001751  1
  O  O16  1  0.00000000  0.50000000  0.33222756  1
  O  O17  1  0.00000000  0.50000000  0.67877555  1
  O  O18  1  0.50000000  -0.00000000  0.65799199  1
  O  O19  1  0.50000000  0.00000000  0.33062934  1
  O  O20  1  0.25664569  0.76140724  0.50089757  1
  O  O21  1  0.74335431  0.23859276  0.50089757  1
  O  O22  1  0.25664569  0.23859276  0.50089757  1
  O  O23  1  0.74335431  0.76140724  0.50089757  1
  O  O24  1  0.24341110  0.76169917  0.00100060  1
  O  O25  1  0.75658890  0.23830083  0.00100060  1
  O  O26  1  0.24341110  0.23830083  0.00100060  1
  O  O27  1  0.75658890  0.76169917  0.00100060  1
