# generated using pymatgen
data_Sm2Ge3Pt
_symmetry_space_group_name_H-M   'P 1'
_cell_length_a   4.12387491
_cell_length_b   4.39257221
_cell_length_c   7.28197322
_cell_angle_alpha   90.00942179
_cell_angle_beta   90.00000000
_cell_angle_gamma   90.00000000
_symmetry_Int_Tables_number   1
_chemical_formula_structural   Sm2Ge3Pt
_chemical_formula_sum   'Sm2 Ge3 Pt1'
_cell_volume   131.90870752
_cell_formula_units_Z   1
loop_
 _symmetry_equiv_pos_site_id
 _symmetry_equiv_pos_as_xyz
  1  'x, y, z'
loop_
 _atom_site_type_symbol
 _atom_site_label
 _atom_site_symmetry_multiplicity
 _atom_site_fract_x
 _atom_site_fract_y
 _atom_site_fract_z
 _atom_site_occupancy
  Sm  Sm0  1  0.00000000  0.99996126  0.00068975  1
  Sm  Sm1  1  0.00000000  0.49992456  0.49894091  1
  Ge  Ge2  1  0.50000000  0.50002488  0.83413156  1
  Ge  Ge3  1  0.50000000  0.49991719  0.17646567  1
  Ge  Ge4  1  0.50000000  0.99998007  0.66235521  1
  Pt  Pt5  1  0.50000000  -0.00000796  0.32741691  1
