# generated using pymatgen
data_Sr5FeMo4O15
_symmetry_space_group_name_H-M   'P 1'
_cell_length_a   5.76212735
_cell_length_b   7.00508151
_cell_length_c   9.07108972
_cell_angle_alpha   104.95339662
_cell_angle_beta   108.51841503
_cell_angle_gamma   90.00000000
_symmetry_Int_Tables_number   1
_chemical_formula_structural   Sr5FeMo4O15
_chemical_formula_sum   'Sr5 Fe1 Mo4 O15'
_cell_volume   334.08645013
_cell_formula_units_Z   1
loop_
 _symmetry_equiv_pos_site_id
 _symmetry_equiv_pos_as_xyz
  1  'x, y, z'
loop_
 _atom_site_type_symbol
 _atom_site_label
 _atom_site_symmetry_multiplicity
 _atom_site_fract_x
 _atom_site_fract_y
 _atom_site_fract_z
 _atom_site_occupancy
  Sr  Sr0  1  0.80820328  0.71484913  0.61640656  1
  Sr  Sr1  1  0.59418763  0.90845932  0.18837525  1
  Sr  Sr2  1  0.19179672  0.28515087  0.38359344  1
  Sr  Sr3  1  0.40581237  0.09154068  0.81162475  1
  Sr  Sr4  1  0.00000000  0.50000000  -0.00000000  1
  Fe  Fe5  1  0.00000000  0.00000000  -0.00000000  1
  Mo  Mo6  1  0.59955237  0.40043420  0.19910475  1
  Mo  Mo7  1  0.19856615  0.79817776  0.39713229  1
  Mo  Mo8  1  0.80143385  0.20182224  0.60286771  1
  Mo  Mo9  1  0.40044763  0.59956580  0.80089525  1
  O  O10  1  0.70186288  0.79672463  0.90064109  1
  O  O11  1  0.50000000  0.00000000  0.50000000  1
  O  O12  1  0.09758548  0.39894658  0.70229861  1
  O  O13  1  0.29813712  0.20327537  0.09935891  1
  O  O14  1  0.90241452  0.60105342  0.29770139  1
  O  O15  1  0.30327734  0.69637441  0.60655469  1
  O  O16  1  0.09815262  0.90407194  0.19630523  1
  O  O17  1  0.69672266  0.30362559  0.39344531  1
  O  O18  1  0.90184738  0.09592806  0.80369477  1
  O  O19  1  0.50000000  0.50000000  -0.00000000  1
  O  O20  1  0.60471314  0.39894658  0.70229861  1
  O  O21  1  0.39528686  0.60105342  0.29770139  1
  O  O22  1  0.00000000  0.00000000  0.50000000  1
  O  O23  1  0.19877821  0.79672463  0.90064109  1
  O  O24  1  0.80122179  0.20327537  0.09935891  1
