# generated using pymatgen
data_Sr2CeEuCu2RuO10
_symmetry_space_group_name_H-M   'P 1'
_cell_length_a   3.89765001
_cell_length_b   3.89765001
_cell_length_c   14.73111260
_cell_angle_alpha   82.36008071
_cell_angle_beta   82.41499782
_cell_angle_gamma   89.92255709
_symmetry_Int_Tables_number   1
_chemical_formula_structural   Sr2CeEuCu2RuO10
_chemical_formula_sum   'Sr2 Ce1 Eu1 Cu2 Ru1 O10'
_cell_volume   219.83309635
_cell_formula_units_Z   1
loop_
 _symmetry_equiv_pos_site_id
 _symmetry_equiv_pos_as_xyz
  1  'x, y, z'
loop_
 _atom_site_type_symbol
 _atom_site_label
 _atom_site_symmetry_multiplicity
 _atom_site_fract_x
 _atom_site_fract_y
 _atom_site_fract_z
 _atom_site_occupancy
  Sr  Sr0  1  0.57521216  0.58359156  0.84119628  1
  Sr  Sr1  1  0.41717290  0.43032709  0.15250002  1
  Ce  Ce2  1  0.29336622  0.29447347  0.41216031  1
  Eu  Eu3  1  0.70413534  0.70507766  0.59078700  1
  Cu  Cu4  1  0.14113750  0.14498271  0.71387979  1
  Cu  Cu5  1  0.85485777  0.85906896  0.28607327  1
  Ru  Ru6  1  0.97277398  0.02690831  0.00031772  1
  O  O7  1  0.06276454  0.07113694  0.86609853  1
  O  O8  1  0.92607411  0.93751005  0.13641584  1
  O  O9  1  0.64588345  0.14891899  0.70451822  1
  O  O10  1  0.14656279  0.64959833  0.70451822  1
  O  O11  1  0.34820600  0.85156656  0.29953525  1
  O  O12  1  0.84889819  0.35225874  0.29953525  1
  O  O13  1  0.75271867  0.25318879  0.49410475  1
  O  O14  1  0.25270646  0.75317658  0.49410475  1
  O  O15  1  0.47441259  0.04375526  0.00212741  1
  O  O16  1  0.95411733  0.52346000  0.00212741  1
