# generated using pymatgen
data_Sr2GdCu2IrO8
_symmetry_space_group_name_H-M   'P 1'
_cell_length_a   3.87656779
_cell_length_b   3.87656779
_cell_length_c   11.86502720
_cell_angle_alpha   90.02526866
_cell_angle_beta   89.97473134
_cell_angle_gamma   90.13968916
_symmetry_Int_Tables_number   1
_chemical_formula_structural   Sr2GdCu2IrO8
_chemical_formula_sum   'Sr2 Gd1 Cu2 Ir1 O8'
_cell_volume   178.30442862
_cell_formula_units_Z   1
loop_
 _symmetry_equiv_pos_site_id
 _symmetry_equiv_pos_as_xyz
  1  'x, y, z'
loop_
 _atom_site_type_symbol
 _atom_site_label
 _atom_site_symmetry_multiplicity
 _atom_site_fract_x
 _atom_site_fract_y
 _atom_site_fract_z
 _atom_site_occupancy
  Sr  Sr0  1  0.50666777  0.50676824  0.69474033  1
  Sr  Sr1  1  0.50676824  0.50666777  0.30525967  1
  Gd  Gd2  1  0.50068788  0.50068788  -0.00000000  1
  Cu  Cu3  1  0.00156470  0.00084770  0.85902895  1
  Cu  Cu4  1  0.00084770  0.00156470  0.14097105  1
  Ir  Ir5  1  0.98951724  0.98951724  0.50000000  1
  O  O6  1  0.50110651  0.00161030  0.87433484  1
  O  O7  1  0.99950771  0.50083722  0.87491325  1
  O  O8  1  0.50083722  0.99950771  0.12508675  1
  O  O9  1  0.00161030  0.50110651  0.12566516  1
  O  O10  1  0.99472778  0.99734929  0.67110320  1
  O  O11  1  0.99734929  0.99472778  0.32889680  1
  O  O12  1  0.48531538  0.95349228  0.50187844  1
  O  O13  1  0.95349228  0.48531538  0.49812156  1
