# generated using pymatgen
data_Si3Mo3W2
_symmetry_space_group_name_H-M   'P 1'
_cell_length_a   4.92780220
_cell_length_b   7.29171681
_cell_length_c   7.29171681
_cell_angle_alpha   96.75469089
_cell_angle_beta   109.74923264
_cell_angle_gamma   70.25076736
_symmetry_Int_Tables_number   1
_chemical_formula_structural   Si3Mo3W2
_chemical_formula_sum   'Si6 Mo6 W4'
_cell_volume   232.08948213
_cell_formula_units_Z   2
loop_
 _symmetry_equiv_pos_site_id
 _symmetry_equiv_pos_as_xyz
  1  'x, y, z'
loop_
 _atom_site_type_symbol
 _atom_site_label
 _atom_site_symmetry_multiplicity
 _atom_site_fract_x
 _atom_site_fract_y
 _atom_site_fract_z
 _atom_site_occupancy
  Si  Si0  1  0.25000000  -0.00000000  0.00000000  1
  Si  Si1  1  0.75000000  -0.00000000  0.00000000  1
  Si  Si2  1  0.33185346  0.50194241  0.16564934  1
  Si  Si3  1  0.66814654  0.49805759  0.83435066  1
  Si  Si4  1  0.83185346  0.83435066  0.49805759  1
  Si  Si5  1  0.16814654  0.16564934  0.50194241  1
  Mo  Mo6  1  0.72441033  0.69767697  0.14649763  1
  Mo  Mo7  1  0.27558967  0.30232303  0.85350237  1
  Mo  Mo8  1  0.77558967  0.14649763  0.69767697  1
  Mo  Mo9  1  0.22441033  0.85350237  0.30232303  1
  Mo  Mo10  1  0.25000000  0.50000000  0.50000000  1
  Mo  Mo11  1  0.75000000  0.50000000  0.50000000  1
  W  W12  1  0.42403598  0.85061088  0.69868283  1
  W  W13  1  0.57596402  0.14938912  0.30131717  1
  W  W14  1  0.92403598  0.30131717  0.14938912  1
  W  W15  1  0.07596402  0.69868283  0.85061088  1
