# generated using pymatgen
data_Pr3(Al7Cu2)4
_symmetry_space_group_name_H-M   'P 1'
_cell_length_a   5.17435377
_cell_length_b   7.11004722
_cell_length_c   18.92155617
_cell_angle_alpha   92.53038066
_cell_angle_beta   83.03112995
_cell_angle_gamma   111.33843786
_symmetry_Int_Tables_number   1
_chemical_formula_structural   Pr3(Al7Cu2)4
_chemical_formula_sum   'Pr3 Al28 Cu8'
_cell_volume   643.61087129
_cell_formula_units_Z   1
loop_
 _symmetry_equiv_pos_site_id
 _symmetry_equiv_pos_as_xyz
  1  'x, y, z'
loop_
 _atom_site_type_symbol
 _atom_site_label
 _atom_site_symmetry_multiplicity
 _atom_site_fract_x
 _atom_site_fract_y
 _atom_site_fract_z
 _atom_site_occupancy
  Pr  Pr0  1  0.99657124  0.00000000  0.00100676  1
  Pr  Pr1  1  0.33676176  -0.00000000  0.33232624  1
  Pr  Pr2  1  0.66666700  0.00000000  0.66666700  1
  Al  Al3  1  0.56940235  0.36123728  0.21801939  1
  Al  Al4  1  0.90128048  0.35788551  0.55060293  1
  Al  Al5  1  0.23412559  0.35706096  0.88357082  1
  Al  Al6  1  0.76393165  0.63876272  0.11531461  1
  Al  Al7  1  0.09920741  0.64293904  0.44976218  1
  Al  Al8  1  0.43205252  0.64211449  0.78273007  1
  Al  Al9  1  0.12516893  0.36123728  0.11531461  1
  Al  Al10  1  0.45626837  0.35706096  0.44976218  1
  Al  Al11  1  0.78993802  0.35788551  0.78273007  1
  Al  Al12  1  0.20816507  0.63876272  0.21801939  1
  Al  Al13  1  0.54339498  0.64211449  0.55060293  1
  Al  Al14  1  0.87706463  0.64293904  0.88357082  1
  Al  Al15  1  0.34722375  0.76732657  0.07129362  1
  Al  Al16  1  0.69007694  0.77480757  0.40718456  1
  Al  Al17  1  0.02319752  0.77373209  0.73951420  1
  Al  Al18  1  0.98610925  0.23267343  0.26203938  1
  Al  Al19  1  0.31013648  0.22626791  0.59381980  1
  Al  Al20  1  0.64325606  0.22519243  0.92614844  1
  Al  Al21  1  0.75343582  0.76732657  0.26203938  1
  Al  Al22  1  0.08386857  0.77373209  0.59381980  1
  Al  Al23  1  0.41806363  0.77480757  0.92614844  1
  Al  Al24  1  0.57989718  0.23267343  0.07129362  1
  Al  Al25  1  0.91526937  0.22519243  0.40718456  1
  Al  Al26  1  0.24946543  0.22626791  0.73951420  1
  Al  Al27  1  0.16666700  0.00000000  0.16666700  1
  Al  Al28  1  0.49924827  -0.00000000  0.50020432  1
  Al  Al29  1  0.83408473  0.00000000  0.83312868  1
  Al  Al30  1  0.66666700  0.00000000  0.16666700  1
  Cu  Cu31  1  0.00054148  -0.00000000  0.50020990  1
  Cu  Cu32  1  0.33279152  0.00000000  0.83312310  1
  Cu  Cu33  1  0.33342660  0.49893816  0.33478617  1
  Cu  Cu34  1  0.66666700  0.50000000  0.66666700  1
  Cu  Cu35  1  0.99990640  0.50106184  0.99854683  1
  Cu  Cu36  1  0.83448844  0.50106184  0.33478617  1
  Cu  Cu37  1  0.16666700  0.50000000  0.66666700  1
  Cu  Cu38  1  0.49884456  0.49893816  0.99854683  1
