# generated using pymatgen
data_Re3PbS6
_symmetry_space_group_name_H-M   'P 1'
_cell_length_a   9.45770234
_cell_length_b   9.45770234
_cell_length_c   11.87780672
_cell_angle_alpha   89.10930839
_cell_angle_beta   89.10930839
_cell_angle_gamma   61.36871285
_symmetry_Int_Tables_number   1
_chemical_formula_structural   Re3PbS6
_chemical_formula_sum   'Re12 Pb4 S24'
_cell_volume   932.38072747
_cell_formula_units_Z   4
loop_
 _symmetry_equiv_pos_site_id
 _symmetry_equiv_pos_as_xyz
  1  'x, y, z'
loop_
 _atom_site_type_symbol
 _atom_site_label
 _atom_site_symmetry_multiplicity
 _atom_site_fract_x
 _atom_site_fract_y
 _atom_site_fract_z
 _atom_site_occupancy
  Re  Re0  1  0.11266933  0.47801436  0.13331777  1
  Re  Re1  1  0.52227522  0.88420511  0.36905628  1
  Re  Re2  1  0.88420511  0.52227522  0.86905628  1
  Re  Re3  1  0.47801436  0.11266933  0.63331777  1
  Re  Re4  1  0.01002264  0.30151582  0.03052045  1
  Re  Re5  1  0.69820610  0.98645945  0.47261122  1
  Re  Re6  1  0.98645945  0.69820610  0.97261122  1
  Re  Re7  1  0.30151582  0.01002264  0.53052045  1
  Re  Re8  1  0.80495941  0.59965456  0.08443376  1
  Re  Re9  1  0.39870369  0.19287157  0.41998840  1
  Re  Re10  1  0.19287157  0.39870369  0.91998840  1
  Re  Re11  1  0.59965456  0.80495941  0.58443376  1
  Pb  Pb12  1  0.11246136  0.64543915  0.50036536  1
  Pb  Pb13  1  0.64543915  0.11246136  0.00036536  1
  Pb  Pb14  1  0.25617159  0.76904986  0.22399178  1
  Pb  Pb15  1  0.76904986  0.25617159  0.72399178  1
  S  S16  1  0.26967861  0.57576581  0.02063741  1
  S  S17  1  0.42486911  0.72764461  0.48195468  1
  S  S18  1  0.72764461  0.42486911  0.98195468  1
  S  S19  1  0.57576581  0.26967861  0.52063741  1
  S  S20  1  0.04798459  0.01153719  0.57776777  1
  S  S21  1  0.97429361  0.95906560  0.92536468  1
  S  S22  1  0.95906560  0.97429361  0.42536468  1
  S  S23  1  0.01153719  0.04798459  0.07776777  1
  S  S24  1  0.26393966  0.45628313  0.31101683  1
  S  S25  1  0.55015683  0.73721287  0.19415587  1
  S  S26  1  0.73721287  0.55015683  0.69415587  1
  S  S27  1  0.45628313  0.26393966  0.81101683  1
  S  S28  1  0.08054925  0.24463858  0.83483240  1
  S  S29  1  0.75492658  0.91521716  0.66911669  1
  S  S30  1  0.91521716  0.75492658  0.16911669  1
  S  S31  1  0.24463858  0.08054925  0.33483240  1
  S  S32  1  0.79530641  0.70058074  0.43185191  1
  S  S33  1  0.29087959  0.20503410  0.07585230  1
  S  S34  1  0.20503410  0.29087959  0.57585230  1
  S  S35  1  0.70058074  0.79530641  0.93185191  1
  S  S36  1  0.06253059  0.60838777  0.78108963  1
  S  S37  1  0.38953500  0.93730340  0.72307481  1
  S  S38  1  0.93730340  0.38953500  0.22307481  1
  S  S39  1  0.60838777  0.06253059  0.28108963  1
