# generated using pymatgen
data_SbPb3S4
_symmetry_space_group_name_H-M   'P 1'
_cell_length_a   4.27338939
_cell_length_b   4.21154113
_cell_length_c   17.55114272
_cell_angle_alpha   93.55528028
_cell_angle_beta   89.97993463
_cell_angle_gamma   89.76666152
_symmetry_Int_Tables_number   1
_chemical_formula_structural   SbPb3S4
_chemical_formula_sum   'Sb1 Pb3 S4'
_cell_volume   315.26705984
_cell_formula_units_Z   1
loop_
 _symmetry_equiv_pos_site_id
 _symmetry_equiv_pos_as_xyz
  1  'x, y, z'
loop_
 _atom_site_type_symbol
 _atom_site_label
 _atom_site_symmetry_multiplicity
 _atom_site_fract_x
 _atom_site_fract_y
 _atom_site_fract_z
 _atom_site_occupancy
  Sb  Sb0  1  0.24781909  0.64834141  0.08742755  1
  Pb  Pb1  1  0.25123746  0.83980372  0.74929190  1
  Pb  Pb2  1  0.74959697  0.15642407  0.25172726  1
  Pb  Pb3  1  0.75055161  0.37575430  0.91656854  1
  S  S4  1  0.24852312  0.90411753  0.90512786  1
  S  S5  1  0.75323451  0.07333292  0.09770064  1
  S  S6  1  0.74891025  0.35596742  0.75988016  1
  S  S7  1  0.25012698  0.64625862  0.23227609  1
