# generated using pymatgen
data_ScMn2O4
_symmetry_space_group_name_H-M   'P 1'
_cell_length_a   6.22571102
_cell_length_b   6.05408863
_cell_length_c   6.30644092
_cell_angle_alpha   61.31509353
_cell_angle_beta   60.42256951
_cell_angle_gamma   90.00000000
_symmetry_Int_Tables_number   1
_chemical_formula_structural   ScMn2O4
_chemical_formula_sum   'Sc2 Mn4 O8'
_cell_volume   172.38572877
_cell_formula_units_Z   2
loop_
 _symmetry_equiv_pos_site_id
 _symmetry_equiv_pos_as_xyz
  1  'x, y, z'
loop_
 _atom_site_type_symbol
 _atom_site_label
 _atom_site_symmetry_multiplicity
 _atom_site_fract_x
 _atom_site_fract_y
 _atom_site_fract_z
 _atom_site_occupancy
  Sc  Sc0  1  0.62500000  0.37500000  0.25000000  1
  Sc  Sc1  1  0.12500000  0.37500000  0.25000000  1
  Mn  Mn2  1  0.24672490  0.74672490  0.50655021  1
  Mn  Mn3  1  0.00327510  0.00327510  0.99344979  1
  Mn  Mn4  1  0.62500000  0.87500000  0.75000000  1
  Mn  Mn5  1  0.62500000  0.37500000  0.75000000  1
  O  O6  1  0.41917474  0.13512661  0.72974677  1
  O  O7  1  0.85107848  0.13512661  0.72974677  1
  O  O8  1  0.39892152  0.61487339  0.77025323  1
  O  O9  1  0.83082526  0.61487339  0.77025323  1
  O  O10  1  0.87044805  0.14091165  0.25910390  1
  O  O11  1  0.87044805  0.59998445  0.25910390  1
  O  O12  1  0.37955195  0.15001555  0.24089610  1
  O  O13  1  0.37955195  0.60908835  0.24089610  1
