# generated using pymatgen
data_ScMn3(BiO3)4
_symmetry_space_group_name_H-M   'P 1'
_cell_length_a   5.66044201
_cell_length_b   5.66044201
_cell_length_c   9.95469204
_cell_angle_alpha   73.63899863
_cell_angle_beta   73.63899863
_cell_angle_gamma   61.54654366
_symmetry_Int_Tables_number   1
_chemical_formula_structural   ScMn3(BiO3)4
_chemical_formula_sum   'Sc1 Mn3 Bi4 O12'
_cell_volume   264.92684976
_cell_formula_units_Z   1
loop_
 _symmetry_equiv_pos_site_id
 _symmetry_equiv_pos_as_xyz
  1  'x, y, z'
loop_
 _atom_site_type_symbol
 _atom_site_label
 _atom_site_symmetry_multiplicity
 _atom_site_fract_x
 _atom_site_fract_y
 _atom_site_fract_z
 _atom_site_occupancy
  Sc  Sc0  1  0.76885530  0.23114470  0.75000000  1
  Mn  Mn1  1  0.21717499  0.78282501  0.25000000  1
  Mn  Mn2  1  0.99617048  0.49586243  0.99908439  1
  Mn  Mn3  1  0.50413757  0.00382952  0.50091561  1
  Bi  Bi4  1  0.93158790  0.35168797  0.37031655  1
  Bi  Bi5  1  0.64831203  0.06841210  0.12968345  1
  Bi  Bi6  1  0.07793583  0.65875488  0.62167463  1
  Bi  Bi7  1  0.34124512  0.92206417  0.87832537  1
  O  O8  1  0.58194436  0.70510376  0.13330313  1
  O  O9  1  0.29489624  0.41805564  0.36669687  1
  O  O10  1  0.40252219  0.28182145  0.87744771  1
  O  O11  1  0.71817855  0.59747781  0.62255229  1
  O  O12  1  0.81128830  0.89371710  0.33703599  1
  O  O13  1  0.10628290  0.18871170  0.16296401  1
  O  O14  1  0.20670636  0.10442135  0.66334380  1
  O  O15  1  0.89557865  0.79329364  0.83665620  1
  O  O16  1  0.91056164  0.26092160  0.92013417  1
  O  O17  1  0.73907840  0.08943836  0.57986583  1
  O  O18  1  0.07319200  0.72564881  0.08256671  1
  O  O19  1  0.27435119  0.92680800  0.41743329  1
