# generated using pymatgen
data_RbTa2O6
_symmetry_space_group_name_H-M   'P 1'
_cell_length_a   7.51146401
_cell_length_b   7.52456032
_cell_length_c   7.50217392
_cell_angle_alpha   90.00000000
_cell_angle_beta   60.04090422
_cell_angle_gamma   120.05769162
_symmetry_Int_Tables_number   1
_chemical_formula_structural   RbTa2O6
_chemical_formula_sum   'Rb2 Ta4 O12'
_cell_volume   299.75559068
_cell_formula_units_Z   2
loop_
 _symmetry_equiv_pos_site_id
 _symmetry_equiv_pos_as_xyz
  1  'x, y, z'
loop_
 _atom_site_type_symbol
 _atom_site_label
 _atom_site_symmetry_multiplicity
 _atom_site_fract_x
 _atom_site_fract_y
 _atom_site_fract_z
 _atom_site_occupancy
  Rb  Rb0  1  0.69307795  0.28310831  0.40346102  1
  Rb  Rb1  1  0.30692205  0.59003036  0.59653898  1
  Ta  Ta2  1  0.50059576  0.49695302  0.99970212  1
  Ta  Ta3  1  0.49940424  0.99635726  0.00029788  1
  Ta  Ta4  1  0.00000000  0.99656244  0.50000000  1
  Ta  Ta5  1  0.00000000  0.99656244  0.00000000  1
  O  O6  1  0.87539994  0.94066904  0.31230003  1
  O  O7  1  0.62437270  0.31087458  0.93781365  1
  O  O8  1  0.25379586  0.94048094  0.93377704  1
  O  O9  1  0.24985483  0.31102230  0.31246936  1
  O  O10  1  0.24985483  0.31102230  0.93767581  1
  O  O11  1  0.25379586  0.94048094  0.31242711  1
  O  O12  1  0.12460006  0.06526910  0.68769997  1
  O  O13  1  0.37562730  0.68650188  0.06218635  1
  O  O14  1  0.75014517  0.06116747  0.06232419  1
  O  O15  1  0.74620414  0.68668508  0.68757289  1
  O  O16  1  0.74620414  0.68668508  0.06622296  1
  O  O17  1  0.75014517  0.06116747  0.68753064  1
