# generated using pymatgen
data_RbTi3AlO8
_symmetry_space_group_name_H-M   'P 1'
_cell_length_a   2.98616159
_cell_length_b   7.30916899
_cell_length_c   7.33136450
_cell_angle_alpha   92.31257343
_cell_angle_beta   101.61348616
_cell_angle_gamma   78.14679649
_symmetry_Int_Tables_number   1
_chemical_formula_structural   RbTi3AlO8
_chemical_formula_sum   'Rb1 Ti3 Al1 O8'
_cell_volume   153.39885152
_cell_formula_units_Z   1
loop_
 _symmetry_equiv_pos_site_id
 _symmetry_equiv_pos_as_xyz
  1  'x, y, z'
loop_
 _atom_site_type_symbol
 _atom_site_label
 _atom_site_symmetry_multiplicity
 _atom_site_fract_x
 _atom_site_fract_y
 _atom_site_fract_z
 _atom_site_occupancy
  Rb  Rb0  1  0.03726653  0.00614546  0.00685779  1
  Ti  Ti1  1  0.32774490  0.50975636  0.16783112  1
  Ti  Ti2  1  0.86457559  0.80415593  0.52182353  1
  Ti  Ti3  1  0.14539579  0.18552766  0.49197842  1
  Al  Al4  1  0.68530371  0.48608090  0.81559531  1
  O  O5  1  0.98265415  0.37127747  0.28990654  1
  O  O6  1  0.06410525  0.62078573  0.70642674  1
  O  O7  1  0.68800244  0.30003342  0.63047629  1
  O  O8  1  0.35198662  0.70928687  0.37144112  1
  O  O9  1  0.72366713  0.64067795  0.04266833  1
  O  O10  1  0.31565976  0.36361491  0.94595753  1
  O  O11  1  0.68285688  0.05379926  0.36549167  1
  O  O12  1  0.37078125  0.94885809  0.64354562  1
