# generated using pymatgen
data_ReBW
_symmetry_space_group_name_H-M   'P 1'
_cell_length_a   4.56838654
_cell_length_b   4.58964790
_cell_length_c   4.58964790
_cell_angle_alpha   61.76658550
_cell_angle_beta   74.65123750
_cell_angle_gamma   105.34876250
_symmetry_Int_Tables_number   1
_chemical_formula_structural   ReBW
_chemical_formula_sum   'Re2 B2 W2'
_cell_volume   72.64088868
_cell_formula_units_Z   2
loop_
 _symmetry_equiv_pos_site_id
 _symmetry_equiv_pos_as_xyz
  1  'x, y, z'
loop_
 _atom_site_type_symbol
 _atom_site_label
 _atom_site_symmetry_multiplicity
 _atom_site_fract_x
 _atom_site_fract_y
 _atom_site_fract_z
 _atom_site_occupancy
  Re  Re0  1  0.50000000  0.32994429  0.82994429  1
  Re  Re1  1  0.50000000  0.67005571  0.17005571  1
  B  B2  1  -0.00000000  0.25000000  0.75000000  1
  B  B3  1  -0.00000000  0.75000000  0.25000000  1
  W  W4  1  0.16527765  0.83263882  0.66736118  1
  W  W5  1  0.83472235  0.16736118  0.33263882  1
