# generated using pymatgen
data_Sm2Fe15Si2
_symmetry_space_group_name_H-M   'P 1'
_cell_length_a   6.42615851
_cell_length_b   6.39438995
_cell_length_c   6.39439000
_cell_angle_alpha   82.70331093
_cell_angle_beta   82.73925412
_cell_angle_gamma   82.73925319
_symmetry_Int_Tables_number   1
_chemical_formula_structural   Sm2Fe15Si2
_chemical_formula_sum   'Sm2 Fe15 Si2'
_cell_volume   256.90592769
_cell_formula_units_Z   1
loop_
 _symmetry_equiv_pos_site_id
 _symmetry_equiv_pos_as_xyz
  1  'x, y, z'
loop_
 _atom_site_type_symbol
 _atom_site_label
 _atom_site_symmetry_multiplicity
 _atom_site_fract_x
 _atom_site_fract_y
 _atom_site_fract_z
 _atom_site_occupancy
  Sm  Sm0  1  0.66217513  0.66104334  0.66104334  1
  Sm  Sm1  1  0.34261772  0.34313011  0.34313011  1
  Fe  Fe2  1  0.00236747  0.49597389  0.00219550  1
  Fe  Fe3  1  0.49665200  0.00187562  0.00187562  1
  Fe  Fe4  1  0.00236747  0.00219550  0.49597389  1
  Fe  Fe5  1  0.90374860  0.90399830  0.90399830  1
  Fe  Fe6  1  0.09642301  0.09313422  0.09313422  1
  Fe  Fe7  1  0.70476596  0.00005173  0.29521828  1
  Fe  Fe8  1  0.00066467  0.29369522  0.70415638  1
  Fe  Fe9  1  0.29342116  0.70346154  0.99832279  1
  Fe  Fe10  1  0.00066467  0.70415638  0.29369522  1
  Fe  Fe11  1  0.70476596  0.29521828  0.00005173  1
  Fe  Fe12  1  0.29342116  0.99832279  0.70346154  1
  Fe  Fe13  1  0.84298268  0.34084471  0.34084471  1
  Fe  Fe14  1  0.65912664  0.66110856  0.15874380  1
  Fe  Fe15  1  0.65912664  0.15874380  0.66110856  1
  Fe  Fe16  1  0.15583852  0.65907507  0.65907507  1
  Si  Si17  1  0.33943526  0.33847367  0.84549726  1
  Si  Si18  1  0.33943526  0.84549726  0.33847367  1
