# generated using pymatgen
data_PrZnAgP2
_symmetry_space_group_name_H-M   'P 1'
_cell_length_a   4.20100388
_cell_length_b   4.20099034
_cell_length_c   6.83730295
_cell_angle_alpha   90.00008761
_cell_angle_beta   89.99936050
_cell_angle_gamma   119.99981573
_symmetry_Int_Tables_number   1
_chemical_formula_structural   PrZnAgP2
_chemical_formula_sum   'Pr1 Zn1 Ag1 P2'
_cell_volume   104.50113964
_cell_formula_units_Z   1
loop_
 _symmetry_equiv_pos_site_id
 _symmetry_equiv_pos_as_xyz
  1  'x, y, z'
loop_
 _atom_site_type_symbol
 _atom_site_label
 _atom_site_symmetry_multiplicity
 _atom_site_fract_x
 _atom_site_fract_y
 _atom_site_fract_z
 _atom_site_occupancy
  Pr  Pr0  1  0.00000956  0.00000493  0.98607599  1
  Zn  Zn1  1  0.66664993  0.33332501  0.37368650  1
  Ag  Ag2  1  0.33334276  0.66667130  0.63731724  1
  P  P3  1  0.33332134  0.66666073  0.25314657  1
  P  P4  1  0.66667642  0.33333803  0.74977370  1
