# generated using pymatgen
data_Nd5S4
_symmetry_space_group_name_H-M   'P 1'
_cell_length_a   4.02194866
_cell_length_b   4.02194866
_cell_length_c   16.79685605
_cell_angle_alpha   90.00000000
_cell_angle_beta   96.87613128
_cell_angle_gamma   120.00000000
_symmetry_Int_Tables_number   1
_chemical_formula_structural   Nd5S4
_chemical_formula_sum   'Nd5 S4'
_cell_volume   233.04591160
_cell_formula_units_Z   1
loop_
 _symmetry_equiv_pos_site_id
 _symmetry_equiv_pos_as_xyz
  1  'x, y, z'
loop_
 _atom_site_type_symbol
 _atom_site_label
 _atom_site_symmetry_multiplicity
 _atom_site_fract_x
 _atom_site_fract_y
 _atom_site_fract_z
 _atom_site_occupancy
  Nd  Nd0  1  0.20435884  0.60217942  0.80653826  1
  Nd  Nd1  1  0.40000000  0.20000000  0.60000000  1
  Nd  Nd2  1  0.59564116  0.79782058  0.39346174  1
  Nd  Nd3  1  0.00274274  0.00137137  0.00411411  1
  Nd  Nd4  1  0.79725726  0.39862863  0.19588589  1
  S  S5  1  0.19665493  0.09832746  0.29498239  1
  S  S6  1  0.99849724  0.49924862  0.49774586  1
  S  S7  1  0.80150276  0.90075138  0.70225414  1
  S  S8  1  0.60334507  0.30167254  0.90501761  1
