# generated using pymatgen
data_NdErFe17
_symmetry_space_group_name_H-M   'P 1'
_cell_length_a   8.27315579
_cell_length_b   8.51784172
_cell_length_c   8.51784172
_cell_angle_alpha   119.93411668
_cell_angle_beta   90.00000000
_cell_angle_gamma   90.00000000
_symmetry_Int_Tables_number   1
_chemical_formula_structural   NdErFe17
_chemical_formula_sum   'Nd2 Er2 Fe34'
_cell_volume   520.17431514
_cell_formula_units_Z   2
loop_
 _symmetry_equiv_pos_site_id
 _symmetry_equiv_pos_as_xyz
  1  'x, y, z'
loop_
 _atom_site_type_symbol
 _atom_site_label
 _atom_site_symmetry_multiplicity
 _atom_site_fract_x
 _atom_site_fract_y
 _atom_site_fract_z
 _atom_site_occupancy
  Nd  Nd0  1  0.25000000  0.66663775  0.33336225  1
  Nd  Nd1  1  0.75000000  0.33336225  0.66663775  1
  Er  Er2  1  0.75000000  -0.00004287  0.00004287  1
  Er  Er3  1  0.25000000  0.00004287  -0.00004287  1
  Fe  Fe4  1  0.75000000  0.67242439  0.04179702  1
  Fe  Fe5  1  0.75000000  0.36945755  0.32771037  1
  Fe  Fe6  1  0.75000000  0.95816019  0.63045334  1
  Fe  Fe7  1  0.75000000  0.36954666  0.04183981  1
  Fe  Fe8  1  0.75000000  0.95820298  0.32757561  1
  Fe  Fe9  1  0.75000000  0.67228963  0.63054245  1
  Fe  Fe10  1  0.25000000  0.32757561  0.95820298  1
  Fe  Fe11  1  0.25000000  0.63054245  0.67228963  1
  Fe  Fe12  1  0.25000000  0.04183981  0.36954666  1
  Fe  Fe13  1  0.25000000  0.63045334  0.95816019  1
  Fe  Fe14  1  0.25000000  0.04179702  0.67242439  1
  Fe  Fe15  1  0.25000000  0.32771037  0.36945755  1
  Fe  Fe16  1  0.48516463  0.83522886  0.67054302  1
  Fe  Fe17  1  0.48513003  0.83533053  0.16466947  1
  Fe  Fe18  1  0.48516463  0.32945698  0.16477114  1
  Fe  Fe19  1  0.51483537  0.16477114  0.32945698  1
  Fe  Fe20  1  0.51486997  0.16466947  0.83533053  1
  Fe  Fe21  1  0.51483537  0.67054302  0.83522886  1
  Fe  Fe22  1  0.98516463  0.16477114  0.32945698  1
  Fe  Fe23  1  0.98513003  0.16466947  0.83533053  1
  Fe  Fe24  1  0.98516463  0.67054302  0.83522886  1
  Fe  Fe25  1  0.01483537  0.83522886  0.67054302  1
  Fe  Fe26  1  0.01486997  0.83533053  0.16466947  1
  Fe  Fe27  1  0.01483537  0.32945698  0.16477114  1
  Fe  Fe28  1  0.60727101  0.66670540  0.33329460  1
  Fe  Fe29  1  0.39272899  0.33329460  0.66670540  1
  Fe  Fe30  1  0.10727101  0.33329460  0.66670540  1
  Fe  Fe31  1  0.89272899  0.66670540  0.33329460  1
  Fe  Fe32  1  0.50000000  0.50000000  -0.00000000  1
  Fe  Fe33  1  0.50000000  0.50000000  0.50000000  1
  Fe  Fe34  1  0.50000000  -0.00000000  0.50000000  1
  Fe  Fe35  1  -0.00000000  0.50000000  -0.00000000  1
  Fe  Fe36  1  -0.00000000  0.50000000  0.50000000  1
  Fe  Fe37  1  0.00000000  -0.00000000  0.50000000  1
