# generated using pymatgen
data_Nd2Ge3Rh
_symmetry_space_group_name_H-M   'P 1'
_cell_length_a   4.18022671
_cell_length_b   4.31445778
_cell_length_c   7.40423462
_cell_angle_alpha   89.99455214
_cell_angle_beta   89.99544587
_cell_angle_gamma   89.97421435
_symmetry_Int_Tables_number   1
_chemical_formula_structural   Nd2Ge3Rh
_chemical_formula_sum   'Nd2 Ge3 Rh1'
_cell_volume   133.53840474
_cell_formula_units_Z   1
loop_
 _symmetry_equiv_pos_site_id
 _symmetry_equiv_pos_as_xyz
  1  'x, y, z'
loop_
 _atom_site_type_symbol
 _atom_site_label
 _atom_site_symmetry_multiplicity
 _atom_site_fract_x
 _atom_site_fract_y
 _atom_site_fract_z
 _atom_site_occupancy
  Nd  Nd0  1  0.00005575  0.99995784  0.00690441  1
  Nd  Nd1  1  -0.00002294  0.50007245  0.49499226  1
  Ge  Ge2  1  0.49995239  0.49994614  0.83696594  1
  Ge  Ge3  1  0.49998427  0.49994055  0.17498258  1
  Ge  Ge4  1  0.50003340  0.99996492  0.65768656  1
  Rh  Rh5  1  0.49999713  0.99991810  0.32846824  1
