# generated using pymatgen
data_Nb4Cr(CS2)2
_symmetry_space_group_name_H-M   'P 1'
_cell_length_a   3.34089981
_cell_length_b   8.75351386
_cell_length_c   5.78117248
_cell_angle_alpha   77.73023976
_cell_angle_beta   89.99999522
_cell_angle_gamma   89.99999896
_symmetry_Int_Tables_number   1
_chemical_formula_structural   Nb4Cr(CS2)2
_chemical_formula_sum   'Nb4 Cr1 C2 S4'
_cell_volume   165.20627446
_cell_formula_units_Z   1
loop_
 _symmetry_equiv_pos_site_id
 _symmetry_equiv_pos_as_xyz
  1  'x, y, z'
loop_
 _atom_site_type_symbol
 _atom_site_label
 _atom_site_symmetry_multiplicity
 _atom_site_fract_x
 _atom_site_fract_y
 _atom_site_fract_z
 _atom_site_occupancy
  Nb  Nb0  1  0.50000000  0.63337771  0.62892131  1
  Nb  Nb1  1  1.00000000  0.63286978  0.11840651  1
  Nb  Nb2  1  0.50000000  0.36662229  0.37107869  1
  Nb  Nb3  1  0.00000000  0.36713022  0.88159349  1
  Cr  Cr4  1  -0.00000000  -0.00000000  0.00000000  1
  C  C5  1  -0.00000000  0.50000000  0.50000000  1
  C  C6  1  0.50000000  0.50000000  0.00000000  1
  S  S7  1  0.50000000  0.16349399  0.77285104  1
  S  S8  1  0.00000000  0.16892275  0.27516702  1
  S  S9  1  0.50000000  0.83650601  0.22714896  1
  S  S10  1  1.00000000  0.83107725  0.72483298  1
