# generated using pymatgen
data_Nb4Co(CS2)2
_symmetry_space_group_name_H-M   'P 1'
_cell_length_a   3.33465089
_cell_length_b   8.52961675
_cell_length_c   5.73922210
_cell_angle_alpha   77.36761583
_cell_angle_beta   90.00000162
_cell_angle_gamma   90.00000157
_symmetry_Int_Tables_number   1
_chemical_formula_structural   Nb4Co(CS2)2
_chemical_formula_sum   'Nb4 Co1 C2 S4'
_cell_volume   159.29082385
_cell_formula_units_Z   1
loop_
 _symmetry_equiv_pos_site_id
 _symmetry_equiv_pos_as_xyz
  1  'x, y, z'
loop_
 _atom_site_type_symbol
 _atom_site_label
 _atom_site_symmetry_multiplicity
 _atom_site_fract_x
 _atom_site_fract_y
 _atom_site_fract_z
 _atom_site_occupancy
  Nb  Nb0  1  0.50000000  0.63957314  0.62667412  1
  Nb  Nb1  1  0.00000000  0.63866951  0.11611889  1
  Nb  Nb2  1  0.50000000  0.36042686  0.37332588  1
  Nb  Nb3  1  1.00000000  0.36133049  0.88388111  1
  Co  Co4  1  -0.00000000  -0.00000000  0.00000000  1
  C  C5  1  -0.00000000  0.50000000  0.50000000  1
  C  C6  1  0.50000000  0.50000000  0.00000000  1
  S  S7  1  0.50000000  0.15633553  0.77932195  1
  S  S8  1  0.00000000  0.15936194  0.27863176  1
  S  S9  1  0.50000000  0.84366447  0.22067805  1
  S  S10  1  1.00000000  0.84063806  0.72136824  1
