# generated using pymatgen
data_Nd2CuTe4
_symmetry_space_group_name_H-M   'P 1'
_cell_length_a   6.52644166
_cell_length_b   7.68443891
_cell_length_c   8.38843464
_cell_angle_alpha   90.00000000
_cell_angle_beta   90.00000000
_cell_angle_gamma   90.12970052
_symmetry_Int_Tables_number   1
_chemical_formula_structural   Nd2CuTe4
_chemical_formula_sum   'Nd4 Cu2 Te8'
_cell_volume   420.69605077
_cell_formula_units_Z   2
loop_
 _symmetry_equiv_pos_site_id
 _symmetry_equiv_pos_as_xyz
  1  'x, y, z'
loop_
 _atom_site_type_symbol
 _atom_site_label
 _atom_site_symmetry_multiplicity
 _atom_site_fract_x
 _atom_site_fract_y
 _atom_site_fract_z
 _atom_site_occupancy
  Nd  Nd0  1  0.75016603  0.22642878  0.05486339  1
  Nd  Nd1  1  0.24455218  0.76350428  0.94199380  1
  Nd  Nd2  1  0.25544782  0.23649572  0.44199380  1
  Nd  Nd3  1  0.74983397  0.77357122  0.55486339  1
  Cu  Cu4  1  0.56581062  0.58735820  0.20266564  1
  Cu  Cu5  1  0.93418938  0.41264180  0.70266564  1
  Te  Te6  1  0.73549785  0.38240648  0.41274117  1
  Te  Te7  1  0.23046838  0.61607500  0.59134590  1
  Te  Te8  1  0.26953162  0.38392500  0.09134590  1
  Te  Te9  1  0.76450215  0.61759352  0.91274117  1
  Te  Te10  1  0.50085341  0.91787024  0.24910058  1
  Te  Te11  1  0.99914659  0.08212976  0.74910058  1
  Te  Te12  1  0.49687713  0.07300280  0.74928952  1
  Te  Te13  1  0.00312287  0.92699720  0.24928952  1
