# generated using pymatgen
data_NbFeO4
_symmetry_space_group_name_H-M   'P 1'
_cell_length_a   4.73089938
_cell_length_b   5.04979529
_cell_length_c   5.72029553
_cell_angle_alpha   90.00000000
_cell_angle_beta   90.00000000
_cell_angle_gamma   90.00000000
_symmetry_Int_Tables_number   1
_chemical_formula_structural   NbFeO4
_chemical_formula_sum   'Nb2 Fe2 O8'
_cell_volume   136.65828012
_cell_formula_units_Z   2
loop_
 _symmetry_equiv_pos_site_id
 _symmetry_equiv_pos_as_xyz
  1  'x, y, z'
loop_
 _atom_site_type_symbol
 _atom_site_label
 _atom_site_symmetry_multiplicity
 _atom_site_fract_x
 _atom_site_fract_y
 _atom_site_fract_z
 _atom_site_occupancy
  Nb  Nb0  1  0.50000000  0.75000000  0.31330826  1
  Nb  Nb1  1  -0.00000000  0.75000000  0.81330826  1
  Fe  Fe2  1  0.00000000  0.25000000  0.16717992  1
  Fe  Fe3  1  0.50000000  0.25000000  0.66717992  1
  O  O4  1  0.72400460  0.42914456  0.39145241  1
  O  O5  1  0.77222442  0.91898725  0.11830350  1
  O  O6  1  0.22777558  0.58101275  0.11830350  1
  O  O7  1  0.27599540  0.07085544  0.39145241  1
  O  O8  1  0.27222442  0.58101275  0.61830350  1
  O  O9  1  0.22400460  0.07085544  0.89145241  1
  O  O10  1  0.77599540  0.42914456  0.89145241  1
  O  O11  1  0.72777558  0.91898725  0.61830350  1
