# generated using pymatgen
data_Nd3HoZr4O14
_symmetry_space_group_name_H-M   'P 1'
_cell_length_a   7.58884694
_cell_length_b   7.58322700
_cell_length_c   7.58884694
_cell_angle_alpha   90.00000000
_cell_angle_beta   60.00000000
_cell_angle_gamma   120.02451850
_symmetry_Int_Tables_number   1
_chemical_formula_structural   Nd3HoZr4O14
_chemical_formula_sum   'Nd3 Ho1 Zr4 O14'
_cell_volume   308.69500196
_cell_formula_units_Z   1
loop_
 _symmetry_equiv_pos_site_id
 _symmetry_equiv_pos_as_xyz
  1  'x, y, z'
loop_
 _atom_site_type_symbol
 _atom_site_label
 _atom_site_symmetry_multiplicity
 _atom_site_fract_x
 _atom_site_fract_y
 _atom_site_fract_z
 _atom_site_occupancy
  Nd  Nd0  1  0.50000000  0.50000000  0.50000000  1
  Nd  Nd1  1  0.00000000  0.50000000  -0.00000000  1
  Nd  Nd2  1  0.00000000  0.50000000  0.50000000  1
  Ho  Ho3  1  0.50000000  0.00000000  0.50000000  1
  Zr  Zr4  1  0.50000000  0.50000000  -0.00000000  1
  Zr  Zr5  1  0.50000000  0.00000000  -0.00000000  1
  Zr  Zr6  1  0.00000000  0.00000000  0.50000000  1
  Zr  Zr7  1  0.00000000  0.00000000  -0.00000000  1
  O  O8  1  0.74109764  0.36164646  0.37945118  1
  O  O9  1  0.25890236  0.63835354  0.62054882  1
  O  O10  1  0.82605664  0.91543520  0.33697168  1
  O  O11  1  0.67362221  0.33687180  0.91318889  1
  O  O12  1  0.25240687  0.91543520  0.91062145  1
  O  O13  1  0.25006069  0.33687180  0.33675042  1
  O  O14  1  0.25006069  0.33687180  0.91318889  1
  O  O15  1  0.25240687  0.91543520  0.33697168  1
  O  O16  1  0.17394336  0.08456480  0.66302832  1
  O  O17  1  0.32637779  0.66312820  0.08681111  1
  O  O18  1  0.74759313  0.08456480  0.08937855  1
  O  O19  1  0.74993931  0.66312820  0.66324958  1
  O  O20  1  0.74993931  0.66312820  0.08681111  1
  O  O21  1  0.74759313  0.08456480  0.66302832  1
