# generated using pymatgen
data_Rb5Al(MoO4)4
_symmetry_space_group_name_H-M   'P 1'
_cell_length_a   6.19562253
_cell_length_b   8.45846805
_cell_length_c   10.62870480
_cell_angle_alpha   69.01444229
_cell_angle_beta   90.09660598
_cell_angle_gamma   90.14249951
_symmetry_Int_Tables_number   1
_chemical_formula_structural   Rb5Al(MoO4)4
_chemical_formula_sum   'Rb5 Al1 Mo4 O16'
_cell_volume   520.05497074
_cell_formula_units_Z   1
loop_
 _symmetry_equiv_pos_site_id
 _symmetry_equiv_pos_as_xyz
  1  'x, y, z'
loop_
 _atom_site_type_symbol
 _atom_site_label
 _atom_site_symmetry_multiplicity
 _atom_site_fract_x
 _atom_site_fract_y
 _atom_site_fract_z
 _atom_site_occupancy
  Rb  Rb0  1  0.99348624  0.45072018  0.21167909  1
  Rb  Rb1  1  0.49382085  0.90772527  0.70365926  1
  Rb  Rb2  1  0.99364370  0.63509858  0.79334636  1
  Rb  Rb3  1  0.49309888  0.11658043  0.32490365  1
  Rb  Rb4  1  0.49200008  0.50554555  0.49028924  1
  Al  Al5  1  0.99043672  0.13891545  0.07198326  1
  Mo  Mo6  1  0.49389617  0.70221225  0.08732560  1
  Mo  Mo7  1  0.99323645  0.20015745  0.60047756  1
  Mo  Mo8  1  0.49107752  0.28222554  0.90938544  1
  Mo  Mo9  1  0.99183255  0.82533553  0.39930599  1
  O  O10  1  0.22957470  0.24047657  0.00860699  1
  O  O11  1  0.76059000  0.81300913  0.49932413  1
  O  O12  1  0.49102503  0.49331460  0.80435361  1
  O  O13  1  0.99209691  0.03055465  0.24078657  1
  O  O14  1  0.99589076  0.35079547  0.68519467  1
  O  O15  1  0.49948528  0.87071347  0.15521963  1
  O  O16  1  0.99188938  0.64636463  0.35380546  1
  O  O17  1  0.49219927  0.16734663  0.80574274  1
  O  O18  1  0.25729377  0.71554442  0.98688649  1
  O  O19  1  0.75786224  0.22789543  0.49434480  1
  O  O20  1  0.49192255  0.49443836  0.21948696  1
  O  O21  1  0.99222952  0.98831753  0.72060650  1
  O  O22  1  0.72631717  0.71126971  0.98489083  1
  O  O23  1  0.22668505  0.22669805  0.49328505  1
  O  O24  1  0.75270051  0.24227976  0.00879715  1
  O  O25  1  0.22380869  0.81376535  0.49901293  1
