# generated using pymatgen
data_Nd3Er(WO4)6
_symmetry_space_group_name_H-M   'P 1'
_cell_length_a   7.05216698
_cell_length_b   7.03903188
_cell_length_c   11.64770570
_cell_angle_alpha   101.04147460
_cell_angle_beta   100.78706807
_cell_angle_gamma   112.03108848
_symmetry_Int_Tables_number   1
_chemical_formula_structural   Nd3Er(WO4)6
_chemical_formula_sum   'Nd3 Er1 W6 O24'
_cell_volume   504.29028119
_cell_formula_units_Z   1
loop_
 _symmetry_equiv_pos_site_id
 _symmetry_equiv_pos_as_xyz
  1  'x, y, z'
loop_
 _atom_site_type_symbol
 _atom_site_label
 _atom_site_symmetry_multiplicity
 _atom_site_fract_x
 _atom_site_fract_y
 _atom_site_fract_z
 _atom_site_occupancy
  Nd  Nd0  1  0.69427822  0.94618322  0.40533018  1
  Nd  Nd1  1  0.94708792  0.69511831  0.90709624  1
  Nd  Nd2  1  0.30573461  0.05344965  0.59502568  1
  Er  Er3  1  0.04976706  0.30705144  0.09341624  1
  W  W4  1  0.19805182  0.48840643  0.44659192  1
  W  W5  1  0.50861707  0.79892055  0.04989659  1
  W  W6  1  0.80061944  0.50998899  0.54970274  1
  W  W7  1  0.49256326  0.20282121  0.95449961  1
  W  W8  1  0.11764026  0.87783958  0.24741408  1
  W  W9  1  0.88239012  0.12045021  0.75248672  1
  O  O10  1  0.22607652  0.61995726  0.04194718  1
  O  O11  1  0.37174712  0.77275060  0.45824335  1
  O  O12  1  0.77786268  0.37327318  0.96291155  1
  O  O13  1  0.62761089  0.22686901  0.54068094  1
  O  O14  1  0.03097962  0.95470179  0.11061236  1
  O  O15  1  0.05333546  0.96803085  0.38855255  1
  O  O16  1  0.97218689  0.06302755  0.89655369  1
  O  O17  1  0.94768330  0.02959395  0.61139018  1
  O  O18  1  0.38713554  0.32329478  0.06011094  1
  O  O19  1  0.67289506  0.60373359  0.44073136  1
  O  O20  1  0.60350649  0.67097381  0.94137900  1
  O  O21  1  0.32553411  0.39390838  0.55533419  1
  O  O22  1  0.19622655  0.34897256  0.29580658  1
  O  O23  1  0.65380237  0.79585571  0.19642898  1
  O  O24  1  0.79767297  0.65503918  0.69748469  1
  O  O25  1  0.35058629  0.20405070  0.80613506  1
  O  O26  1  0.01331276  0.59075870  0.21481895  1
  O  O27  1  0.40269752  0.98723264  0.27821389  1
  O  O28  1  0.98724470  0.40503681  0.77873320  1
  O  O29  1  0.59740609  0.01253531  0.72109651  1
  O  O30  1  0.67939768  0.10231010  0.07646635  1
  O  O31  1  0.89762527  0.32658924  0.42230889  1
  O  O32  1  0.32871190  0.89977197  0.92668268  1
  O  O33  1  0.10201243  0.67150275  0.57591692  1
