# generated using pymatgen
data_Na2Zn3GeAs4
_symmetry_space_group_name_H-M   'P 1'
_cell_length_a   4.13121569
_cell_length_b   8.61196900
_cell_length_c   7.17896105
_cell_angle_alpha   65.13062791
_cell_angle_beta   90.03563234
_cell_angle_gamma   103.96825910
_symmetry_Int_Tables_number   1
_chemical_formula_structural   Na2Zn3GeAs4
_chemical_formula_sum   'Na2 Zn3 Ge1 As4'
_cell_volume   223.39406479
_cell_formula_units_Z   1
loop_
 _symmetry_equiv_pos_site_id
 _symmetry_equiv_pos_as_xyz
  1  'x, y, z'
loop_
 _atom_site_type_symbol
 _atom_site_label
 _atom_site_symmetry_multiplicity
 _atom_site_fract_x
 _atom_site_fract_y
 _atom_site_fract_z
 _atom_site_occupancy
  Na  Na0  1  0.50885342  0.01775222  0.48991447  1
  Na  Na1  1  0.00481478  0.00958136  0.99627289  1
  Zn  Zn2  1  0.80329956  0.60646141  0.87512981  1
  Zn  Zn3  1  0.67355527  0.34616931  0.67522480  1
  Zn  Zn4  1  0.18196417  0.36322335  0.13708370  1
  Ge  Ge5  1  0.31339009  0.62795694  0.34165898  1
  As  As6  1  0.62825013  0.25711976  0.04347019  1
  As  As7  1  0.14780954  0.29558167  0.51433468  1
  As  As8  1  0.37143777  0.74150319  0.95692837  1
  As  As9  1  0.86662527  0.73465079  0.46998212  1
