# generated using pymatgen
data_Nb3SnGeMo3
_symmetry_space_group_name_H-M   'P 1'
_cell_length_a   5.14972269
_cell_length_b   5.14972269
_cell_length_c   5.14972269
_cell_angle_alpha   89.89203198
_cell_angle_beta   90.10796802
_cell_angle_gamma   90.10796802
_symmetry_Int_Tables_number   1
_chemical_formula_structural   Nb3SnGeMo3
_chemical_formula_sum   'Nb3 Sn1 Ge1 Mo3'
_cell_volume   136.56808460
_cell_formula_units_Z   1
loop_
 _symmetry_equiv_pos_site_id
 _symmetry_equiv_pos_as_xyz
  1  'x, y, z'
loop_
 _atom_site_type_symbol
 _atom_site_label
 _atom_site_symmetry_multiplicity
 _atom_site_fract_x
 _atom_site_fract_y
 _atom_site_fract_z
 _atom_site_occupancy
  Nb  Nb0  1  0.49898438  0.25549107  0.99862616  1
  Nb  Nb1  1  0.74450893  0.99862616  0.50101562  1
  Nb  Nb2  1  0.00137384  0.50101562  0.25549107  1
  Sn  Sn3  1  0.00103399  0.99896601  0.99896601  1
  Ge  Ge4  1  0.49995802  0.50004198  0.50004198  1
  Mo  Mo5  1  0.49946539  0.74609151  0.99923303  1
  Mo  Mo6  1  0.25390849  0.99923303  0.50053461  1
  Mo  Mo7  1  0.00076697  0.50053461  0.74609151  1
