# generated using pymatgen
data_Nd4FeSn8
_symmetry_space_group_name_H-M   'P 1'
_cell_length_a   4.50488043
_cell_length_b   4.57085228
_cell_length_c   16.95985152
_cell_angle_alpha   90.00000000
_cell_angle_beta   90.00000000
_cell_angle_gamma   90.00000000
_symmetry_Int_Tables_number   1
_chemical_formula_structural   Nd4FeSn8
_chemical_formula_sum   'Nd4 Fe1 Sn8'
_cell_volume   349.22272765
_cell_formula_units_Z   1
loop_
 _symmetry_equiv_pos_site_id
 _symmetry_equiv_pos_as_xyz
  1  'x, y, z'
loop_
 _atom_site_type_symbol
 _atom_site_label
 _atom_site_symmetry_multiplicity
 _atom_site_fract_x
 _atom_site_fract_y
 _atom_site_fract_z
 _atom_site_occupancy
  Nd  Nd0  1  0.25000000  0.00000000  0.09802972  1
  Nd  Nd1  1  0.25000000  0.50000000  0.60207774  1
  Nd  Nd2  1  0.75000000  0.50000000  0.39568060  1
  Nd  Nd3  1  0.75000000  0.00000000  0.89980519  1
  Fe  Fe4  1  0.25000000  -0.00000000  0.30590010  1
  Sn  Sn5  1  0.25000000  -0.00000000  0.45381233  1
  Sn  Sn6  1  0.25000000  0.50000000  0.93817633  1
  Sn  Sn7  1  0.75000000  0.50000000  0.06013765  1
  Sn  Sn8  1  0.75000000  0.00000000  0.57009363  1
  Sn  Sn9  1  0.25000000  0.50000000  0.23942192  1
  Sn  Sn10  1  0.25000000  0.00000000  0.74903157  1
  Sn  Sn11  1  0.75000000  0.00000000  0.23858270  1
  Sn  Sn12  1  0.75000000  0.50000000  0.75225051  1
