# generated using pymatgen
data_NaCd(RhO2)4
_symmetry_space_group_name_H-M   'P 1'
_cell_length_a   3.10569463
_cell_length_b   9.19034809
_cell_length_c   10.96046119
_cell_angle_alpha   90.48417528
_cell_angle_beta   90.00000000
_cell_angle_gamma   90.00000000
_symmetry_Int_Tables_number   1
_chemical_formula_structural   NaCd(RhO2)4
_chemical_formula_sum   'Na2 Cd2 Rh8 O16'
_cell_volume   312.82685903
_cell_formula_units_Z   2
loop_
 _symmetry_equiv_pos_site_id
 _symmetry_equiv_pos_as_xyz
  1  'x, y, z'
loop_
 _atom_site_type_symbol
 _atom_site_label
 _atom_site_symmetry_multiplicity
 _atom_site_fract_x
 _atom_site_fract_y
 _atom_site_fract_z
 _atom_site_occupancy
  Na  Na0  1  0.75000000  0.73621764  0.15872507  1
  Na  Na1  1  0.25000000  0.26378236  0.84127493  1
  Cd  Cd2  1  0.75000000  0.23721518  0.33843033  1
  Cd  Cd3  1  0.25000000  0.76278482  0.66156967  1
  Rh  Rh4  1  0.75000000  0.05155032  0.11597253  1
  Rh  Rh5  1  0.75000000  0.55780220  0.38276127  1
  Rh  Rh6  1  0.25000000  0.94844968  0.88402747  1
  Rh  Rh7  1  0.25000000  0.44219780  0.61723873  1
  Rh  Rh8  1  0.75000000  0.09206167  0.60060774  1
  Rh  Rh9  1  0.75000000  0.58778616  0.90103078  1
  Rh  Rh10  1  0.25000000  0.90793833  0.39939226  1
  Rh  Rh11  1  0.25000000  0.41221384  0.09896922  1
  O  O12  1  0.75000000  0.08334761  0.93160477  1
  O  O13  1  0.75000000  0.58560615  0.56986355  1
  O  O14  1  0.25000000  0.91665239  0.06839523  1
  O  O15  1  0.25000000  0.41439385  0.43013645  1
  O  O16  1  0.75000000  0.96577964  0.29091308  1
  O  O17  1  0.75000000  0.45475583  0.21403755  1
  O  O18  1  0.25000000  0.03422036  0.70908692  1
  O  O19  1  0.25000000  0.54524417  0.78596245  1
  O  O20  1  0.75000000  0.38597122  0.97638634  1
  O  O21  1  0.75000000  0.88340007  0.52848548  1
  O  O22  1  0.25000000  0.61402878  0.02361366  1
  O  O23  1  0.25000000  0.11659993  0.47151452  1
  O  O24  1  0.75000000  0.30600874  0.66151973  1
  O  O25  1  0.75000000  0.80287162  0.83582829  1
  O  O26  1  0.25000000  0.69399126  0.33848027  1
  O  O27  1  0.25000000  0.19712838  0.16417171  1
