# generated using pymatgen
data_Nb5V(FeSe10)2
_symmetry_space_group_name_H-M   'P 1'
_cell_length_a   6.95951223
_cell_length_b   10.29286857
_cell_length_c   10.94254485
_cell_angle_alpha   118.23025248
_cell_angle_beta   89.60713723
_cell_angle_gamma   69.98844439
_symmetry_Int_Tables_number   1
_chemical_formula_structural   Nb5V(FeSe10)2
_chemical_formula_sum   'Nb5 V1 Fe2 Se20'
_cell_volume   635.29743941
_cell_formula_units_Z   1
loop_
 _symmetry_equiv_pos_site_id
 _symmetry_equiv_pos_as_xyz
  1  'x, y, z'
loop_
 _atom_site_type_symbol
 _atom_site_label
 _atom_site_symmetry_multiplicity
 _atom_site_fract_x
 _atom_site_fract_y
 _atom_site_fract_z
 _atom_site_occupancy
  Nb  Nb0  1  0.16578267  0.92004981  0.63654970  1
  Nb  Nb1  1  0.66591661  0.91523013  0.63511578  1
  Nb  Nb2  1  0.33040062  0.08244667  0.36529824  1
  Nb  Nb3  1  0.83514630  0.08813777  0.36787834  1
  Nb  Nb4  1  0.84785726  0.63826135  0.08671210  1
  V  V5  1  0.65328463  0.35523419  0.90708512  1
  Fe  Fe6  1  0.21830980  0.34474718  0.89777684  1
  Fe  Fe7  1  0.28130553  0.65152751  0.10021522  1
  Se  Se8  1  0.03651413  0.17641299  0.90794039  1
  Se  Se9  1  0.53499447  0.15877458  0.91287335  1
  Se  Se10  1  0.45388623  0.82688917  0.09143942  1
  Se  Se11  1  0.96874565  0.84682638  0.08896745  1
  Se  Se12  1  0.46827417  0.80905000  0.75607887  1
  Se  Se13  1  0.96796960  0.81562652  0.75928313  1
  Se  Se14  1  0.02979199  0.19565063  0.24608709  1
  Se  Se15  1  0.53264351  0.18447259  0.24210138  1
  Se  Se16  1  0.31276252  0.12727489  0.64129429  1
  Se  Se17  1  0.80751523  0.12642450  0.63795502  1
  Se  Se18  1  0.18716093  0.87342896  0.36004265  1
  Se  Se19  1  0.68930291  0.87911356  0.36754431  1
  Se  Se20  1  0.53838437  0.67427054  0.50419000  1
  Se  Se21  1  0.04022110  0.67618709  0.50799234  1
  Se  Se22  1  0.95973705  0.32997276  0.49790886  1
  Se  Se23  1  0.45809423  0.32598368  0.49340837  1
  Se  Se24  1  0.89704805  0.46527659  0.82965548  1
  Se  Se25  1  0.36119786  0.50164620  0.84699991  1
  Se  Se26  1  0.60445476  0.52270098  0.15899460  1
  Se  Se27  1  0.15329782  0.48838279  0.15261174  1
