# generated using pymatgen
data_Na2Nd2PtO6
_symmetry_space_group_name_H-M   'P 1'
_cell_length_a   6.67964264
_cell_length_b   6.63541309
_cell_length_c   6.63541342
_cell_angle_alpha   89.23802219
_cell_angle_beta   90.98018718
_cell_angle_gamma   90.98018172
_symmetry_Int_Tables_number   1
_chemical_formula_structural   Na2Nd2PtO6
_chemical_formula_sum   'Na4 Nd4 Pt2 O12'
_cell_volume   293.98509646
_cell_formula_units_Z   2
loop_
 _symmetry_equiv_pos_site_id
 _symmetry_equiv_pos_as_xyz
  1  'x, y, z'
loop_
 _atom_site_type_symbol
 _atom_site_label
 _atom_site_symmetry_multiplicity
 _atom_site_fract_x
 _atom_site_fract_y
 _atom_site_fract_z
 _atom_site_occupancy
  Na  Na0  1  0.25000000  0.24297632  0.25702368  1
  Na  Na1  1  0.75000000  0.75351912  0.74648088  1
  Na  Na2  1  0.60961754  0.89420885  0.25287224  1
  Na  Na3  1  0.89038246  0.24712776  0.60579115  1
  Nd  Nd4  1  0.25000000  0.61070955  0.88929045  1
  Nd  Nd5  1  0.10159649  0.75705015  0.38664660  1
  Nd  Nd6  1  0.75000000  0.37714018  0.12285982  1
  Nd  Nd7  1  0.39840351  0.11335340  0.74294985  1
  Pt  Pt8  1  0.50546141  0.50659817  0.50068341  1
  Pt  Pt9  1  0.99453859  0.99931659  0.99340183  1
  O  O10  1  0.55714301  0.21578728  0.42557207  1
  O  O11  1  0.21481544  0.43430062  0.56279610  1
  O  O12  1  0.42483196  0.55268303  0.20414845  1
  O  O13  1  0.06686517  0.91402548  0.70416327  1
  O  O14  1  0.93725517  0.69486348  0.05159128  1
  O  O15  1  0.69719299  0.06171505  0.92710385  1
  O  O16  1  0.43313483  0.79583673  0.58597452  1
  O  O17  1  0.80280701  0.57289615  0.43828495  1
  O  O18  1  0.56274483  0.44840872  0.80513652  1
  O  O19  1  0.94285699  0.07442793  0.28421272  1
  O  O20  1  0.07516804  0.29585155  0.94731697  1
  O  O21  1  0.28518456  0.93720390  0.06569938  1
