# generated using pymatgen
data_Nb3Sb3O13
_symmetry_space_group_name_H-M   'P 1'
_cell_length_a   7.60538234
_cell_length_b   7.56466486
_cell_length_c   7.60538234
_cell_angle_alpha   90.67097647
_cell_angle_beta   59.11639674
_cell_angle_gamma   120.06846809
_symmetry_Int_Tables_number   1
_chemical_formula_structural   Nb3Sb3O13
_chemical_formula_sum   'Nb3 Sb3 O13'
_cell_volume   306.71833115
_cell_formula_units_Z   1
loop_
 _symmetry_equiv_pos_site_id
 _symmetry_equiv_pos_as_xyz
  1  'x, y, z'
loop_
 _atom_site_type_symbol
 _atom_site_label
 _atom_site_symmetry_multiplicity
 _atom_site_fract_x
 _atom_site_fract_y
 _atom_site_fract_z
 _atom_site_occupancy
  Nb  Nb0  1  0.51709362  0.52206785  0.49658025  1
  Nb  Nb1  1  0.01864810  0.52206785  0.99502576  1
  Nb  Nb2  1  0.98727664  0.48926642  0.49801022  1
  Sb  Sb3  1  0.49009428  0.99357452  0.49651976  1
  Sb  Sb4  1  0.55723072  0.07520299  0.01159824  1
  Sb  Sb5  1  0.08680123  0.07520299  0.48202773  1
  O  O6  1  0.62034024  0.81278225  0.42560137  1
  O  O7  1  0.84012043  0.39396362  0.82492333  1
  O  O8  1  0.23838362  0.81278225  0.80755799  1
  O  O9  1  0.21888695  0.39396362  0.44615682  1
  O  O10  1  0.23824786  0.44024937  0.79799850  1
  O  O11  1  0.23645630  0.79716127  0.43929503  1
  O  O12  1  0.34408184  0.16662158  0.55192812  1
  O  O13  1  0.11160363  0.55068534  0.19120913  1
  O  O14  1  0.71854969  0.16662158  0.17746027  1
  O  O15  1  0.74189447  0.55068534  0.56091829  1
  O  O16  1  0.74284813  0.54604192  0.19680622  1
  O  O17  1  0.73516864  0.17878967  0.55637897  1
  O  O18  1  0.30627360  0.13726959  0.16900401  1
