# generated using pymatgen
data_Na4Co9(MoO4)12
_symmetry_space_group_name_H-M   'P 1'
_cell_length_a   5.28321449
_cell_length_b   10.96020821
_cell_length_c   17.99822597
_cell_angle_alpha   88.93514458
_cell_angle_beta   89.80404785
_cell_angle_gamma   90.20909393
_symmetry_Int_Tables_number   1
_chemical_formula_structural   Na4Co9(MoO4)12
_chemical_formula_sum   'Na4 Co9 Mo12 O48'
_cell_volume   1041.99636468
_cell_formula_units_Z   1
loop_
 _symmetry_equiv_pos_site_id
 _symmetry_equiv_pos_as_xyz
  1  'x, y, z'
loop_
 _atom_site_type_symbol
 _atom_site_label
 _atom_site_symmetry_multiplicity
 _atom_site_fract_x
 _atom_site_fract_y
 _atom_site_fract_z
 _atom_site_occupancy
  Na  Na0  1  0.76091974  0.25186730  0.19050366  1
  Na  Na1  1  0.25967637  0.24771337  0.30802122  1
  Na  Na2  1  0.23108807  0.74825509  0.80684649  1
  Na  Na3  1  0.73558748  0.75139366  0.69386561  1
  Co  Co4  1  0.39234016  0.25008816  0.75024144  1
  Co  Co5  1  0.10354706  0.75050835  0.25055871  1
  Co  Co6  1  0.60328362  0.75060295  0.24914656  1
  Co  Co7  1  0.24452229  0.92962808  0.97170141  1
  Co  Co8  1  0.74809749  0.57153317  0.52840779  1
  Co  Co9  1  0.23831265  0.55410131  0.97250969  1
  Co  Co10  1  0.74358136  0.94356795  0.52750148  1
  Co  Co11  1  0.75522889  0.06807810  0.02244925  1
  Co  Co12  1  0.25079735  0.42299881  0.47678750  1
  Mo  Mo13  1  0.27984937  0.48823545  0.15446607  1
  Mo  Mo14  1  0.77907142  0.01241549  0.34541610  1
  Mo  Mo15  1  0.71079144  0.98323813  0.84725936  1
  Mo  Mo16  1  0.21801897  0.52076534  0.65284167  1
  Mo  Mo17  1  0.70510035  0.51732809  0.85019638  1
  Mo  Mo18  1  0.21194567  0.98052827  0.64990210  1
  Mo  Mo19  1  0.28940333  0.01942677  0.15088991  1
  Mo  Mo20  1  0.78620424  0.48105537  0.34754403  1
  Mo  Mo21  1  0.22497035  0.24581413  0.94585476  1
  Mo  Mo22  1  0.71497644  0.25292148  0.55660710  1
  Mo  Mo23  1  0.77851479  0.74980146  0.05502350  1
  Mo  Mo24  1  0.27794925  0.75151664  0.44519369  1
  O  O25  1  0.10364200  0.52998704  0.06887860  1
  O  O26  1  0.60459833  0.97023625  0.43145393  1
  O  O27  1  0.92051976  0.01252709  0.92858087  1
  O  O28  1  0.42396391  0.49284675  0.57146513  1
  O  O29  1  0.93269700  0.48680148  0.92286492  1
  O  O30  1  0.43210417  0.00725325  0.57518027  1
  O  O31  1  0.08463370  0.98273227  0.07221501  1
  O  O32  1  0.58744182  0.51701305  0.42758793  1
  O  O33  1  0.43010567  0.11271887  0.96581211  1
  O  O34  1  0.92659420  0.38520451  0.53845979  1
  O  O35  1  0.56846990  0.63006537  0.03536370  1
  O  O36  1  0.06890394  0.87122652  0.46569093  1
  O  O37  1  0.59037622  0.88570240  0.03517044  1
  O  O38  1  0.08819251  0.61626484  0.46571752  1
  O  O39  1  0.38902622  0.38740844  0.96649544  1
  O  O40  1  0.88529171  0.11355667  0.53705124  1
  O  O41  1  0.54535242  0.40493739  0.13017955  1
  O  O42  1  0.04521510  0.09570786  0.36972759  1
  O  O43  1  0.43819411  0.89460532  0.87945510  1
  O  O44  1  0.93377750  0.60205047  0.62241678  1
  O  O45  1  0.42131569  0.60215576  0.88743410  1
  O  O46  1  0.91668065  0.90061440  0.61411622  1
  O  O47  1  0.57017884  0.09910254  0.11847207  1
  O  O48  1  0.06628345  0.40178036  0.37897050  1
  O  O49  1  0.08835310  0.39130782  0.21046096  1
  O  O50  1  0.58914920  0.10909904  0.28948404  1
  O  O51  1  0.88807350  0.89008409  0.78800152  1
  O  O52  1  0.38939125  0.61728727  0.71119133  1
  O  O53  1  0.86975773  0.61805206  0.78995387  1
  O  O54  1  0.37254166  0.87798097  0.70884113  1
  O  O55  1  0.10981181  0.11739971  0.20527831  1
  O  O56  1  0.60444337  0.38304997  0.29390685  1
  O  O57  1  0.94939535  0.22816156  0.00375467  1
  O  O58  1  0.45652318  0.26930378  0.49271682  1
  O  O59  1  0.05215098  0.74956925  0.99143065  1
  O  O60  1  0.55266198  0.75118437  0.50786937  1
  O  O61  1  0.16249100  0.24540085  0.84922641  1
  O  O62  1  0.60918598  0.25308212  0.64996631  1
  O  O63  1  0.85287966  0.74668952  0.15447413  1
  O  O64  1  0.35052756  0.75420962  0.34542246  1
  O  O65  1  0.35508175  0.62707569  0.20840172  1
  O  O66  1  0.85457913  0.87361902  0.29147018  1
  O  O67  1  0.61587318  0.11633120  0.79778599  1
  O  O68  1  0.16227952  0.38197800  0.70261380  1
  O  O69  1  0.61553482  0.38528126  0.80163188  1
  O  O70  1  0.16679409  0.11679966  0.69942090  1
  O  O71  1  0.35497188  0.87863713  0.20379651  1
  O  O72  1  0.85281133  0.62253422  0.29520498  1
