# generated using pymatgen
data_Nb12ZnSe16
_symmetry_space_group_name_H-M   'P 1'
_cell_length_a   6.97195890
_cell_length_b   10.75705453
_cell_length_c   10.13184463
_cell_angle_alpha   61.85202041
_cell_angle_beta   90.04394189
_cell_angle_gamma   71.11277240
_symmetry_Int_Tables_number   1
_chemical_formula_structural   Nb12ZnSe16
_chemical_formula_sum   'Nb12 Zn1 Se16'
_cell_volume   623.10396715
_cell_formula_units_Z   1
loop_
 _symmetry_equiv_pos_site_id
 _symmetry_equiv_pos_as_xyz
  1  'x, y, z'
loop_
 _atom_site_type_symbol
 _atom_site_label
 _atom_site_symmetry_multiplicity
 _atom_site_fract_x
 _atom_site_fract_y
 _atom_site_fract_z
 _atom_site_occupancy
  Nb  Nb0  1  0.17850535  0.89199662  0.48860314  1
  Nb  Nb1  1  0.67922159  0.89114483  0.48890951  1
  Nb  Nb2  1  0.38128508  0.48915215  0.61979065  1
  Nb  Nb3  1  0.87986015  0.48795554  0.62032620  1
  Nb  Nb4  1  0.31391908  0.61993821  0.89204401  1
  Nb  Nb5  1  0.81605079  0.61942567  0.89136042  1
  Nb  Nb6  1  0.82077841  0.10885517  0.51109049  1
  Nb  Nb7  1  0.32149465  0.10800338  0.51139686  1
  Nb  Nb8  1  0.62013985  0.51204446  0.37967380  1
  Nb  Nb9  1  0.11871492  0.51084785  0.38020935  1
  Nb  Nb10  1  0.68394921  0.38057433  0.10863958  1
  Nb  Nb11  1  0.18608092  0.38006179  0.10795599  1
  Zn  Zn12  1  0.75000000  0.00000000  -0.00000000  1
  Se  Se13  1  0.76533091  0.72012421  0.34033375  1
  Se  Se14  1  0.26483601  0.71924427  0.34107509  1
  Se  Se15  1  0.95421279  0.34100749  0.94006547  1
  Se  Se16  1  0.45542012  0.34017935  0.93971888  1
  Se  Se17  1  0.65484506  0.93998253  0.71986469  1
  Se  Se18  1  0.15461110  0.93976336  0.71917481  1
  Se  Se19  1  0.23516399  0.28075573  0.65892491  1
  Se  Se20  1  0.73466909  0.27987579  0.65966625  1
  Se  Se21  1  0.04457988  0.65982065  0.06028112  1
  Se  Se22  1  0.54578721  0.65899251  0.05993453  1
  Se  Se23  1  0.34538890  0.06023664  0.28082519  1
  Se  Se24  1  0.84515494  0.06001747  0.28013531  1
  Se  Se25  1  0.95790512  0.33371066  0.33294366  1
  Se  Se26  1  0.45788326  0.33345744  0.33340370  1
  Se  Se27  1  0.04211674  0.66654256  0.66659630  1
  Se  Se28  1  0.54209488  0.66628934  0.66705634  1
