# generated using pymatgen
data_NdZr3Mn8
_symmetry_space_group_name_H-M   'P 1'
_cell_length_a   5.06933979
_cell_length_b   5.06933979
_cell_length_c   8.39055616
_cell_angle_alpha   89.92360756
_cell_angle_beta   90.07639244
_cell_angle_gamma   122.38611021
_symmetry_Int_Tables_number   1
_chemical_formula_structural   NdZr3Mn8
_chemical_formula_sum   'Nd1 Zr3 Mn8'
_cell_volume   182.08367128
_cell_formula_units_Z   1
loop_
 _symmetry_equiv_pos_site_id
 _symmetry_equiv_pos_as_xyz
  1  'x, y, z'
loop_
 _atom_site_type_symbol
 _atom_site_label
 _atom_site_symmetry_multiplicity
 _atom_site_fract_x
 _atom_site_fract_y
 _atom_site_fract_z
 _atom_site_occupancy
  Nd  Nd0  1  0.66661520  0.33338480  0.56120094  1
  Zr  Zr1  1  0.33470757  0.66529243  0.43001356  1
  Zr  Zr2  1  0.33463457  0.66536543  0.06368970  1
  Zr  Zr3  1  0.66506238  0.33493762  0.94051123  1
  Mn  Mn4  1  0.99812677  0.00187323  0.49748270  1
  Mn  Mn5  1  0.99917407  0.00082593  0.00166081  1
  Mn  Mn6  1  0.17354264  0.33655981  0.76090074  1
  Mn  Mn7  1  0.17201495  0.82798505  0.76004872  1
  Mn  Mn8  1  0.66344019  0.82645736  0.76090074  1
  Mn  Mn9  1  0.82964249  0.66677721  0.24054782  1
  Mn  Mn10  1  0.82981637  0.17018363  0.24249521  1
  Mn  Mn11  1  0.33322279  0.17035751  0.24054782  1
