# generated using pymatgen
data_Mn3Ag(PO4)3
_symmetry_space_group_name_H-M   'P 1'
_cell_length_a   6.81662869
_cell_length_b   8.65749307
_cell_length_c   8.65749307
_cell_angle_alpha   92.07473205
_cell_angle_beta   108.09391336
_cell_angle_gamma   108.09391336
_symmetry_Int_Tables_number   1
_chemical_formula_structural   Mn3Ag(PO4)3
_chemical_formula_sum   'Mn6 Ag2 P6 O24'
_cell_volume   456.63641019
_cell_formula_units_Z   2
loop_
 _symmetry_equiv_pos_site_id
 _symmetry_equiv_pos_as_xyz
  1  'x, y, z'
loop_
 _atom_site_type_symbol
 _atom_site_label
 _atom_site_symmetry_multiplicity
 _atom_site_fract_x
 _atom_site_fract_y
 _atom_site_fract_z
 _atom_site_occupancy
  Mn  Mn0  1  0.25000000  0.28249622  0.71750378  1
  Mn  Mn1  1  0.75000000  0.71750378  0.28249622  1
  Mn  Mn2  1  0.12799627  0.37821829  0.05955554  1
  Mn  Mn3  1  0.37200373  0.94044446  0.62178171  1
  Mn  Mn4  1  0.87200373  0.62178171  0.94044446  1
  Mn  Mn5  1  0.62799627  0.05955554  0.37821829  1
  Ag  Ag6  1  0.75000000  0.01452167  0.98547833  1
  Ag  Ag7  1  0.25000000  0.98547833  0.01452167  1
  P  P8  1  0.38623145  0.65556347  0.88803600  1
  P  P9  1  0.11376855  0.11196400  0.34443653  1
  P  P10  1  0.61376855  0.34443653  0.11196400  1
  P  P11  1  0.88623145  0.88803600  0.65556347  1
  P  P12  1  0.25000000  0.69556272  0.30443728  1
  P  P13  1  0.75000000  0.30443728  0.69556272  1
  O  O14  1  0.24227021  0.51719442  0.27324637  1
  O  O15  1  0.25772979  0.72675363  0.48280558  1
  O  O16  1  0.75772979  0.48280558  0.72675363  1
  O  O17  1  0.74227021  0.27324637  0.51719442  1
  O  O18  1  0.15212234  0.25576468  0.47054819  1
  O  O19  1  0.34787766  0.52945181  0.74423532  1
  O  O20  1  0.84787766  0.74423532  0.52945181  1
  O  O21  1  0.65212234  0.47054819  0.25576468  1
  O  O22  1  0.96070332  0.27451328  0.81199626  1
  O  O23  1  0.53929668  0.18800374  0.72548672  1
  O  O24  1  0.03929668  0.72548672  0.18800374  1
  O  O25  1  0.46070332  0.81199626  0.27451328  1
  O  O26  1  0.38320102  0.31656659  0.97793822  1
  O  O27  1  0.11679898  0.02206178  0.68343341  1
  O  O28  1  0.61679898  0.68343341  0.02206178  1
  O  O29  1  0.88320102  0.97793822  0.31656659  1
  O  O30  1  0.10550383  0.16534111  0.17156634  1
  O  O31  1  0.39449617  0.82843366  0.83465889  1
  O  O32  1  0.89449617  0.83465889  0.82843366  1
  O  O33  1  0.60550383  0.17156634  0.16534111  1
  O  O34  1  0.20110327  0.60118156  0.96514482  1
  O  O35  1  0.29889673  0.03485518  0.39881844  1
  O  O36  1  0.79889673  0.39881844  0.03485518  1
  O  O37  1  0.70110327  0.96514482  0.60118156  1
