# generated using pymatgen
data_MgIn2Ga2CuO8
_symmetry_space_group_name_H-M   'P 1'
_cell_length_a   3.37064426
_cell_length_b   8.68390369
_cell_length_c   5.89435088
_cell_angle_alpha   76.65253462
_cell_angle_beta   90.00000718
_cell_angle_gamma   90.00000463
_symmetry_Int_Tables_number   1
_chemical_formula_structural   MgIn2Ga2CuO8
_chemical_formula_sum   'Mg1 In2 Ga2 Cu1 O8'
_cell_volume   167.86933474
_cell_formula_units_Z   1
loop_
 _symmetry_equiv_pos_site_id
 _symmetry_equiv_pos_as_xyz
  1  'x, y, z'
loop_
 _atom_site_type_symbol
 _atom_site_label
 _atom_site_symmetry_multiplicity
 _atom_site_fract_x
 _atom_site_fract_y
 _atom_site_fract_z
 _atom_site_occupancy
  Mg  Mg0  1  0.50000000  0.64252261  0.28417088  1
  In  In1  1  0.00000000  0.00102920  0.00082425  1
  In  In2  1  0.50000000  0.00175456  0.49868490  1
  Ga  Ga3  1  1.00000000  0.35810270  0.21139302  1
  Ga  Ga4  1  0.00000000  0.63770470  0.79449736  1
  Cu  Cu5  1  0.50000000  0.35723187  0.71348881  1
  O  O6  1  0.50000000  0.60978532  0.63982488  1
  O  O7  1  1.00000000  0.61330569  0.12039004  1
  O  O8  1  0.50000000  0.38620414  0.35434547  1
  O  O9  1  0.00000000  0.39011825  0.88269919  1
  O  O10  1  0.50000000  0.12379778  0.78858383  1
  O  O11  1  0.00000000  0.12909145  0.29332156  1
  O  O12  1  0.50000000  0.88042972  0.21015947  1
  O  O13  1  1.00000000  0.86892202  0.70761633  1
