# generated using pymatgen
data_Mn3Fe8CuO16
_symmetry_space_group_name_H-M   'P 1'
_cell_length_a   6.11371255
_cell_length_b   6.11371255
_cell_length_c   10.60908539
_cell_angle_alpha   73.25361849
_cell_angle_beta   90.00000000
_cell_angle_gamma   120.00000000
_symmetry_Int_Tables_number   1
_chemical_formula_structural   Mn3Fe8CuO16
_chemical_formula_sum   'Mn3 Fe8 Cu1 O16'
_cell_volume   323.84981531
_cell_formula_units_Z   1
loop_
 _symmetry_equiv_pos_site_id
 _symmetry_equiv_pos_as_xyz
  1  'x, y, z'
loop_
 _atom_site_type_symbol
 _atom_site_label
 _atom_site_symmetry_multiplicity
 _atom_site_fract_x
 _atom_site_fract_y
 _atom_site_fract_z
 _atom_site_occupancy
  Mn  Mn0  1  0.81275515  0.12551029  0.56173456  1
  Mn  Mn1  1  0.18775218  0.87550437  0.43674345  1
  Mn  Mn2  1  0.68705392  0.87410783  0.93883825  1
  Fe  Fe3  1  0.99983095  0.49966190  0.00050714  1
  Fe  Fe4  1  0.49990585  0.49981170  0.50028245  1
  Fe  Fe5  1  0.75015081  0.00030163  0.24867687  1
  Fe  Fe6  1  0.24988469  0.99976938  0.75158633  1
  Fe  Fe7  1  0.75015081  0.50117232  0.24867687  1
  Fe  Fe8  1  0.24988469  0.49852898  0.75158633  1
  Fe  Fe9  1  0.25102150  0.50117232  0.24867687  1
  Fe  Fe10  1  0.74864429  0.49852898  0.75158633  1
  Cu  Cu11  1  0.31243311  0.12486622  0.06270067  1
  O  O12  1  0.88223227  0.26446454  0.35330318  1
  O  O13  1  0.37994070  0.25988141  0.86017789  1
  O  O14  1  0.10937760  0.71875519  0.12928681  1
  O  O15  1  0.60460497  0.70920995  0.63224654  1
  O  O16  1  0.10937760  0.26133560  0.12928681  1
  O  O17  1  0.60460497  0.26314848  0.63224654  1
  O  O18  1  0.65195800  0.26133560  0.12928681  1
  O  O19  1  0.15854351  0.26314848  0.63224654  1
  O  O20  1  0.61819561  0.73639121  0.14541318  1
  O  O21  1  0.11833338  0.73666676  0.64499986  1
  O  O22  1  0.39534526  0.29069051  0.36823082  1
  O  O23  1  0.89485487  0.28970974  0.86840576  1
  O  O24  1  0.39534526  0.73642393  0.36823082  1
  O  O25  1  0.89485487  0.73673937  0.86840576  1
  O  O26  1  0.84107867  0.73642393  0.36823082  1
  O  O27  1  0.34188451  0.73673937  0.86840576  1
