# generated using pymatgen
data_Mn7Al4V5
_symmetry_space_group_name_H-M   'P 1'
_cell_length_a   4.13533667
_cell_length_b   4.13533667
_cell_length_c   13.70636601
_cell_angle_alpha   90.00000000
_cell_angle_beta   81.32354501
_cell_angle_gamma   120.00000000
_symmetry_Int_Tables_number   1
_chemical_formula_structural   Mn7Al4V5
_chemical_formula_sum   'Mn7 Al4 V5'
_cell_volume   199.88666015
_cell_formula_units_Z   1
loop_
 _symmetry_equiv_pos_site_id
 _symmetry_equiv_pos_as_xyz
  1  'x, y, z'
loop_
 _atom_site_type_symbol
 _atom_site_label
 _atom_site_symmetry_multiplicity
 _atom_site_fract_x
 _atom_site_fract_y
 _atom_site_fract_z
 _atom_site_occupancy
  Mn  Mn0  1  0.25099012  0.12549506  0.62351482  1
  Mn  Mn1  1  0.74903644  0.37451822  0.87644534  1
  Mn  Mn2  1  0.24979133  0.62489567  0.12531300  1
  Mn  Mn3  1  0.75014442  0.87507221  0.37478337  1
  Mn  Mn4  1  0.99955974  0.99977987  0.00066039  1
  Mn  Mn5  1  0.50016736  0.25008368  0.24974897  1
  Mn  Mn6  1  0.00063668  0.50031834  0.49904498  1
  Al  Al7  1  0.62470763  0.31235381  0.06293856  1
  Al  Al8  1  0.12521544  0.56260772  0.31217684  1
  Al  Al9  1  0.62580775  0.81290387  0.56128838  1
  Al  Al10  1  0.12427990  0.06213995  0.81358015  1
  V  V11  1  0.87544820  0.43772410  0.68682770  1
  V  V12  1  0.37460985  0.68730493  0.93808522  1
  V  V13  1  0.87480463  0.93740231  0.18779306  1
  V  V14  1  0.37519788  0.18759894  0.43720319  1
  V  V15  1  0.49960265  0.74980132  0.75059603  1
