# generated using pymatgen
data_Mn2CrI6
_symmetry_space_group_name_H-M   'P 1'
_cell_length_a   4.08741432
_cell_length_b   4.18661562
_cell_length_c   21.78509317
_cell_angle_alpha   91.54818568
_cell_angle_beta   89.99999955
_cell_angle_gamma   119.21921806
_symmetry_Int_Tables_number   1
_chemical_formula_structural   Mn2CrI6
_chemical_formula_sum   'Mn2 Cr1 I6'
_cell_volume   325.20484843
_cell_formula_units_Z   1
loop_
 _symmetry_equiv_pos_site_id
 _symmetry_equiv_pos_as_xyz
  1  'x, y, z'
loop_
 _atom_site_type_symbol
 _atom_site_label
 _atom_site_symmetry_multiplicity
 _atom_site_fract_x
 _atom_site_fract_y
 _atom_site_fract_z
 _atom_site_occupancy
  Mn  Mn0  1  0.66613887  0.33227674  0.33279753  1
  Mn  Mn1  1  0.33386113  0.66772326  0.66720247  1
  Cr  Cr2  1  -0.00000000  -0.00000000  -0.00000000  1
  I  I3  1  0.00480778  0.00961456  0.74365806  1
  I  I4  1  0.64583123  0.29166345  0.07474056  1
  I  I5  1  0.33683558  0.67367117  0.40917416  1
  I  I6  1  0.35416877  0.70833655  0.92525944  1
  I  I7  1  0.99519222  0.99038544  0.25634194  1
  I  I8  1  0.66316442  0.32632883  0.59082584  1
