# generated using pymatgen
data_MnCoSi2
_symmetry_space_group_name_H-M   'P 1'
_cell_length_a   4.49414124
_cell_length_b   4.50506651
_cell_length_c   4.43739441
_cell_angle_alpha   90.00000000
_cell_angle_beta   90.00000000
_cell_angle_gamma   90.60627752
_symmetry_Int_Tables_number   1
_chemical_formula_structural   MnCoSi2
_chemical_formula_sum   'Mn2 Co2 Si4'
_cell_volume   89.83625543
_cell_formula_units_Z   2
loop_
 _symmetry_equiv_pos_site_id
 _symmetry_equiv_pos_as_xyz
  1  'x, y, z'
loop_
 _atom_site_type_symbol
 _atom_site_label
 _atom_site_symmetry_multiplicity
 _atom_site_fract_x
 _atom_site_fract_y
 _atom_site_fract_z
 _atom_site_occupancy
  Mn  Mn0  1  0.35666129  0.87124788  0.63781132  1
  Mn  Mn1  1  0.14333871  0.12875212  0.13781132  1
  Co  Co2  1  0.86008665  0.63644126  0.36423689  1
  Co  Co3  1  0.63991335  0.36355874  0.86423689  1
  Si  Si4  1  0.16191577  0.35091996  0.65745891  1
  Si  Si5  1  0.33808423  0.64908004  0.15745891  1
  Si  Si6  1  0.66169419  0.15743483  0.34049288  1
  Si  Si7  1  0.83830581  0.84256517  0.84049288  1
