# generated using pymatgen
data_MnVP2
_symmetry_space_group_name_H-M   'P 1'
_cell_length_a   3.06363603
_cell_length_b   5.32946513
_cell_length_c   6.05194235
_cell_angle_alpha   90.00000000
_cell_angle_beta   90.00000000
_cell_angle_gamma   90.00000000
_symmetry_Int_Tables_number   1
_chemical_formula_structural   MnVP2
_chemical_formula_sum   'Mn2 V2 P4'
_cell_volume   98.81333923
_cell_formula_units_Z   2
loop_
 _symmetry_equiv_pos_site_id
 _symmetry_equiv_pos_as_xyz
  1  'x, y, z'
loop_
 _atom_site_type_symbol
 _atom_site_label
 _atom_site_symmetry_multiplicity
 _atom_site_fract_x
 _atom_site_fract_y
 _atom_site_fract_z
 _atom_site_occupancy
  Mn  Mn0  1  0.75000000  0.49072869  0.68828245  1
  Mn  Mn1  1  0.75000000  0.99072869  0.81171755  1
  V  V2  1  0.25000000  0.50552125  0.29854066  1
  V  V3  1  0.25000000  0.00552125  0.20145934  1
  P  P4  1  0.75000000  0.31659186  0.05011582  1
  P  P5  1  0.75000000  0.81659186  0.44988418  1
  P  P6  1  0.25000000  0.68715819  0.92368572  1
  P  P7  1  0.25000000  0.18715819  0.57631428  1
