# generated using pymatgen
data_LiFe4(PO4)4
_symmetry_space_group_name_H-M   'P 1'
_cell_length_a   5.34147300
_cell_length_b   8.01337582
_cell_length_c   8.06516457
_cell_angle_alpha   59.78598543
_cell_angle_beta   90.00000000
_cell_angle_gamma   70.53172768
_symmetry_Int_Tables_number   1
_chemical_formula_structural   LiFe4(PO4)4
_chemical_formula_sum   'Li1 Fe4 P4 O16'
_cell_volume   275.23830192
_cell_formula_units_Z   1
loop_
 _symmetry_equiv_pos_site_id
 _symmetry_equiv_pos_as_xyz
  1  'x, y, z'
loop_
 _atom_site_type_symbol
 _atom_site_label
 _atom_site_symmetry_multiplicity
 _atom_site_fract_x
 _atom_site_fract_y
 _atom_site_fract_z
 _atom_site_occupancy
  Li  Li0  1  0.12500000  0.75000000  0.79906584  1
  Fe  Fe1  1  0.25541552  0.48916896  0.25722980  1
  Fe  Fe2  1  0.74786444  0.50427112  0.74794309  1
  Fe  Fe3  1  0.50213556  0.99572888  0.50221421  1
  Fe  Fe4  1  0.99458448  0.01083104  0.99639876  1
  P  P5  1  0.62500000  0.75000000  0.97313889  1
  P  P6  1  0.12500000  0.75000000  0.46557703  1
  P  P7  1  0.87286876  0.25426247  0.52503177  1
  P  P8  1  0.37713124  0.24573753  0.02929424  1
  O  O9  1  0.72357113  0.55285775  0.96540576  1
  O  O10  1  0.22390502  0.55218997  0.45964047  1
  O  O11  1  0.77686456  0.44627087  0.53834139  1
  O  O12  1  0.27384128  0.45231744  0.02807191  1
  O  O13  1  0.52642887  0.94714225  0.76826351  1
  O  O14  1  0.02609498  0.94781003  0.26183043  1
  O  O15  1  0.97615872  0.04768256  0.73038935  1
  O  O16  1  0.47313544  0.05372913  0.23461226  1
  O  O17  1  0.37923499  0.75000000  0.08341911  1
  O  O18  1  0.89569575  0.75000000  0.58958442  1
  O  O19  1  0.63365081  0.25426474  0.41050369  1
  O  O20  1  0.13791554  0.24573526  0.91476842  1
  O  O21  1  0.11208446  0.25426474  0.41050369  1
  O  O22  1  0.61634919  0.24573526  0.91476842  1
  O  O23  1  0.87076501  0.75000000  0.08341911  1
  O  O24  1  0.35430425  0.75000000  0.58958442  1
