# generated using pymatgen
data_Lu(VFe5)2
_symmetry_space_group_name_H-M   'P 1'
_cell_length_a   4.68365147
_cell_length_b   6.39450984
_cell_length_c   6.39450984
_cell_angle_alpha   97.29768657
_cell_angle_beta   111.48295576
_cell_angle_gamma   68.51704424
_symmetry_Int_Tables_number   1
_chemical_formula_structural   Lu(VFe5)2
_chemical_formula_sum   'Lu1 V2 Fe10'
_cell_volume   165.82196102
_cell_formula_units_Z   1
loop_
 _symmetry_equiv_pos_site_id
 _symmetry_equiv_pos_as_xyz
  1  'x, y, z'
loop_
 _atom_site_type_symbol
 _atom_site_label
 _atom_site_symmetry_multiplicity
 _atom_site_fract_x
 _atom_site_fract_y
 _atom_site_fract_z
 _atom_site_occupancy
  Lu  Lu0  1  -0.00000000  0.00000000  0.00000000  1
  V  V1  1  -0.00000000  0.35785496  0.35785496  1
  V  V2  1  0.00000000  0.64214504  0.64214504  1
  Fe  Fe3  1  0.50000000  0.00000000  0.50000000  1
  Fe  Fe4  1  -0.00000000  0.00000000  0.50000000  1
  Fe  Fe5  1  0.50000000  0.50000000  0.00000000  1
  Fe  Fe6  1  -0.00000000  0.50000000  0.00000000  1
  Fe  Fe7  1  0.72154723  0.77845277  0.22154723  1
  Fe  Fe8  1  0.27845277  0.22154723  0.77845277  1
  Fe  Fe9  1  0.50000000  0.77601325  0.77601325  1
  Fe  Fe10  1  0.50000000  0.22398675  0.22398675  1
  Fe  Fe11  1  0.64191376  0.35808624  0.64191376  1
  Fe  Fe12  1  0.35808624  0.64191376  0.35808624  1
