# generated using pymatgen
data_LuTh(BRh)8
_symmetry_space_group_name_H-M   'P 1'
_cell_length_a   5.35091476
_cell_length_b   5.35091476
_cell_length_c   7.52492928
_cell_angle_alpha   90.00000000
_cell_angle_beta   90.00000000
_cell_angle_gamma   90.00000000
_symmetry_Int_Tables_number   1
_chemical_formula_structural   LuTh(BRh)8
_chemical_formula_sum   'Lu1 Th1 B8 Rh8'
_cell_volume   215.45594811
_cell_formula_units_Z   1
loop_
 _symmetry_equiv_pos_site_id
 _symmetry_equiv_pos_as_xyz
  1  'x, y, z'
loop_
 _atom_site_type_symbol
 _atom_site_label
 _atom_site_symmetry_multiplicity
 _atom_site_fract_x
 _atom_site_fract_y
 _atom_site_fract_z
 _atom_site_occupancy
  Lu  Lu0  1  0.75000000  0.25000000  0.25000000  1
  Th  Th1  1  0.25000000  0.75000000  0.75000000  1
  B  B2  1  0.58117096  0.75000000  0.39885028  1
  B  B3  1  0.91882904  0.75000000  0.39885028  1
  B  B4  1  0.75000000  0.58346353  0.90088696  1
  B  B5  1  0.75000000  0.91653647  0.90088696  1
  B  B6  1  0.41653647  0.25000000  0.59911304  1
  B  B7  1  0.08346353  0.25000000  0.59911304  1
  B  B8  1  0.25000000  0.41882904  0.10114972  1
  B  B9  1  0.25000000  0.08117096  0.10114972  1
  Rh  Rh10  1  0.99951253  0.75000000  0.10855201  1
  Rh  Rh11  1  0.50048747  0.75000000  0.10855201  1
  Rh  Rh12  1  0.75000000  0.00134350  0.60016927  1
  Rh  Rh13  1  0.75000000  0.49865650  0.60016927  1
  Rh  Rh14  1  0.99865650  0.25000000  0.89983073  1
  Rh  Rh15  1  0.50134350  0.25000000  0.89983073  1
  Rh  Rh16  1  0.25000000  0.00048747  0.39144799  1
  Rh  Rh17  1  0.25000000  0.49951253  0.39144799  1
