# generated using pymatgen
data_Li2Mn4N3
_symmetry_space_group_name_H-M   'P 1'
_cell_length_a   4.59439514
_cell_length_b   7.33963835
_cell_length_c   5.28924290
_cell_angle_alpha   84.20112576
_cell_angle_beta   90.00000000
_cell_angle_gamma   90.00000000
_symmetry_Int_Tables_number   1
_chemical_formula_structural   Li2Mn4N3
_chemical_formula_sum   'Li4 Mn8 N6'
_cell_volume   177.44689064
_cell_formula_units_Z   2
loop_
 _symmetry_equiv_pos_site_id
 _symmetry_equiv_pos_as_xyz
  1  'x, y, z'
loop_
 _atom_site_type_symbol
 _atom_site_label
 _atom_site_symmetry_multiplicity
 _atom_site_fract_x
 _atom_site_fract_y
 _atom_site_fract_z
 _atom_site_occupancy
  Li  Li0  1  0.20583751  0.09414642  0.69923072  1
  Li  Li1  1  0.79416249  0.57251958  0.63410328  1
  Li  Li2  1  0.29416249  0.09414642  0.19923072  1
  Li  Li3  1  0.70583751  0.57251958  0.13410328  1
  Mn  Mn4  1  0.19876139  0.43451612  0.35126838  1
  Mn  Mn5  1  0.20644040  0.77351355  0.03540627  1
  Mn  Mn6  1  0.79355960  0.89315345  0.29792673  1
  Mn  Mn7  1  0.80123861  0.23215088  0.98206462  1
  Mn  Mn8  1  0.29355960  0.77351355  0.53540627  1
  Mn  Mn9  1  0.30123861  0.43451612  0.85126838  1
  Mn  Mn10  1  0.70644040  0.89315345  0.79792673  1
  Mn  Mn11  1  0.69876139  0.23215088  0.48206462  1
  N  N12  1  0.48026460  0.67221196  0.83071371  1
  N  N13  1  0.51973540  0.99445504  0.50261929  1
  N  N14  1  0.50000000  0.33333300  0.16666700  1
  N  N15  1  0.01973540  0.67221196  0.33071371  1
  N  N16  1  0.98026460  0.99445504  0.00261929  1
  N  N17  1  -0.00000000  0.33333300  0.66666700  1
