# generated using pymatgen
data_NiH7C3NO6
_symmetry_space_group_name_H-M   'P 1'
_cell_length_a   7.39227297
_cell_length_b   7.47117455
_cell_length_c   8.02157723
_cell_angle_alpha   91.03074006
_cell_angle_beta   90.00000000
_cell_angle_gamma   60.34873785
_symmetry_Int_Tables_number   1
_chemical_formula_structural   NiH7C3NO6
_chemical_formula_sum   'Ni2 H14 C6 N2 O12'
_cell_volume   384.92815570
_cell_formula_units_Z   2
loop_
 _symmetry_equiv_pos_site_id
 _symmetry_equiv_pos_as_xyz
  1  'x, y, z'
loop_
 _atom_site_type_symbol
 _atom_site_label
 _atom_site_symmetry_multiplicity
 _atom_site_fract_x
 _atom_site_fract_y
 _atom_site_fract_z
 _atom_site_occupancy
  Ni  Ni0  1  0.66771704  0.66618328  0.25050804  1
  Ni  Ni1  1  0.33390032  0.33381672  0.74949196  1
  H  H2  1  0.58853698  0.41031841  0.49822435  1
  H  H3  1  0.41009915  0.00000000  0.50000000  1
  H  H4  1  0.99885539  0.58968159  0.50177565  1
  H  H5  1  0.40897565  0.59020613  0.99933352  1
  H  H6  1  0.58661692  1.00000000  1.00000000  1
  H  H7  1  0.99918178  0.40979387  0.00066648  1
  H  H8  1  0.98179458  0.91274055  0.34557552  1
  H  H9  1  0.93443105  0.14896816  0.28761617  1
  H  H10  1  0.89453512  0.08725945  0.65442448  1
  H  H11  1  0.08339921  0.85103184  0.71238383  1
  H  H12  1  0.89085223  0.02072921  0.84528756  1
  H  H13  1  0.08495015  0.06537808  0.78792335  1
  H  H14  1  0.91158144  0.97927079  0.15471244  1
  H  H15  1  0.15032822  0.93462192  0.21207665  1
  C  C16  1  0.44206152  0.55942266  0.50139416  1
  C  C17  1  0.55955887  1.00000000  0.50000000  1
  C  C18  1  0.00148418  0.44057734  0.49860584  1
  C  C19  1  0.55723499  0.44299332  -0.00002679  1
  C  C20  1  0.43715336  0.00000000  0.00000000  1
  C  C21  1  0.00022832  0.55700668  0.00002679  1
  N  N22  1  0.99570323  0.99524675  0.25010928  1
  N  N23  1  0.99094998  0.00475325  0.74989072  1
  O  O24  1  0.42221257  0.69503572  0.39901859  1
  O  O25  1  0.70104549  0.88002705  0.39807723  1
  O  O26  1  0.88740461  0.41641743  0.39193396  1
  O  O27  1  0.11724829  0.30496428  0.60098141  1
  O  O28  1  0.58107254  0.11997295  0.60192277  1
  O  O29  1  0.30382204  0.58358257  0.60806604  1
  O  O30  1  0.57935695  0.30164989  0.89697261  1
  O  O31  1  0.30196962  0.11134717  0.89393171  1
  O  O32  1  0.11875522  0.57680414  0.89729277  1
  O  O33  1  0.88100684  0.69835011  0.10302739  1
  O  O34  1  0.41331679  0.88865283  0.10606829  1
  O  O35  1  0.69555936  0.42319586  0.10270723  1
