# generated using pymatgen
data_LaYMg4
_symmetry_space_group_name_H-M   'P 1'
_cell_length_a   6.12767673
_cell_length_b   6.12767673
_cell_length_c   6.12767673
_cell_angle_alpha   90.00000000
_cell_angle_beta   60.00000000
_cell_angle_gamma   120.00000000
_symmetry_Int_Tables_number   1
_chemical_formula_structural   LaYMg4
_chemical_formula_sum   'La1 Y1 Mg4'
_cell_volume   162.69437568
_cell_formula_units_Z   1
loop_
 _symmetry_equiv_pos_site_id
 _symmetry_equiv_pos_as_xyz
  1  'x, y, z'
loop_
 _atom_site_type_symbol
 _atom_site_label
 _atom_site_symmetry_multiplicity
 _atom_site_fract_x
 _atom_site_fract_y
 _atom_site_fract_z
 _atom_site_occupancy
  La  La0  1  0.50000000  0.75000000  0.75000000  1
  Y  Y1  1  -0.00000000  0.00000000  0.00000000  1
  Mg  Mg2  1  0.74976470  0.37488235  0.87535295  1
  Mg  Mg3  1  0.25023530  0.37488235  0.37488235  1
  Mg  Mg4  1  0.25023530  0.87535295  0.37488235  1
  Mg  Mg5  1  0.74976470  0.37488235  0.37488235  1
