# generated using pymatgen
data_Li5Mn2Co(NiO5)2
_symmetry_space_group_name_H-M   'P 1'
_cell_length_a   5.06593943
_cell_length_b   6.60805590
_cell_length_c   5.88852763
_cell_angle_alpha   76.76029101
_cell_angle_beta   73.73918167
_cell_angle_gamma   97.78098604
_symmetry_Int_Tables_number   1
_chemical_formula_structural   Li5Mn2Co(NiO5)2
_chemical_formula_sum   'Li5 Mn2 Co1 Ni2 O10'
_cell_volume   179.96146168
_cell_formula_units_Z   1
loop_
 _symmetry_equiv_pos_site_id
 _symmetry_equiv_pos_as_xyz
  1  'x, y, z'
loop_
 _atom_site_type_symbol
 _atom_site_label
 _atom_site_symmetry_multiplicity
 _atom_site_fract_x
 _atom_site_fract_y
 _atom_site_fract_z
 _atom_site_occupancy
  Li  Li0  1  0.19794989  0.40131874  0.09898928  1
  Li  Li1  1  0.99730794  0.00457887  0.49924937  1
  Li  Li2  1  0.79770971  0.59657822  0.89924061  1
  Li  Li3  1  0.60526635  0.20029020  0.30212503  1
  Li  Li4  1  0.40232572  0.79736099  0.70071630  1
  Mn  Mn5  1  0.19975079  0.39886607  0.60095139  1
  Mn  Mn6  1  0.39900010  0.79786438  0.20173347  1
  Co  Co7  1  0.00151500  0.00313536  -0.00208929  1
  Ni  Ni8  1  0.60016117  0.20071394  0.79883119  1
  Ni  Ni9  1  0.79996725  0.59964628  0.40102520  1
  O  O10  1  0.48400229  0.49018689  0.73797650  1
  O  O11  1  0.29244698  0.07223017  0.14905568  1
  O  O12  1  0.12289928  0.68952759  0.53251092  1
  O  O13  1  0.92187057  0.30521361  0.92743125  1
  O  O14  1  0.68514006  0.89683509  0.33331100  1
  O  O15  1  0.91566194  0.30682280  0.46240986  1
  O  O16  1  0.69391100  0.89334735  0.88084944  1
  O  O17  1  0.47816315  0.51059010  0.26571319  1
  O  O18  1  0.28705798  0.12009479  0.65075539  1
  O  O19  1  0.11789281  0.71479856  0.05921420  1
