# generated using pymatgen
data_Ho2In3Cu
_symmetry_space_group_name_H-M   'P 1'
_cell_length_a   4.72163136
_cell_length_b   4.72163136
_cell_length_c   7.47519610
_cell_angle_alpha   90.00850942
_cell_angle_beta   89.99149058
_cell_angle_gamma   119.98358090
_symmetry_Int_Tables_number   1
_chemical_formula_structural   Ho2In3Cu
_chemical_formula_sum   'Ho2 In3 Cu1'
_cell_volume   144.34747738
_cell_formula_units_Z   1
loop_
 _symmetry_equiv_pos_site_id
 _symmetry_equiv_pos_as_xyz
  1  'x, y, z'
loop_
 _atom_site_type_symbol
 _atom_site_label
 _atom_site_symmetry_multiplicity
 _atom_site_fract_x
 _atom_site_fract_y
 _atom_site_fract_z
 _atom_site_occupancy
  Ho  Ho0  1  0.00001189  0.99998811  0.72270597  1
  Ho  Ho1  1  0.99998316  0.00001684  0.26371999  1
  In  In2  1  0.33333172  0.66666828  0.48340395  1
  In  In3  1  0.33326697  0.66673303  0.05083645  1
  In  In4  1  0.66671100  0.33328900  0.93556837  1
  Cu  Cu5  1  0.66669525  0.33330475  0.54376528  1
