# generated using pymatgen
data_KCa3Mg3Al(SiO3)8
_symmetry_space_group_name_H-M   'P 1'
_cell_length_a   5.32344389
_cell_length_b   9.78370814
_cell_length_c   9.00156085
_cell_angle_alpha   90.00000000
_cell_angle_beta   90.00000000
_cell_angle_gamma   105.28174795
_symmetry_Int_Tables_number   1
_chemical_formula_structural   KCa3Mg3Al(SiO3)8
_chemical_formula_sum   'K1 Ca3 Mg3 Al1 Si8 O24'
_cell_volume   452.25138007
_cell_formula_units_Z   1
loop_
 _symmetry_equiv_pos_site_id
 _symmetry_equiv_pos_as_xyz
  1  'x, y, z'
loop_
 _atom_site_type_symbol
 _atom_site_label
 _atom_site_symmetry_multiplicity
 _atom_site_fract_x
 _atom_site_fract_y
 _atom_site_fract_z
 _atom_site_occupancy
  K  K0  1  0.25000000  0.50000000  0.81114875  1
  Ca  Ca1  1  0.75000000  0.00000000  0.30172830  1
  Ca  Ca2  1  0.75000000  0.50000000  0.19406284  1
  Ca  Ca3  1  0.25000000  0.00000000  0.69570724  1
  Mg  Mg4  1  0.25000000  0.50000000  0.40651780  1
  Mg  Mg5  1  0.75000000  0.00000000  0.90532638  1
  Mg  Mg6  1  0.25000000  0.00000000  0.09147271  1
  Al  Al7  1  0.75000000  0.50000000  0.59828499  1
  Si  Si8  1  0.43660201  0.71502033  0.09266409  1
  Si  Si9  1  0.93439162  0.21813524  0.59331813  1
  Si  Si10  1  0.06339799  0.28497967  0.09266409  1
  Si  Si11  1  0.56560838  0.78186476  0.59331813  1
  Si  Si12  1  0.56580163  0.28580146  0.90339659  1
  Si  Si13  1  0.05716400  0.78415782  0.41017946  1
  Si  Si14  1  0.93419837  0.71419854  0.90339659  1
  Si  Si15  1  0.44283600  0.21584218  0.41017946  1
  O  O16  1  0.13669782  0.65735613  0.01919445  1
  O  O17  1  0.63663613  0.14493124  0.52048713  1
  O  O18  1  0.36330218  0.34264387  0.01919445  1
  O  O19  1  0.86336387  0.85506876  0.52048713  1
  O  O20  1  0.85245157  0.34667571  0.98869113  1
  O  O21  1  0.35834840  0.84160187  0.48135080  1
  O  O22  1  0.64754843  0.65332429  0.98869113  1
  O  O23  1  0.14165160  0.15839813  0.48135080  1
  O  O24  1  0.52523909  0.88689671  0.08961007  1
  O  O25  1  0.99751448  0.38936396  0.57541838  1
  O  O26  1  0.97476091  0.11310329  0.08961007  1
  O  O27  1  0.50248552  0.61063604  0.57541838  1
  O  O28  1  0.47549268  0.11389934  0.90450205  1
  O  O29  1  0.96270781  0.61176804  0.42520666  1
  O  O30  1  0.02450732  0.88610066  0.90450205  1
  O  O31  1  0.53729219  0.38823196  0.42520666  1
  O  O32  1  0.44830638  0.63591158  0.24834639  1
  O  O33  1  0.96281070  0.14382330  0.74904190  1
  O  O34  1  0.05169362  0.36408842  0.24834639  1
  O  O35  1  0.53718930  0.85617670  0.74904190  1
  O  O36  1  0.57658332  0.36271361  0.74326548  1
  O  O37  1  0.04091743  0.85861979  0.25320279  1
  O  O38  1  0.92341668  0.63728639  0.74326548  1
  O  O39  1  0.45908257  0.14138021  0.25320279  1
