# generated using pymatgen
data_Li11(MoO2)12
_symmetry_space_group_name_H-M   'P 1'
_cell_length_a   7.04069984
_cell_length_b   8.29169813
_cell_length_c   9.35174863
_cell_angle_alpha   102.00897421
_cell_angle_beta   96.15141901
_cell_angle_gamma   92.77469149
_symmetry_Int_Tables_number   1
_chemical_formula_structural   Li11(MoO2)12
_chemical_formula_sum   'Li11 Mo12 O24'
_cell_volume   529.52122510
_cell_formula_units_Z   1
loop_
 _symmetry_equiv_pos_site_id
 _symmetry_equiv_pos_as_xyz
  1  'x, y, z'
loop_
 _atom_site_type_symbol
 _atom_site_label
 _atom_site_symmetry_multiplicity
 _atom_site_fract_x
 _atom_site_fract_y
 _atom_site_fract_z
 _atom_site_occupancy
  Li  Li0  1  0.83539625  0.32482054  0.16024883  1
  Li  Li1  1  0.16460375  0.67517946  0.83975117  1
  Li  Li2  1  0.50000000  0.00000000  0.50000000  1
  Li  Li3  1  0.00000000  0.50000000  0.50000000  1
  Li  Li4  1  0.32096268  0.83258710  0.15544723  1
  Li  Li5  1  0.67903732  0.16741290  0.84455277  1
  Li  Li6  1  0.83607251  0.84739507  0.68167510  1
  Li  Li7  1  0.16392749  0.15260493  0.31832490  1
  Li  Li8  1  0.50000000  0.50000000  -0.00000000  1
  Li  Li9  1  0.33005532  0.32670040  0.67079883  1
  Li  Li10  1  0.66994468  0.67329960  0.32920117  1
  Mo  Mo11  1  0.24713590  0.50354115  0.25003032  1
  Mo  Mo12  1  0.59227140  0.83436046  0.91644293  1
  Mo  Mo13  1  0.91556104  0.16692627  0.57987087  1
  Mo  Mo14  1  0.75286410  0.49645885  0.74996968  1
  Mo  Mo15  1  0.08443896  0.83307373  0.42012913  1
  Mo  Mo16  1  0.40772860  0.16563954  0.08355707  1
  Mo  Mo17  1  0.91986883  0.67102323  0.08281149  1
  Mo  Mo18  1  0.24956532  0.99470814  0.75126787  1
  Mo  Mo19  1  0.57654357  0.34072538  0.41899554  1
  Mo  Mo20  1  0.08013117  0.32897677  0.91718851  1
  Mo  Mo21  1  0.42345643  0.65927462  0.58100446  1
  Mo  Mo22  1  0.75043468  0.00529186  0.24873213  1
  O  O23  1  0.86650277  0.73427428  0.86860780  1
  O  O24  1  0.19728737  0.07737832  0.54292640  1
  O  O25  1  0.52498753  0.41296732  0.20942358  1
  O  O26  1  0.03053821  0.40741065  0.70707297  1
  O  O27  1  0.36816174  0.74640384  0.37896813  1
  O  O28  1  0.68377042  0.08379035  0.04284246  1
  O  O29  1  0.13349723  0.26572572  0.13139220  1
  O  O30  1  0.47501247  0.58703268  0.79057642  1
  O  O31  1  0.80271263  0.92262168  0.45707360  1
  O  O32  1  0.96946179  0.59258935  0.29292703  1
  O  O33  1  0.31622958  0.91620965  0.95715754  1
  O  O34  1  0.63183826  0.25359616  0.62103187  1
  O  O35  1  0.19751564  0.57737988  0.04085298  1
  O  O36  1  0.53107563  0.89835064  0.70203480  1
  O  O37  1  0.84772603  0.25506914  0.37454300  1
  O  O38  1  0.80248436  0.42262012  0.95914702  1
  O  O39  1  0.15227397  0.74493086  0.62545700  1
  O  O40  1  0.46892437  0.10164936  0.29796520  1
  O  O41  1  0.29811218  0.42180910  0.46140222  1
  O  O42  1  0.64179555  0.76038723  0.12683233  1
  O  O43  1  0.96966971  0.08774027  0.78210903  1
  O  O44  1  0.70188782  0.57819090  0.53859778  1
  O  O45  1  0.03033029  0.91225973  0.21789097  1
  O  O46  1  0.35820445  0.23961277  0.87316767  1
