# generated using pymatgen
data_KCe2CuSe6
_symmetry_space_group_name_H-M   'P 1'
_cell_length_a   4.18550974
_cell_length_b   5.79005885
_cell_length_c   11.67594032
_cell_angle_alpha   75.64386432
_cell_angle_beta   79.67470778
_cell_angle_gamma   90.00000000
_symmetry_Int_Tables_number   1
_chemical_formula_structural   KCe2CuSe6
_chemical_formula_sum   'K1 Ce2 Cu1 Se6'
_cell_volume   269.39043487
_cell_formula_units_Z   1
loop_
 _symmetry_equiv_pos_site_id
 _symmetry_equiv_pos_as_xyz
  1  'x, y, z'
loop_
 _atom_site_type_symbol
 _atom_site_label
 _atom_site_symmetry_multiplicity
 _atom_site_fract_x
 _atom_site_fract_y
 _atom_site_fract_z
 _atom_site_occupancy
  K  K0  1  0.00098529  0.00098529  0.99802942  1
  Ce  Ce1  1  0.82115881  0.32115881  0.35768239  1
  Ce  Ce2  1  0.17597254  0.67597254  0.64805493  1
  Cu  Cu3  1  0.32422684  0.82422684  0.35154632  1
  Se  Se4  1  0.77167176  0.77167176  0.45665647  1
  Se  Se5  1  0.22640247  0.22640247  0.54719507  1
  Se  Se6  1  0.40385308  0.17329185  0.19229384  1
  Se  Se7  1  0.59918807  0.38386682  0.80162386  1
  Se  Se8  1  0.40385308  0.63441430  0.19229384  1
  Se  Se9  1  0.59918807  0.81450932  0.80162386  1
