# generated using pymatgen
data_KLi2(RuO2)6
_symmetry_space_group_name_H-M   'P 1'
_cell_length_a   2.78199585
_cell_length_b   9.63094890
_cell_length_c   9.63031891
_cell_angle_alpha   60.02746740
_cell_angle_beta   90.00000000
_cell_angle_gamma   90.00000000
_symmetry_Int_Tables_number   1
_chemical_formula_structural   KLi2(RuO2)6
_chemical_formula_sum   'K1 Li2 Ru6 O12'
_cell_volume   223.52031193
_cell_formula_units_Z   1
loop_
 _symmetry_equiv_pos_site_id
 _symmetry_equiv_pos_as_xyz
  1  'x, y, z'
loop_
 _atom_site_type_symbol
 _atom_site_label
 _atom_site_symmetry_multiplicity
 _atom_site_fract_x
 _atom_site_fract_y
 _atom_site_fract_z
 _atom_site_occupancy
  K  K0  1  0.75000000  0.99995770  0.00004344  1
  Li  Li1  1  0.75000000  0.33342296  0.33328274  1
  Li  Li2  1  0.25000000  0.66660058  0.66665926  1
  Ru  Ru3  1  0.75000000  0.34313718  0.63961604  1
  Ru  Ru4  1  0.75000000  0.01707670  0.34341395  1
  Ru  Ru5  1  0.75000000  0.63971658  0.01698230  1
  Ru  Ru6  1  0.25000000  0.65682267  0.35975112  1
  Ru  Ru7  1  0.25000000  0.98351380  0.65675113  1
  Ru  Ru8  1  0.25000000  0.35963370  0.98360042  1
  O  O9  1  0.75000000  0.58817589  0.54458600  1
  O  O10  1  0.75000000  0.86717182  0.58822842  1
  O  O11  1  0.75000000  0.54450338  0.86718206  1
  O  O12  1  0.25000000  0.41257138  0.45537596  1
  O  O13  1  0.25000000  0.13220769  0.41251970  1
  O  O14  1  0.25000000  0.45535777  0.13217041  1
  O  O15  1  0.75000000  0.11300123  0.69257200  1
  O  O16  1  0.75000000  0.19461402  0.11283437  1
  O  O17  1  0.75000000  0.69257711  0.19455799  1
  O  O18  1  0.25000000  0.89161086  0.29887077  1
  O  O19  1  0.25000000  0.80932381  0.89169962  1
  O  O20  1  0.25000000  0.29900318  0.80930229  1
