# generated using pymatgen
data_Nb4GeS8
_symmetry_space_group_name_H-M   'P 1'
_cell_length_a   3.37009278
_cell_length_b   3.37009278
_cell_length_c   28.67182462
_cell_angle_alpha   89.98911158
_cell_angle_beta   90.01088842
_cell_angle_gamma   120.00111784
_symmetry_Int_Tables_number   1
_chemical_formula_structural   Nb4GeS8
_chemical_formula_sum   'Nb4 Ge1 S8'
_cell_volume   282.01017358
_cell_formula_units_Z   1
loop_
 _symmetry_equiv_pos_site_id
 _symmetry_equiv_pos_as_xyz
  1  'x, y, z'
loop_
 _atom_site_type_symbol
 _atom_site_label
 _atom_site_symmetry_multiplicity
 _atom_site_fract_x
 _atom_site_fract_y
 _atom_site_fract_z
 _atom_site_occupancy
  Nb  Nb0  1  0.33338755  0.66661245  0.49348719  1
  Nb  Nb1  1  0.66663833  0.33336167  0.99877881  1
  Nb  Nb2  1  0.33332315  0.66667685  0.23475080  1
  Nb  Nb3  1  0.66663516  0.33336484  0.74467001  1
  Ge  Ge4  1  0.33332347  0.66667653  0.61651533  1
  S  S5  1  0.66674012  0.33325988  0.54894892  1
  S  S6  1  0.33335237  0.66664763  0.05352229  1
  S  S7  1  0.99997521  0.00002479  0.17994441  1
  S  S8  1  0.99995395  0.00004605  0.68794201  1
  S  S9  1  0.00001778  0.99998222  0.28965584  1
  S  S10  1  0.99999212  0.00000788  0.79832385  1
  S  S11  1  0.33330562  0.66669438  0.94391773  1
  S  S12  1  0.66665517  0.33334483  0.43854281  1
