# generated using pymatgen
data_KSm(MoO4)2
_symmetry_space_group_name_H-M   'P 1'
_cell_length_a   5.40821289
_cell_length_b   5.43692337
_cell_length_c   7.10728631
_cell_angle_alpha   67.50652467
_cell_angle_beta   67.63168885
_cell_angle_gamma   89.98662471
_symmetry_Int_Tables_number   1
_chemical_formula_structural   KSm(MoO4)2
_chemical_formula_sum   'K1 Sm1 Mo2 O8'
_cell_volume   175.95278727
_cell_formula_units_Z   1
loop_
 _symmetry_equiv_pos_site_id
 _symmetry_equiv_pos_as_xyz
  1  'x, y, z'
loop_
 _atom_site_type_symbol
 _atom_site_label
 _atom_site_symmetry_multiplicity
 _atom_site_fract_x
 _atom_site_fract_y
 _atom_site_fract_z
 _atom_site_occupancy
  K  K0  1  0.62333874  0.37333874  0.25332251  1
  Sm  Sm1  1  0.37455140  0.62455140  0.75089719  1
  Mo  Mo2  1  0.12489059  0.87489059  0.25021882  1
  Mo  Mo3  1  0.87261645  0.12261645  0.75476711  1
  O  O4  1  0.79549476  0.66323300  0.42569784  1
  O  O5  1  0.18521097  0.36060737  0.60138620  1
  O  O6  1  0.71340283  0.03800644  0.60138620  1
  O  O7  1  0.27880740  0.91106915  0.42569784  1
  O  O8  1  0.96171159  0.81032555  0.90494661  1
  O  O9  1  0.08602536  0.20229920  0.07523053  1
  O  O10  1  0.33874411  0.72247027  0.07523053  1
  O  O11  1  0.63334180  0.28472784  0.90494661  1
