# generated using pymatgen
data_Fe3Mo6PtN2
_symmetry_space_group_name_H-M   'P 1'
_cell_length_a   6.70419101
_cell_length_b   6.70510608
_cell_length_c   6.71860843
_cell_angle_alpha   90.00000000
_cell_angle_beta   90.14978848
_cell_angle_gamma   90.00000000
_symmetry_Int_Tables_number   1
_chemical_formula_structural   Fe3Mo6PtN2
_chemical_formula_sum   'Fe6 Mo12 Pt2 N4'
_cell_volume   302.01594950
_cell_formula_units_Z   2
loop_
 _symmetry_equiv_pos_site_id
 _symmetry_equiv_pos_as_xyz
  1  'x, y, z'
loop_
 _atom_site_type_symbol
 _atom_site_label
 _atom_site_symmetry_multiplicity
 _atom_site_fract_x
 _atom_site_fract_y
 _atom_site_fract_z
 _atom_site_occupancy
  Fe  Fe0  1  0.32071376  0.18110947  0.81751686  1
  Fe  Fe1  1  0.67928624  0.68110947  0.68248314  1
  Fe  Fe2  1  0.43931174  0.93321462  0.57922013  1
  Fe  Fe3  1  0.92364765  0.56943233  0.44678081  1
  Fe  Fe4  1  0.56068826  0.43321462  0.92077987  1
  Fe  Fe5  1  0.07635235  0.06943233  0.05321919  1
  Mo  Mo6  1  0.95408684  0.37589034  0.79334591  1
  Mo  Mo7  1  0.04591316  0.87589034  0.70665409  1
  Mo  Mo8  1  0.44590953  0.12306174  0.20255719  1
  Mo  Mo9  1  0.55409047  0.62306174  0.29744281  1
  Mo  Mo10  1  0.38001297  0.79792505  0.94503992  1
  Mo  Mo11  1  0.87232070  0.70675775  0.04465538  1
  Mo  Mo12  1  0.12767930  0.20675775  0.45534462  1
  Mo  Mo13  1  0.61998703  0.29792505  0.55496008  1
  Mo  Mo14  1  0.79033044  0.94693983  0.38151888  1
  Mo  Mo15  1  0.70042129  0.04847560  0.87212884  1
  Mo  Mo16  1  0.20966956  0.44693983  0.11848112  1
  Mo  Mo17  1  0.29957871  0.54847560  0.62787116  1
  Pt  Pt18  1  0.81457894  0.31528679  0.18368065  1
  Pt  Pt19  1  0.18542106  0.81528679  0.31631935  1
  N  N20  1  0.12568379  0.62573900  0.87656905  1
  N  N21  1  0.87431621  0.12573900  0.62343095  1
  N  N22  1  0.62414999  0.87616748  0.12610994  1
  N  N23  1  0.37585001  0.37616748  0.37389006  1
