# generated using pymatgen
data_GdYCo4
_symmetry_space_group_name_H-M   'P 1'
_cell_length_a   5.17607124
_cell_length_b   5.18927651
_cell_length_c   5.15757375
_cell_angle_alpha   89.75820966
_cell_angle_beta   60.12038752
_cell_angle_gamma   119.89767396
_symmetry_Int_Tables_number   1
_chemical_formula_structural   GdYCo4
_chemical_formula_sum   'Gd1 Y1 Co4'
_cell_volume   98.07971796
_cell_formula_units_Z   1
loop_
 _symmetry_equiv_pos_site_id
 _symmetry_equiv_pos_as_xyz
  1  'x, y, z'
loop_
 _atom_site_type_symbol
 _atom_site_label
 _atom_site_symmetry_multiplicity
 _atom_site_fract_x
 _atom_site_fract_y
 _atom_site_fract_z
 _atom_site_occupancy
  Gd  Gd0  1  0.50003616  0.75004150  0.75004604  1
  Y  Y1  1  0.99991146  0.99997011  -0.00009178  1
  Co  Co2  1  0.74999280  0.37500471  0.87502548  1
  Co  Co3  1  0.25005322  0.37501014  0.37503124  1
  Co  Co4  1  0.25007828  0.87503068  0.37497802  1
  Co  Co5  1  0.74992808  0.37494286  0.37501101  1
