# generated using pymatgen
data_Nb3B4W3
_symmetry_space_group_name_H-M   'P 1'
_cell_length_a   3.22367969
_cell_length_b   6.16348773
_cell_length_c   6.16348773
_cell_angle_alpha   89.34643581
_cell_angle_beta   90.00000000
_cell_angle_gamma   90.00000000
_symmetry_Int_Tables_number   1
_chemical_formula_structural   Nb3B4W3
_chemical_formula_sum   'Nb3 B4 W3'
_cell_volume   122.45504973
_cell_formula_units_Z   1
loop_
 _symmetry_equiv_pos_site_id
 _symmetry_equiv_pos_as_xyz
  1  'x, y, z'
loop_
 _atom_site_type_symbol
 _atom_site_label
 _atom_site_symmetry_multiplicity
 _atom_site_fract_x
 _atom_site_fract_y
 _atom_site_fract_z
 _atom_site_occupancy
  Nb  Nb0  1  0.00000000  0.50135610  0.49952783  1
  Nb  Nb1  1  0.00000000  0.99952783  0.00135610  1
  Nb  Nb2  1  0.50000000  0.17405132  0.67405132  1
  B  B3  1  0.00000000  0.60939366  0.10939366  1
  B  B4  1  0.00000000  0.39240573  0.89240573  1
  B  B5  1  0.00000000  0.88546224  0.61043926  1
  B  B6  1  0.00000000  0.11043926  0.38546224  1
  W  W7  1  0.50000000  0.82578469  0.32578469  1
  W  W8  1  0.50000000  0.32937351  0.17220567  1
  W  W9  1  0.50000000  0.67220567  0.82937351  1
