# generated using pymatgen
data_Dy4MnS7
_symmetry_space_group_name_H-M   'P 1'
_cell_length_a   3.80934883
_cell_length_b   6.54788576
_cell_length_c   11.46126964
_cell_angle_alpha   104.15059315
_cell_angle_beta   90.00000000
_cell_angle_gamma   73.08911992
_symmetry_Int_Tables_number   1
_chemical_formula_structural   Dy4MnS7
_chemical_formula_sum   'Dy4 Mn1 S7'
_cell_volume   264.43876277
_cell_formula_units_Z   1
loop_
 _symmetry_equiv_pos_site_id
 _symmetry_equiv_pos_as_xyz
  1  'x, y, z'
loop_
 _atom_site_type_symbol
 _atom_site_label
 _atom_site_symmetry_multiplicity
 _atom_site_fract_x
 _atom_site_fract_y
 _atom_site_fract_z
 _atom_site_occupancy
  Dy  Dy0  1  0.69294825  0.61410350  0.20451861  1
  Dy  Dy1  1  0.30615047  0.38769907  0.80192708  1
  Dy  Dy2  1  -0.00013983  0.00027966  0.00598166  1
  Dy  Dy3  1  0.11402106  0.77195789  0.56652910  1
  Mn  Mn4  1  0.88566625  0.22866749  0.42080336  1
  S  S5  1  0.74426937  0.51146126  0.64004551  1
  S  S6  1  0.26903845  0.46192310  0.35235013  1
  S  S7  1  0.33828080  0.32343840  0.05123649  1
  S  S8  1  0.65959901  0.68080199  0.94886628  1
  S  S9  1  0.03347133  0.93305734  0.22668385  1
  S  S10  1  0.96370204  0.07259592  0.78413620  1
  S  S11  1  0.49299281  0.01401438  0.49692174  1
