# generated using pymatgen
data_Ga2CuAg(TeSe)2
_symmetry_space_group_name_H-M   'P 1'
_cell_length_a   6.03968417
_cell_length_b   6.09457920
_cell_length_c   7.28583298
_cell_angle_alpha   65.15632903
_cell_angle_beta   65.39287529
_cell_angle_gamma   89.73800954
_symmetry_Int_Tables_number   1
_chemical_formula_structural   Ga2CuAg(TeSe)2
_chemical_formula_sum   'Ga2 Cu1 Ag1 Te2 Se2'
_cell_volume   216.49728619
_cell_formula_units_Z   1
loop_
 _symmetry_equiv_pos_site_id
 _symmetry_equiv_pos_as_xyz
  1  'x, y, z'
loop_
 _atom_site_type_symbol
 _atom_site_label
 _atom_site_symmetry_multiplicity
 _atom_site_fract_x
 _atom_site_fract_y
 _atom_site_fract_z
 _atom_site_occupancy
  Ga  Ga0  1  0.24106042  0.74106042  0.51787916  1
  Ga  Ga1  1  0.50883336  0.50883336  0.98233329  1
  Cu  Cu2  1  0.00735009  0.00735009  0.98529983  1
  Ag  Ag3  1  0.74152171  0.24152171  0.51695659  1
  Te  Te4  1  0.13367512  0.11877795  0.23687583  1
  Te  Te5  1  0.62944905  0.64434621  0.23687583  1
  Se  Se6  1  0.35390791  0.85575010  0.76188974  1
  Se  Se7  1  0.88420235  0.38236016  0.76188974  1
