# generated using pymatgen
data_Ho9Al5Se21
_symmetry_space_group_name_H-M   'P 1'
_cell_length_a   11.95283947
_cell_length_b   11.95277292
_cell_length_c   11.95279745
_cell_angle_alpha   93.83414022
_cell_angle_beta   86.16638314
_cell_angle_gamma   86.16600025
_symmetry_Int_Tables_number   1
_chemical_formula_structural   Ho9Al5Se21
_chemical_formula_sum   'Ho18 Al10 Se42'
_cell_volume   1695.68610000
_cell_formula_units_Z   2
loop_
 _symmetry_equiv_pos_site_id
 _symmetry_equiv_pos_as_xyz
  1  'x, y, z'
loop_
 _atom_site_type_symbol
 _atom_site_label
 _atom_site_symmetry_multiplicity
 _atom_site_fract_x
 _atom_site_fract_y
 _atom_site_fract_z
 _atom_site_occupancy
  Ho  Ho0  1  0.26242497  0.11154498  0.88321455  1
  Ho  Ho1  1  0.93000358  0.45327632  0.22817844  1
  Ho  Ho2  1  0.60644730  0.76558237  0.55611443  1
  Ho  Ho3  1  0.44392117  0.39357517  0.76561563  1
  Ho  Ho4  1  0.11678445  0.73756662  0.11155014  1
  Ho  Ho5  1  0.77178455  0.06999908  0.45326481  1
  Ho  Ho6  1  0.54673919  0.22818283  0.06999406  1
  Ho  Ho7  1  0.23440296  0.55610187  0.39358975  1
  Ho  Ho8  1  0.88845809  0.88322856  0.73757496  1
  Ho  Ho9  1  0.41393122  0.21149556  0.43066174  1
  Ho  Ho10  1  0.06866906  0.54793855  0.77202561  1
  Ho  Ho11  1  0.75386492  0.87458492  0.09562681  1
  Ho  Ho12  1  0.22795608  0.93131506  0.54791924  1
  Ho  Ho13  1  0.90439209  0.24612714  0.87459822  1
  Ho  Ho14  1  0.56933218  0.58607664  0.21149246  1
  Ho  Ho15  1  0.12541661  0.09562477  0.24612730  1
  Ho  Ho16  1  0.78849511  0.43064635  0.58606209  1
  Ho  Ho17  1  0.45206108  0.77202182  0.93131784  1
  Al  Al18  1  0.95336880  0.71933533  0.38667839  1
  Al  Al19  1  0.61333840  0.04662833  0.71932692  1
  Al  Al20  1  0.28067717  0.38665984  0.04663640  1
  Al  Al21  1  0.45337095  0.88169521  0.22309505  1
  Al  Al22  1  0.11830875  0.22312708  0.54662271  1
  Al  Al23  1  0.77689903  0.54663107  0.88168474  1
  Al  Al24  1  0.14113580  0.85885724  0.85886392  1
  Al  Al25  1  0.82523465  0.17475970  0.17476585  1
  Al  Al26  1  0.32665283  0.67336282  0.67337519  1
  Al  Al27  1  0.64014295  0.35985426  0.35984678  1
  Se  Se28  1  0.82761992  0.84181429  0.51002817  1
  Se  Se29  1  0.48997370  0.17237827  0.84179465  1
  Se  Se30  1  0.15820624  0.51003195  0.17238793  1
  Se  Se31  1  0.65899526  0.67301692  0.00886452  1
  Se  Se32  1  0.32698884  0.00887590  0.34100608  1
  Se  Se33  1  0.99112019  0.34101962  0.67301418  1
  Se  Se34  1  0.99599449  0.53589530  0.44791291  1
  Se  Se35  1  0.65064368  0.86411938  0.78426315  1
  Se  Se36  1  0.31169618  0.19993597  0.10642455  1
  Se  Se37  1  0.89357033  0.68832336  0.19994811  1
  Se  Se38  1  0.55207259  0.00397714  0.53590473  1
  Se  Se39  1  0.21576285  0.34936051  0.86411741  1
  Se  Se40  1  0.13587713  0.78426228  0.34937090  1
  Se  Se41  1  0.80006174  0.10642419  0.68830174  1
  Se  Se42  1  0.46409922  0.44792793  0.00401593  1
  Se  Se43  1  0.52486067  0.96277909  0.05788187  1
  Se  Se44  1  0.18854207  0.29693818  0.37755218  1
  Se  Se45  1  0.84198309  0.62833579  0.71296856  1
  Se  Se46  1  0.62244235  0.81148097  0.29691695  1
  Se  Se47  1  0.28699916  0.15800191  0.62834628  1
  Se  Se48  1  0.94210834  0.47513733  0.96278460  1
  Se  Se49  1  0.37164671  0.71299363  0.15800527  1
  Se  Se50  1  0.03720731  0.05791838  0.47512209  1
  Se  Se51  1  0.70309783  0.37754482  0.81147506  1
  Se  Se52  1  0.68917682  0.56033561  0.41723251  1
  Se  Se53  1  0.33796753  0.89611652  0.76377876  1
  Se  Se54  1  0.00543009  0.24058155  0.10415229  1
  Se  Se55  1  0.89584495  0.99456418  0.24057957  1
  Se  Se56  1  0.58277418  0.31080051  0.56033705  1
  Se  Se57  1  0.23620898  0.66202610  0.89611396  1
  Se  Se58  1  0.10386925  0.76378637  0.66201757  1
  Se  Se59  1  0.75941827  0.10414676  0.99456887  1
  Se  Se60  1  0.43965733  0.41724074  0.31083313  1
  Se  Se61  1  0.61478937  0.15298112  0.28492015  1
  Se  Se62  1  0.26717254  0.48649244  0.61881448  1
  Se  Se63  1  0.95422489  0.79564647  0.94282685  1
  Se  Se64  1  0.38121269  0.73282786  0.48649575  1
  Se  Se65  1  0.05716736  0.04576574  0.79565648  1
  Se  Se66  1  0.71508132  0.38520417  0.15297941  1
  Se  Se67  1  0.20435280  0.94282387  0.04577306  1
  Se  Se68  1  0.84700897  0.28491069  0.38518462  1
  Se  Se69  1  0.51352484  0.61879068  0.73283765  1
