# generated using pymatgen
data_HfU(TaC2)2
_symmetry_space_group_name_H-M   'P 1'
_cell_length_a   3.22796786
_cell_length_b   3.22796786
_cell_length_c   11.08205856
_cell_angle_alpha   90.00000000
_cell_angle_beta   81.62569509
_cell_angle_gamma   120.00000000
_symmetry_Int_Tables_number   1
_chemical_formula_structural   HfU(TaC2)2
_chemical_formula_sum   'Hf1 U1 Ta2 C4'
_cell_volume   98.57795412
_cell_formula_units_Z   1
loop_
 _symmetry_equiv_pos_site_id
 _symmetry_equiv_pos_as_xyz
  1  'x, y, z'
loop_
 _atom_site_type_symbol
 _atom_site_label
 _atom_site_symmetry_multiplicity
 _atom_site_fract_x
 _atom_site_fract_y
 _atom_site_fract_z
 _atom_site_occupancy
  Hf  Hf0  1  0.00847550  0.00423775  0.98728675  1
  U  U1  1  0.49812076  0.24906038  0.25281886  1
  Ta  Ta2  1  0.99284986  0.49642493  0.51072521  1
  Ta  Ta3  1  0.50176245  0.75088122  0.74735633  1
  C  C4  1  0.24641977  0.12320989  0.63037034  1
  C  C5  1  0.75928317  0.37964158  0.86107525  1
  C  C6  1  0.25864882  0.62932441  0.11202677  1
  C  C7  1  0.73443968  0.86721984  0.39834049  1
