# generated using pymatgen
data_ErAlCu4
_symmetry_space_group_name_H-M   'P 1'
_cell_length_a   4.01290422
_cell_length_b   5.15281097
_cell_length_c   5.15318163
_cell_angle_alpha   119.98886433
_cell_angle_beta   90.00000000
_cell_angle_gamma   90.00000000
_symmetry_Int_Tables_number   1
_chemical_formula_structural   ErAlCu4
_chemical_formula_sum   'Er1 Al1 Cu4'
_cell_volume   92.29067190
_cell_formula_units_Z   1
loop_
 _symmetry_equiv_pos_site_id
 _symmetry_equiv_pos_as_xyz
  1  'x, y, z'
loop_
 _atom_site_type_symbol
 _atom_site_label
 _atom_site_symmetry_multiplicity
 _atom_site_fract_x
 _atom_site_fract_y
 _atom_site_fract_z
 _atom_site_occupancy
  Er  Er0  1  0.00000000  0.99997649  0.00003357  1
  Al  Al1  1  0.00000000  0.33332605  0.66661509  1
  Cu  Cu2  1  0.00000000  0.66659198  0.33330299  1
  Cu  Cu3  1  0.50000000  0.50069138  0.00138652  1
  Cu  Cu4  1  0.50000000  0.50067463  0.49933977  1
  Cu  Cu5  1  0.50000000  0.99863946  0.49932205  1
