# generated using pymatgen
data_K8Gd3Si12ClO34
_symmetry_space_group_name_H-M   'P 1'
_cell_length_a   6.93394107
_cell_length_b   11.57718292
_cell_length_c   11.76625726
_cell_angle_alpha   88.15272844
_cell_angle_beta   88.95958652
_cell_angle_gamma   80.16690192
_symmetry_Int_Tables_number   1
_chemical_formula_structural   K8Gd3Si12ClO34
_chemical_formula_sum   'K8 Gd3 Si12 Cl1 O34'
_cell_volume   930.10591179
_cell_formula_units_Z   1
loop_
 _symmetry_equiv_pos_site_id
 _symmetry_equiv_pos_as_xyz
  1  'x, y, z'
loop_
 _atom_site_type_symbol
 _atom_site_label
 _atom_site_symmetry_multiplicity
 _atom_site_fract_x
 _atom_site_fract_y
 _atom_site_fract_z
 _atom_site_occupancy
  K  K0  1  0.16478432  0.81123038  0.76218294  1
  K  K1  1  0.83659739  0.18876159  0.23544485  1
  K  K2  1  0.26069537  0.60224771  0.01433643  1
  K  K3  1  0.74387203  0.39108572  0.98633936  1
  K  K4  1  0.01907008  0.33252595  0.50221754  1
  K  K5  1  0.98066874  0.66733239  0.49765560  1
  K  K6  1  0.17196761  0.83822798  0.22899871  1
  K  K7  1  0.82827064  0.16230666  0.77463193  1
  Gd  Gd8  1  0.49155908  0.49021840  0.33493956  1
  Gd  Gd9  1  0.50867063  0.50949731  0.66508129  1
  Gd  Gd10  1  0.99974965  0.00043075  0.50027431  1
  Si  Si11  1  0.99064560  0.48955009  0.24843125  1
  Si  Si12  1  0.00951577  0.51091136  0.75148635  1
  Si  Si13  1  0.68675407  0.69555321  0.15178593  1
  Si  Si14  1  0.31323624  0.30513582  0.84831815  1
  Si  Si15  1  0.65747058  0.86821117  0.68727508  1
  Si  Si16  1  0.34294323  0.13218377  0.31333831  1
  Si  Si17  1  0.69697160  0.67586087  0.87678113  1
  Si  Si18  1  0.30293135  0.32446790  0.12338223  1
  Si  Si19  1  0.66300393  0.90286561  0.30671408  1
  Si  Si20  1  0.33775570  0.09729721  0.69348624  1
  Si  Si21  1  0.44694765  0.76486883  0.49171006  1
  Si  Si22  1  0.55349928  0.23517270  0.50848388  1
  Cl  Cl23  1  0.39231226  0.97387477  0.00416464  1
  O  O24  1  0.46529401  0.00135569  0.28567691  1
  O  O25  1  0.53563757  0.99899495  0.71540238  1
  O  O26  1  0.22860811  0.83239979  0.46544084  1
  O  O27  1  0.77162183  0.16745899  0.53495858  1
  O  O28  1  0.90451923  0.61822659  0.18332527  1
  O  O29  1  0.09578663  0.38267507  0.81688799  1
  O  O30  1  0.70182147  0.82945446  0.18824173  1
  O  O31  1  0.29937124  0.17147048  0.81131517  1
  O  O32  1  0.81985083  0.43128456  0.30975611  1
  O  O33  1  0.18013838  0.56962229  0.69028996  1
  O  O34  1  0.61525678  0.80823254  0.40657354  1
  O  O35  1  0.38478507  0.19136096  0.59309513  1
  O  O36  1  0.85494810  0.87610691  0.61758832  1
  O  O37  1  0.14566369  0.12360342  0.38290697  1
  O  O38  1  0.71081528  0.80218491  0.81206970  1
  O  O39  1  0.28989463  0.19861362  0.18874160  1
  O  O40  1  0.50272429  0.64621999  0.20797182  1
  O  O41  1  0.49593151  0.35523688  0.79163404  1
  O  O42  1  0.91711948  0.59283873  0.86214656  1
  O  O43  1  0.08343147  0.40836600  0.13751581  1
  O  O44  1  0.67183423  0.69870202  0.01298121  1
  O  O45  1  0.32932212  0.30134690  0.98727194  1
  O  O46  1  0.52334596  0.61338006  0.83438530  1
  O  O47  1  0.47480938  0.38851953  0.16581603  1
  O  O48  1  0.22551299  0.89329025  0.99535006  1
  O  O49  1  0.83095871  0.14240344  0.00719517  1
  O  O50  1  0.47302458  0.62243262  0.48780921  1
  O  O51  1  0.52747093  0.37754705  0.51238776  1
  O  O52  1  0.85200833  0.95767179  0.33652046  1
  O  O53  1  0.14942150  0.04140284  0.66426664  1
  O  O54  1  0.15994391  0.50869864  0.33485372  1
  O  O55  1  0.84006389  0.49203839  0.66510320  1
  O  O56  1  0.51081359  0.79161880  0.62431581  1
  O  O57  1  0.48935749  0.20892267  0.37594522  1
