# generated using pymatgen
data_Cr6BC3
_symmetry_space_group_name_H-M   'P 1'
_cell_length_a   2.84522716
_cell_length_b   4.82006613
_cell_length_c   6.93823519
_cell_angle_alpha   90.00000000
_cell_angle_beta   90.00000000
_cell_angle_gamma   72.83382215
_symmetry_Int_Tables_number   1
_chemical_formula_structural   Cr6BC3
_chemical_formula_sum   'Cr6 B1 C3'
_cell_volume   90.91345799
_cell_formula_units_Z   1
loop_
 _symmetry_equiv_pos_site_id
 _symmetry_equiv_pos_as_xyz
  1  'x, y, z'
loop_
 _atom_site_type_symbol
 _atom_site_label
 _atom_site_symmetry_multiplicity
 _atom_site_fract_x
 _atom_site_fract_y
 _atom_site_fract_z
 _atom_site_occupancy
  Cr  Cr0  1  0.85434653  0.29130694  0.43542848  1
  Cr  Cr1  1  0.13751151  0.72497698  0.56635632  1
  Cr  Cr2  1  0.85434653  0.29130694  0.06457152  1
  Cr  Cr3  1  0.13751151  0.72497698  0.93364368  1
  Cr  Cr4  1  0.60336855  0.79326291  0.25000000  1
  Cr  Cr5  1  0.41642127  0.16715746  0.75000000  1
  B  B6  1  0.75520313  0.48959375  0.75000000  1
  C  C7  1  0.49726260  0.00547479  0.49238841  1
  C  C8  1  0.49726260  0.00547479  0.00761159  1
  C  C9  1  0.24676577  0.50646845  0.25000000  1
