# generated using pymatgen
data_Dy3VH3O8
_symmetry_space_group_name_H-M   'P 1'
_cell_length_a   5.60010133
_cell_length_b   6.03003154
_cell_length_c   10.47010105
_cell_angle_alpha   90.00000000
_cell_angle_beta   90.00000000
_cell_angle_gamma   105.94572989
_symmetry_Int_Tables_number   1
_chemical_formula_structural   Dy3VH3O8
_chemical_formula_sum   'Dy6 V2 H6 O16'
_cell_volume   339.95835910
_cell_formula_units_Z   2
loop_
 _symmetry_equiv_pos_site_id
 _symmetry_equiv_pos_as_xyz
  1  'x, y, z'
loop_
 _atom_site_type_symbol
 _atom_site_label
 _atom_site_symmetry_multiplicity
 _atom_site_fract_x
 _atom_site_fract_y
 _atom_site_fract_z
 _atom_site_occupancy
  Dy  Dy0  1  0.67693322  0.30581620  0.53142231  1
  Dy  Dy1  1  0.32306678  0.69418380  0.03142231  1
  Dy  Dy2  1  0.32181318  0.70136440  0.46058634  1
  Dy  Dy3  1  0.67818682  0.29863560  0.96058634  1
  Dy  Dy4  1  0.77579986  0.77996901  0.74750382  1
  Dy  Dy5  1  0.22420014  0.22003099  0.24750382  1
  V  V6  1  0.19033826  0.45673088  0.74604535  1
  V  V7  1  0.80966174  0.54326912  0.24604535  1
  H  H8  1  0.84477694  0.90776680  0.46265126  1
  H  H9  1  0.15522306  0.09223320  0.96265126  1
  H  H10  1  0.15821719  0.09915109  0.53595530  1
  H  H11  1  0.84178281  0.90084891  0.03595530  1
  H  H12  1  0.76828446  0.16537028  0.74321206  1
  H  H13  1  0.23171554  0.83462972  0.24321206  1
  O  O14  1  0.00234658  0.59174576  0.62141390  1
  O  O15  1  0.99765342  0.40825424  0.12141390  1
  O  O16  1  0.99540139  0.41139200  0.37225992  1
  O  O17  1  0.00459861  0.58860800  0.87225992  1
  O  O18  1  0.46214963  0.53970918  0.62572219  1
  O  O19  1  0.53785037  0.46029082  0.12572219  1
  O  O20  1  0.53658921  0.46611849  0.36645650  1
  O  O21  1  0.46341079  0.53388151  0.86645650  1
  O  O22  1  0.72761252  0.94090610  0.52396629  1
  O  O23  1  0.27238748  0.05909390  0.02396629  1
  O  O24  1  0.26825470  0.06539076  0.47059606  1
  O  O25  1  0.73174530  0.93460924  0.97059606  1
  O  O26  1  0.05919523  0.16107836  0.74526279  1
  O  O27  1  0.94080477  0.83892164  0.24526279  1
  O  O28  1  0.58427011  0.11866270  0.74704592  1
  O  O29  1  0.41572989  0.88133730  0.24704592  1
