# generated using pymatgen
data_Cs2BaBr4
_symmetry_space_group_name_H-M   'P 1'
_cell_length_a   9.09541434
_cell_length_b   9.09541434
_cell_length_c   9.09541434
_cell_angle_alpha   69.47008225
_cell_angle_beta   72.62603600
_cell_angle_gamma   110.52991775
_symmetry_Int_Tables_number   1
_chemical_formula_structural   Cs2BaBr4
_chemical_formula_sum   'Cs4 Ba2 Br8'
_cell_volume   578.64329185
_cell_formula_units_Z   2
loop_
 _symmetry_equiv_pos_site_id
 _symmetry_equiv_pos_as_xyz
  1  'x, y, z'
loop_
 _atom_site_type_symbol
 _atom_site_label
 _atom_site_symmetry_multiplicity
 _atom_site_fract_x
 _atom_site_fract_y
 _atom_site_fract_z
 _atom_site_occupancy
  Cs  Cs0  1  0.86222786  0.61222786  0.75000000  1
  Cs  Cs1  1  0.63777214  0.88777214  0.25000000  1
  Cs  Cs2  1  0.75000000  0.11222786  0.63777214  1
  Cs  Cs3  1  0.25000000  0.38777214  0.86222786  1
  Ba  Ba4  1  0.37500000  0.25000000  0.37500000  1
  Ba  Ba5  1  0.12500000  0.75000000  0.12500000  1
  Br  Br6  1  0.84585950  0.36931603  0.15754018  1
  Br  Br7  1  0.47314379  0.13068397  0.02345653  1
  Br  Br8  1  0.65414050  0.49660032  0.47654347  1
  Br  Br9  1  0.02685621  0.00339968  0.34245982  1
  Br  Br10  1  0.47654347  0.63068397  0.02685621  1
  Br  Br11  1  0.34245982  0.86931603  0.65414050  1
  Br  Br12  1  0.15754018  0.50339968  0.47314379  1
  Br  Br13  1  0.02345653  0.99660032  0.84585950  1
