# generated using pymatgen
data_EuZnPb
_symmetry_space_group_name_H-M   'P 1'
_cell_length_a   4.98325322
_cell_length_b   6.20430638
_cell_length_c   6.34984575
_cell_angle_alpha   94.89085496
_cell_angle_beta   113.10339850
_cell_angle_gamma   66.32198987
_symmetry_Int_Tables_number   1
_chemical_formula_structural   EuZnPb
_chemical_formula_sum   'Eu2 Zn2 Pb2'
_cell_volume   164.76457040
_cell_formula_units_Z   2
loop_
 _symmetry_equiv_pos_site_id
 _symmetry_equiv_pos_as_xyz
  1  'x, y, z'
loop_
 _atom_site_type_symbol
 _atom_site_label
 _atom_site_symmetry_multiplicity
 _atom_site_fract_x
 _atom_site_fract_y
 _atom_site_fract_z
 _atom_site_occupancy
  Eu  Eu0  1  0.74930450  0.71581955  0.21442855  1
  Eu  Eu1  1  0.25069550  0.28418045  0.78557145  1
  Zn  Zn2  1  0.54501723  0.30706547  0.39709993  1
  Zn  Zn3  1  0.45498277  0.69293453  0.60290007  1
  Pb  Pb4  1  0.05448511  0.12020658  0.22917680  1
  Pb  Pb5  1  0.94551489  0.87979342  0.77082320  1
