# generated using pymatgen
data_YFe3F15
_symmetry_space_group_name_H-M   'P 1'
_cell_length_a   9.35285771
_cell_length_b   5.89678622
_cell_length_c   11.26351740
_cell_angle_alpha   90.00000000
_cell_angle_beta   90.00000000
_cell_angle_gamma   106.91439249
_symmetry_Int_Tables_number   1
_chemical_formula_structural   YFe3F15
_chemical_formula_sum   'Y2 Fe6 F30'
_cell_volume   594.33036211
_cell_formula_units_Z   2
loop_
 _symmetry_equiv_pos_site_id
 _symmetry_equiv_pos_as_xyz
  1  'x, y, z'
loop_
 _atom_site_type_symbol
 _atom_site_label
 _atom_site_symmetry_multiplicity
 _atom_site_fract_x
 _atom_site_fract_y
 _atom_site_fract_z
 _atom_site_occupancy
  Y  Y0  1  0.92788939  0.51675654  0.25000000  1
  Y  Y1  1  0.40544361  0.48324346  0.75000000  1
  Fe  Fe2  1  0.16666700  -0.00000000  0.50000000  1
  Fe  Fe3  1  0.51085178  0.03186365  0.50764000  1
  Fe  Fe4  1  0.82248122  0.96813635  0.49236000  1
  Fe  Fe5  1  0.16666700  -0.00000000  -0.00000000  1
  Fe  Fe6  1  0.51085178  0.03186365  0.99236000  1
  Fe  Fe7  1  0.82248122  0.96813635  0.00764000  1
  F  F8  1  0.16963610  0.60240589  0.25000000  1
  F  F9  1  0.37669697  0.60871363  0.25000000  1
  F  F10  1  0.73400768  0.61487650  0.25000000  1
  F  F11  1  0.16369690  0.39759411  0.75000000  1
  F  F12  1  0.59932632  0.38512350  0.75000000  1
  F  F13  1  0.95663603  0.39128637  0.75000000  1
  F  F14  1  0.01953347  0.10371008  0.57773934  1
  F  F15  1  0.35290655  0.16977709  0.60378239  1
  F  F16  1  0.70507536  0.12656246  0.59000077  1
  F  F17  1  0.31380053  0.89628992  0.42226066  1
  F  F18  1  0.62825764  0.87343754  0.40999923  1
  F  F19  1  0.98042645  0.83022291  0.39621761  1
  F  F20  1  0.12871751  0.74993521  0.90717270  1
  F  F21  1  0.44815741  0.76056186  0.88578765  1
  F  F22  1  0.77855269  0.70664611  0.91655154  1
  F  F23  1  0.20461649  0.25006479  0.09282730  1
  F  F24  1  0.55478031  0.29335389  0.08344846  1
  F  F25  1  0.88517559  0.23943814  0.11421235  1
  F  F26  1  0.20461649  0.25006479  0.40717270  1
  F  F27  1  0.55478031  0.29335389  0.41655154  1
  F  F28  1  0.88517559  0.23943814  0.38578765  1
  F  F29  1  0.12871751  0.74993521  0.59282730  1
  F  F30  1  0.44815741  0.76056186  0.61421235  1
  F  F31  1  0.77855269  0.70664611  0.58344846  1
  F  F32  1  0.01953347  0.10371008  0.92226066  1
  F  F33  1  0.35290655  0.16977709  0.89621761  1
  F  F34  1  0.70507536  0.12656246  0.90999923  1
  F  F35  1  0.31380053  0.89628992  0.07773934  1
  F  F36  1  0.62825764  0.87343754  0.09000077  1
  F  F37  1  0.98042645  0.83022291  0.10378239  1
