# generated using pymatgen
data_Ce2CoGe3
_symmetry_space_group_name_H-M   'P 1'
_cell_length_a   4.06225805
_cell_length_b   4.24279527
_cell_length_c   7.21891815
_cell_angle_alpha   89.99887139
_cell_angle_beta   90.00000000
_cell_angle_gamma   90.00000000
_symmetry_Int_Tables_number   1
_chemical_formula_structural   Ce2CoGe3
_chemical_formula_sum   'Ce2 Co1 Ge3'
_cell_volume   124.42043089
_cell_formula_units_Z   1
loop_
 _symmetry_equiv_pos_site_id
 _symmetry_equiv_pos_as_xyz
  1  'x, y, z'
loop_
 _atom_site_type_symbol
 _atom_site_label
 _atom_site_symmetry_multiplicity
 _atom_site_fract_x
 _atom_site_fract_y
 _atom_site_fract_z
 _atom_site_occupancy
  Ce  Ce0  1  0.00000000  0.99996795  0.01457039  1
  Ce  Ce1  1  0.00000000  0.49999313  0.49275847  1
  Co  Co2  1  0.50000000  0.99995427  0.32385605  1
  Ge  Ge3  1  0.50000000  0.49995915  0.83627800  1
  Ge  Ge4  1  0.50000000  0.49996017  0.18383682  1
  Ge  Ge5  1  0.50000000  0.99996534  0.64870027  1
