# generated using pymatgen
data_Cr4FeCuSe8
_symmetry_space_group_name_H-M   'P 1'
_cell_length_a   7.41353112
_cell_length_b   7.41353112
_cell_length_c   7.41353112
_cell_angle_alpha   90.00000000
_cell_angle_beta   60.00000000
_cell_angle_gamma   120.00000000
_symmetry_Int_Tables_number   1
_chemical_formula_structural   Cr4FeCuSe8
_chemical_formula_sum   'Cr4 Fe1 Cu1 Se8'
_cell_volume   288.11133687
_cell_formula_units_Z   1
loop_
 _symmetry_equiv_pos_site_id
 _symmetry_equiv_pos_as_xyz
  1  'x, y, z'
loop_
 _atom_site_type_symbol
 _atom_site_label
 _atom_site_symmetry_multiplicity
 _atom_site_fract_x
 _atom_site_fract_y
 _atom_site_fract_z
 _atom_site_occupancy
  Cr  Cr0  1  0.49660269  0.49490404  0.00169865  1
  Cr  Cr1  1  0.49660269  0.00169865  0.00169865  1
  Cr  Cr2  1  0.00339731  0.00169865  0.49490404  1
  Cr  Cr3  1  0.00339731  0.00169865  0.00169865  1
  Fe  Fe4  1  0.25000000  0.62500000  0.62500000  1
  Cu  Cu5  1  0.75000000  0.37500000  0.37500000  1
  Se  Se6  1  0.01604827  0.77407241  0.24197586  1
  Se  Se7  1  0.01604827  0.24197586  0.24197586  1
  Se  Se8  1  0.48395173  0.24197586  0.77407241  1
  Se  Se9  1  0.48395173  0.24197586  0.24197586  1
  Se  Se10  1  0.98524109  0.22786163  0.75737946  1
  Se  Se11  1  0.98524109  0.75737946  0.75737946  1
  Se  Se12  1  0.51475891  0.75737946  0.22786163  1
  Se  Se13  1  0.51475891  0.75737946  0.75737946  1
