# generated using pymatgen
data_Pb3BrF5
_symmetry_space_group_name_H-M   'P 1'
_cell_length_a   5.47148682
_cell_length_b   5.47148682
_cell_length_c   11.28562290
_cell_angle_alpha   89.99426776
_cell_angle_beta   79.96108543
_cell_angle_gamma   129.80994991
_symmetry_Int_Tables_number   1
_chemical_formula_structural   Pb3BrF5
_chemical_formula_sum   'Pb3 Br1 F5'
_cell_volume   252.75871821
_cell_formula_units_Z   1
loop_
 _symmetry_equiv_pos_site_id
 _symmetry_equiv_pos_as_xyz
  1  'x, y, z'
loop_
 _atom_site_type_symbol
 _atom_site_label
 _atom_site_symmetry_multiplicity
 _atom_site_fract_x
 _atom_site_fract_y
 _atom_site_fract_z
 _atom_site_occupancy
  Pb  Pb0  1  0.45177354  0.85274572  0.69548075  1
  Pb  Pb1  1  0.55773441  0.15661740  0.28564819  1
  Pb  Pb2  1  0.95303919  0.10325988  0.94370093  1
  Br  Br3  1  0.26510359  0.48797512  0.24692130  1
  F  F4  1  0.20285937  0.04582265  0.75131798  1
  F  F5  1  0.51026669  0.00372164  0.48601167  1
  F  F6  1  0.41680592  0.67491588  0.90827820  1
  F  F7  1  0.68146981  0.24597838  0.07255181  1
  F  F8  1  0.90094748  0.31896333  0.78008919  1
