# generated using pymatgen
data_CeUC4
_symmetry_space_group_name_H-M   'P 1'
_cell_length_a   5.88967311
_cell_length_b   4.96503654
_cell_length_c   5.87963577
_cell_angle_alpha   90.00514607
_cell_angle_beta   90.00000000
_cell_angle_gamma   90.00000000
_symmetry_Int_Tables_number   1
_chemical_formula_structural   CeUC4
_chemical_formula_sum   'Ce2 U2 C8'
_cell_volume   171.93490844
_cell_formula_units_Z   2
loop_
 _symmetry_equiv_pos_site_id
 _symmetry_equiv_pos_as_xyz
  1  'x, y, z'
loop_
 _atom_site_type_symbol
 _atom_site_label
 _atom_site_symmetry_multiplicity
 _atom_site_fract_x
 _atom_site_fract_y
 _atom_site_fract_z
 _atom_site_occupancy
  Ce  Ce0  1  0.50000000  0.50000000  -0.00000000  1
  Ce  Ce1  1  0.00000000  0.00000000  -0.00000000  1
  U  U2  1  0.50000000  0.00000000  0.50000000  1
  U  U3  1  0.00000000  0.50000000  0.50000000  1
  C  C4  1  0.99482146  0.50025326  0.11521807  1
  C  C5  1  0.49482146  0.99974674  0.88478193  1
  C  C6  1  0.11291066  0.00001459  0.49290514  1
  C  C7  1  0.61291066  0.49998541  0.50709486  1
  C  C8  1  0.00517854  0.49974674  0.88478193  1
  C  C9  1  0.50517854  0.00025326  0.11521807  1
  C  C10  1  0.88708934  0.99998541  0.50709486  1
  C  C11  1  0.38708934  0.50001459  0.49290514  1
