# generated using pymatgen
data_DyFe5Bi4O15
_symmetry_space_group_name_H-M   'P 1'
_cell_length_a   5.60474833
_cell_length_b   20.29929393
_cell_length_c   5.69507799
_cell_angle_alpha   96.74131344
_cell_angle_beta   89.99500954
_cell_angle_gamma   82.06430722
_symmetry_Int_Tables_number   1
_chemical_formula_structural   DyFe5Bi4O15
_chemical_formula_sum   'Dy2 Fe10 Bi8 O30'
_cell_volume   637.21369621
_cell_formula_units_Z   2
loop_
 _symmetry_equiv_pos_site_id
 _symmetry_equiv_pos_as_xyz
  1  'x, y, z'
loop_
 _atom_site_type_symbol
 _atom_site_label
 _atom_site_symmetry_multiplicity
 _atom_site_fract_x
 _atom_site_fract_y
 _atom_site_fract_z
 _atom_site_occupancy
  Dy  Dy0  1  0.54122838  0.91010235  0.00527957  1
  Dy  Dy1  1  0.94520181  0.10823459  0.59897328  1
  Fe  Fe2  1  0.90077685  0.19545209  0.08887382  1
  Fe  Fe3  1  0.30042773  0.39816161  0.69243611  1
  Fe  Fe4  1  0.70039363  0.60016737  0.29309633  1
  Fe  Fe5  1  0.09991629  0.80116025  0.88991591  1
  Fe  Fe6  1  0.50135790  0.99792231  0.49435224  1
  Fe  Fe7  1  0.99812852  0.99861307  0.99604378  1
  Fe  Fe8  1  0.40444995  0.19597055  0.59471050  1
  Fe  Fe9  1  0.80055171  0.39817969  0.19304405  1
  Fe  Fe10  1  0.20076695  0.60000747  0.79404020  1
  Fe  Fe11  1  0.60049281  0.80079797  0.38975433  1
  Bi  Bi12  1  0.44362271  0.10765553  0.09991446  1
  Bi  Bi13  1  0.84398586  0.30818043  0.70461328  1
  Bi  Bi14  1  0.24348153  0.50987739  0.30823827  1
  Bi  Bi15  1  0.64510714  0.71097472  0.90103322  1
  Bi  Bi16  1  0.04725333  0.91125305  0.50035286  1
  Bi  Bi17  1  0.34486381  0.30857832  0.20324548  1
  Bi  Bi18  1  0.74732519  0.50982991  0.80809063  1
  Bi  Bi19  1  0.14758599  0.71082621  0.40284720  1
  O  O20  1  0.78348722  0.81238977  0.06429795  1
  O  O21  1  0.17877824  0.01017892  0.66812451  1
  O  O22  1  0.58702601  0.20394192  0.27143560  1
  O  O23  1  0.99968998  0.40569492  0.88371272  1
  O  O24  1  0.39419936  0.60749601  0.47708065  1
  O  O25  1  0.15630319  0.89644457  0.89490378  1
  O  O26  1  0.55735388  0.09284479  0.50474034  1
  O  O27  1  0.93029725  0.29330323  0.09992375  1
  O  O28  1  0.33041679  0.49616492  0.69905688  1
  O  O29  1  0.73060206  0.69782410  0.29274027  1
  O  O30  1  0.33591326  0.77708587  0.13620597  1
  O  O31  1  0.72487420  0.96785333  0.75352693  1
  O  O32  1  0.12813036  0.16629228  0.34764787  1
  O  O33  1  0.54047940  0.37433334  0.93631029  1
  O  O34  1  0.93569854  0.57647741  0.54156986  1
  O  O35  1  0.07405401  0.69741952  0.79839188  1
  O  O36  1  0.47030046  0.89621463  0.40389650  1
  O  O37  1  0.86928588  0.09370038  0.99708742  1
  O  O38  1  0.27526374  0.29303711  0.59421874  1
  O  O39  1  0.67356245  0.49620555  0.19920075  1
  O  O40  1  0.89912689  0.80720269  0.57452095  1
  O  O41  1  0.29611169  0.00543852  0.18203286  1
  O  O42  1  0.70802342  0.20515095  0.77111759  1
  O  O43  1  0.09542352  0.40584663  0.38273330  1
  O  O44  1  0.50054094  0.60741629  0.97628120  1
  O  O45  1  0.38856734  0.77556204  0.63618543  1
  O  O46  1  0.79051103  0.97339526  0.24528786  1
  O  O47  1  0.19619012  0.17155490  0.84329845  1
  O  O48  1  0.58487651  0.37417380  0.43674259  1
  O  O49  1  0.98866415  0.57607148  0.04150159  1
