# generated using pymatgen
data_Cd5TeS4
_symmetry_space_group_name_H-M   'P 1'
_cell_length_a   4.29902526
_cell_length_b   4.28906974
_cell_length_c   35.08261442
_cell_angle_alpha   90.00000000
_cell_angle_beta   90.03835186
_cell_angle_gamma   60.07657529
_symmetry_Int_Tables_number   1
_chemical_formula_structural   Cd5TeS4
_chemical_formula_sum   'Cd10 Te2 S8'
_cell_volume   560.64783891
_cell_formula_units_Z   2
loop_
 _symmetry_equiv_pos_site_id
 _symmetry_equiv_pos_as_xyz
  1  'x, y, z'
loop_
 _atom_site_type_symbol
 _atom_site_label
 _atom_site_symmetry_multiplicity
 _atom_site_fract_x
 _atom_site_fract_y
 _atom_site_fract_z
 _atom_site_occupancy
  Cd  Cd0  1  0.66680133  0.66659934  0.10937940  1
  Cd  Cd1  1  0.66684225  0.66657888  0.30112138  1
  Cd  Cd2  1  0.66688837  0.66655581  0.49541515  1
  Cd  Cd3  1  0.66718307  0.66640847  0.68512223  1
  Cd  Cd4  1  0.66885983  0.66557009  0.89705894  1
  Cd  Cd5  1  0.33279805  0.33360097  0.01481215  1
  Cd  Cd6  1  0.33291116  0.33354442  0.20460978  1
  Cd  Cd7  1  0.33284273  0.33357863  0.39877843  1
  Cd  Cd8  1  0.33278668  0.33360666  0.59087400  1
  Cd  Cd9  1  0.33275342  0.33362329  0.80215912  1
  Te  Te10  1  0.33231396  0.33384302  0.72080096  1
  Te  Te11  1  0.33251099  0.33374450  0.93290718  1
  S  S12  1  0.66704073  0.66647963  0.03587846  1
  S  S13  1  0.66735949  0.66632026  0.22703316  1
  S  S14  1  0.66721304  0.66639348  0.42177232  1
  S  S15  1  0.66720479  0.66639760  0.61267890  1
  S  S16  1  0.66701722  0.66649139  0.82436833  1
  S  S17  1  0.33280079  0.33359960  0.13089652  1
  S  S18  1  0.33292729  0.33353636  0.32455794  1
  S  S19  1  0.33294483  0.33352759  0.51777566  1
