# generated using pymatgen
data_CdAg2SnS4
_symmetry_space_group_name_H-M   'P 1'
_cell_length_a   4.14278386
_cell_length_b   7.24521871
_cell_length_c   6.82898311
_cell_angle_alpha   90.11939998
_cell_angle_beta   90.00000000
_cell_angle_gamma   90.00000000
_symmetry_Int_Tables_number   1
_chemical_formula_structural   CdAg2SnS4
_chemical_formula_sum   'Cd1 Ag2 Sn1 S4'
_cell_volume   204.97404454
_cell_formula_units_Z   1
loop_
 _symmetry_equiv_pos_site_id
 _symmetry_equiv_pos_as_xyz
  1  'x, y, z'
loop_
 _atom_site_type_symbol
 _atom_site_label
 _atom_site_symmetry_multiplicity
 _atom_site_fract_x
 _atom_site_fract_y
 _atom_site_fract_z
 _atom_site_occupancy
  Cd  Cd0  1  0.00000000  0.83073602  0.11869729  1
  Ag  Ag1  1  0.50000000  0.34196672  0.12375873  1
  Ag  Ag2  1  0.50000000  0.67125379  0.64263980  1
  Sn  Sn3  1  -0.00000000  0.15135497  0.63748350  1
  S  S4  1  0.50000000  0.32254255  0.50671023  1
  S  S5  1  0.00000000  0.84252409  0.50377583  1
  S  S6  1  0.50000000  0.66873292  0.01141421  1
  S  S7  1  0.00000000  0.17088895  0.99072041  1
