# generated using pymatgen
data_CdAsP
_symmetry_space_group_name_H-M   'P 1'
_cell_length_a   4.64196357
_cell_length_b   6.11109094
_cell_length_c   6.11109094
_cell_angle_alpha   96.69595771
_cell_angle_beta   112.32119263
_cell_angle_gamma   67.67880737
_symmetry_Int_Tables_number   1
_chemical_formula_structural   CdAsP
_chemical_formula_sum   'Cd2 As2 P2'
_cell_volume   148.27263513
_cell_formula_units_Z   2
loop_
 _symmetry_equiv_pos_site_id
 _symmetry_equiv_pos_as_xyz
  1  'x, y, z'
loop_
 _atom_site_type_symbol
 _atom_site_label
 _atom_site_symmetry_multiplicity
 _atom_site_fract_x
 _atom_site_fract_y
 _atom_site_fract_z
 _atom_site_occupancy
  Cd  Cd0  1  0.26441022  0.50000000  0.50000000  1
  Cd  Cd1  1  0.48558978  0.00000000  1.00000000  1
  As  As2  1  0.81065320  0.81434680  0.68565320  1
  As  As3  1  0.93934680  0.18565320  0.31434680  1
  P  P4  1  0.87500000  0.17629656  0.67629656  1
  P  P5  1  0.37500000  0.82370344  0.32370344  1
