# generated using pymatgen
data_CeDy4S7
_symmetry_space_group_name_H-M   'P 1'
_cell_length_a   3.82999521
_cell_length_b   6.78345978
_cell_length_c   11.69990035
_cell_angle_alpha   104.09218912
_cell_angle_beta   90.00000005
_cell_angle_gamma   73.60224338
_symmetry_Int_Tables_number   1
_chemical_formula_structural   CeDy4S7
_chemical_formula_sum   'Ce1 Dy4 S7'
_cell_volume   282.05800467
_cell_formula_units_Z   1
loop_
 _symmetry_equiv_pos_site_id
 _symmetry_equiv_pos_as_xyz
  1  'x, y, z'
loop_
 _atom_site_type_symbol
 _atom_site_label
 _atom_site_symmetry_multiplicity
 _atom_site_fract_x
 _atom_site_fract_y
 _atom_site_fract_z
 _atom_site_occupancy
  Ce  Ce0  1  0.88734950  0.22530100  0.42060337  1
  Dy  Dy1  1  0.69974900  0.60050201  0.18546139  1
  Dy  Dy2  1  0.30088521  0.39822957  0.81313433  1
  Dy  Dy3  1  0.00024039  0.99951922  0.99798050  1
  Dy  Dy4  1  0.11351950  0.77296100  0.58157146  1
  S  S5  1  0.73756904  0.52486192  0.65436935  1
  S  S6  1  0.25313055  0.49373890  0.34891633  1
  S  S7  1  0.34220317  0.31559366  0.04984906  1
  S  S8  1  0.65928140  0.68143720  0.94926190  1
  S  S9  1  0.04470047  0.91059907  0.20962960  1
  S  S10  1  0.95725913  0.08548174  0.78525389  1
  S  S11  1  0.50411265  0.99177470  0.50396883  1
