# generated using pymatgen
data_CeNb3O9
_symmetry_space_group_name_H-M   'P 1'
_cell_length_a   5.60097828
_cell_length_b   13.74633437
_cell_length_c   9.76259680
_cell_angle_alpha   89.66075600
_cell_angle_beta   89.83023929
_cell_angle_gamma   90.16621529
_symmetry_Int_Tables_number   1
_chemical_formula_structural   CeNb3O9
_chemical_formula_sum   'Ce4 Nb12 O36'
_cell_volume   751.63116018
_cell_formula_units_Z   4
loop_
 _symmetry_equiv_pos_site_id
 _symmetry_equiv_pos_as_xyz
  1  'x, y, z'
loop_
 _atom_site_type_symbol
 _atom_site_label
 _atom_site_symmetry_multiplicity
 _atom_site_fract_x
 _atom_site_fract_y
 _atom_site_fract_z
 _atom_site_occupancy
  Ce  Ce0  1  0.76326904  0.91152925  0.08824210  1
  Ce  Ce1  1  0.75929742  0.25153747  0.74998012  1
  Ce  Ce2  1  0.23673096  0.75513775  0.24509090  1
  Ce  Ce3  1  0.24070258  0.41512853  0.58335388  1
  Nb  Nb4  1  0.25128737  0.82868973  0.90118347  1
  Nb  Nb5  1  0.24866817  0.15847886  0.58321517  1
  Nb  Nb6  1  0.25376974  0.49959878  0.24738731  1
  Nb  Nb7  1  0.25030087  0.66728425  0.57852078  1
  Nb  Nb8  1  0.24934602  0.00781180  0.25458256  1
  Nb  Nb9  1  0.24904805  0.33504109  0.93105581  1
  Nb  Nb10  1  0.75133183  0.50818714  0.75011883  1
  Nb  Nb11  1  0.74871263  0.83797727  0.43214953  1
  Nb  Nb12  1  0.74623026  0.16706822  0.08594569  1
  Nb  Nb13  1  0.75065398  0.65885520  0.07875044  1
  Nb  Nb14  1  0.74969913  0.99938175  0.75481322  1
  Nb  Nb15  1  0.75095195  0.33162591  0.40227719  1
  O  O16  1  0.20808320  0.57207606  0.42865854  1
  O  O17  1  0.17586325  0.89936654  0.10079201  1
  O  O18  1  0.18140911  0.24899504  0.75010605  1
  O  O19  1  0.81859089  0.41767096  0.58322795  1
  O  O20  1  0.82413675  0.76730046  0.23254099  1
  O  O21  1  0.79191680  0.09459094  0.90467446  1
  O  O22  1  0.00618301  0.58907634  0.17237264  1
  O  O23  1  0.99587782  0.91660965  0.84178013  1
  O  O24  1  0.99838629  0.25414682  0.50651263  1
  O  O25  1  0.00161371  0.41252018  0.82682037  1
  O  O26  1  0.00412218  0.75005735  0.49155287  1
  O  O27  1  0.99381699  0.07758966  0.16096136  1
  O  O28  1  0.49961700  0.76792381  0.03640657  1
  O  O29  1  0.51294890  0.10049591  0.68266553  1
  O  O30  1  0.48662372  0.42221357  0.36238752  1
  O  O31  1  0.48705110  0.56617009  0.65066847  1
  O  O32  1  0.50038300  0.89874319  0.29692643  1
  O  O33  1  0.51337628  0.24445343  0.97094548  1
  O  O34  1  0.51331503  0.92752606  0.87341640  1
  O  O35  1  0.50034251  0.27285299  0.54386383  1
  O  O36  1  0.48681505  0.60641321  0.19710445  1
  O  O37  1  0.48668497  0.73914094  0.45991660  1
  O  O38  1  0.51318495  0.06025379  0.13622855  1
  O  O39  1  0.49965749  0.39381301  0.78947017  1
  O  O40  1  0.00011797  0.74305344  0.98714974  1
  O  O41  1  0.99586889  0.07787957  0.64944863  1
  O  O42  1  0.00324818  0.40765614  0.32048068  1
  O  O43  1  0.00413111  0.58878643  0.68388537  1
  O  O44  1  0.99988203  0.92361356  0.34618326  1
  O  O45  1  0.99675182  0.25901086  0.01285232  1
  O  O46  1  0.29984386  0.09065948  0.40893927  1
  O  O47  1  0.30183399  0.42511781  0.07831223  1
  O  O48  1  0.30154843  0.75362436  0.74284054  1
  O  O49  1  0.69845157  0.91304164  0.59049346  1
  O  O50  1  0.69816601  0.24154919  0.25502077  1
  O  O51  1  0.70015614  0.57600752  0.92439373  1
