# generated using pymatgen
data_Ca4Mg4P4O17F3
_symmetry_space_group_name_H-M   'P 1'
_cell_length_a   6.60122897
_cell_length_b   7.93211629
_cell_length_c   7.93211629
_cell_angle_alpha   67.61451409
_cell_angle_beta   94.51129341
_cell_angle_gamma   94.51129341
_symmetry_Int_Tables_number   1
_chemical_formula_structural   Ca4Mg4P4O17F3
_chemical_formula_sum   'Ca4 Mg4 P4 O17 F3'
_cell_volume   382.31578182
_cell_formula_units_Z   1
loop_
 _symmetry_equiv_pos_site_id
 _symmetry_equiv_pos_as_xyz
  1  'x, y, z'
loop_
 _atom_site_type_symbol
 _atom_site_label
 _atom_site_symmetry_multiplicity
 _atom_site_fract_x
 _atom_site_fract_y
 _atom_site_fract_z
 _atom_site_occupancy
  Ca  Ca0  1  0.62500000  0.46331916  0.78668084  1
  Ca  Ca1  1  0.12500000  0.96120461  0.28879539  1
  Ca  Ca2  1  0.87402885  0.03729940  0.71172181  1
  Ca  Ca3  1  0.37597115  0.53827819  0.21270060  1
  Mg  Mg4  1  0.99980855  0.50046452  0.49928723  1
  Mg  Mg5  1  0.50065740  0.99741333  0.99948518  1
  Mg  Mg6  1  0.74934260  0.25051482  0.25258667  1
  Mg  Mg7  1  0.25019145  0.75071277  0.74953548  1
  P  P8  1  0.62500000  0.80432635  0.44567365  1
  P  P9  1  0.12500000  0.30466958  0.94533042  1
  P  P10  1  0.87533889  0.69582404  0.05445037  1
  P  P11  1  0.37466111  0.19554963  0.55417596  1
  O  O12  1  0.21739218  0.11932136  0.97535476  1
  O  O13  1  0.71650416  0.61894769  0.47450599  1
  O  O14  1  0.03260782  0.27464524  0.13067864  1
  O  O15  1  0.53349584  0.77549401  0.63105231  1
  O  O16  1  0.28339409  0.38115244  0.52506539  1
  O  O17  1  0.78463520  0.88185099  0.02441821  1
  O  O18  1  0.46536480  0.22558179  0.36814901  1
  O  O19  1  0.96660591  0.72493461  0.86884756  1
  O  O20  1  0.79218292  0.96317234  0.40433616  1
  O  O21  1  0.29139902  0.46404901  0.90359856  1
  O  O22  1  0.45781708  0.84566384  0.28682766  1
  O  O23  1  0.95860098  0.34640144  0.78595099  1
  O  O24  1  0.70856603  0.53754350  0.09767177  1
  O  O25  1  0.20805572  0.03590832  0.59682573  1
  O  O26  1  0.04194428  0.65317427  0.21409168  1
  O  O27  1  0.54143397  0.15232823  0.71245650  1
  O  O28  1  0.62500000  0.20954961  0.04045039  1
  F  F29  1  0.12500000  0.70794967  0.54205033  1
  F  F30  1  0.87552965  0.29179041  0.45903518  1
  F  F31  1  0.37447035  0.79096482  0.95820959  1
