# generated using pymatgen
data_Ba4PrY(Cu3O7)2
_symmetry_space_group_name_H-M   'P 1'
_cell_length_a   3.94992901
_cell_length_b   7.74232148
_cell_length_c   12.49432061
_cell_angle_alpha   71.95079776
_cell_angle_beta   90.00000000
_cell_angle_gamma   90.00000000
_symmetry_Int_Tables_number   1
_chemical_formula_structural   Ba4PrY(Cu3O7)2
_chemical_formula_sum   'Ba4 Pr1 Y1 Cu6 O14'
_cell_volume   363.29390141
_cell_formula_units_Z   1
loop_
 _symmetry_equiv_pos_site_id
 _symmetry_equiv_pos_as_xyz
  1  'x, y, z'
loop_
 _atom_site_type_symbol
 _atom_site_label
 _atom_site_symmetry_multiplicity
 _atom_site_fract_x
 _atom_site_fract_y
 _atom_site_fract_z
 _atom_site_occupancy
  Ba  Ba0  1  0.50000000  0.16016009  0.17967983  1
  Ba  Ba1  1  0.50000000  0.65957453  0.18085093  1
  Ba  Ba2  1  0.50000000  0.83983991  0.82032017  1
  Ba  Ba3  1  0.50000000  0.34042547  0.81914907  1
  Pr  Pr4  1  0.50000000  0.00000000  0.50000000  1
  Y  Y5  1  0.50000000  0.50000000  0.50000000  1
  Cu  Cu6  1  0.00000000  0.32797886  0.34985621  1
  Cu  Cu7  1  -0.00000000  0.82216492  0.34985621  1
  Cu  Cu8  1  0.00000000  0.17783508  0.65014379  1
  Cu  Cu9  1  0.00000000  0.67202114  0.65014379  1
  Cu  Cu10  1  0.00000000  0.50000000  -0.00000000  1
  Cu  Cu11  1  -0.00000000  0.00000000  -0.00000000  1
  O  O12  1  0.00000000  0.42106952  0.15842028  1
  O  O13  1  -0.00000000  0.92051019  0.15842028  1
  O  O14  1  -0.00000000  0.07948981  0.84157972  1
  O  O15  1  0.00000000  0.57893048  0.84157972  1
  O  O16  1  0.50000000  0.32170140  0.37399272  1
  O  O17  1  0.50000000  0.80430588  0.37399272  1
  O  O18  1  0.50000000  0.19569412  0.62600728  1
  O  O19  1  0.50000000  0.67829860  0.62600728  1
  O  O20  1  0.50000000  0.50000000  -0.00000000  1
  O  O21  1  0.50000000  0.00000000  -0.00000000  1
  O  O22  1  -0.00000000  0.55983342  0.38033317  1
  O  O23  1  -0.00000000  0.06488578  0.37022844  1
  O  O24  1  0.00000000  0.44016658  0.61966683  1
  O  O25  1  -0.00000000  0.93511422  0.62977156  1
