# generated using pymatgen
data_Ba6Dy2Al4O15
_symmetry_space_group_name_H-M   'P 1'
_cell_length_a   5.94655377
_cell_length_b   5.94655377
_cell_length_c   14.89733775
_cell_angle_alpha   90.00000000
_cell_angle_beta   90.00000000
_cell_angle_gamma   119.78808921
_symmetry_Int_Tables_number   1
_chemical_formula_structural   Ba6Dy2Al4O15
_chemical_formula_sum   'Ba6 Dy2 Al4 O15'
_cell_volume   457.18651595
_cell_formula_units_Z   1
loop_
 _symmetry_equiv_pos_site_id
 _symmetry_equiv_pos_as_xyz
  1  'x, y, z'
loop_
 _atom_site_type_symbol
 _atom_site_label
 _atom_site_symmetry_multiplicity
 _atom_site_fract_x
 _atom_site_fract_y
 _atom_site_fract_z
 _atom_site_occupancy
  Ba  Ba0  1  0.34369140  0.65630860  0.59655695  1
  Ba  Ba1  1  0.66074995  0.33925005  0.42632299  1
  Ba  Ba2  1  0.34369140  0.65630860  0.90344305  1
  Ba  Ba3  1  0.66074995  0.33925005  0.07367701  1
  Ba  Ba4  1  0.03395012  0.96604988  0.75000000  1
  Ba  Ba5  1  0.97779801  0.02220199  0.25000000  1
  Dy  Dy6  1  0.99922436  0.00077564  0.49997873  1
  Dy  Dy7  1  0.99922436  0.00077564  0.00002127  1
  Al  Al8  1  0.67627421  0.32372579  0.63736948  1
  Al  Al9  1  0.32677648  0.67322352  0.36378129  1
  Al  Al10  1  0.67627421  0.32372579  0.86263052  1
  Al  Al11  1  0.32677648  0.67322352  0.13621871  1
  O  O12  1  0.37093869  0.16222150  0.92171450  1
  O  O13  1  0.14939147  0.35842187  0.08881118  1
  O  O14  1  0.37093869  0.16222150  0.57828550  1
  O  O15  1  0.14939147  0.35842187  0.41118882  1
  O  O16  1  0.64157813  0.85060853  0.08881118  1
  O  O17  1  0.83777850  0.62906131  0.92171450  1
  O  O18  1  0.64157813  0.85060853  0.41118882  1
  O  O19  1  0.83777850  0.62906131  0.57828550  1
  O  O20  1  0.62594043  0.37405957  0.75000000  1
  O  O21  1  0.37563514  0.62436486  0.25000000  1
  O  O22  1  0.84173662  0.15826338  0.60421177  1
  O  O23  1  0.15580808  0.84419192  0.38272567  1
  O  O24  1  0.84173662  0.15826338  0.89578823  1
  O  O25  1  0.15580808  0.84419192  0.11727433  1
  O  O26  1  0.27578052  0.72421948  0.75000000  1
