# generated using pymatgen
data_Na8PtO6
_symmetry_space_group_name_H-M   'P 1'
_cell_length_a   4.50274707
_cell_length_b   6.93975932
_cell_length_c   6.93975932
_cell_angle_alpha   90.00000000
_cell_angle_beta   90.00000000
_cell_angle_gamma   90.00000000
_symmetry_Int_Tables_number   1
_chemical_formula_structural   Na8PtO6
_chemical_formula_sum   'Na8 Pt1 O6'
_cell_volume   216.85346699
_cell_formula_units_Z   1
loop_
 _symmetry_equiv_pos_site_id
 _symmetry_equiv_pos_as_xyz
  1  'x, y, z'
loop_
 _atom_site_type_symbol
 _atom_site_label
 _atom_site_symmetry_multiplicity
 _atom_site_fract_x
 _atom_site_fract_y
 _atom_site_fract_z
 _atom_site_occupancy
  Na  Na0  1  0.54428855  0.28666069  0.08273865  1
  Na  Na1  1  0.07240160  0.78454620  0.65982458  1
  Na  Na2  1  0.54428855  0.71333931  0.91726135  1
  Na  Na3  1  0.07240160  0.21545380  0.34017542  1
  Na  Na4  1  0.07240160  0.65982458  0.21545380  1
  Na  Na5  1  0.54428855  0.08273865  0.71333931  1
  Na  Na6  1  0.07240160  0.34017542  0.78454620  1
  Na  Na7  1  0.54428855  0.91726135  0.28666069  1
  Pt  Pt8  1  0.57692764  0.50000000  0.50000000  1
  O  O9  1  0.21610962  -0.00000000  -0.00000000  1
  O  O10  1  0.07603713  0.50000000  0.50000000  1
  O  O11  1  0.57604125  0.40850863  0.78392632  1
  O  O12  1  0.57604125  0.59149137  0.21607368  1
  O  O13  1  0.57604125  0.78392632  0.59149137  1
  O  O14  1  0.57604125  0.21607368  0.40850863  1
