# generated using pymatgen
data_Ce2ZrCo16
_symmetry_space_group_name_H-M   'P 1'
_cell_length_a   8.24860578
_cell_length_b   8.36786195
_cell_length_c   8.37882208
_cell_angle_alpha   60.04326133
_cell_angle_beta   90.01996474
_cell_angle_gamma   90.00000000
_symmetry_Int_Tables_number   1
_chemical_formula_structural   Ce2ZrCo16
_chemical_formula_sum   'Ce4 Zr2 Co32'
_cell_volume   501.06927969
_cell_formula_units_Z   2
loop_
 _symmetry_equiv_pos_site_id
 _symmetry_equiv_pos_as_xyz
  1  'x, y, z'
loop_
 _atom_site_type_symbol
 _atom_site_label
 _atom_site_symmetry_multiplicity
 _atom_site_fract_x
 _atom_site_fract_y
 _atom_site_fract_z
 _atom_site_occupancy
  Ce  Ce0  1  0.27020949  0.66782692  0.66434617  1
  Ce  Ce1  1  0.72979051  0.33217308  0.33565383  1
  Ce  Ce2  1  0.75010753  0.00047060  -0.00094120  1
  Ce  Ce3  1  0.24989247  -0.00047060  0.00094120  1
  Zr  Zr4  1  0.11542779  0.33286753  0.33426494  1
  Zr  Zr5  1  0.88457221  0.66713247  0.66573506  1
  Co  Co6  1  0.74789575  0.67282466  0.36188674  1
  Co  Co7  1  0.74807164  0.36157851  0.96500608  1
  Co  Co8  1  0.74810806  0.96488180  0.67300910  1
  Co  Co9  1  0.74810806  0.36210910  0.67300910  1
  Co  Co10  1  0.74789575  0.96528859  0.36188674  1
  Co  Co11  1  0.74807164  0.67341541  0.96500608  1
  Co  Co12  1  0.25210425  0.32717534  0.63811326  1
  Co  Co13  1  0.25192836  0.63842149  0.03499392  1
  Co  Co14  1  0.25189194  0.03511820  0.32699090  1
  Co  Co15  1  0.25189194  0.63789090  0.32699090  1
  Co  Co16  1  0.25210425  0.03471141  0.63811326  1
  Co  Co17  1  0.25192836  0.32658459  0.03499392  1
  Co  Co18  1  0.48695603  0.83394803  0.83331173  1
  Co  Co19  1  0.48627885  0.83365682  0.33268636  1
  Co  Co20  1  0.48695603  0.33274024  0.83331173  1
  Co  Co21  1  0.51304397  0.16605197  0.16668827  1
  Co  Co22  1  0.51372115  0.16634318  0.66731364  1
  Co  Co23  1  0.51304397  0.66725976  0.16668827  1
  Co  Co24  1  0.97457468  0.16240494  0.16331322  1
  Co  Co25  1  0.97378400  0.16298946  0.67402107  1
  Co  Co26  1  0.97457468  0.67428185  0.16331322  1
  Co  Co27  1  0.02542532  0.83759506  0.83668678  1
  Co  Co28  1  0.02621600  0.83701054  0.32597893  1
  Co  Co29  1  0.02542532  0.32571815  0.83668678  1
  Co  Co30  1  0.50000000  0.50000000  0.50000000  1
  Co  Co31  1  0.50000000  0.50000000  0.00000000  1
  Co  Co32  1  0.50000000  0.00000000  0.50000000  1
  Co  Co33  1  -0.00000000  0.50000000  0.50000000  1
  Co  Co34  1  -0.00000000  0.50000000  0.00000000  1
  Co  Co35  1  -0.00000000  0.00000000  0.50000000  1
  Co  Co36  1  0.58994501  0.66683293  0.66633415  1
  Co  Co37  1  0.41005499  0.33316707  0.33366585  1
