# generated using pymatgen
data_BaSrLa4O8
_symmetry_space_group_name_H-M   'P 1'
_cell_length_a   3.67771856
_cell_length_b   10.61986046
_cell_length_c   12.60890237
_cell_angle_alpha   90.00000000
_cell_angle_beta   90.00000000
_cell_angle_gamma   90.00000000
_symmetry_Int_Tables_number   1
_chemical_formula_structural   BaSrLa4O8
_chemical_formula_sum   'Ba2 Sr2 La8 O16'
_cell_volume   492.46410837
_cell_formula_units_Z   2
loop_
 _symmetry_equiv_pos_site_id
 _symmetry_equiv_pos_as_xyz
  1  'x, y, z'
loop_
 _atom_site_type_symbol
 _atom_site_label
 _atom_site_symmetry_multiplicity
 _atom_site_fract_x
 _atom_site_fract_y
 _atom_site_fract_z
 _atom_site_occupancy
  Ba  Ba0  1  0.75000000  0.75184233  0.14584014  1
  Ba  Ba1  1  0.75000000  0.25184233  0.35415986  1
  Sr  Sr2  1  0.25000000  0.24835783  0.85259738  1
  Sr  Sr3  1  0.25000000  0.74835783  0.64740262  1
  La  La4  1  0.75000000  0.08668695  0.10908634  1
  La  La5  1  0.75000000  0.58668695  0.39091366  1
  La  La6  1  0.25000000  0.91633709  0.88585114  1
  La  La7  1  0.25000000  0.41633709  0.61414886  1
  La  La8  1  0.75000000  0.07193148  0.61783505  1
  La  La9  1  0.75000000  0.57193148  0.88216495  1
  La  La10  1  0.25000000  0.92558076  0.38729774  1
  La  La11  1  0.25000000  0.42558076  0.11270226  1
  O  O12  1  0.75000000  0.98700023  0.28285290  1
  O  O13  1  0.75000000  0.48700023  0.21714710  1
  O  O14  1  0.25000000  0.01160946  0.71864422  1
  O  O15  1  0.25000000  0.51160946  0.78135578  1
  O  O16  1  0.75000000  0.28418440  0.68969146  1
  O  O17  1  0.75000000  0.78418440  0.81030854  1
  O  O18  1  0.25000000  0.71544631  0.31904181  1
  O  O19  1  0.25000000  0.21544631  0.18095819  1
  O  O20  1  0.75000000  0.07323938  0.91901571  1
  O  O21  1  0.75000000  0.57323938  0.58098429  1
  O  O22  1  0.25000000  0.93436011  0.07464842  1
  O  O23  1  0.25000000  0.43436011  0.42535158  1
  O  O24  1  0.75000000  0.36588836  0.97933578  1
  O  O25  1  0.75000000  0.86588836  0.52066422  1
  O  O26  1  0.25000000  0.62753530  0.01387727  1
  O  O27  1  0.25000000  0.12753530  0.48612273  1
