# generated using pymatgen
data_Bi10Te2I4O17
_symmetry_space_group_name_H-M   'P 1'
_cell_length_a   7.98967865
_cell_length_b   7.98925892
_cell_length_c   10.66342342
_cell_angle_alpha   67.99976395
_cell_angle_beta   89.99973468
_cell_angle_gamma   89.99929174
_symmetry_Int_Tables_number   1
_chemical_formula_structural   Bi10Te2I4O17
_chemical_formula_sum   'Bi10 Te2 I4 O17'
_cell_volume   631.09915745
_cell_formula_units_Z   1
loop_
 _symmetry_equiv_pos_site_id
 _symmetry_equiv_pos_as_xyz
  1  'x, y, z'
loop_
 _atom_site_type_symbol
 _atom_site_label
 _atom_site_symmetry_multiplicity
 _atom_site_fract_x
 _atom_site_fract_y
 _atom_site_fract_z
 _atom_site_occupancy
  Bi  Bi0  1  0.99335023  0.50318931  0.00705280  1
  Bi  Bi1  1  0.50665956  0.50325710  0.00694775  1
  Bi  Bi2  1  0.99334044  0.98979515  0.00694775  1
  Bi  Bi3  1  0.50664977  0.98975788  0.00705280  1
  Bi  Bi4  1  0.25000000  0.87715671  0.74568659  1
  Bi  Bi5  1  0.75000000  0.87046031  0.75907939  1
  Bi  Bi6  1  0.25000000  0.36986079  0.76027842  1
  Bi  Bi7  1  0.75000000  0.37715177  0.74569646  1
  Bi  Bi8  1  0.25000000  0.60289008  0.29421984  1
  Bi  Bi9  1  0.75000000  0.10290147  0.29419706  1
  Te  Te10  1  0.25000000  0.12219328  0.25561345  1
  Te  Te11  1  0.75000000  0.63838132  0.22323735  1
  I  I12  1  0.99895839  0.23651365  0.52677036  1
  I  I13  1  0.50095109  0.23652954  0.52675044  1
  I  I14  1  0.99904891  0.73672002  0.52675044  1
  I  I15  1  0.50104161  0.73671599  0.52677036  1
  O  O16  1  0.25000676  0.92732830  0.17541743  1
  O  O17  1  0.74998086  0.92416762  0.17891440  1
  O  O18  1  0.24999324  0.39725427  0.17541743  1
  O  O19  1  0.75001914  0.39691798  0.17891440  1
  O  O20  1  0.01553102  0.16250929  0.17499087  1
  O  O21  1  0.48446898  0.16249984  0.17499087  1
  O  O22  1  0.01358903  0.66048375  0.17898662  1
  O  O23  1  0.48641097  0.66052963  0.17898662  1
  O  O24  1  0.25000699  0.56660026  0.86985514  1
  O  O25  1  0.74999834  0.56195070  0.85968213  1
  O  O26  1  0.24999301  0.06354460  0.86985514  1
  O  O27  1  0.75000166  0.07836717  0.85968213  1
  O  O28  1  0.00830088  0.82016327  0.85968266  1
  O  O29  1  0.49169912  0.82015406  0.85968266  1
  O  O30  1  0.99848985  0.31511852  0.86975035  1
  O  O31  1  0.50151015  0.31513113  0.86975035  1
  O  O32  1  0.75000000  0.73420524  0.03158952  1
