# generated using pymatgen
data_BaLa3(NiO4)2
_symmetry_space_group_name_H-M   'P 1'
_cell_length_a   5.48570061
_cell_length_b   5.52943185
_cell_length_c   7.00097102
_cell_angle_alpha   90.00000000
_cell_angle_beta   66.93461051
_cell_angle_gamma   90.00000000
_symmetry_Int_Tables_number   1
_chemical_formula_structural   BaLa3(NiO4)2
_chemical_formula_sum   'Ba1 La3 Ni2 O8'
_cell_volume   195.38276542
_cell_formula_units_Z   1
loop_
 _symmetry_equiv_pos_site_id
 _symmetry_equiv_pos_as_xyz
  1  'x, y, z'
loop_
 _atom_site_type_symbol
 _atom_site_label
 _atom_site_symmetry_multiplicity
 _atom_site_fract_x
 _atom_site_fract_y
 _atom_site_fract_z
 _atom_site_occupancy
  Ba  Ba0  1  0.85579582  0.50000000  0.28840836  1
  La  La1  1  0.36218144  0.00000000  0.27563712  1
  La  La2  1  0.63943278  0.00000000  0.72113444  1
  La  La3  1  0.13658973  0.50000000  0.72682055  1
  Ni  Ni4  1  0.49850211  0.50000000  0.00299579  1
  Ni  Ni5  1  0.99709344  -0.00000000  0.00581312  1
  O  O6  1  0.18203263  0.00000000  0.63593474  1
  O  O7  1  0.65761088  0.50000000  0.68477824  1
  O  O8  1  0.32211479  0.50000000  0.35577042  1
  O  O9  1  0.82348998  0.00000000  0.35302004  1
  O  O10  1  0.75511212  0.23752933  0.98742180  1
  O  O11  1  0.25746609  0.76247067  0.98742180  1
  O  O12  1  0.75511212  0.76247067  0.98742180  1
  O  O13  1  0.25746609  0.23752933  0.98742180  1
