# generated using pymatgen
data_Ba4PrY(Cu3O7)2
_symmetry_space_group_name_H-M   'P 1'
_cell_length_a   3.88537932
_cell_length_b   7.88274498
_cell_length_c   11.87528390
_cell_angle_alpha   90.00000000
_cell_angle_beta   90.00000000
_cell_angle_gamma   90.00000000
_symmetry_Int_Tables_number   1
_chemical_formula_structural   Ba4PrY(Cu3O7)2
_chemical_formula_sum   'Ba4 Pr1 Y1 Cu6 O14'
_cell_volume   363.70971530
_cell_formula_units_Z   1
loop_
 _symmetry_equiv_pos_site_id
 _symmetry_equiv_pos_as_xyz
  1  'x, y, z'
loop_
 _atom_site_type_symbol
 _atom_site_label
 _atom_site_symmetry_multiplicity
 _atom_site_fract_x
 _atom_site_fract_y
 _atom_site_fract_z
 _atom_site_occupancy
  Ba  Ba0  1  0.50000000  0.25000000  0.81911524  1
  Ba  Ba1  1  0.50000000  0.75000000  0.82032885  1
  Ba  Ba2  1  0.50000000  0.25000000  0.18088476  1
  Ba  Ba3  1  0.50000000  0.75000000  0.17967115  1
  Pr  Pr4  1  0.50000000  0.75000000  0.50000000  1
  Y  Y5  1  0.50000000  0.25000000  0.50000000  1
  Cu  Cu6  1  -0.00000000  0.00327962  0.65146409  1
  Cu  Cu7  1  -0.00000000  0.49672038  0.65146409  1
  Cu  Cu8  1  0.00000000  0.00327962  0.34853591  1
  Cu  Cu9  1  0.00000000  0.49672038  0.34853591  1
  Cu  Cu10  1  0.00000000  0.00027544  0.00000000  1
  Cu  Cu11  1  0.00000000  0.49972456  0.00000000  1
  O  O12  1  0.00000000  0.25000000  0.62030415  1
  O  O13  1  0.00000000  0.75000000  0.63064786  1
  O  O14  1  -0.00000000  0.25000000  0.37969585  1
  O  O15  1  -0.00000000  0.75000000  0.36935214  1
  O  O16  1  -0.00000000  0.00063027  0.84221367  1
  O  O17  1  0.00000000  0.49936973  0.84221367  1
  O  O18  1  0.00000000  0.00063027  0.15778633  1
  O  O19  1  -0.00000000  0.49936973  0.15778633  1
  O  O20  1  -0.00000000  0.25000000  0.00000000  1
  O  O21  1  -0.00000000  0.75000000  0.00000000  1
  O  O22  1  0.50000000  0.49175238  0.62531798  1
  O  O23  1  0.50000000  0.00824762  0.62531798  1
  O  O24  1  0.50000000  0.49175238  0.37468202  1
  O  O25  1  0.50000000  0.00824762  0.37468202  1
