# generated using pymatgen
data_BaLa3Mn4O10
_symmetry_space_group_name_H-M   'P 1'
_cell_length_a   5.64721102
_cell_length_b   9.17297845
_cell_length_c   11.57164849
_cell_angle_alpha   108.26712858
_cell_angle_beta   90.00000000
_cell_angle_gamma   72.07223044
_symmetry_Int_Tables_number   1
_chemical_formula_structural   BaLa3Mn4O10
_chemical_formula_sum   'Ba2 La6 Mn8 O20'
_cell_volume   538.48802720
_cell_formula_units_Z   2
loop_
 _symmetry_equiv_pos_site_id
 _symmetry_equiv_pos_as_xyz
  1  'x, y, z'
loop_
 _atom_site_type_symbol
 _atom_site_label
 _atom_site_symmetry_multiplicity
 _atom_site_fract_x
 _atom_site_fract_y
 _atom_site_fract_z
 _atom_site_occupancy
  Ba  Ba0  1  0.61267843  0.76735582  0.18889475  1
  Ba  Ba1  1  0.61996575  0.76735582  0.68889475  1
  La  La2  1  0.37742415  0.22165942  0.31812380  1
  La  La3  1  0.40091644  0.22165942  0.81812380  1
  La  La4  1  0.88033929  0.21561533  0.04409878  1
  La  La5  1  0.09135763  0.77339394  0.45382237  1
  La  La6  1  0.13524843  0.77339394  0.95382237  1
  La  La7  1  0.90404538  0.21561533  0.54409878  1
  Mn  Mn8  1  0.50229704  0.99952418  0.00188980  1
  Mn  Mn9  1  0.49817878  0.99952418  0.50188980  1
  Mn  Mn10  1  0.99650224  0.00676799  0.25251500  1
  Mn  Mn11  1  0.99672978  0.00676799  0.75251500  1
  Mn  Mn12  1  0.71433630  0.49866857  0.34756015  1
  Mn  Mn13  1  0.21356254  0.49458252  0.15053477  1
  Mn  Mn14  1  0.29185494  0.49458252  0.65053477  1
  Mn  Mn15  1  0.78699513  0.49866857  0.84756015  1
  O  O16  1  0.14300241  0.72076677  0.13564182  1
  O  O17  1  0.88373955  0.27729239  0.35984070  1
  O  O18  1  0.83896806  0.27729239  0.85984070  1
  O  O19  1  0.13623082  0.72076677  0.63564182  1
  O  O20  1  0.40917156  0.27171907  0.02849294  1
  O  O21  1  0.69357320  0.73228060  0.44519165  1
  O  O22  1  0.57414620  0.73228060  0.94519165  1
  O  O23  1  0.31910937  0.27171907  0.52849294  1
  O  O24  1  0.86214692  0.46836006  0.17247045  1
  O  O25  1  0.33134444  0.50094446  0.32764178  1
  O  O26  1  0.16771110  0.50094446  0.82764178  1
  O  O27  1  0.66949302  0.46836006  0.67247045  1
  O  O28  1  0.22477256  0.02983590  0.63629790  1
  O  O29  1  0.24131833  0.00176011  0.87413458  1
  O  O30  1  0.75692156  0.00176011  0.37413458  1
  O  O31  1  0.74539154  0.02983590  0.13629790  1
  O  O32  1  0.22499675  0.04410784  0.14203892  1
  O  O33  1  0.24355962  0.97536503  0.37080984  1
  O  O34  1  0.78107534  0.97536503  0.87080984  1
  O  O35  1  0.73089541  0.04410784  0.64203892  1
