# generated using pymatgen
data_Ba10PrY4(Cu3O7)5
_symmetry_space_group_name_H-M   'P 1'
_cell_length_a   3.85408796
_cell_length_b   19.62205772
_cell_length_c   11.87431813
_cell_angle_alpha   90.00000000
_cell_angle_beta   90.00000000
_cell_angle_gamma   90.00000000
_symmetry_Int_Tables_number   1
_chemical_formula_structural   Ba10PrY4(Cu3O7)5
_chemical_formula_sum   'Ba10 Pr1 Y4 Cu15 O35'
_cell_volume   897.99692835
_cell_formula_units_Z   1
loop_
 _symmetry_equiv_pos_site_id
 _symmetry_equiv_pos_as_xyz
  1  'x, y, z'
loop_
 _atom_site_type_symbol
 _atom_site_label
 _atom_site_symmetry_multiplicity
 _atom_site_fract_x
 _atom_site_fract_y
 _atom_site_fract_z
 _atom_site_occupancy
  Ba  Ba0  1  0.50000000  0.09975464  0.81993616  1
  Ba  Ba1  1  0.50000000  0.30000000  0.82120729  1
  Ba  Ba2  1  0.50000000  0.50024536  0.81993616  1
  Ba  Ba3  1  0.50000000  0.69996742  0.81992861  1
  Ba  Ba4  1  0.50000000  0.90003258  0.81992861  1
  Ba  Ba5  1  0.50000000  0.09975464  0.18006384  1
  Ba  Ba6  1  0.50000000  0.30000000  0.17879271  1
  Ba  Ba7  1  0.50000000  0.50024536  0.18006384  1
  Ba  Ba8  1  0.50000000  0.69996742  0.18007139  1
  Ba  Ba9  1  0.50000000  0.90003258  0.18007139  1
  Pr  Pr10  1  0.50000000  0.30000000  0.50000000  1
  Y  Y11  1  0.50000000  0.09914363  0.50000000  1
  Y  Y12  1  0.50000000  0.50085637  0.50000000  1
  Y  Y13  1  0.50000000  0.70007931  0.50000000  1
  Y  Y14  1  0.50000000  0.89992069  0.50000000  1
  Cu  Cu15  1  0.00000000  0.99971334  0.64955669  1
  Cu  Cu16  1  -0.00000000  0.19865009  0.65237104  1
  Cu  Cu17  1  -0.00000000  0.40134991  0.65237104  1
  Cu  Cu18  1  0.00000000  0.60028666  0.64955669  1
  Cu  Cu19  1  0.00000000  0.80000000  0.64965389  1
  Cu  Cu20  1  -0.00000000  0.99971334  0.35044331  1
  Cu  Cu21  1  0.00000000  0.19865009  0.34762896  1
  Cu  Cu22  1  0.00000000  0.40134991  0.34762896  1
  Cu  Cu23  1  -0.00000000  0.60028666  0.35044331  1
  Cu  Cu24  1  -0.00000000  0.80000000  0.35034611  1
  Cu  Cu25  1  -0.00000000  0.99991837  0.00000000  1
  Cu  Cu26  1  -0.00000000  0.19988629  0.00000000  1
  Cu  Cu27  1  0.00000000  0.40011371  0.00000000  1
  Cu  Cu28  1  0.00000000  0.60008163  0.00000000  1
  Cu  Cu29  1  0.00000000  0.80000000  0.00000000  1
  O  O30  1  0.00000000  -0.00001762  0.84169447  1
  O  O31  1  -0.00000000  0.19966499  0.84218235  1
  O  O32  1  0.00000000  0.40033501  0.84218235  1
  O  O33  1  0.00000000  0.60001762  0.84169447  1
  O  O34  1  0.00000000  0.80000000  0.84162853  1
  O  O35  1  0.00000000  -0.00001762  0.15830553  1
  O  O36  1  -0.00000000  0.19966499  0.15781765  1
  O  O37  1  0.00000000  0.40033501  0.15781765  1
  O  O38  1  -0.00000000  0.60001762  0.15830553  1
  O  O39  1  0.00000000  0.80000000  0.15837147  1
  O  O40  1  -0.00000000  0.09902776  0.62125311  1
  O  O41  1  -0.00000000  0.30000000  0.63118767  1
  O  O42  1  0.00000000  0.50097224  0.62125311  1
  O  O43  1  0.00000000  0.70009388  0.62161966  1
  O  O44  1  0.00000000  0.89990612  0.62161966  1
  O  O45  1  -0.00000000  0.09902776  0.37874689  1
  O  O46  1  0.00000000  0.30000000  0.36881233  1
  O  O47  1  0.00000000  0.50097224  0.37874689  1
  O  O48  1  -0.00000000  0.70009388  0.37838034  1
  O  O49  1  -0.00000000  0.89990612  0.37838034  1
  O  O50  1  0.00000000  0.09983057  0.00000000  1
  O  O51  1  0.00000000  0.30000000  0.00000000  1
  O  O52  1  0.00000000  0.50016943  0.00000000  1
  O  O53  1  0.00000000  0.70002351  0.00000000  1
  O  O54  1  -0.00000000  0.89997649  0.00000000  1
  O  O55  1  0.50000000  0.99961060  0.62115549  1
  O  O56  1  0.50000000  0.19637060  0.62510860  1
  O  O57  1  0.50000000  0.40362940  0.62510860  1
  O  O58  1  0.50000000  0.60038940  0.62115549  1
  O  O59  1  0.50000000  0.80000000  0.62112510  1
  O  O60  1  0.50000000  0.99961060  0.37884451  1
  O  O61  1  0.50000000  0.19637060  0.37489140  1
  O  O62  1  0.50000000  0.40362940  0.37489140  1
  O  O63  1  0.50000000  0.60038940  0.37884451  1
  O  O64  1  0.50000000  0.80000000  0.37887490  1
