# generated using pymatgen
data_Ba6Ca6Cu9Hg3O25
_symmetry_space_group_name_H-M   'P 1'
_cell_length_a   5.50006852
_cell_length_b   8.66266326
_cell_length_c   16.64778447
_cell_angle_alpha   102.03101092
_cell_angle_beta   80.49177421
_cell_angle_gamma   108.50928673
_symmetry_Int_Tables_number   1
_chemical_formula_structural   Ba6Ca6Cu9Hg3O25
_chemical_formula_sum   'Ba6 Ca6 Cu9 Hg3 O25'
_cell_volume   731.43202699
_cell_formula_units_Z   1
loop_
 _symmetry_equiv_pos_site_id
 _symmetry_equiv_pos_as_xyz
  1  'x, y, z'
loop_
 _atom_site_type_symbol
 _atom_site_label
 _atom_site_symmetry_multiplicity
 _atom_site_fract_x
 _atom_site_fract_y
 _atom_site_fract_z
 _atom_site_occupancy
  Ba  Ba0  1  0.94168845  0.55876173  0.67538483  1
  Ba  Ba1  1  0.27469919  0.22476493  0.67536555  1
  Ba  Ba2  1  0.61157594  0.88849812  0.66534724  1
  Ba  Ba3  1  0.05863381  0.44190207  0.32463445  1
  Ba  Ba4  1  0.39164455  0.10790527  0.32461517  1
  Ba  Ba5  1  0.72175806  0.77816788  0.33465276  1
  Ca  Ca6  1  0.86704911  0.63247814  0.89837893  1
  Ca  Ca7  1  0.20078010  0.29967607  0.89811687  1
  Ca  Ca8  1  0.53456816  0.96547080  0.89633448  1
  Ca  Ca9  1  0.13255390  0.36698993  0.10188313  1
  Ca  Ca10  1  0.46628389  0.03418886  0.10162107  1
  Ca  Ca11  1  0.79876484  0.70119620  0.10366552  1
  Cu  Cu12  1  0.06644946  0.93342380  0.80052489  1
  Cu  Cu13  1  0.40018327  0.60156457  0.80119702  1
  Cu  Cu14  1  0.73228323  0.26576536  0.80119990  1
  Cu  Cu15  1  0.26688354  0.73324320  0.19947511  1
  Cu  Cu16  1  0.60105077  0.40090064  0.19880010  1
  Cu  Cu17  1  0.93314973  0.06510243  0.19880298  1
  Cu  Cu18  1  0.33352439  0.66709244  0.00004267  1
  Cu  Cu19  1  0.66666700  0.33333300  0.00000000  1
  Cu  Cu20  1  0.99980861  0.99957456  0.99995733  1
  Hg  Hg21  1  0.16666700  0.83333300  0.50000000  1
  Hg  Hg22  1  0.50551362  0.51103607  0.50000882  1
  Hg  Hg23  1  0.82781938  0.15563093  0.49999118  1
  O  O24  1  0.22966770  0.76658099  0.80385082  1
  O  O25  1  0.56557305  0.43449649  0.80306787  1
  O  O26  1  0.90129571  0.10250199  0.80390387  1
  O  O27  1  0.73306247  0.76658099  0.80385082  1
  O  O28  1  0.06585456  0.43449649  0.80306787  1
  O  O29  1  0.39730342  0.10250199  0.80390387  1
  O  O30  1  0.43203829  0.56416401  0.19609613  1
  O  O31  1  0.76775995  0.23217051  0.19693213  1
  O  O32  1  0.10366530  0.90008601  0.19614918  1
  O  O33  1  0.93603058  0.56416401  0.19609613  1
  O  O34  1  0.26747844  0.23217051  0.19693213  1
  O  O35  1  0.60027053  0.90008601  0.19614918  1
  O  O36  1  0.12418521  0.87584875  0.62747734  1
  O  O37  1  0.45412619  0.53498319  0.62673182  1
  O  O38  1  0.79474349  0.21620453  0.62671755  1
  O  O39  1  0.20914779  0.79081825  0.37252266  1
  O  O40  1  0.53858951  0.45046247  0.37328245  1
  O  O41  1  0.87920781  0.13168281  0.37326818  1
  O  O42  1  0.49963951  0.49982401  0.99994643  1
  O  O43  1  0.83369349  0.16684299  0.00005357  1
  O  O44  1  0.16666700  0.83333300  0.00000000  1
  O  O45  1  0.00023808  0.49982401  0.99994643  1
  O  O46  1  0.33309492  0.16684299  0.00005357  1
  O  O47  1  0.66666700  0.83333300  0.00000000  1
  O  O48  1  0.66666700  0.83333300  0.50000000  1
