# generated using pymatgen
data_Ba4Y2Cu5PdO14
_symmetry_space_group_name_H-M   'P 1'
_cell_length_a   3.94887224
_cell_length_b   3.83193399
_cell_length_c   24.02141304
_cell_angle_alpha   90.00000000
_cell_angle_beta   90.00000000
_cell_angle_gamma   90.00000000
_symmetry_Int_Tables_number   1
_chemical_formula_structural   Ba4Y2Cu5PdO14
_chemical_formula_sum   'Ba4 Y2 Cu5 Pd1 O14'
_cell_volume   363.48764443
_cell_formula_units_Z   1
loop_
 _symmetry_equiv_pos_site_id
 _symmetry_equiv_pos_as_xyz
  1  'x, y, z'
loop_
 _atom_site_type_symbol
 _atom_site_label
 _atom_site_symmetry_multiplicity
 _atom_site_fract_x
 _atom_site_fract_y
 _atom_site_fract_z
 _atom_site_occupancy
  Ba  Ba0  1  0.50000000  0.50000000  0.08979715  1
  Ba  Ba1  1  0.50000000  0.50000000  0.59419905  1
  Ba  Ba2  1  0.50000000  0.50000000  0.40580095  1
  Ba  Ba3  1  0.50000000  0.50000000  0.91020285  1
  Y  Y4  1  0.50000000  0.50000000  0.24841611  1
  Y  Y5  1  0.50000000  0.50000000  0.75158389  1
  Cu  Cu6  1  0.00000000  -0.00000000  0.17669537  1
  Cu  Cu7  1  0.00000000  -0.00000000  0.67937330  1
  Cu  Cu8  1  0.00000000  -0.00000000  0.32062670  1
  Cu  Cu9  1  0.00000000  -0.00000000  0.82330463  1
  Cu  Cu10  1  0.00000000  0.00000000  0.00000000  1
  Pd  Pd11  1  0.00000000  -0.00000000  0.50000000  1
  O  O12  1  -0.00000000  -0.00000000  0.07821344  1
  O  O13  1  0.00000000  0.00000000  0.58513824  1
  O  O14  1  0.00000000  -0.00000000  0.41486176  1
  O  O15  1  -0.00000000  0.00000000  0.92178656  1
  O  O16  1  0.50000000  0.00000000  0.00000000  1
  O  O17  1  0.50000000  0.00000000  0.50000000  1
  O  O18  1  0.00000000  0.50000000  0.18952543  1
  O  O19  1  0.00000000  0.50000000  0.69264425  1
  O  O20  1  0.00000000  0.50000000  0.30735575  1
  O  O21  1  0.00000000  0.50000000  0.81047457  1
  O  O22  1  0.50000000  0.00000000  0.18860626  1
  O  O23  1  0.50000000  0.00000000  0.69085115  1
  O  O24  1  0.50000000  0.00000000  0.30914885  1
  O  O25  1  0.50000000  0.00000000  0.81139374  1
