# generated using pymatgen
data_Ba3CaLa2(Cu3O7)2
_symmetry_space_group_name_H-M   'P 1'
_cell_length_a   5.50006962
_cell_length_b   5.50006962
_cell_length_c   11.71695536
_cell_angle_alpha   90.00000000
_cell_angle_beta   90.00000000
_cell_angle_gamma   91.21760196
_symmetry_Int_Tables_number   1
_chemical_formula_structural   Ba3CaLa2(Cu3O7)2
_chemical_formula_sum   'Ba3 Ca1 La2 Cu6 O14'
_cell_volume   354.36683960
_cell_formula_units_Z   1
loop_
 _symmetry_equiv_pos_site_id
 _symmetry_equiv_pos_as_xyz
  1  'x, y, z'
loop_
 _atom_site_type_symbol
 _atom_site_label
 _atom_site_symmetry_multiplicity
 _atom_site_fract_x
 _atom_site_fract_y
 _atom_site_fract_z
 _atom_site_occupancy
  Ba  Ba0  1  0.50000000  -0.00000000  0.81604521  1
  Ba  Ba1  1  0.00000000  0.50000000  0.81705327  1
  Ba  Ba2  1  0.50000000  -0.00000000  0.17991525  1
  Ca  Ca3  1  0.00000000  0.50000000  0.50115996  1
  La  La4  1  0.00000000  0.50000000  0.19460357  1
  La  La5  1  0.50000000  -0.00000000  0.49651410  1
  Cu  Cu6  1  0.00000000  -0.00000000  0.64882865  1
  Cu  Cu7  1  0.50000000  0.50000000  0.64882865  1
  Cu  Cu8  1  0.00000000  -0.00000000  0.34799530  1
  Cu  Cu9  1  0.50000000  0.50000000  0.34799530  1
  Cu  Cu10  1  0.00000000  -0.00000000  0.00264781  1
  Cu  Cu11  1  0.50000000  0.50000000  0.00264781  1
  O  O12  1  0.00000000  -0.00000000  0.84424243  1
  O  O13  1  0.50000000  0.50000000  0.84424243  1
  O  O14  1  0.00000000  -0.00000000  0.16292847  1
  O  O15  1  0.50000000  0.50000000  0.16292847  1
  O  O16  1  0.25112026  0.75112026  0.62925723  1
  O  O17  1  0.74887974  0.24887974  0.62925723  1
  O  O18  1  0.25115605  0.24884395  0.62543904  1
  O  O19  1  0.74884395  0.75115605  0.62543904  1
  O  O20  1  0.24117481  0.74117481  0.35912494  1
  O  O21  1  0.75882519  0.25882519  0.35912494  1
  O  O22  1  0.24199391  0.25800609  0.35838462  1
  O  O23  1  0.75800609  0.74199391  0.35838462  1
  O  O24  1  0.21833482  0.71833482  0.01850584  1
  O  O25  1  0.78166518  0.28166518  0.01850584  1
