# generated using pymatgen
data_NaNb2O4
_symmetry_space_group_name_H-M   'P 1'
_cell_length_a   3.00901887
_cell_length_b   3.00906016
_cell_length_c   11.60450526
_cell_angle_alpha   89.99999772
_cell_angle_beta   90.00004931
_cell_angle_gamma   59.99949197
_symmetry_Int_Tables_number   1
_chemical_formula_structural   NaNb2O4
_chemical_formula_sum   'Na1 Nb2 O4'
_cell_volume   90.99359420
_cell_formula_units_Z   1
loop_
 _symmetry_equiv_pos_site_id
 _symmetry_equiv_pos_as_xyz
  1  'x, y, z'
loop_
 _atom_site_type_symbol
 _atom_site_label
 _atom_site_symmetry_multiplicity
 _atom_site_fract_x
 _atom_site_fract_y
 _atom_site_fract_z
 _atom_site_occupancy
  Na  Na0  1  -0.00000000  -0.00000000  0.50000000  1
  Nb  Nb1  1  0.66667367  0.66666305  0.75463961  1
  Nb  Nb2  1  0.33332633  0.33333695  0.24536039  1
  O  O3  1  0.33335546  0.33332071  0.63995033  1
  O  O4  1  0.66664454  0.66667929  0.36004967  1
  O  O5  1  0.66663251  0.66668350  0.14692859  1
  O  O6  1  0.33336749  0.33331650  0.85307141  1
