# generated using pymatgen
data_Al2Fe2Bi2O9
_symmetry_space_group_name_H-M   'P 1'
_cell_length_a   5.88354577
_cell_length_b   7.99738156
_cell_length_c   8.43769702
_cell_angle_alpha   90.00000000
_cell_angle_beta   90.00000000
_cell_angle_gamma   90.00000000
_symmetry_Int_Tables_number   1
_chemical_formula_structural   Al2Fe2Bi2O9
_chemical_formula_sum   'Al4 Fe4 Bi4 O18'
_cell_volume   397.01862416
_cell_formula_units_Z   2
loop_
 _symmetry_equiv_pos_site_id
 _symmetry_equiv_pos_as_xyz
  1  'x, y, z'
loop_
 _atom_site_type_symbol
 _atom_site_label
 _atom_site_symmetry_multiplicity
 _atom_site_fract_x
 _atom_site_fract_y
 _atom_site_fract_z
 _atom_site_occupancy
  Al  Al0  1  0.25685945  0.00000000  0.50000000  1
  Al  Al1  1  0.74314055  0.50000000  0.00000000  1
  Al  Al2  1  0.74314055  0.00000000  0.50000000  1
  Al  Al3  1  0.25685945  0.50000000  -0.00000000  1
  Fe  Fe4  1  0.50000000  0.84802413  0.16636688  1
  Fe  Fe5  1  0.50000000  0.15197587  0.83363312  1
  Fe  Fe6  1  0.50000000  0.34802413  0.33363312  1
  Fe  Fe7  1  0.50000000  0.65197587  0.66636688  1
  Bi  Bi8  1  -0.00000000  0.67459014  0.33121297  1
  Bi  Bi9  1  -0.00000000  0.32540986  0.66878703  1
  Bi  Bi10  1  -0.00000000  0.17459014  0.16878703  1
  Bi  Bi11  1  -0.00000000  0.82540986  0.83121297  1
  O  O12  1  0.24263386  0.87390960  0.30345570  1
  O  O13  1  0.24263386  0.12609040  0.69654430  1
  O  O14  1  0.75736614  0.37390960  0.19654430  1
  O  O15  1  0.75736614  0.62609040  0.80345570  1
  O  O16  1  0.75736614  0.12609040  0.69654430  1
  O  O17  1  0.75736614  0.87390960  0.30345570  1
  O  O18  1  0.24263386  0.62609040  0.80345570  1
  O  O19  1  0.24263386  0.37390960  0.19654430  1
  O  O20  1  -0.00000000  0.64219196  0.07025656  1
  O  O21  1  -0.00000000  0.35780804  0.92974344  1
  O  O22  1  -0.00000000  0.14219196  0.42974344  1
  O  O23  1  -0.00000000  0.85780804  0.57025656  1
  O  O24  1  0.50000000  0.62773030  0.08689384  1
  O  O25  1  0.50000000  0.37226970  0.91310616  1
  O  O26  1  0.50000000  0.12773030  0.41310616  1
  O  O27  1  0.50000000  0.87226970  0.58689384  1
  O  O28  1  0.50000000  0.50000000  0.50000000  1
  O  O29  1  0.50000000  0.00000000  0.00000000  1
