# generated using pymatgen
data_Ba2CaEu2Ti3(CuO7)2
_symmetry_space_group_name_H-M   'P 1'
_cell_length_a   3.91348899
_cell_length_b   3.91348899
_cell_length_c   19.90957276
_cell_angle_alpha   90.00000000
_cell_angle_beta   90.00000000
_cell_angle_gamma   90.00000000
_symmetry_Int_Tables_number   1
_chemical_formula_structural   Ba2CaEu2Ti3(CuO7)2
_chemical_formula_sum   'Ba2 Ca1 Eu2 Ti3 Cu2 O14'
_cell_volume   304.92299250
_cell_formula_units_Z   1
loop_
 _symmetry_equiv_pos_site_id
 _symmetry_equiv_pos_as_xyz
  1  'x, y, z'
loop_
 _atom_site_type_symbol
 _atom_site_label
 _atom_site_symmetry_multiplicity
 _atom_site_fract_x
 _atom_site_fract_y
 _atom_site_fract_z
 _atom_site_occupancy
  Ba  Ba0  1  0.50000000  0.50000000  0.80832470  1
  Ba  Ba1  1  0.50000000  0.50000000  0.18940135  1
  Ca  Ca2  1  0.50000000  0.50000000  0.60666694  1
  Eu  Eu3  1  0.50000000  0.50000000  0.99963654  1
  Eu  Eu4  1  0.50000000  0.50000000  0.40151446  1
  Ti  Ti5  1  0.00000000  -0.00000000  0.69978655  1
  Ti  Ti6  1  0.00000000  -0.00000000  0.30038167  1
  Ti  Ti7  1  0.00000000  0.00000000  0.50272836  1
  Cu  Cu8  1  0.00000000  -0.00000000  0.91215314  1
  Cu  Cu9  1  -0.00000000  0.00000000  0.08704337  1
  O  O10  1  0.50000000  -0.00000000  0.92394298  1
  O  O11  1  0.00000000  0.50000000  0.92394298  1
  O  O12  1  0.50000000  -0.00000000  0.07630238  1
  O  O13  1  -0.00000000  0.50000000  0.07630238  1
  O  O14  1  0.00000000  -0.00000000  0.79440563  1
  O  O15  1  -0.00000000  -0.00000000  0.20570080  1
  O  O16  1  0.00000000  0.00000000  0.59614039  1
  O  O17  1  -0.00000000  -0.00000000  0.40221226  1
  O  O18  1  0.50000000  0.00000000  0.69126327  1
  O  O19  1  -0.00000000  0.50000000  0.69126327  1
  O  O20  1  0.50000000  0.00000000  0.30891104  1
  O  O21  1  0.00000000  0.50000000  0.30891104  1
  O  O22  1  0.50000000  -0.00000000  0.49653226  1
  O  O23  1  0.00000000  0.50000000  0.49653226  1
