# generated using pymatgen
data_ScCrO3
_symmetry_space_group_name_H-M   'P 1'
_cell_length_a   5.09373327
_cell_length_b   5.41385444
_cell_length_c   7.56056694
_cell_angle_alpha   90.00000000
_cell_angle_beta   90.00000000
_cell_angle_gamma   90.00000000
_symmetry_Int_Tables_number   1
_chemical_formula_structural   ScCrO3
_chemical_formula_sum   'Sc4 Cr4 O12'
_cell_volume   208.49571678
_cell_formula_units_Z   4
loop_
 _symmetry_equiv_pos_site_id
 _symmetry_equiv_pos_as_xyz
  1  'x, y, z'
loop_
 _atom_site_type_symbol
 _atom_site_label
 _atom_site_symmetry_multiplicity
 _atom_site_fract_x
 _atom_site_fract_y
 _atom_site_fract_z
 _atom_site_occupancy
  O  O0  1  0.68547777  0.30894653  0.42651554  1
  O  O1  1  0.18547777  0.19105347  0.57348446  1
  O  O2  1  0.81452223  0.80894653  0.07348446  1
  O  O3  1  0.31452223  0.69105347  0.92651554  1
  O  O4  1  0.31452223  0.69105347  0.57348446  1
  O  O5  1  0.81452223  0.80894653  0.42651554  1
  O  O6  1  0.18547777  0.19105347  0.92651554  1
  O  O7  1  0.68547777  0.30894653  0.07348446  1
  O  O8  1  0.14163154  0.43623735  0.25000000  1
  O  O9  1  0.64163154  0.06376265  0.75000000  1
  O  O10  1  0.35836846  0.93623735  0.25000000  1
  O  O11  1  0.85836846  0.56376265  0.75000000  1
  Sc  Sc12  1  0.97375495  0.06908977  0.25000000  1
  Sc  Sc13  1  0.47375495  0.43091023  0.75000000  1
  Sc  Sc14  1  0.52624505  0.56908977  0.25000000  1
  Sc  Sc15  1  0.02624505  0.93091023  0.75000000  1
  Cr  Cr16  1  0.00000000  0.50000000  0.00000000  1
  Cr  Cr17  1  0.50000000  0.00000000  0.00000000  1
  Cr  Cr18  1  0.50000000  0.00000000  0.50000000  1
  Cr  Cr19  1  0.00000000  0.50000000  0.50000000  1
