# generated using pymatgen
data_Ca2Ga2O5
_symmetry_space_group_name_H-M   'P 1'
_cell_length_a   5.43081618
_cell_length_b   5.64916027
_cell_length_c   8.33177427
_cell_angle_alpha   109.81675468
_cell_angle_beta   109.02071283
_cell_angle_gamma   89.99999999
_symmetry_Int_Tables_number   1
_chemical_formula_structural   Ca2Ga2O5
_chemical_formula_sum   'Ca4 Ga4 O10'
_cell_volume   225.58707100
_cell_formula_units_Z   2
loop_
 _symmetry_equiv_pos_site_id
 _symmetry_equiv_pos_as_xyz
  1  'x, y, z'
loop_
 _atom_site_type_symbol
 _atom_site_label
 _atom_site_symmetry_multiplicity
 _atom_site_fract_x
 _atom_site_fract_y
 _atom_site_fract_z
 _atom_site_occupancy
  O  O0  1  0.73876345  0.23984691  0.96986969  1
  O  O1  1  0.76889376  0.76015309  0.03013031  1
  O  O2  1  0.23876345  0.23002278  0.96986969  1
  O  O3  1  0.26889376  0.76997722  0.03013031  1
  O  O4  1  0.14640811  0.87368483  0.50000000  1
  O  O5  1  0.64640811  0.12631517  0.50000000  1
  O  O6  1  0.60805602  0.56855236  0.28353094  1
  O  O7  1  0.32452508  0.43144764  0.71646906  1
  O  O8  1  0.82452508  0.78502142  0.71646906  1
  O  O9  1  0.10805602  0.21497858  0.28353094  1
  Ca  Ca10  1  0.40812379  0.86394929  0.78477376  1
  Ca  Ca11  1  0.62335003  0.13605071  0.21522624  1
  Ca  Ca12  1  0.90812379  0.42082447  0.78477376  1
  Ca  Ca13  1  0.12335003  0.57917553  0.21522624  1
  Ga  Ga14  1  0.29641252  0.17946681  0.50000000  1
  Ga  Ga15  1  0.79641252  0.82053319  0.50000000  1
  Ga  Ga16  1  0.50236725  0.50000000  0.00000000  1
  Ga  Ga17  1  0.00236725  0.00000000  0.00000000  1
