# generated using pymatgen
data_Cd2Fe3Cu10(SnSe4)5
_symmetry_space_group_name_H-M   'P 1'
_cell_length_a   7.03473783
_cell_length_b   7.03473783
_cell_length_c   21.01655729
_cell_angle_alpha   83.42032987
_cell_angle_beta   96.57967013
_cell_angle_gamma   71.61819889
_symmetry_Int_Tables_number   1
_chemical_formula_structural   Cd2Fe3Cu10(SnSe4)5
_chemical_formula_sum   'Cd2 Fe3 Cu10 Sn5 Se20'
_cell_volume   967.87731425
_cell_formula_units_Z   1
loop_
 _symmetry_equiv_pos_site_id
 _symmetry_equiv_pos_as_xyz
  1  'x, y, z'
loop_
 _atom_site_type_symbol
 _atom_site_label
 _atom_site_symmetry_multiplicity
 _atom_site_fract_x
 _atom_site_fract_y
 _atom_site_fract_z
 _atom_site_occupancy
  Cd  Cd0  1  0.00068958  0.00129994  0.99938965  1
  Cd  Cd1  1  0.60129994  0.40068958  0.20061035  1
  Fe  Fe2  1  0.20118898  0.79964386  0.40154512  1
  Fe  Fe3  1  0.79881374  0.19881374  0.60000000  1
  Fe  Fe4  1  0.39964386  0.60118898  0.79845488  1
  Cu  Cu5  1  0.84970469  0.65019535  0.69955557  1
  Cu  Cu6  1  0.25019535  0.24970469  0.50044443  1
  Cu  Cu7  1  0.64899565  0.85091353  0.30314100  1
  Cu  Cu8  1  0.45091353  0.04899565  0.89685900  1
  Cu  Cu9  1  0.04987303  0.44987303  0.10000000  1
  Cu  Cu10  1  0.34975092  0.15014912  0.69955557  1
  Cu  Cu11  1  0.75014912  0.74975092  0.50044443  1
  Cu  Cu12  1  0.15405454  0.34585465  0.30314100  1
  Cu  Cu13  1  0.94585465  0.55405454  0.89685900  1
  Cu  Cu14  1  0.54987303  0.94987303  0.10000000  1
  Sn  Sn15  1  0.29999348  0.69999348  0.60000000  1
  Sn  Sn16  1  0.70013053  0.29608802  0.40404252  1
  Sn  Sn17  1  0.10357558  0.89904996  0.20452563  1
  Sn  Sn18  1  0.89608802  0.10013053  0.79595748  1
  Sn  Sn19  1  0.49904996  0.50357558  0.99547437  1
  Se  Se20  1  0.97972687  0.28791283  0.69181404  1
  Se  Se21  1  0.57886997  0.68829078  0.89057918  1
  Se  Se22  1  0.19228647  0.08858723  0.10369924  1
  Se  Se23  1  0.79324013  0.48898797  0.30425216  1
  Se  Se24  1  0.38030902  0.88700409  0.49330493  1
  Se  Se25  1  0.08898797  0.19324013  0.89574784  1
  Se  Se26  1  0.68858723  0.59228647  0.09630076  1
  Se  Se27  1  0.28829078  0.97886997  0.30942082  1
  Se  Se28  1  0.88791283  0.37972687  0.50818596  1
  Se  Se29  1  0.48700409  0.78030902  0.70669507  1
  Se  Se30  1  0.10940478  0.60283592  0.99860062  1
  Se  Se31  1  0.71080416  0.00143654  0.20139938  1
  Se  Se32  1  0.30163431  0.43654902  0.40163189  1
  Se  Se33  1  0.89906610  0.83503230  0.60000000  1
  Se  Se34  1  0.50000242  0.23818091  0.79836811  1
  Se  Se35  1  0.60143654  0.11080416  0.99860062  1
  Se  Se36  1  0.20283592  0.50940478  0.20139938  1
  Se  Se37  1  0.83818091  0.90000242  0.40163189  1
  Se  Se38  1  0.43503230  0.29906610  0.60000000  1
  Se  Se39  1  0.03654902  0.70163431  0.79836811  1
