# generated using pymatgen
data_NaMgF3
_symmetry_space_group_name_H-M   'P 1'
_cell_length_a   3.04175028
_cell_length_b   5.28494186
_cell_length_c   7.46034020
_cell_angle_alpha   90.00000000
_cell_angle_beta   90.00000000
_cell_angle_gamma   106.72480658
_symmetry_Int_Tables_number   1
_chemical_formula_structural   NaMgF3
_chemical_formula_sum   'Na2 Mg2 F6'
_cell_volume   114.85528377
_cell_formula_units_Z   2
loop_
 _symmetry_equiv_pos_site_id
 _symmetry_equiv_pos_as_xyz
  1  'x, y, z'
loop_
 _atom_site_type_symbol
 _atom_site_label
 _atom_site_symmetry_multiplicity
 _atom_site_fract_x
 _atom_site_fract_y
 _atom_site_fract_z
 _atom_site_occupancy
  F  F0  1  0.37354936  0.74709871  0.70210601  1
  F  F1  1  0.62645064  0.25290129  0.20210601  1
  F  F2  1  0.37359850  0.74719700  0.31614778  1
  F  F3  1  0.62640150  0.25280300  0.81614778  1
  F  F4  1  0.92880274  0.85760547  0.00911598  1
  F  F5  1  0.07119726  0.14239453  0.50911598  1
  Na  Na6  1  0.25705650  0.51411300  0.00903540  1
  Na  Na7  1  0.74294350  0.48588700  0.50903540  1
  Mg  Mg8  1  0.99997593  0.99995186  0.75909482  1
  Mg  Mg9  1  0.00002407  0.00004814  0.25909482  1
