# generated using pymatgen
data_Na3WNO3
_symmetry_space_group_name_H-M   'P 1'
_cell_length_a   5.69154619
_cell_length_b   6.36817768
_cell_length_c   7.39347745
_cell_angle_alpha   90.00000000
_cell_angle_beta   90.00000000
_cell_angle_gamma   90.00000000
_symmetry_Int_Tables_number   1
_chemical_formula_structural   Na3WNO3
_chemical_formula_sum   'Na6 W2 N2 O6'
_cell_volume   267.97494447
_cell_formula_units_Z   2
loop_
 _symmetry_equiv_pos_site_id
 _symmetry_equiv_pos_as_xyz
  1  'x, y, z'
loop_
 _atom_site_type_symbol
 _atom_site_label
 _atom_site_symmetry_multiplicity
 _atom_site_fract_x
 _atom_site_fract_y
 _atom_site_fract_z
 _atom_site_occupancy
  Na  Na0  1  0.52099069  0.33032467  0.25428326  1
  Na  Na1  1  0.52099069  0.33032467  0.74571674  1
  Na  Na2  1  0.02099069  0.66967533  0.24571674  1
  Na  Na3  1  0.02099069  0.66967533  0.75428326  1
  Na  Na4  1  0.51823571  0.84285913  -0.00000000  1
  Na  Na5  1  0.01823571  0.15714087  0.50000000  1
  W  W6  1  0.50297062  0.82816469  0.50000000  1
  W  W7  1  0.00297062  0.17183531  0.00000000  1
  N  N8  1  0.68927179  0.17570878  -0.00000000  1
  N  N9  1  0.18927179  0.82429122  0.50000000  1
  O  O10  1  0.60222992  0.10886150  0.50000000  1
  O  O11  1  0.10222992  0.89113850  0.00000000  1
  O  O12  1  0.60310529  0.68761107  0.29101571  1
  O  O13  1  0.60310529  0.68761107  0.70898429  1
  O  O14  1  0.10310529  0.31238893  0.20898429  1
  O  O15  1  0.10310529  0.31238893  0.79101571  1
