# generated using pymatgen
data_Tb6Al3Si
_symmetry_space_group_name_H-M   'P 1'
_cell_length_a   11.24095528
_cell_length_b   11.24095527
_cell_length_c   11.24095528
_cell_angle_alpha   93.98437164
_cell_angle_beta   117.72690867
_cell_angle_gamma   117.72690868
_symmetry_Int_Tables_number   1
_chemical_formula_structural   Tb6Al3Si
_chemical_formula_sum   'Tb24 Al12 Si4'
_cell_volume   1036.16982355
_cell_formula_units_Z   4
loop_
 _symmetry_equiv_pos_site_id
 _symmetry_equiv_pos_as_xyz
  1  'x, y, z'
loop_
 _atom_site_type_symbol
 _atom_site_label
 _atom_site_symmetry_multiplicity
 _atom_site_fract_x
 _atom_site_fract_y
 _atom_site_fract_z
 _atom_site_occupancy
  Al  Al0  1  0.50000000  0.61959507  0.88040493  1
  Al  Al1  1  0.26080986  0.88040493  0.38040493  1
  Al  Al2  1  0.73919014  0.11959507  0.61959507  1
  Al  Al3  1  0.50000000  0.38040493  0.11959507  1
  Al  Al4  1  0.50000000  0.61725215  0.47361279  1
  Al  Al5  1  0.50000000  0.97361279  0.11725215  1
  Al  Al6  1  0.50000000  0.02638721  0.88274785  1
  Al  Al7  1  0.14363936  0.11725215  0.61725215  1
  Al  Al8  1  0.85636064  0.47361279  0.97361279  1
  Al  Al9  1  0.85636064  0.88274785  0.38274785  1
  Al  Al10  1  0.14363936  0.52638721  0.02638721  1
  Al  Al11  1  0.50000000  0.38274785  0.52638721  1
  Si  Si12  1  0.00000000  0.50000000  0.50000000  1
  Si  Si13  1  0.00000000  0.00000000  0.00000000  1
  Si  Si14  1  0.00000000  0.25000000  0.25000000  1
  Si  Si15  1  0.00000000  0.75000000  0.75000000  1
  Tb  Tb16  1  0.13177613  0.83006693  0.57013399  1
  Tb  Tb17  1  0.25993295  0.06164214  0.92986601  1
  Tb  Tb18  1  0.25993295  0.69829081  0.83006693  1
  Tb  Tb19  1  0.74006705  0.57013399  0.43835786  1
  Tb  Tb20  1  0.50000000  0.16893309  0.33106691  1
  Tb  Tb21  1  0.16213383  0.33106691  0.83106691  1
  Tb  Tb22  1  0.83786617  0.66893309  0.16893309  1
  Tb  Tb23  1  0.50000000  0.83106691  0.66893309  1
  Tb  Tb24  1  0.86822387  0.43835786  0.69829081  1
  Tb  Tb25  1  0.86822387  0.92986601  0.66993307  1
  Tb  Tb26  1  0.13177613  0.80170919  0.06164214  1
  Tb  Tb27  1  0.74006705  0.66993307  0.80170919  1
  Tb  Tb28  1  0.25993295  0.42986601  0.56164214  1
  Tb  Tb29  1  0.74006705  0.30170919  0.16993307  1
  Tb  Tb30  1  0.74006705  0.93835786  0.07013399  1
  Tb  Tb31  1  0.86822387  0.16993307  0.42986601  1
  Tb  Tb32  1  0.13177613  0.56164214  0.30170919  1
  Tb  Tb33  1  0.13177613  0.07013399  0.33006693  1
  Tb  Tb34  1  0.86822387  0.19829081  0.93835786  1
  Tb  Tb35  1  0.25993295  0.33006693  0.19829081  1
  Tb  Tb36  1  0.50000000  0.64844478  0.14844478  1
  Tb  Tb37  1  0.50000000  0.14844478  0.64844478  1
  Tb  Tb38  1  0.50000000  0.85155522  0.35155522  1
  Tb  Tb39  1  0.50000000  0.35155522  0.85155522  1
