# generated using pymatgen
data_La4Ni3O10
_symmetry_space_group_name_H-M   'P 1'
_cell_length_a   3.87291917
_cell_length_b   3.87307867
_cell_length_c   14.26813220
_cell_angle_alpha   97.79780341
_cell_angle_beta   97.79691437
_cell_angle_gamma   90.02271510
_symmetry_Int_Tables_number   1
_chemical_formula_structural   La4Ni3O10
_chemical_formula_sum   'La4 Ni3 O10'
_cell_volume   210.04576841
_cell_formula_units_Z   1
loop_
 _symmetry_equiv_pos_site_id
 _symmetry_equiv_pos_as_xyz
  1  'x, y, z'
loop_
 _atom_site_type_symbol
 _atom_site_label
 _atom_site_symmetry_multiplicity
 _atom_site_fract_x
 _atom_site_fract_y
 _atom_site_fract_z
 _atom_site_occupancy
  O  O0  1  0.21721842  0.21720895  0.43441154  1
  O  O1  1  0.78278061  0.78279036  0.56558553  1
  O  O2  1  0.86019329  0.36022192  0.72053158  1
  O  O3  1  0.63977927  0.13981008  0.27946505  1
  O  O4  1  0.13980779  0.63977800  0.27946727  1
  O  O5  1  0.36022179  0.86019143  0.72053341  1
  O  O6  1  0.06865192  0.06865593  0.13727497  1
  O  O7  1  0.49999702  -0.00000222  -0.00000613  1
  O  O8  1  0.93135295  0.93134697  0.86273084  1
  O  O9  1  0.99999746  0.49999700  -0.00000584  1
  Ni  Ni10  1  0.14043387  0.14042733  0.28074115  1
  Ni  Ni11  1  0.85957703  0.85959154  0.71930948  1
  Ni  Ni12  1  0.99998964  0.99998743  0.99996922  1
  La  La13  1  0.30148079  0.30147518  0.60298884  1
  La  La14  1  0.69852012  0.69852607  0.39701242  1
  La  La15  1  0.43279032  0.43279159  0.86564379  1
  La  La16  1  0.56720291  0.56720182  0.13434662  1
