# generated using pymatgen
data_ErMnO3
_symmetry_space_group_name_H-M   'P 1'
_cell_length_a   5.29357870
_cell_length_b   5.84403211
_cell_length_c   7.45579320
_cell_angle_alpha   90.00000000
_cell_angle_beta   90.00000000
_cell_angle_gamma   90.00000000
_symmetry_Int_Tables_number   1
_chemical_formula_structural   ErMnO3
_chemical_formula_sum   'Er4 Mn4 O12'
_cell_volume   230.65125458
_cell_formula_units_Z   4
loop_
 _symmetry_equiv_pos_site_id
 _symmetry_equiv_pos_as_xyz
  1  'x, y, z'
loop_
 _atom_site_type_symbol
 _atom_site_label
 _atom_site_symmetry_multiplicity
 _atom_site_fract_x
 _atom_site_fract_y
 _atom_site_fract_z
 _atom_site_occupancy
  O  O0  1  0.69847270  0.32714914  0.44157675  1
  O  O1  1  0.19847270  0.17285086  0.55842325  1
  O  O2  1  0.80152730  0.82714914  0.05842325  1
  O  O3  1  0.30152730  0.67285086  0.94157675  1
  O  O4  1  0.30152730  0.67285086  0.55842325  1
  O  O5  1  0.80152730  0.82714914  0.44157675  1
  O  O6  1  0.19847270  0.17285086  0.94157675  1
  O  O7  1  0.69847270  0.32714914  0.05842325  1
  O  O8  1  0.12368542  0.45447209  0.25000000  1
  O  O9  1  0.62368542  0.04552791  0.75000000  1
  O  O10  1  0.37631458  0.95447209  0.25000000  1
  O  O11  1  0.87631458  0.54552791  0.75000000  1
  Mn  Mn12  1  0.50000000  0.00000000  0.50000000  1
  Mn  Mn13  1  0.00000000  0.50000000  0.50000000  1
  Mn  Mn14  1  0.00000000  0.50000000  0.00000000  1
  Mn  Mn15  1  0.50000000  0.00000000  0.00000000  1
  Er  Er16  1  0.01930922  0.91642768  0.75000000  1
  Er  Er17  1  0.51930922  0.58357232  0.25000000  1
  Er  Er18  1  0.48069078  0.41642768  0.75000000  1
  Er  Er19  1  0.98069078  0.08357232  0.25000000  1
