# generated using pymatgen
data_Ba5V5O14
_symmetry_space_group_name_H-M   'P 1'
_cell_length_a   5.88416320
_cell_length_b   5.88416321
_cell_length_c   12.28445467
_cell_angle_alpha   90.00000000
_cell_angle_beta   90.00000000
_cell_angle_gamma   119.99999996
_symmetry_Int_Tables_number   1
_chemical_formula_structural   Ba5V5O14
_chemical_formula_sum   'Ba5 V5 O14'
_cell_volume   368.34597934
_cell_formula_units_Z   1
loop_
 _symmetry_equiv_pos_site_id
 _symmetry_equiv_pos_as_xyz
  1  'x, y, z'
loop_
 _atom_site_type_symbol
 _atom_site_label
 _atom_site_symmetry_multiplicity
 _atom_site_fract_x
 _atom_site_fract_y
 _atom_site_fract_z
 _atom_site_occupancy
  O  O0  1  0.84744520  0.15255507  0.39672277  1
  O  O1  1  0.84744508  0.69489085  0.39672277  1
  O  O2  1  0.30511088  0.15255507  0.39672277  1
  O  O3  1  0.69489097  0.84744592  0.60327767  1
  O  O4  1  0.15255507  0.30511013  0.60327767  1
  O  O5  1  0.15255495  0.84744592  0.60327767  1
  O  O6  1  0.82983386  0.17016659  0.81814917  1
  O  O7  1  0.82983355  0.65966780  0.81814917  1
  O  O8  1  0.34033205  0.17016659  0.81814917  1
  O  O9  1  0.65966810  0.82983439  0.18185044  1
  O  O10  1  0.33333300  0.66666601  0.98982176  1
  O  O11  1  0.66666616  0.33333300  0.01017868  1
  O  O12  1  0.17016561  0.34033121  0.18185044  1
  O  O13  1  0.17016629  0.82983439  0.18185044  1
  V  V14  1  0.00000000  0.00000000  0.50000022  1
  V  V15  1  0.66666616  0.33333300  0.87009742  1
  V  V16  1  0.33333300  0.66666601  0.12990219  1
  V  V17  1  0.00000000  0.00000000  0.28585220  1
  V  V18  1  0.00000000  0.00000000  0.71414824  1
  Ba  Ba19  1  0.66666616  0.33333300  0.56713839  1
  Ba  Ba20  1  0.33333300  0.66666601  0.43286122  1
  Ba  Ba21  1  0.66666616  0.33333300  0.24082927  1
  Ba  Ba22  1  0.33333300  0.66666601  0.75917117  1
  Ba  Ba23  1  0.00000000  0.00000000  0.00000000  1
