# generated using pymatgen
data_LuVO4
_symmetry_space_group_name_H-M   'P 1'
_cell_length_a   5.01711115
_cell_length_b   5.01711115
_cell_length_c   6.56301939
_cell_angle_alpha   112.47162442
_cell_angle_beta   112.47162439
_cell_angle_gamma   90.00000008
_symmetry_Int_Tables_number   1
_chemical_formula_structural   LuVO4
_chemical_formula_sum   'Lu2 V2 O8'
_cell_volume   138.98518323
_cell_formula_units_Z   2
loop_
 _symmetry_equiv_pos_site_id
 _symmetry_equiv_pos_as_xyz
  1  'x, y, z'
loop_
 _atom_site_type_symbol
 _atom_site_label
 _atom_site_symmetry_multiplicity
 _atom_site_fract_x
 _atom_site_fract_y
 _atom_site_fract_z
 _atom_site_occupancy
  O  O0  1  0.69801475  0.55332386  0.91360152  1
  O  O1  1  0.36027765  0.19801475  0.41360152  1
  O  O2  1  0.05332386  0.71558676  0.41360152  1
  O  O3  1  0.21558676  0.86027765  0.91360152  1
  O  O4  1  0.78441324  0.13972235  0.08639848  1
  O  O5  1  0.94667614  0.28441324  0.58639848  1
  O  O6  1  0.63972235  0.80198525  0.58639848  1
  O  O7  1  0.30198525  0.44667614  0.08639848  1
  V  V8  1  0.87500000  0.62500000  0.75000000  1
  V  V9  1  0.12500000  0.37500000  0.25000000  1
  Lu  Lu10  1  0.37500000  0.12500000  0.75000000  1
  Lu  Lu11  1  0.62500000  0.87500000  0.25000000  1
