# generated using pymatgen
data_Co2SiO4
_symmetry_space_group_name_H-M   'P 1'
_cell_length_a   5.79063358
_cell_length_b   5.79139231
_cell_length_c   5.79291152
_cell_angle_alpha   60.33977546
_cell_angle_beta   60.31549627
_cell_angle_gamma   60.32234033
_symmetry_Int_Tables_number   1
_chemical_formula_structural   Co2SiO4
_chemical_formula_sum   'Co4 Si2 O8'
_cell_volume   138.38251526
_cell_formula_units_Z   2
loop_
 _symmetry_equiv_pos_site_id
 _symmetry_equiv_pos_as_xyz
  1  'x, y, z'
loop_
 _atom_site_type_symbol
 _atom_site_label
 _atom_site_symmetry_multiplicity
 _atom_site_fract_x
 _atom_site_fract_y
 _atom_site_fract_z
 _atom_site_occupancy
  Co  Co0  1  0.49999991  0.50000032  0.00000003  1
  Co  Co1  1  0.49999971  0.00000009  0.49999994  1
  Co  Co2  1  0.49999987  0.49999991  0.50000013  1
  Co  Co3  1  0.99999961  0.50000003  0.50000022  1
  Si  Si4  1  0.12511087  0.12508650  0.12494489  1
  Si  Si5  1  0.87489067  0.87491318  0.87505506  1
  O  O6  1  0.24171627  0.77340294  0.24363391  1
  O  O7  1  0.77338580  0.24364208  0.24199711  1
  O  O8  1  0.75828278  0.22659700  0.75636723  1
  O  O9  1  0.24342755  0.24151440  0.77346566  1
  O  O10  1  0.22661239  0.75635892  0.75800241  1
  O  O11  1  0.24393486  0.24384041  0.24335032  1
  O  O12  1  0.75657236  0.75848548  0.22653323  1
  O  O13  1  0.75606535  0.75615874  0.75664989  1
