# generated using pymatgen
data_NaBeSi3O8
_symmetry_space_group_name_H-M   'P 1'
_cell_length_a   7.04415355
_cell_length_b   14.39830854
_cell_length_c   15.03804649
_cell_angle_alpha   90.00000000
_cell_angle_beta   90.00000000
_cell_angle_gamma   90.00000000
_symmetry_Int_Tables_number   1
_chemical_formula_structural   NaBeSi3O8
_chemical_formula_sum   'Na8 Be8 Si24 O64'
_cell_volume   1525.21726649
_cell_formula_units_Z   8
loop_
 _symmetry_equiv_pos_site_id
 _symmetry_equiv_pos_as_xyz
  1  'x, y, z'
loop_
 _atom_site_type_symbol
 _atom_site_label
 _atom_site_symmetry_multiplicity
 _atom_site_fract_x
 _atom_site_fract_y
 _atom_site_fract_z
 _atom_site_occupancy
  Na  Na0  1  0.71657171  0.31161778  0.46091349  1
  Na  Na1  1  0.81183556  0.83397533  0.04259539  1
  Na  Na2  1  0.28342829  0.68838222  0.96091349  1
  Na  Na3  1  0.18816444  0.16602467  0.54259539  1
  Na  Na4  1  0.31183556  0.66602467  0.54259539  1
  Na  Na5  1  0.21657171  0.18838222  0.96091349  1
  Na  Na6  1  0.68816444  0.33397533  0.04259539  1
  Na  Na7  1  0.78342829  0.81161778  0.46091349  1
  Be  Be8  1  0.73782623  0.48233695  0.91063848  1
  Be  Be9  1  0.76932111  0.98585461  0.56604729  1
  Be  Be10  1  0.26217377  0.51766305  0.41063848  1
  Be  Be11  1  0.23067889  0.01414539  0.06604729  1
  Be  Be12  1  0.26932111  0.51414539  0.06604729  1
  Be  Be13  1  0.23782623  0.01766305  0.41063848  1
  Be  Be14  1  0.73067889  0.48585461  0.56604729  1
  Be  Be15  1  0.76217377  0.98233695  0.91063848  1
  Si  Si16  1  0.45160739  0.34648129  0.85523383  1
  Si  Si17  1  0.04916539  0.85013523  0.64136269  1
  Si  Si18  1  0.54839261  0.65351871  0.35523383  1
  Si  Si19  1  0.95083461  0.14986477  0.14136269  1
  Si  Si20  1  0.54916539  0.64986477  0.14136269  1
  Si  Si21  1  0.95160739  0.15351871  0.35523383  1
  Si  Si22  1  0.45083461  0.35013523  0.64136269  1
  Si  Si23  1  0.04839261  0.84648129  0.85523383  1
  Si  Si24  1  0.71897665  0.17877059  0.85252373  1
  Si  Si25  1  0.78218725  0.68008576  0.64438665  1
  Si  Si26  1  0.28102335  0.82122941  0.35252373  1
  Si  Si27  1  0.21781275  0.31991424  0.14438665  1
  Si  Si28  1  0.28218725  0.81991424  0.14438665  1
  Si  Si29  1  0.21897665  0.32122941  0.35252373  1
  Si  Si30  1  0.71781275  0.18008576  0.64438665  1
  Si  Si31  1  0.78102335  0.67877059  0.85252373  1
  Si  Si32  1  0.00147679  0.34248055  0.85145338  1
  Si  Si33  1  0.49897117  0.84267260  0.64620337  1
  Si  Si34  1  0.99852321  0.65751945  0.35145338  1
  Si  Si35  1  0.50102883  0.15732740  0.14620337  1
  Si  Si36  1  0.99897117  0.65732740  0.14620337  1
  Si  Si37  1  0.50147679  0.15751945  0.35145338  1
  Si  Si38  1  0.00102883  0.34267260  0.64620337  1
  Si  Si39  1  0.49852321  0.84248055  0.85145338  1
  O  O40  1  0.66163831  0.16451280  0.74853637  1
  O  O41  1  0.83836169  0.66451280  0.74853637  1
  O  O42  1  0.33836169  0.83548720  0.24853637  1
  O  O43  1  0.16163831  0.33548720  0.24853637  1
  O  O44  1  0.72799529  0.08460246  0.90596978  1
  O  O45  1  0.77528586  0.58841355  0.58816497  1
  O  O46  1  0.27200471  0.91539754  0.40596978  1
  O  O47  1  0.22471414  0.41158645  0.08816497  1
  O  O48  1  0.27528586  0.91158645  0.08816497  1
  O  O49  1  0.22799529  0.41539754  0.40596978  1
  O  O50  1  0.72471414  0.08841355  0.58816497  1
  O  O51  1  0.77200471  0.58460246  0.90596978  1
  O  O52  1  0.98210577  0.37937210  0.74926578  1
  O  O53  1  0.51789423  0.87937210  0.74926578  1
  O  O54  1  0.01789423  0.62062790  0.24926578  1
  O  O55  1  0.48210577  0.12062790  0.24926578  1
  O  O56  1  0.22734288  0.33022114  0.87682298  1
  O  O57  1  0.27294815  0.82741863  0.62173272  1
  O  O58  1  0.77265712  0.66977886  0.37682298  1
  O  O59  1  0.72705185  0.17258137  0.12173272  1
  O  O60  1  0.77294815  0.67258137  0.12173272  1
  O  O61  1  0.72734288  0.16977886  0.37682298  1
  O  O62  1  0.22705185  0.32741863  0.62173272  1
  O  O63  1  0.27265712  0.83022114  0.87682298  1
  O  O64  1  0.53811130  0.43284800  0.91147773  1
  O  O65  1  0.97839633  0.94486480  0.59459890  1
  O  O66  1  0.46188870  0.56715200  0.41147773  1
  O  O67  1  0.02160367  0.05513520  0.09459890  1
  O  O68  1  0.47839633  0.55513520  0.09459890  1
  O  O69  1  0.03811130  0.06715200  0.41147773  1
  O  O70  1  0.52160367  0.44486480  0.59459890  1
  O  O71  1  0.96188870  0.93284800  0.91147773  1
  O  O72  1  0.89307106  0.40774630  0.92096522  1
  O  O73  1  0.61090300  0.90746401  0.57874913  1
  O  O74  1  0.10692894  0.59225370  0.42096522  1
  O  O75  1  0.38909700  0.09253599  0.07874913  1
  O  O76  1  0.11090300  0.59253599  0.07874913  1
  O  O77  1  0.39307106  0.09225370  0.42096522  1
  O  O78  1  0.88909700  0.40746401  0.57874913  1
  O  O79  1  0.60692894  0.90774630  0.92096522  1
  O  O80  1  0.92454633  0.23425788  0.86018471  1
  O  O81  1  0.57290714  0.73321858  0.63844802  1
  O  O82  1  0.07545367  0.76574212  0.36018471  1
  O  O83  1  0.42709286  0.26678142  0.13844802  1
  O  O84  1  0.07290714  0.76678142  0.13844802  1
  O  O85  1  0.42454633  0.26574212  0.36018471  1
  O  O86  1  0.92709286  0.23321858  0.63844802  1
  O  O87  1  0.57545367  0.73425788  0.86018471  1
  O  O88  1  0.55396714  0.25054247  0.89487575  1
  O  O89  1  0.93964591  0.75596498  0.60211131  1
  O  O90  1  0.44603286  0.74945753  0.39487575  1
  O  O91  1  0.06035409  0.24403502  0.10211131  1
  O  O92  1  0.43964591  0.74403502  0.10211131  1
  O  O93  1  0.05396714  0.24945753  0.39487575  1
  O  O94  1  0.56035409  0.25596498  0.60211131  1
  O  O95  1  0.94603286  0.75054247  0.89487575  1
  O  O96  1  0.48788950  0.35660832  0.74904086  1
  O  O97  1  0.01211050  0.85660832  0.74904086  1
  O  O98  1  0.51211050  0.64339168  0.24904086  1
  O  O99  1  0.98788950  0.14339168  0.24904086  1
  O  O100  1  0.67360434  0.46592385  0.45769747  1
  O  O101  1  0.32639566  0.53407615  0.95769747  1
  O  O102  1  0.17360434  0.03407615  0.95769747  1
  O  O103  1  0.82639566  0.96592385  0.45769747  1
