# generated using pymatgen
data_USe2
_symmetry_space_group_name_H-M   'P 1'
_cell_length_a   4.14405322
_cell_length_b   7.49801252
_cell_length_c   9.07604665
_cell_angle_alpha   90.00000000
_cell_angle_beta   90.00000000
_cell_angle_gamma   90.00000000
_symmetry_Int_Tables_number   1
_chemical_formula_structural   USe2
_chemical_formula_sum   'U4 Se8'
_cell_volume   282.01240024
_cell_formula_units_Z   4
loop_
 _symmetry_equiv_pos_site_id
 _symmetry_equiv_pos_as_xyz
  1  'x, y, z'
loop_
 _atom_site_type_symbol
 _atom_site_label
 _atom_site_symmetry_multiplicity
 _atom_site_fract_x
 _atom_site_fract_y
 _atom_site_fract_z
 _atom_site_occupancy
  Se  Se0  1  0.25000000  0.53180011  0.16491001  1
  Se  Se1  1  0.75000000  0.46819989  0.83508999  1
  Se  Se2  1  0.25000000  0.03180011  0.33508999  1
  Se  Se3  1  0.75000000  0.96819989  0.66491001  1
  Se  Se4  1  0.25000000  0.14043489  0.93107261  1
  Se  Se5  1  0.75000000  0.85956511  0.06892739  1
  Se  Se6  1  0.25000000  0.64043489  0.56892739  1
  Se  Se7  1  0.75000000  0.35956511  0.43107261  1
  U  U8  1  0.25000000  0.25341315  0.63003294  1
  U  U9  1  0.75000000  0.74658685  0.36996706  1
  U  U10  1  0.25000000  0.75341315  0.86996706  1
  U  U11  1  0.75000000  0.24658685  0.13003294  1
