# generated using pymatgen
data_CaMnO3
_symmetry_space_group_name_H-M   'P 1'
_cell_length_a   5.33408731
_cell_length_b   5.41102440
_cell_length_c   7.56921595
_cell_angle_alpha   90.00000000
_cell_angle_beta   90.00000000
_cell_angle_gamma   90.00000000
_symmetry_Int_Tables_number   1
_chemical_formula_structural   CaMnO3
_chemical_formula_sum   'Ca4 Mn4 O12'
_cell_volume   218.46934582
_cell_formula_units_Z   4
loop_
 _symmetry_equiv_pos_site_id
 _symmetry_equiv_pos_as_xyz
  1  'x, y, z'
loop_
 _atom_site_type_symbol
 _atom_site_label
 _atom_site_symmetry_multiplicity
 _atom_site_fract_x
 _atom_site_fract_y
 _atom_site_fract_z
 _atom_site_occupancy
  O  O0  1  0.29388184  0.70804837  0.45886248  1
  O  O1  1  0.79388184  0.79195163  0.54113752  1
  O  O2  1  0.20611816  0.20804837  0.04113752  1
  O  O3  1  0.70611816  0.29195163  0.95886248  1
  O  O4  1  0.70611816  0.29195163  0.54113752  1
  O  O5  1  0.20611816  0.20804837  0.45886248  1
  O  O6  1  0.79388184  0.79195163  0.95886248  1
  O  O7  1  0.29388184  0.70804837  0.04113752  1
  O  O8  1  0.92059399  0.51965096  0.25000000  1
  O  O9  1  0.42059399  0.98034904  0.75000000  1
  O  O10  1  0.57940601  0.01965096  0.25000000  1
  O  O11  1  0.07940601  0.48034904  0.75000000  1
  Ca  Ca12  1  0.00949348  0.95396573  0.25000000  1
  Ca  Ca13  1  0.50949348  0.54603427  0.75000000  1
  Ca  Ca14  1  0.49050652  0.45396573  0.25000000  1
  Ca  Ca15  1  0.99050652  0.04603427  0.75000000  1
  Mn  Mn16  1  0.50000000  0.00000000  0.00000000  1
  Mn  Mn17  1  0.00000000  0.50000000  0.00000000  1
  Mn  Mn18  1  0.00000000  0.50000000  0.50000000  1
  Mn  Mn19  1  0.50000000  0.00000000  0.50000000  1
