# generated using pymatgen
data_NaCoPO4
_symmetry_space_group_name_H-M   'P 1'
_cell_length_a   5.07975935
_cell_length_b   6.87033360
_cell_length_c   8.97502107
_cell_angle_alpha   90.00000000
_cell_angle_beta   90.00000000
_cell_angle_gamma   90.00000000
_symmetry_Int_Tables_number   1
_chemical_formula_structural   NaCoPO4
_chemical_formula_sum   'Na4 Co4 P4 O16'
_cell_volume   313.22501638
_cell_formula_units_Z   4
loop_
 _symmetry_equiv_pos_site_id
 _symmetry_equiv_pos_as_xyz
  1  'x, y, z'
loop_
 _atom_site_type_symbol
 _atom_site_label
 _atom_site_symmetry_multiplicity
 _atom_site_fract_x
 _atom_site_fract_y
 _atom_site_fract_z
 _atom_site_occupancy
  O  O0  1  0.18483360  0.43429371  0.62196404  1
  O  O1  1  0.68483360  0.56570629  0.87803596  1
  O  O2  1  0.81516640  0.93429371  0.37803596  1
  O  O3  1  0.31516640  0.06570629  0.12196404  1
  O  O4  1  0.81516640  0.56570629  0.37803596  1
  O  O5  1  0.31516640  0.43429371  0.12196404  1
  O  O6  1  0.18483360  0.06570629  0.62196404  1
  O  O7  1  0.68483360  0.93429371  0.87803596  1
  O  O8  1  0.94971856  0.75000000  0.14775088  1
  O  O9  1  0.44971856  0.25000000  0.35224912  1
  O  O10  1  0.05028144  0.25000000  0.85224912  1
  O  O11  1  0.55028144  0.75000000  0.64775088  1
  O  O12  1  0.25129161  0.75000000  0.88374640  1
  O  O13  1  0.75129161  0.25000000  0.61625360  1
  O  O14  1  0.74870839  0.25000000  0.11625360  1
  O  O15  1  0.24870839  0.75000000  0.38374640  1
  Na  Na16  1  0.46606402  0.75000000  0.14919163  1
  Na  Na17  1  0.53393598  0.25000000  0.85080837  1
  Na  Na18  1  0.96606402  0.25000000  0.35080837  1
  Na  Na19  1  0.03393598  0.75000000  0.64919163  1
  P  P20  1  0.03933645  0.25000000  0.67644335  1
  P  P21  1  0.46066355  0.25000000  0.17644335  1
  P  P22  1  0.96066355  0.75000000  0.32355665  1
  P  P23  1  0.53933645  0.75000000  0.82355665  1
  Co  Co24  1  0.50000000  0.50000000  0.50000000  1
  Co  Co25  1  0.50000000  0.00000000  0.50000000  1
  Co  Co26  1  0.00000000  0.00000000  0.00000000  1
  Co  Co27  1  0.00000000  0.50000000  0.00000000  1
