# generated using pymatgen
data_Pb5W3O9F10
_symmetry_space_group_name_H-M   'P 1'
_cell_length_a   7.58210866
_cell_length_b   11.37257550
_cell_length_c   11.26621280
_cell_angle_alpha   95.97268141
_cell_angle_beta   109.13019442
_cell_angle_gamma   71.15455428
_symmetry_Int_Tables_number   1
_chemical_formula_structural   Pb5W3O9F10
_chemical_formula_sum   'Pb10 W6 O18 F20'
_cell_volume   868.61352529
_cell_formula_units_Z   2
loop_
 _symmetry_equiv_pos_site_id
 _symmetry_equiv_pos_as_xyz
  1  'x, y, z'
loop_
 _atom_site_type_symbol
 _atom_site_label
 _atom_site_symmetry_multiplicity
 _atom_site_fract_x
 _atom_site_fract_y
 _atom_site_fract_z
 _atom_site_occupancy
  Pb  Pb0  1  0.39955709  0.33701245  0.17067571  1
  Pb  Pb1  1  0.55172447  0.68786839  0.85029025  1
  Pb  Pb2  1  0.22515733  0.16048588  0.67236256  1
  Pb  Pb3  1  0.71387324  0.83948435  0.31095311  1
  Pb  Pb4  1  0.26637604  0.49560078  0.50448190  1
  Pb  Pb5  1  0.76426328  0.49878975  0.50765045  1
  Pb  Pb6  1  0.23139654  0.71983185  0.16226507  1
  Pb  Pb7  1  0.76595015  0.28926206  0.83427378  1
  Pb  Pb8  1  0.05834350  0.16732505  0.28279352  1
  Pb  Pb9  1  0.92825732  0.83695730  0.70973735  1
  W  W10  1  0.17769705  0.46105279  0.82357198  1
  W  W11  1  0.81953088  0.53826222  0.18240486  1
  W  W12  1  0.35658525  0.81898054  0.53842229  1
  W  W13  1  0.63609472  0.17626415  0.45793158  1
  W  W14  1  0.74737594  0.00449260  0.99692969  1
  W  W15  1  0.24302682  0.01389717  0.99370051  1
  O  O16  1  0.34160423  0.83557226  0.94380479  1
  O  O17  1  0.19331333  0.15854872  0.08291422  1
  O  O18  1  0.40028220  0.90916075  0.14826825  1
  O  O19  1  0.13167462  0.06909745  0.82916749  1
  O  O20  1  0.06276204  0.35533333  0.85265998  1
  O  O21  1  0.56924850  0.63813960  0.15466230  1
  O  O22  1  0.22022043  0.84155865  0.64866411  1
  O  O23  1  0.42241689  0.13851956  0.35644027  1
  O  O24  1  0.42736578  0.35960243  0.85887553  1
  O  O25  1  0.92300078  0.64626113  0.14481437  1
  O  O26  1  0.57221124  0.85494065  0.64047904  1
  O  O27  1  0.78471915  0.13912503  0.35488525  1
  O  O28  1  0.10486473  0.44649286  0.65005903  1
  O  O29  1  0.90433449  0.55142857  0.35510013  1
  O  O30  1  0.45383329  0.64782954  0.54550384  1
  O  O31  1  0.54058106  0.34774809  0.43168122  1
  O  O32  1  0.49307006  0.03474984  0.99401394  1
  O  O33  1  0.00793006  0.97853989  0.99944076  1
  F  F34  1  0.23610716  0.52260722  0.00803975  1
  F  F35  1  0.75759459  0.47482615  0.00018999  1
  F  F36  1  0.22949788  0.00386101  0.48257703  1
  F  F37  1  0.76299710  0.99779069  0.52951099  1
  F  F38  1  0.93025993  0.61293668  0.80200528  1
  F  F39  1  0.74298149  0.38352341  0.20786130  1
  F  F40  1  0.12745233  0.80067131  0.38484963  1
  F  F41  1  0.53572452  0.20655456  0.61136506  1
  F  F42  1  0.26879894  0.61301289  0.80231637  1
  F  F43  1  0.08277255  0.38956556  0.20544843  1
  F  F44  1  0.46195753  0.80466657  0.38249272  1
  F  F45  1  0.87438486  0.20896763  0.60745641  1
  F  F46  1  0.76670920  0.83271005  0.92380126  1
  F  F47  1  0.73867976  0.17455049  0.06944934  1
  F  F48  1  0.85426323  0.92932285  0.17010468  1
  F  F49  1  0.64964402  0.07373731  0.82260193  1
  F  F50  1  0.61549794  0.45485941  0.70072082  1
  F  F51  1  0.35791519  0.53613330  0.27475099  1
  F  F52  1  0.90009415  0.71210120  0.54116911  1
  F  F53  1  0.08612513  0.28298602  0.46520980  1
