# generated using pymatgen
data_Dy2C3
_symmetry_space_group_name_H-M   'P 1'
_cell_length_a   7.13381739
_cell_length_b   7.13381739
_cell_length_c   7.13381740
_cell_angle_alpha   109.47122063
_cell_angle_beta   109.47122062
_cell_angle_gamma   109.47122065
_symmetry_Int_Tables_number   1
_chemical_formula_structural   Dy2C3
_chemical_formula_sum   'Dy8 C12'
_cell_volume   279.47571425
_cell_formula_units_Z   4
loop_
 _symmetry_equiv_pos_site_id
 _symmetry_equiv_pos_as_xyz
  1  'x, y, z'
loop_
 _atom_site_type_symbol
 _atom_site_label
 _atom_site_symmetry_multiplicity
 _atom_site_fract_x
 _atom_site_fract_y
 _atom_site_fract_z
 _atom_site_occupancy
  C  C0  1  0.75000000  0.79369518  0.04369518  1
  C  C1  1  0.75000000  0.95630482  0.20630482  1
  C  C2  1  0.29369518  0.25000000  0.54369518  1
  C  C3  1  0.54369518  0.29369518  0.25000000  1
  C  C4  1  0.20630482  0.75000000  0.95630482  1
  C  C5  1  0.95630482  0.20630482  0.75000000  1
  C  C6  1  0.25000000  0.70630482  0.45630482  1
  C  C7  1  0.70630482  0.45630482  0.25000000  1
  C  C8  1  0.25000000  0.54369518  0.29369518  1
  C  C9  1  0.45630482  0.25000000  0.70630482  1
  C  C10  1  0.04369518  0.75000000  0.79369518  1
  C  C11  1  0.79369518  0.04369518  0.75000000  1
  Dy  Dy12  1  0.60116210  0.60116210  0.60116210  1
  Dy  Dy13  1  0.39883790  0.50000000  0.00000000  1
  Dy  Dy14  1  0.50000000  0.00000000  0.39883790  1
  Dy  Dy15  1  0.00000000  0.39883790  0.50000000  1
  Dy  Dy16  1  0.50000000  0.00000000  0.89883790  1
  Dy  Dy17  1  0.00000000  0.89883790  0.50000000  1
  Dy  Dy18  1  0.89883790  0.50000000  0.00000000  1
  Dy  Dy19  1  0.10116210  0.10116210  0.10116210  1
