# generated using pymatgen
data_CePO4
_symmetry_space_group_name_H-M   'P 1'
_cell_length_a   6.40537444
_cell_length_b   6.95475240
_cell_length_c   7.15441162
_cell_angle_alpha   90.00000000
_cell_angle_beta   90.00000000
_cell_angle_gamma   82.63724504
_symmetry_Int_Tables_number   1
_chemical_formula_structural   CePO4
_chemical_formula_sum   'Ce4 P4 O16'
_cell_volume   316.08535548
_cell_formula_units_Z   4
loop_
 _symmetry_equiv_pos_site_id
 _symmetry_equiv_pos_as_xyz
  1  'x, y, z'
loop_
 _atom_site_type_symbol
 _atom_site_label
 _atom_site_symmetry_multiplicity
 _atom_site_fract_x
 _atom_site_fract_y
 _atom_site_fract_z
 _atom_site_occupancy
  Ce  Ce0  1  0.60496780  0.74140330  0.30296666  1
  Ce  Ce1  1  0.89503220  0.75859670  0.80296666  1
  Ce  Ce2  1  0.39503220  0.25859670  0.69703334  1
  Ce  Ce3  1  0.10496780  0.24140330  0.19703334  1
  P  P4  1  0.10919469  0.71997843  0.30151382  1
  P  P5  1  0.39080531  0.78002157  0.80151382  1
  P  P6  1  0.89080531  0.28002157  0.69848618  1
  P  P7  1  0.60919469  0.21997843  0.19848618  1
  O  O8  1  0.28327797  0.54809491  0.33827116  1
  O  O9  1  0.21672203  0.95190509  0.83827116  1
  O  O10  1  0.71672203  0.45190509  0.66172884  1
  O  O11  1  0.78327797  0.04809491  0.16172884  1
  O  O12  1  0.22376615  0.89937174  0.26676113  1
  O  O13  1  0.27623385  0.60062826  0.76676113  1
  O  O14  1  0.77623385  0.10062826  0.73323887  1
  O  O15  1  0.72376615  0.39937174  0.23323887  1
  O  O16  1  0.44846807  0.25340141  0.03425875  1
  O  O17  1  0.05153193  0.24659859  0.53425875  1
  O  O18  1  0.55153193  0.74659859  0.96574125  1
  O  O19  1  0.94846807  0.75340141  0.46574125  1
  O  O20  1  0.47614034  0.16757002  0.36928030  1
  O  O21  1  0.02385966  0.33242998  0.86928030  1
  O  O22  1  0.52385966  0.83242998  0.63071970  1
  O  O23  1  0.97614034  0.66757002  0.13071970  1
