# generated using pymatgen
data_Tb(FeSn)6
_symmetry_space_group_name_H-M   'P 1'
_cell_length_a   5.43278393
_cell_length_b   8.97467827
_cell_length_c   10.39696903
_cell_angle_alpha   115.56918769
_cell_angle_beta   90.00000000
_cell_angle_gamma   90.00000000
_symmetry_Int_Tables_number   1
_chemical_formula_structural   Tb(FeSn)6
_chemical_formula_sum   'Tb2 Fe12 Sn12'
_cell_volume   457.28377228
_cell_formula_units_Z   2
loop_
 _symmetry_equiv_pos_site_id
 _symmetry_equiv_pos_as_xyz
  1  'x, y, z'
loop_
 _atom_site_type_symbol
 _atom_site_label
 _atom_site_symmetry_multiplicity
 _atom_site_fract_x
 _atom_site_fract_y
 _atom_site_fract_z
 _atom_site_occupancy
  Fe  Fe0  1  0.00000000  0.00000000  0.50000000  1
  Fe  Fe1  1  0.50000000  0.00000000  0.50000000  1
  Fe  Fe2  1  0.00000000  0.50000000  0.50000000  1
  Fe  Fe3  1  0.50000000  0.50000000  0.50000000  1
  Fe  Fe4  1  0.00000000  0.75368913  0.00000000  1
  Fe  Fe5  1  0.50000000  0.24631087  0.00000000  1
  Fe  Fe6  1  0.00000000  0.24631087  0.00000000  1
  Fe  Fe7  1  0.50000000  0.75368913  0.00000000  1
  Fe  Fe8  1  0.25000000  0.87784593  0.24997249  1
  Fe  Fe9  1  0.75000000  0.12215407  0.75002751  1
  Fe  Fe10  1  0.75000000  0.62787344  0.75002751  1
  Fe  Fe11  1  0.25000000  0.37212656  0.24997249  1
  Sn  Sn12  1  0.25000000  0.04204184  0.08408368  1
  Sn  Sn13  1  0.75000000  0.95795816  0.91591632  1
  Sn  Sn14  1  0.25000000  0.54037436  0.08074871  1
  Sn  Sn15  1  0.75000000  0.45962564  0.91925129  1
  Sn  Sn16  1  0.25000000  0.21075760  0.42151519  1
  Sn  Sn17  1  0.75000000  0.78924240  0.57848481  1
  Sn  Sn18  1  0.25000000  0.70480813  0.40961627  1
  Sn  Sn19  1  0.75000000  0.29519187  0.59038373  1
  Sn  Sn20  1  0.75000000  0.78739356  0.24877939  1
  Sn  Sn21  1  0.25000000  0.21260644  0.75122061  1
  Sn  Sn22  1  0.25000000  0.53861417  0.75122061  1
  Sn  Sn23  1  0.75000000  0.46138583  0.24877939  1
  Tb  Tb24  1  0.75000000  0.12766498  0.25532996  1
  Tb  Tb25  1  0.25000000  0.87233502  0.74467004  1
