# generated using pymatgen
data_Nd2WO6
_symmetry_space_group_name_H-M   'P 1'
_cell_length_a   5.59763827
_cell_length_b   10.16551339
_cell_length_c   10.16551339
_cell_angle_alpha   69.03572963
_cell_angle_beta   75.88582345
_cell_angle_gamma   75.88582339
_symmetry_Int_Tables_number   1
_chemical_formula_structural   Nd2WO6
_chemical_formula_sum   'Nd8 W4 O24'
_cell_volume   515.95725525
_cell_formula_units_Z   4
loop_
 _symmetry_equiv_pos_site_id
 _symmetry_equiv_pos_as_xyz
  1  'x, y, z'
loop_
 _atom_site_type_symbol
 _atom_site_label
 _atom_site_symmetry_multiplicity
 _atom_site_fract_x
 _atom_site_fract_y
 _atom_site_fract_z
 _atom_site_occupancy
  O  O0  1  0.12340842  0.61615721  0.17803240  1
  O  O1  1  0.37659151  0.82196800  0.38384339  1
  O  O2  1  0.87659220  0.38384317  0.82196713  1
  O  O3  1  0.62340726  0.17803239  0.61615736  1
  O  O4  1  0.72845701  0.47228959  0.06161281  1
  O  O5  1  0.77154348  0.93838694  0.52771027  1
  O  O6  1  0.27154395  0.52770973  0.93838706  1
  O  O7  1  0.22845748  0.06161237  0.47228960  1
  O  O8  1  0.36035987  0.32213343  0.21545057  1
  O  O9  1  0.13964008  0.78454894  0.67786694  1
  O  O10  1  0.63964075  0.67786695  0.78454896  1
  O  O11  1  0.86035902  0.21545037  0.32213318  1
  O  O12  1  0.07699295  0.89335726  0.92212791  1
  O  O13  1  0.42300657  0.07787173  0.10664232  1
  O  O14  1  0.92300583  0.10664313  0.07787187  1
  O  O15  1  0.57699439  0.92212758  0.89335755  1
  O  O16  1  0.07803109  0.15994369  0.68149354  1
  O  O17  1  0.42196874  0.31850698  0.84005571  1
  O  O18  1  0.47979359  0.45696088  0.38273805  1
  O  O19  1  0.57803003  0.68149340  0.15994407  1
  O  O20  1  0.97979323  0.38273833  0.45696069  1
  O  O21  1  0.52020704  0.54303950  0.61726148  1
  O  O22  1  0.02020740  0.61726205  0.54303884  1
  O  O23  1  0.92196987  0.84005563  0.31850633  1
  Nd  Nd24  1  0.75000045  0.10771455  0.89228458  1
  Nd  Nd25  1  0.25000050  0.89228476  0.10771529  1
  Nd  Nd26  1  0.61460542  0.06089431  0.28911597  1
  Nd  Nd27  1  0.88539384  0.71088454  0.93910561  1
  Nd  Nd28  1  0.38539335  0.93910607  0.71088381  1
  Nd  Nd29  1  0.11460679  0.28911584  0.06089392  1
  Nd  Nd30  1  0.25000075  0.37005583  0.62994416  1
  Nd  Nd31  1  0.75000020  0.62994348  0.37005669  1
  W  W32  1  0.56417502  0.50235053  0.80269778  1
  W  W33  1  0.93582569  0.19730139  0.49764915  1
  W  W34  1  0.43582560  0.49764985  0.19730175  1
  W  W35  1  0.06417527  0.80269792  0.50235073  1
