# generated using pymatgen
data_Na2Nb2W2O13
_symmetry_space_group_name_H-M   'P 1'
_cell_length_a   7.43078605
_cell_length_b   7.43078605
_cell_length_c   7.43078605
_cell_angle_alpha   89.53187854
_cell_angle_beta   60.34456034
_cell_angle_gamma   119.80481390
_symmetry_Int_Tables_number   1
_chemical_formula_structural   Na2Nb2W2O13
_chemical_formula_sum   'Na2 Nb2 W2 O13'
_cell_volume   291.30008060
_cell_formula_units_Z   1
loop_
 _symmetry_equiv_pos_site_id
 _symmetry_equiv_pos_as_xyz
  1  'x, y, z'
loop_
 _atom_site_type_symbol
 _atom_site_label
 _atom_site_symmetry_multiplicity
 _atom_site_fract_x
 _atom_site_fract_y
 _atom_site_fract_z
 _atom_site_occupancy
  Na  Na0  1  0.75377836  0.37394049  0.87228115  1
  Na  Na1  1  0.24622164  0.37394049  0.37983787  1
  Nb  Nb2  1  0.25225224  0.37735066  0.87490158  1
  Nb  Nb3  1  0.74774776  0.87284619  0.87490158  1
  W  W4  1  0.74970165  0.87379508  0.37650327  1
  W  W5  1  0.25029835  0.87379508  0.87590657  1
  O  O6  1  0.87359826  0.93704450  0.56101277  1
  O  O7  1  0.50194273  0.56538897  0.56101277  1
  O  O8  1  0.50000000  0.92824174  0.57175826  1
  O  O9  1  0.12640174  0.56538897  0.93655375  1
  O  O10  1  0.49805727  0.93704450  0.93655375  1
  O  O11  1  0.50000000  0.55148877  0.94851123  1
  O  O12  1  0.62924852  0.80980337  0.19349335  1
  O  O13  1  0.99670328  0.17725813  0.19349335  1
  O  O14  1  0.00000000  0.81147357  0.18852643  1
  O  O15  1  0.37075148  0.17725813  0.81944515  1
  O  O16  1  0.00329672  0.80980337  0.81944515  1
  O  O17  1  0.00000000  0.19072929  0.80927071  1
  O  O18  1  0.00000000  0.54340869  0.45659131  1
