# generated using pymatgen
data_SrV6O11
_symmetry_space_group_name_H-M   'P 1'
_cell_length_a   5.91083137
_cell_length_b   5.91083136
_cell_length_c   13.41282103
_cell_angle_alpha   90.00000000
_cell_angle_beta   90.00000000
_cell_angle_gamma   119.99999998
_symmetry_Int_Tables_number   1
_chemical_formula_structural   SrV6O11
_chemical_formula_sum   'Sr2 V12 O22'
_cell_volume   405.83350624
_cell_formula_units_Z   2
loop_
 _symmetry_equiv_pos_site_id
 _symmetry_equiv_pos_as_xyz
  1  'x, y, z'
loop_
 _atom_site_type_symbol
 _atom_site_label
 _atom_site_symmetry_multiplicity
 _atom_site_fract_x
 _atom_site_fract_y
 _atom_site_fract_z
 _atom_site_occupancy
  O  O0  1  0.66666667  0.33333333  0.08467094  1
  O  O1  1  0.33333333  0.66666667  0.58467094  1
  O  O2  1  0.33333333  0.66666667  0.91532906  1
  O  O3  1  0.66666667  0.33333333  0.41532906  1
  O  O4  1  0.85176041  0.14823959  0.25000000  1
  O  O5  1  0.70352083  0.85176041  0.75000000  1
  O  O6  1  0.14823959  0.29647917  0.75000000  1
  O  O7  1  0.85176041  0.70352083  0.25000000  1
  O  O8  1  0.29647917  0.14823959  0.25000000  1
  O  O9  1  0.14823959  0.85176041  0.75000000  1
  O  O10  1  0.17580557  0.35161115  0.42067643  1
  O  O11  1  0.64838885  0.82419443  0.42067643  1
  O  O12  1  0.17580557  0.82419443  0.42067643  1
  O  O13  1  0.82419443  0.17580557  0.92067643  1
  O  O14  1  0.17580557  0.82419443  0.07932357  1
  O  O15  1  0.35161115  0.17580557  0.57932357  1
  O  O16  1  0.82419443  0.64838885  0.57932357  1
  O  O17  1  0.17580557  0.35161115  0.07932357  1
  O  O18  1  0.64838885  0.82419443  0.07932357  1
  O  O19  1  0.35161115  0.17580557  0.92067643  1
  O  O20  1  0.82419443  0.64838885  0.92067643  1
  O  O21  1  0.82419443  0.17580557  0.57932357  1
  V  V22  1  0.33333333  0.66666667  0.75000000  1
  V  V23  1  0.66666667  0.33333333  0.25000000  1
  V  V24  1  0.00000000  0.00000000  0.35419074  1
  V  V25  1  0.00000000  0.00000000  0.85419074  1
  V  V26  1  0.00000000  0.00000000  0.64580926  1
  V  V27  1  0.00000000  0.00000000  0.14580926  1
  V  V28  1  0.50000000  0.50000000  0.50000000  1
  V  V29  1  0.00000000  0.50000000  0.00000000  1
  V  V30  1  0.50000000  0.00000000  0.00000000  1
  V  V31  1  0.50000000  0.00000000  0.50000000  1
  V  V32  1  0.00000000  0.50000000  0.50000000  1
  V  V33  1  0.50000000  0.50000000  0.00000000  1
  Sr  Sr34  1  0.66666667  0.33333333  0.75000000  1
  Sr  Sr35  1  0.33333333  0.66666667  0.25000000  1
