# generated using pymatgen
data_HN
_symmetry_space_group_name_H-M   'P 1'
_cell_length_a   3.82821170
_cell_length_b   8.65792811
_cell_length_c   9.00334686
_cell_angle_alpha   90.00000000
_cell_angle_beta   90.00000000
_cell_angle_gamma   90.00000000
_symmetry_Int_Tables_number   1
_chemical_formula_structural   HN
_chemical_formula_sum   'H16 N16'
_cell_volume   298.41036480
_cell_formula_units_Z   16
loop_
 _symmetry_equiv_pos_site_id
 _symmetry_equiv_pos_as_xyz
  1  'x, y, z'
loop_
 _atom_site_type_symbol
 _atom_site_label
 _atom_site_symmetry_multiplicity
 _atom_site_fract_x
 _atom_site_fract_y
 _atom_site_fract_z
 _atom_site_occupancy
  H  H0  1  0.39175429  0.20620202  0.66492410  1
  H  H1  1  0.39175429  0.29379798  0.83507590  1
  H  H2  1  0.60824571  0.70620202  0.83507590  1
  H  H3  1  0.60824571  0.79379798  0.66492410  1
  H  H4  1  0.60824571  0.79379798  0.33507590  1
  H  H5  1  0.60824571  0.70620202  0.16492410  1
  H  H6  1  0.39175429  0.29379798  0.16492410  1
  H  H7  1  0.39175429  0.20620202  0.33507590  1
  H  H8  1  0.70658280  0.33838743  0.70847826  1
  H  H9  1  0.70658280  0.16161257  0.79152174  1
  H  H10  1  0.29341720  0.83838743  0.79152174  1
  H  H11  1  0.29341720  0.66161257  0.70847826  1
  H  H12  1  0.29341720  0.66161257  0.29152174  1
  H  H13  1  0.29341720  0.83838743  0.20847826  1
  H  H14  1  0.70658280  0.16161257  0.20847826  1
  H  H15  1  0.70658280  0.33838743  0.29152174  1
  N  N16  1  0.54857924  0.25000000  0.75000000  1
  N  N17  1  0.45142076  0.75000000  0.75000000  1
  N  N18  1  0.45142076  0.75000000  0.25000000  1
  N  N19  1  0.54857924  0.25000000  0.25000000  1
  N  N20  1  0.87519386  0.87456021  0.50000000  1
  N  N21  1  0.87519386  0.62543979  0.00000000  1
  N  N22  1  0.12480614  0.37456021  0.00000000  1
  N  N23  1  0.12480614  0.12543979  0.50000000  1
  N  N24  1  0.00000000  0.50000000  0.00000000  1
  N  N25  1  0.00000000  0.00000000  0.50000000  1
  N  N26  1  0.00000000  0.50000000  0.63182296  1
  N  N27  1  0.00000000  0.00000000  0.86817704  1
  N  N28  1  0.00000000  0.50000000  0.36817704  1
  N  N29  1  0.00000000  0.00000000  0.13182296  1
  N  N30  1  0.00000000  0.50000000  0.50000000  1
  N  N31  1  0.00000000  0.00000000  0.00000000  1
