# generated using pymatgen
data_ZrBr2
_symmetry_space_group_name_H-M   'P 1'
_cell_length_a   8.62231553
_cell_length_b   8.62231553
_cell_length_c   8.62231553
_cell_angle_alpha   106.83990393
_cell_angle_beta   106.83990399
_cell_angle_gamma   106.83990393
_symmetry_Int_Tables_number   1
_chemical_formula_structural   ZrBr2
_chemical_formula_sum   'Zr6 Br12'
_cell_volume   536.16213853
_cell_formula_units_Z   6
loop_
 _symmetry_equiv_pos_site_id
 _symmetry_equiv_pos_as_xyz
  1  'x, y, z'
loop_
 _atom_site_type_symbol
 _atom_site_label
 _atom_site_symmetry_multiplicity
 _atom_site_fract_x
 _atom_site_fract_y
 _atom_site_fract_z
 _atom_site_occupancy
  Br  Br0  1  0.63116356  0.85679315  0.55492893  1
  Br  Br1  1  0.85679315  0.55492893  0.63116356  1
  Br  Br2  1  0.55492893  0.63116356  0.85679315  1
  Br  Br3  1  0.36883644  0.14320685  0.44507107  1
  Br  Br4  1  0.14320685  0.44507107  0.36883644  1
  Br  Br5  1  0.44507107  0.36883644  0.14320685  1
  Br  Br6  1  0.31077539  0.92315354  0.77655057  1
  Br  Br7  1  0.77655057  0.31077539  0.92315354  1
  Br  Br8  1  0.92315354  0.77655057  0.31077539  1
  Br  Br9  1  0.68922461  0.07684646  0.22344943  1
  Br  Br10  1  0.22344943  0.68922461  0.07684646  1
  Br  Br11  1  0.07684646  0.22344943  0.68922461  1
  Zr  Zr12  1  0.96871844  0.90343497  0.71438999  1
  Zr  Zr13  1  0.90343497  0.71438999  0.96871844  1
  Zr  Zr14  1  0.71438999  0.96871844  0.90343497  1
  Zr  Zr15  1  0.03128156  0.09656503  0.28561001  1
  Zr  Zr16  1  0.09656503  0.28561001  0.03128156  1
  Zr  Zr17  1  0.28561001  0.03128156  0.09656503  1
