# generated using pymatgen
data_Hf3Ni7
_symmetry_space_group_name_H-M   'P 1'
_cell_length_a   6.50385969
_cell_length_b   6.57257293
_cell_length_c   7.61440695
_cell_angle_alpha   102.78100713
_cell_angle_beta   104.57866476
_cell_angle_gamma   112.62045948
_symmetry_Int_Tables_number   1
_chemical_formula_structural   Hf3Ni7
_chemical_formula_sum   'Hf6 Ni14'
_cell_volume   271.72986206
_cell_formula_units_Z   2
loop_
 _symmetry_equiv_pos_site_id
 _symmetry_equiv_pos_as_xyz
  1  'x, y, z'
loop_
 _atom_site_type_symbol
 _atom_site_label
 _atom_site_symmetry_multiplicity
 _atom_site_fract_x
 _atom_site_fract_y
 _atom_site_fract_z
 _atom_site_occupancy
  Ni  Ni0  1  0.50000000  0.50000000  0.50000000  1
  Ni  Ni1  1  0.00000000  0.00000000  0.00000000  1
  Ni  Ni2  1  0.77122726  0.06331759  0.21505498  1
  Ni  Ni3  1  0.22877274  0.93668241  0.78494502  1
  Ni  Ni4  1  0.61747480  0.17601008  0.45674132  1
  Ni  Ni5  1  0.38252520  0.82398992  0.54325868  1
  Ni  Ni6  1  0.44532545  0.30006982  0.73480817  1
  Ni  Ni7  1  0.55467455  0.69993018  0.26519183  1
  Ni  Ni8  1  0.18075742  0.35936620  0.90603791  1
  Ni  Ni9  1  0.81924258  0.64063380  0.09396209  1
  Ni  Ni10  1  0.10640246  0.38357170  0.55944458  1
  Ni  Ni11  1  0.89359754  0.61642830  0.44055542  1
  Ni  Ni12  1  0.27831312  0.82709663  0.10745720  1
  Ni  Ni13  1  0.72168688  0.17290337  0.89254280  1
  Hf  Hf14  1  0.50038294  0.72733729  0.86880306  1
  Hf  Hf15  1  0.49961706  0.27266271  0.13119694  1
  Hf  Hf16  1  0.90088636  0.54469517  0.77805937  1
  Hf  Hf17  1  0.09911364  0.45530483  0.22194063  1
  Hf  Hf18  1  0.84225577  0.97432805  0.62470293  1
  Hf  Hf19  1  0.15774423  0.02567195  0.37529707  1
