# generated using pymatgen
data_P2Se5
_symmetry_space_group_name_H-M   'P 1'
_cell_length_a   6.18549480
_cell_length_b   7.19955085
_cell_length_c   22.23869175
_cell_angle_alpha   90.00000000
_cell_angle_beta   90.00000000
_cell_angle_gamma   114.51670534
_symmetry_Int_Tables_number   1
_chemical_formula_structural   P2Se5
_chemical_formula_sum   'P8 Se20'
_cell_volume   901.06114975
_cell_formula_units_Z   4
loop_
 _symmetry_equiv_pos_site_id
 _symmetry_equiv_pos_as_xyz
  1  'x, y, z'
loop_
 _atom_site_type_symbol
 _atom_site_label
 _atom_site_symmetry_multiplicity
 _atom_site_fract_x
 _atom_site_fract_y
 _atom_site_fract_z
 _atom_site_occupancy
  P  P0  1  0.32173830  0.27786175  0.33625700  1
  P  P1  1  0.17826170  0.72213825  0.83625700  1
  P  P2  1  0.67826170  0.72213825  0.66374300  1
  P  P3  1  0.82173830  0.27786175  0.16374300  1
  P  P4  1  0.69433481  0.28218411  0.44838148  1
  P  P5  1  0.80566519  0.71781589  0.94838148  1
  P  P6  1  0.30566519  0.71781589  0.55161852  1
  P  P7  1  0.19433481  0.28218411  0.05161852  1
  Se  Se8  1  0.65865714  0.55712178  0.31395460  1
  Se  Se9  1  0.84134286  0.44287822  0.81395460  1
  Se  Se10  1  0.34134286  0.44287822  0.68604540  1
  Se  Se11  1  0.15865714  0.55712178  0.18604540  1
  Se  Se12  1  0.92265341  0.56486725  0.39595870  1
  Se  Se13  1  0.57734659  0.43513275  0.89595870  1
  Se  Se14  1  0.07734659  0.43513275  0.60404130  1
  Se  Se15  1  0.42265341  0.56486725  0.10404130  1
  Se  Se16  1  0.65863559  1.00222853  0.39562847  1
  Se  Se17  1  0.84136441  -0.00222853  0.89562847  1
  Se  Se18  1  0.34136441  -0.00222853  0.60437153  1
  Se  Se19  1  0.15863559  1.00222853  0.10437153  1
  Se  Se20  1  0.39399680  1.00168771  0.31443921  1
  Se  Se21  1  0.10600320  -0.00168771  0.81443921  1
  Se  Se22  1  0.60600320  -0.00168771  0.68556079  1
  Se  Se23  1  0.89399680  1.00168771  0.18556079  1
  Se  Se24  1  0.32545239  0.27730343  0.43869626  1
  Se  Se25  1  0.17454761  0.72269657  0.93869626  1
  Se  Se26  1  0.67454761  0.72269657  0.56130374  1
  Se  Se27  1  0.82545239  0.27730343  0.06130374  1
