# generated using pymatgen
data_LiSnPO4
_symmetry_space_group_name_H-M   'P 1'
_cell_length_a   7.95790631
_cell_length_b   7.95735669
_cell_length_c   10.27308400
_cell_angle_alpha   89.99922322
_cell_angle_beta   90.00038838
_cell_angle_gamma   119.99771536
_symmetry_Int_Tables_number   1
_chemical_formula_structural   LiSnPO4
_chemical_formula_sum   'Li6 Sn6 P6 O24'
_cell_volume   563.38997725
_cell_formula_units_Z   6
loop_
 _symmetry_equiv_pos_site_id
 _symmetry_equiv_pos_as_xyz
  1  'x, y, z'
loop_
 _atom_site_type_symbol
 _atom_site_label
 _atom_site_symmetry_multiplicity
 _atom_site_fract_x
 _atom_site_fract_y
 _atom_site_fract_z
 _atom_site_occupancy
  Li  Li0  1  0.21134371  0.97868262  0.25176301  1
  Li  Li1  1  0.02139418  0.23271981  0.25179164  1
  Li  Li2  1  0.23268587  0.02133287  0.75174741  1
  Li  Li3  1  0.76731413  0.78864700  0.25174741  1
  Li  Li4  1  0.78865629  0.76733891  0.75176301  1
  Li  Li5  1  0.97860582  0.21132563  0.75179164  1
  O  O6  1  0.09797959  0.88723010  0.44320468  1
  O  O7  1  0.22223792  0.76978721  0.14458396  1
  O  O8  1  0.22959553  0.77596550  0.80709829  1
  O  O9  1  0.22396762  0.45350745  0.80748692  1
  O  O10  1  0.33320842  0.66658295  0.34592954  1
  O  O11  1  -0.00001404  0.00004157  0.15035848  1
  O  O12  1  0.33306787  0.66604022  0.60403034  1
  O  O13  1  0.11288177  0.21087335  0.44321771  1
  O  O14  1  0.23028123  0.45259215  0.14452070  1
  O  O15  1  0.54746060  0.77785185  0.14463207  1
  O  O16  1  0.21071833  0.11285813  0.94319090  1
  O  O17  1  0.54639255  0.77027086  0.80715507  1
  O  O18  1  0.45253940  0.23039125  0.64463207  1
  O  O19  1  0.78928167  0.90213980  0.44319090  1
  O  O20  1  0.45360745  0.22387831  0.30715507  1
  O  O21  1  0.77040447  0.54636997  0.30709829  1
  O  O22  1  0.66679158  0.33337454  0.84592954  1
  O  O23  1  0.66693213  0.33297234  0.10403034  1
  O  O24  1  0.90202041  0.78925051  0.94320468  1
  O  O25  1  0.77776208  0.54754928  0.64458396  1
  O  O26  1  0.76971877  0.22231092  0.64452070  1
  O  O27  1  0.77603238  0.22953983  0.30748692  1
  O  O28  1  0.88711823  0.09799158  0.94321771  1
  O  O29  1  1.00001404  0.00005561  0.65035848  1
  P  P30  1  1.00004128  0.00006439  0.49975217  1
  P  P31  1  -0.00004128  0.00002311  0.99975217  1
  P  P32  1  0.33331368  0.66672576  0.19510466  1
  P  P33  1  0.33329638  0.66651193  0.75434225  1
  P  P34  1  0.66668632  0.33341209  0.69510466  1
  P  P35  1  0.66670362  0.33321554  0.25434225  1
  Sn  Sn36  1  0.00568360  0.57466252  0.47332633  1
  Sn  Sn37  1  0.56918033  0.99458265  0.47331503  1
  Sn  Sn38  1  0.42537757  0.43116310  0.47333885  1
  Sn  Sn39  1  0.43081967  0.42540232  0.97331503  1
  Sn  Sn40  1  0.57462243  0.00578554  0.97333885  1
  Sn  Sn41  1  0.99431640  0.56897892  0.97332633  1
