# generated using pymatgen
data_MoPd
_symmetry_space_group_name_H-M   'P 1'
_cell_length_a   2.79389614
_cell_length_b   2.79437720
_cell_length_c   4.56637138
_cell_angle_alpha   90.00000000
_cell_angle_beta   90.00000000
_cell_angle_gamma   59.99430412
_symmetry_Int_Tables_number   1
_chemical_formula_structural   MoPd
_chemical_formula_sum   'Mo1 Pd1'
_cell_volume   30.87252983
_cell_formula_units_Z   1
loop_
 _symmetry_equiv_pos_site_id
 _symmetry_equiv_pos_as_xyz
  1  'x, y, z'
loop_
 _atom_site_type_symbol
 _atom_site_label
 _atom_site_symmetry_multiplicity
 _atom_site_fract_x
 _atom_site_fract_y
 _atom_site_fract_z
 _atom_site_occupancy
  Mo  Mo0  1  0.33337458  0.33331271  0.75000000  1
  Pd  Pd1  1  0.66662542  0.66668729  0.25000000  1
