# generated using pymatgen
data_Cd7P10
_symmetry_space_group_name_H-M   'P 1'
_cell_length_a   4.69132173
_cell_length_b   11.88464415
_cell_length_c   14.15424374
_cell_angle_alpha   88.12561979
_cell_angle_beta   80.46085632
_cell_angle_gamma   78.61685005
_symmetry_Int_Tables_number   1
_chemical_formula_structural   Cd7P10
_chemical_formula_sum   'Cd14 P20'
_cell_volume   762.94454886
_cell_formula_units_Z   2
loop_
 _symmetry_equiv_pos_site_id
 _symmetry_equiv_pos_as_xyz
  1  'x, y, z'
loop_
 _atom_site_type_symbol
 _atom_site_label
 _atom_site_symmetry_multiplicity
 _atom_site_fract_x
 _atom_site_fract_y
 _atom_site_fract_z
 _atom_site_occupancy
  P  P0  1  0.33507189  0.91675341  0.12783969  1
  P  P1  1  0.37966499  0.08324659  0.87216031  1
  P  P2  1  0.00182530  0.58324659  0.62783969  1
  P  P3  1  0.21291158  0.41675341  0.37216031  1
  P  P4  1  0.01677129  0.91243045  0.26035818  1
  P  P5  1  0.18955992  0.08756955  0.73964182  1
  P  P6  1  0.67920174  0.58756955  0.76035818  1
  P  P7  1  0.02712947  0.41243045  0.23964182  1
  P  P8  1  0.10904283  0.66550525  0.00357737  1
  P  P9  1  0.77812544  0.33449475  0.99642263  1
  P  P10  1  0.52454808  0.83449475  0.50357737  1
  P  P11  1  0.86262019  0.16550525  0.49642263  1
  P  P12  1  0.67943257  0.56774553  0.23205440  1
  P  P13  1  0.47923250  0.43225447  0.76794560  1
  P  P14  1  0.52534193  0.07244542  0.12866642  1
  P  P15  1  0.72645376  0.92755458  0.87133358  1
  P  P16  1  0.34778735  0.42755458  0.62866642  1
  P  P17  1  0.40400834  0.57244542  0.37133358  1
  P  P18  1  0.66148697  0.06774553  0.26794560  1
  P  P19  1  0.99717810  0.93225447  0.73205440  1
  Cd  Cd20  1  0.42016548  0.50594135  0.09701945  1
  Cd  Cd21  1  0.02312628  0.49405865  0.90298055  1
  Cd  Cd22  1  0.67610683  0.99405865  0.59701945  1
  Cd  Cd23  1  0.26718492  0.00594135  0.40298055  1
  Cd  Cd24  1  0.81206011  0.76206282  0.16479711  1
  Cd  Cd25  1  0.73892004  0.23793718  0.83520289  1
  Cd  Cd26  1  0.32412293  0.73793718  0.66479711  1
  Cd  Cd27  1  0.72685722  0.26206282  0.33520289  1
  Cd  Cd28  1  0.05795363  0.76522803  0.42452020  1
  Cd  Cd29  1  0.24770186  0.23477197  0.57547980  1
  Cd  Cd30  1  0.57318166  0.73477197  0.92452020  1
  Cd  Cd31  1  0.23247383  0.26522803  0.07547980  1
  Cd  Cd32  1  0.74457548  0.50000000  0.50000000  1
  Cd  Cd33  1  0.99457548  0.00000000  0.00000000  1
