# generated using pymatgen
data_Sb(PO3)4
_symmetry_space_group_name_H-M   'P 1'
_cell_length_a   7.15428210
_cell_length_b   8.72068476
_cell_length_c   8.87148011
_cell_angle_alpha   63.69297549
_cell_angle_beta   66.21657159
_cell_angle_gamma   65.78118429
_symmetry_Int_Tables_number   1
_chemical_formula_structural   Sb(PO3)4
_chemical_formula_sum   'Sb2 P8 O24'
_cell_volume   435.57809169
_cell_formula_units_Z   2
loop_
 _symmetry_equiv_pos_site_id
 _symmetry_equiv_pos_as_xyz
  1  'x, y, z'
loop_
 _atom_site_type_symbol
 _atom_site_label
 _atom_site_symmetry_multiplicity
 _atom_site_fract_x
 _atom_site_fract_y
 _atom_site_fract_z
 _atom_site_occupancy
  O  O0  1  0.81598533  0.96452000  0.79545208  1
  O  O1  1  0.98636852  0.74697272  0.51172431  1
  O  O2  1  0.80009029  0.66426921  0.83703828  1
  O  O3  1  0.89076595  0.92032960  0.20245152  1
  O  O4  1  1.01341425  0.57968466  0.29752778  1
  O  O5  1  0.49956291  0.93655945  0.75872805  1
  O  O6  1  0.57602464  0.53548967  0.70454269  1
  O  O7  1  0.80517947  0.43645839  0.25865259  1
  O  O8  1  0.24508003  0.75297411  0.98824486  1
  O  O9  1  0.30150081  0.83576928  0.66290623  1
  O  O10  1  0.42342471  0.69714193  0.43343778  1
  O  O11  1  0.55400448  0.80280769  0.06658207  1
  O  O12  1  0.44599552  0.19719231  0.93341793  1
  O  O13  1  0.57657529  0.30285807  0.56656222  1
  O  O14  1  0.69849919  0.16423072  0.33709377  1
  O  O15  1  0.75491997  0.24702589  0.01175514  1
  O  O16  1  0.19482053  0.56354161  0.74134741  1
  O  O17  1  0.42397536  0.46451033  0.29545731  1
  O  O18  1  0.50043709  0.06344055  0.24127195  1
  O  O19  1  -0.01341425  0.42031534  0.70247222  1
  O  O20  1  0.10923405  0.07967040  0.79754848  1
  O  O21  1  0.19990971  0.33573079  0.16296172  1
  O  O22  1  0.01363148  0.25302728  0.48827569  1
  O  O23  1  0.18401467  0.03548000  0.20454792  1
  P  P24  1  0.66454371  0.85068441  0.87559110  1
  P  P25  1  1.01135307  0.40229784  0.31321889  1
  P  P26  1  0.27306323  0.90228972  0.81325027  1
  P  P27  1  0.39084965  0.64933253  0.62443240  1
  P  P28  1  0.60915035  0.35066747  0.37556760  1
  P  P29  1  0.72693677  0.09771028  0.18674973  1
  P  P30  1  -0.01135307  0.59770216  0.68678111  1
  P  P31  1  0.33545629  0.14931559  0.12440890  1
  Sb  Sb32  1  0.79656044  0.25004585  0.74999428  1
  Sb  Sb33  1  0.20343956  0.74995415  0.25000572  1
