# generated using pymatgen
data_Nd2P3Au
_symmetry_space_group_name_H-M   'P 1'
_cell_length_a   4.19155236
_cell_length_b   7.77051880
_cell_length_c   16.21935845
_cell_angle_alpha   90.00000000
_cell_angle_beta   90.48044828
_cell_angle_gamma   90.00000000
_symmetry_Int_Tables_number   1
_chemical_formula_structural   Nd2P3Au
_chemical_formula_sum   'Nd8 P12 Au4'
_cell_volume   528.25463254
_cell_formula_units_Z   4
loop_
 _symmetry_equiv_pos_site_id
 _symmetry_equiv_pos_as_xyz
  1  'x, y, z'
loop_
 _atom_site_type_symbol
 _atom_site_label
 _atom_site_symmetry_multiplicity
 _atom_site_fract_x
 _atom_site_fract_y
 _atom_site_fract_z
 _atom_site_occupancy
  P  P0  1  0.75843905  0.61632129  0.41402511  1
  P  P1  1  0.74156095  0.11632129  0.08597489  1
  P  P2  1  0.24156095  0.38367871  0.58597489  1
  P  P3  1  0.25843905  0.88367871  0.91402511  1
  P  P4  1  0.27207216  0.53603056  0.09344999  1
  P  P5  1  0.22792784  0.03603056  0.40655001  1
  P  P6  1  0.72792784  0.46396944  0.90655001  1
  P  P7  1  0.77207216  0.96396944  0.59344999  1
  P  P8  1  0.20862957  0.70490559  0.20092180  1
  P  P9  1  0.70862957  0.79509441  0.70092180  1
  P  P10  1  0.79137043  0.29509441  0.79907820  1
  P  P11  1  0.29137043  0.20490559  0.29907820  1
  Nd  Nd12  1  0.26041942  0.10478417  0.70118528  1
  Nd  Nd13  1  0.26703367  0.73129701  0.52512221  1
  Nd  Nd14  1  0.76703367  0.76870299  0.02512221  1
  Nd  Nd15  1  0.73296633  0.26870299  0.47487779  1
  Nd  Nd16  1  0.73958058  0.89521583  0.29881472  1
  Nd  Nd17  1  0.76041942  0.39521583  0.20118528  1
  Nd  Nd18  1  0.23958058  0.60478417  0.79881472  1
  Nd  Nd19  1  0.23296633  0.23129701  0.97487779  1
  Au  Au20  1  0.74486708  0.48234404  0.65467379  1
  Au  Au21  1  0.75513292  0.98234404  0.84532621  1
  Au  Au22  1  0.25513292  0.51765596  0.34532621  1
  Au  Au23  1  0.24486708  0.01765596  0.15467379  1
