# generated using pymatgen
data_LaV3O9
_symmetry_space_group_name_H-M   'P 1'
_cell_length_a   5.07218420
_cell_length_b   7.51623302
_cell_length_c   9.63075951
_cell_angle_alpha   90.00000000
_cell_angle_beta   90.00000000
_cell_angle_gamma   99.80370941
_symmetry_Int_Tables_number   1
_chemical_formula_structural   LaV3O9
_chemical_formula_sum   'La2 V6 O18'
_cell_volume   361.79867521
_cell_formula_units_Z   2
loop_
 _symmetry_equiv_pos_site_id
 _symmetry_equiv_pos_as_xyz
  1  'x, y, z'
loop_
 _atom_site_type_symbol
 _atom_site_label
 _atom_site_symmetry_multiplicity
 _atom_site_fract_x
 _atom_site_fract_y
 _atom_site_fract_z
 _atom_site_occupancy
  O  O0  1  0.06699271  0.34950369  0.25000000  1
  O  O1  1  0.93300729  0.65049631  0.75000000  1
  O  O2  1  0.72312798  0.72642622  0.25000000  1
  O  O3  1  0.27687202  0.27357378  0.75000000  1
  O  O4  1  0.38730963  0.56013075  0.59189333  1
  O  O5  1  0.61269037  0.43986925  0.09189333  1
  O  O6  1  0.61269037  0.43986925  0.40810667  1
  O  O7  1  0.38730963  0.56013075  0.90810667  1
  O  O8  1  0.78101765  0.85406093  0.98783967  1
  O  O9  1  0.21898235  0.14593907  0.48783967  1
  O  O10  1  0.21898235  0.14593907  0.01216033  1
  O  O11  1  0.78101765  0.85406093  0.51216033  1
  O  O12  1  0.38248119  0.87768185  0.75000000  1
  O  O13  1  0.61751881  0.12231815  0.25000000  1
  O  O14  1  0.71332559  0.21402279  0.88915984  1
  O  O15  1  0.28667441  0.78597721  0.38915984  1
  O  O16  1  0.28667441  0.78597721  0.11084016  1
  O  O17  1  0.71332559  0.21402279  0.61084016  1
  V  V18  1  0.73754957  0.34744837  0.25000000  1
  V  V19  1  0.26245043  0.65255163  0.75000000  1
  V  V20  1  0.43997492  0.30067009  0.57245874  1
  V  V21  1  0.56002508  0.69932991  0.07245874  1
  V  V22  1  0.56002508  0.69932991  0.42754126  1
  V  V23  1  0.43997492  0.30067009  0.92754126  1
  La  La24  1  0.08531047  0.00085775  0.25000000  1
  La  La25  1  0.91468953  0.99914225  0.75000000  1
