# generated using pymatgen
data_Li2CrP2O7
_symmetry_space_group_name_H-M   'P 1'
_cell_length_a   7.96021171
_cell_length_b   13.76146262
_cell_length_c   5.13552735
_cell_angle_alpha   90.00000000
_cell_angle_beta   93.25509806
_cell_angle_gamma   90.00000000
_symmetry_Int_Tables_number   1
_chemical_formula_structural   Li2CrP2O7
_chemical_formula_sum   'Li8 Cr4 P8 O28'
_cell_volume   561.65937567
_cell_formula_units_Z   4
loop_
 _symmetry_equiv_pos_site_id
 _symmetry_equiv_pos_as_xyz
  1  'x, y, z'
loop_
 _atom_site_type_symbol
 _atom_site_label
 _atom_site_symmetry_multiplicity
 _atom_site_fract_x
 _atom_site_fract_y
 _atom_site_fract_z
 _atom_site_occupancy
  Li  Li0  1  0.14200448  0.90102481  0.19323823  1
  Li  Li1  1  0.85799485  0.09897504  0.80676238  1
  Li  Li2  1  0.82813224  0.69635131  0.26047270  1
  Li  Li3  1  0.67186794  0.19635102  0.23952717  1
  Li  Li4  1  0.64200415  0.59897533  0.69323756  1
  Li  Li5  1  0.17186709  0.30364854  0.73952596  1
  Li  Li6  1  0.32813266  0.80364882  0.76047356  1
  Li  Li7  1  0.35799519  0.40102452  0.30676305  1
  O  O8  1  0.17485637  0.02877939  0.41736739  1
  O  O9  1  0.87448089  0.89870662  0.13282174  1
  O  O10  1  0.92301088  0.44138114  0.23683231  1
  O  O11  1  0.95729231  0.28986001  0.51333956  1
  O  O12  1  0.04270828  0.71014057  0.48666117  1
  O  O13  1  0.07698971  0.55861944  0.76316842  1
  O  O14  1  0.12551970  0.10129322  0.86717899  1
  O  O15  1  0.16307620  0.72189086  0.95473407  1
  O  O16  1  0.14735055  0.31667689  0.13367136  1
  O  O17  1  0.42301004  0.05861915  0.73683110  1
  O  O18  1  0.21924946  0.92497405  0.83366300  1
  O  O19  1  0.28075029  0.42497376  0.66633652  1
  O  O20  1  0.33692355  0.22189130  0.54526741  1
  O  O21  1  0.85264879  0.68332296  0.86632926  1
  O  O22  1  0.35264912  0.81667718  0.36632993  1
  O  O23  1  0.37448005  0.60129351  0.63282053  1
  O  O24  1  0.83692313  0.27810899  0.04526654  1
  O  O25  1  0.45729264  0.21014028  0.01334024  1
  O  O26  1  0.54270795  0.78985957  0.98666050  1
  O  O27  1  0.57698930  0.94138069  0.26316755  1
  O  O28  1  0.62551928  0.39870634  0.36718009  1
  O  O29  1  0.64735022  0.18332267  0.63367069  1
  O  O30  1  0.67485729  0.47122090  0.91736684  1
  O  O31  1  0.66307704  0.77810928  0.45473333  1
  O  O32  1  0.71925030  0.57502608  0.33366421  1
  O  O33  1  0.78074987  0.07502580  0.16633566  1
  O  O34  1  0.82514297  0.97122046  0.58263322  1
  O  O35  1  0.32514330  0.52877968  0.08263194  1
  P  P36  1  0.47013015  0.17323909  0.73306008  1
  P  P37  1  0.52986919  0.82676076  0.26694053  1
  P  P38  1  0.72314061  0.47532207  0.21217630  1
  P  P39  1  0.77685957  0.97532162  0.28782357  1
  P  P40  1  0.02986960  0.67323938  0.76694140  1
  P  P41  1  0.22314102  0.02467822  0.71217520  1
  P  P42  1  0.27685873  0.52467851  0.78782432  1
  P  P43  1  0.97012973  0.32676047  0.23305922  1
  Cr  Cr44  1  0.76379698  0.84456203  0.78617352  1
  Cr  Cr45  1  0.73620202  0.34456174  0.71382643  1
  Cr  Cr46  1  0.26379731  0.65543810  0.28617419  1
  Cr  Cr47  1  0.23620236  0.15543855  0.21382514  1
