# generated using pymatgen
data_Li3Fe(PO4)2
_symmetry_space_group_name_H-M   'P 1'
_cell_length_a   4.94133416
_cell_length_b   17.84858862
_cell_length_c   6.39081765
_cell_angle_alpha   89.99997899
_cell_angle_beta   93.01174787
_cell_angle_gamma   89.99999476
_symmetry_Int_Tables_number   1
_chemical_formula_structural   Li3Fe(PO4)2
_chemical_formula_sum   'Li12 Fe4 P8 O32'
_cell_volume   562.86502053
_cell_formula_units_Z   4
loop_
 _symmetry_equiv_pos_site_id
 _symmetry_equiv_pos_as_xyz
  1  'x, y, z'
loop_
 _atom_site_type_symbol
 _atom_site_label
 _atom_site_symmetry_multiplicity
 _atom_site_fract_x
 _atom_site_fract_y
 _atom_site_fract_z
 _atom_site_occupancy
  Li  Li0  1  0.18250979  0.69934574  0.81257797  1
  Li  Li1  1  0.81748502  0.30065486  0.18742162  1
  Li  Li2  1  0.78041060  0.11609819  0.50337915  1
  Li  Li3  1  0.71958957  0.61609843  0.99662027  1
  Li  Li4  1  0.71946327  0.94344654  0.71740670  1
  Li  Li5  1  0.21958994  0.88390121  0.49662691  1
  Li  Li6  1  0.28041057  0.38390225  0.00337507  1
  Li  Li7  1  0.28053703  0.05655208  0.28259362  1
  Li  Li8  1  0.21946283  0.55655313  0.21740512  1
  Li  Li9  1  0.31748507  0.19934535  0.68742286  1
  Li  Li10  1  0.68250977  0.80065402  0.31257885  1
  Li  Li11  1  0.78053701  0.44344812  0.78259217  1
  O  O12  1  0.13831715  0.06413959  0.56852238  1
  O  O13  1  0.94533983  0.32672709  0.90204647  1
  O  O14  1  0.97686172  0.30861941  0.51054850  1
  O  O15  1  0.98024996  0.80119779  0.82155732  1
  O  O16  1  0.01974644  0.19880384  0.17844283  1
  O  O17  1  0.02313596  0.69138129  0.48945312  1
  O  O18  1  0.05465184  0.67327475  0.09795267  1
  O  O19  1  0.08913494  0.43963052  0.27198203  1
  O  O20  1  0.14616716  0.06698788  0.96462247  1
  O  O21  1  0.41086787  0.93963045  0.22801904  1
  O  O22  1  0.11667906  0.80228699  0.26740976  1
  O  O23  1  0.21171606  0.44751028  0.72373773  1
  O  O24  1  0.28829242  0.94750993  0.77626635  1
  O  O25  1  0.85383326  0.93301320  0.03537714  1
  O  O26  1  0.35383542  0.56698753  0.53537434  1
  O  O27  1  0.38332425  0.30228563  0.23258967  1
  O  O28  1  0.91086665  0.56036944  0.72801417  1
  O  O29  1  0.44534180  0.17327296  0.40204859  1
  O  O30  1  0.51974795  0.30119558  0.67844140  1
  O  O31  1  0.47686270  0.19137965  0.01054688  1
  O  O32  1  0.52313438  0.80861870  0.98945330  1
  O  O33  1  0.48025088  0.69880288  0.32155430  1
  O  O34  1  0.55465202  0.82672499  0.59795261  1
  O  O35  1  0.58913467  0.06036975  0.77198375  1
  O  O36  1  0.61668118  0.69771274  0.76740822  1
  O  O37  1  0.64616825  0.43301209  0.46462154  1
  O  O38  1  0.63831839  0.43586082  0.06852271  1
  O  O39  1  0.71171249  0.05248976  0.22374021  1
  O  O40  1  0.78829325  0.55249049  0.27626314  1
  O  O41  1  0.88332419  0.19771315  0.73259212  1
  O  O42  1  0.86168405  0.93585742  0.43147661  1
  O  O43  1  0.36168232  0.56414254  0.93147514  1
  P  P44  1  0.33039171  0.21552180  0.21058995  1
  P  P45  1  0.66960463  0.78447870  0.78940944  1
  P  P46  1  0.71813579  0.96429482  0.23153548  1
  P  P47  1  0.78186606  0.46429525  0.26846301  1
  P  P48  1  0.16960543  0.71552146  0.28940943  1
  P  P49  1  0.21813743  0.53570463  0.73153425  1
  P  P50  1  0.28186462  0.03570393  0.76846714  1
  P  P51  1  0.83039323  0.28447978  0.71058795  1
  Fe  Fe52  1  0.80514585  0.12709684  0.98460106  1
  Fe  Fe53  1  0.69485944  0.62709909  0.51539890  1
  Fe  Fe54  1  0.30514521  0.37290218  0.48459607  1
  Fe  Fe55  1  0.19485425  0.87290238  0.01541065  1
