# generated using pymatgen
data_LiMn(PO3)4
_symmetry_space_group_name_H-M   'P 1'
_cell_length_a   5.28847254
_cell_length_b   13.79334320
_cell_length_c   7.25084313
_cell_angle_alpha   90.00000000
_cell_angle_beta   99.65434240
_cell_angle_gamma   90.00000000
_symmetry_Int_Tables_number   1
_chemical_formula_structural   LiMn(PO3)4
_chemical_formula_sum   'Li2 Mn2 P8 O24'
_cell_volume   521.42710709
_cell_formula_units_Z   2
loop_
 _symmetry_equiv_pos_site_id
 _symmetry_equiv_pos_as_xyz
  1  'x, y, z'
loop_
 _atom_site_type_symbol
 _atom_site_label
 _atom_site_symmetry_multiplicity
 _atom_site_fract_x
 _atom_site_fract_y
 _atom_site_fract_z
 _atom_site_occupancy
  Li  Li0  1  0.35031763  0.49294099  0.86996881  1
  Li  Li1  1  0.64968174  0.99294150  0.13003139  1
  O  O2  1  0.26450699  0.89694853  0.50073185  1
  O  O3  1  0.98188405  0.39251525  0.22686364  1
  O  O4  1  0.03957507  0.73536355  0.94602846  1
  O  O5  1  0.01811532  0.89251504  0.77313656  1
  O  O6  1  0.00502302  0.63520665  0.22804965  1
  O  O7  1  0.18750759  0.38266282  0.93859769  1
  O  O8  1  0.11212626  0.51258931  0.49021831  1
  O  O9  1  0.20617209  0.34030135  0.55219427  1
  O  O10  1  0.22473713  0.68351223  0.55831753  1
  O  O11  1  0.25147980  0.13367670  0.50495920  1
  O  O12  1  0.96042429  0.23536377  0.05397174  1
  O  O13  1  0.38283035  0.28654001  0.23113802  1
  O  O14  1  0.38010679  0.75254524  0.23414857  1
  O  O15  1  0.34568720  0.59919516  0.02563510  1
  O  O16  1  0.65431211  0.09919537  0.97436371  1
  O  O17  1  0.61989450  0.25254545  0.76585183  1
  O  O18  1  0.99497635  0.13520614  0.77195055  1
  O  O19  1  0.73549430  0.39694874  0.49926855  1
  O  O20  1  0.74851957  0.63367649  0.49504099  1
  O  O21  1  0.77526219  0.18351244  0.44168128  1
  O  O22  1  0.79382727  0.84030114  0.44780593  1
  O  O23  1  0.88787499  0.01258952  0.50978071  1
  O  O24  1  0.81249177  0.88266261  0.06140251  1
  O  O25  1  0.61716901  0.78653979  0.76886218  1
  P  P26  1  0.99606786  0.40467128  0.44923234  1
  P  P27  1  0.98913940  0.12263025  0.55092393  1
  P  P28  1  0.00393151  0.90467106  0.55076786  1
  P  P29  1  0.01086188  0.62263003  0.44907647  1
  P  P30  1  0.14738944  0.32648814  0.10494893  1
  P  P31  1  0.85260993  0.82648792  0.89505127  1
  P  P32  1  0.78241539  0.17883768  0.88861348  1
  P  P33  1  0.21758590  0.67883746  0.11138692  1
  Mn  Mn34  1  0.49373256  0.26422389  0.49768726  1
  Mn  Mn35  1  0.50626681  0.76422368  0.50231294  1
