# generated using pymatgen
data_LiCr(PO3)4
_symmetry_space_group_name_H-M   'P 1'
_cell_length_a   5.19444726
_cell_length_b   10.50982705
_cell_length_c   10.50982704
_cell_angle_alpha   71.18050807
_cell_angle_beta   98.34826900
_cell_angle_gamma   98.34826906
_symmetry_Int_Tables_number   1
_chemical_formula_structural   LiCr(PO3)4
_chemical_formula_sum   'Li2 Cr2 P8 O24'
_cell_volume   534.36071302
_cell_formula_units_Z   2
loop_
 _symmetry_equiv_pos_site_id
 _symmetry_equiv_pos_as_xyz
  1  'x, y, z'
loop_
 _atom_site_type_symbol
 _atom_site_label
 _atom_site_symmetry_multiplicity
 _atom_site_fract_x
 _atom_site_fract_y
 _atom_site_fract_z
 _atom_site_occupancy
  Li  Li0  1  0.43969905  0.41695239  0.41695252  1
  Li  Li1  1  0.56030176  0.58304708  0.58304765  1
  O  O2  1  0.37168760  0.91434006  0.28895849  1
  O  O3  1  0.99571718  0.55560631  0.16447910  1
  O  O4  1  0.00428310  0.83552079  0.44439334  1
  O  O5  1  0.00428363  0.44439316  0.83552107  1
  O  O6  1  0.99999983  0.23443685  0.76556292  1
  O  O7  1  0.00000075  0.76556341  0.23443697  1
  O  O8  1  0.24193052  0.66674723  0.92274007  1
  O  O9  1  0.24193101  0.92273999  0.66674733  1
  O  O10  1  0.32124012  0.44020214  0.67043996  1
  O  O11  1  0.32124028  0.67043994  0.44020142  1
  O  O12  1  0.69290578  0.90622019  0.60379191  1
  O  O13  1  0.37168694  0.28895857  0.91433963  1
  O  O14  1  0.60857047  0.84992588  0.84992551  1
  O  O15  1  0.30709502  0.09377928  0.39620826  1
  O  O16  1  0.75806833  0.33325224  0.07725997  1
  O  O17  1  0.69290585  0.60379153  0.90622096  1
  O  O18  1  0.99571575  0.16447868  0.55560670  1
  O  O19  1  0.39143053  0.15007461  0.15007435  1
  O  O20  1  0.62831340  0.08566042  0.71104136  1
  O  O21  1  0.62831191  0.71104090  0.08566041  1
  O  O22  1  0.67876072  0.32956055  0.55979844  1
  O  O23  1  0.67876089  0.55979835  0.32956085  1
  O  O24  1  0.75806999  0.07726050  0.33325253  1
  O  O25  1  0.30709496  0.39620794  0.09377921  1
  P  P26  1  0.46558119  0.30330779  0.06064499  1
  P  P27  1  0.82585849  0.21199037  0.63320610  1
  P  P28  1  0.17414255  0.36679401  0.78800929  1
  P  P29  1  0.17414231  0.78800910  0.36679407  1
  P  P30  1  0.53441785  0.69669270  0.93935474  1
  P  P31  1  0.53441894  0.93935562  0.69669257  1
  P  P32  1  0.46558206  0.06064486  0.30330729  1
  P  P33  1  0.82585825  0.63320546  0.21199089  1
  Cr  Cr34  1  0.99999923  0.49999994  0.99999957  1
  Cr  Cr35  1  0.99999910  0.00000019  0.50000024  1
