# generated using pymatgen
data_Bi13O20
_symmetry_space_group_name_H-M   'P 1'
_cell_length_a   9.05434802
_cell_length_b   9.05434841
_cell_length_c   9.05434878
_cell_angle_alpha   109.47122068
_cell_angle_beta   109.47121895
_cell_angle_gamma   109.47121979
_symmetry_Int_Tables_number   1
_chemical_formula_structural   Bi13O20
_chemical_formula_sum   'Bi13 O20'
_cell_volume   571.41248839
_cell_formula_units_Z   1
loop_
 _symmetry_equiv_pos_site_id
 _symmetry_equiv_pos_as_xyz
  1  'x, y, z'
loop_
 _atom_site_type_symbol
 _atom_site_label
 _atom_site_symmetry_multiplicity
 _atom_site_fract_x
 _atom_site_fract_y
 _atom_site_fract_z
 _atom_site_occupancy
  Bi  Bi0  1  0.19391227  0.85677232  0.69483867  1
  Bi  Bi1  1  0.33713995  0.83806635  0.14322768  1
  Bi  Bi2  1  0.49907360  0.30516133  0.16193365  1
  Bi  Bi3  1  0.00000000  0.00000000  0.00000000  1
  Bi  Bi4  1  0.50092640  0.66286005  0.80608773  1
  Bi  Bi5  1  0.83806635  0.14322768  0.33713995  1
  Bi  Bi6  1  0.69483867  0.19391227  0.85677232  1
  Bi  Bi7  1  0.66286005  0.80608773  0.50092641  1
  Bi  Bi8  1  0.85677232  0.69483867  0.19391227  1
  Bi  Bi9  1  0.16193365  0.49907360  0.30516133  1
  Bi  Bi10  1  0.14322768  0.33713995  0.83806635  1
  Bi  Bi11  1  0.80608773  0.50092640  0.66286005  1
  Bi  Bi12  1  0.30516133  0.16193365  0.49907359  1
  O  O13  1  0.25422287  0.62502353  0.89095411  1
  O  O14  1  1.00000000  0.76106401  0.00000000  1
  O  O15  1  1.00000000  1.00000000  0.76106401  1
  O  O16  1  0.10904589  0.73406942  0.36326876  1
  O  O17  1  0.00000000  0.00000000  0.37406323  1
  O  O18  1  0.00000000  0.37406323  0.00000000  1
  O  O19  1  0.37080066  0.74577713  0.63673124  1
  O  O20  1  0.26593058  0.37497647  0.62919934  1
  O  O21  1  0.36326876  0.10904589  0.73406942  1
  O  O22  1  0.23893599  0.23893599  0.23893599  1
  O  O23  1  0.37497647  0.62919934  0.26593058  1
  O  O24  1  0.62593677  0.62593677  0.62593677  1
  O  O25  1  0.62502353  0.89095411  0.25422287  1
  O  O26  1  0.63673124  0.37080066  0.74577713  1
  O  O27  1  0.62919934  0.26593058  0.37497647  1
  O  O28  1  0.74577713  0.63673124  0.37080066  1
  O  O29  1  0.73406942  0.36326876  0.10904589  1
  O  O30  1  0.89095411  0.25422287  0.62502353  1
  O  O31  1  0.37406323  0.00000000  0.00000000  1
  O  O32  1  0.76106401  0.00000000  0.00000000  1
