# generated using pymatgen
data_La2SmS4
_symmetry_space_group_name_H-M   'P 1'
_cell_length_a   7.50226989
_cell_length_b   7.50227052
_cell_length_c   7.50227064
_cell_angle_alpha   109.41802615
_cell_angle_beta   109.57765486
_cell_angle_gamma   109.41803340
_symmetry_Int_Tables_number   1
_chemical_formula_structural   La2SmS4
_chemical_formula_sum   'La4 Sm2 S8'
_cell_volume   325.05370110
_cell_formula_units_Z   2
loop_
 _symmetry_equiv_pos_site_id
 _symmetry_equiv_pos_as_xyz
  1  'x, y, z'
loop_
 _atom_site_type_symbol
 _atom_site_label
 _atom_site_symmetry_multiplicity
 _atom_site_fract_x
 _atom_site_fract_y
 _atom_site_fract_z
 _atom_site_occupancy
  La  La0  1  0.25000000  0.63016913  0.38016913  1
  La  La1  1  0.75000000  0.86983087  0.11983087  1
  La  La2  1  0.61983087  0.36983087  0.25000000  1
  La  La3  1  0.88016913  0.13016913  0.75000000  1
  Sm  Sm4  1  0.12500000  0.75000000  0.87500000  1
  Sm  Sm5  1  0.37500000  0.25000000  0.62500000  1
  S  S6  1  0.00488643  0.85532783  0.50528042  1
  S  S7  1  0.00528042  0.35532783  0.50488643  1
  S  S8  1  0.49471958  0.99960601  0.35004741  1
  S  S9  1  0.14955860  0.14467217  0.14995259  1
  S  S10  1  0.35044140  0.50039399  0.99511357  1
  S  S11  1  0.64995259  0.64467217  0.64955860  1
  S  S12  1  0.49511357  0.00039399  0.85044140  1
  S  S13  1  0.85004741  0.49960601  0.99471958  1
