# generated using pymatgen
data_Dy5AgS8
_symmetry_space_group_name_H-M   'P 1'
_cell_length_a   7.22257634
_cell_length_b   7.22257659
_cell_length_c   7.22257698
_cell_angle_alpha   109.60710779
_cell_angle_beta   109.60710800
_cell_angle_gamma   109.19979049
_symmetry_Int_Tables_number   1
_chemical_formula_structural   Dy5AgS8
_chemical_formula_sum   'Dy5 Ag1 S8'
_cell_volume   290.03289587
_cell_formula_units_Z   1
loop_
 _symmetry_equiv_pos_site_id
 _symmetry_equiv_pos_as_xyz
  1  'x, y, z'
loop_
 _atom_site_type_symbol
 _atom_site_label
 _atom_site_symmetry_multiplicity
 _atom_site_fract_x
 _atom_site_fract_y
 _atom_site_fract_z
 _atom_site_occupancy
  Ag  Ag0  1  0.87500000  0.12500000  0.75000000  1
  Dy  Dy1  1  0.10873968  0.74646343  0.86803570  1
  Dy  Dy2  1  0.25353657  0.62157227  0.36227624  1
  Dy  Dy3  1  0.37842773  0.24070397  0.63196430  1
  Dy  Dy4  1  0.62500000  0.37500000  0.25000000  1
  Dy  Dy5  1  0.75929603  0.89126032  0.13772376  1
  S  S6  1  0.14368491  0.14201408  0.13963870  1
  S  S7  1  0.38031090  0.51619391  0.00960543  1
  S  S8  1  0.62929453  0.61968910  0.63588301  1
  S  S9  1  0.48380609  0.99341152  0.86411699  1
  S  S10  1  0.50237538  0.00404621  0.36036130  1
  S  S11  1  0.99595379  0.85631509  0.49832917  1
  S  S12  1  0.85798592  0.49762462  0.00167083  1
  S  S13  1  0.00658848  0.37070547  0.49039457  1
