# generated using pymatgen
data_LiMn8O16
_symmetry_space_group_name_H-M   'P 1'
_cell_length_a   5.91740453
_cell_length_b   23.50142573
_cell_length_c   10.18950088
_cell_angle_alpha   29.87214570
_cell_angle_beta   54.49771206
_cell_angle_gamma   59.76297491
_symmetry_Int_Tables_number   1
_chemical_formula_structural   LiMn8O16
_chemical_formula_sum   'Li2 Mn16 O32'
_cell_volume   574.56497543
_cell_formula_units_Z   2
loop_
 _symmetry_equiv_pos_site_id
 _symmetry_equiv_pos_as_xyz
  1  'x, y, z'
loop_
 _atom_site_type_symbol
 _atom_site_label
 _atom_site_symmetry_multiplicity
 _atom_site_fract_x
 _atom_site_fract_y
 _atom_site_fract_z
 _atom_site_occupancy
  Li  Li0  1  0.12561539  0.25000000  0.12438461  1
  Li  Li1  1  0.87438461  0.75000000  0.87561539  1
  Mn  Mn2  1  0.50000000  0.00000000  0.50000000  1
  Mn  Mn3  1  0.49992056  0.12290200  0.50427544  1
  Mn  Mn4  1  0.49967113  0.25000000  0.50013166  1
  Mn  Mn5  1  0.50242857  0.12554319  0.99648506  1
  Mn  Mn6  1  0.50242857  0.37445681  0.49865780  1
  Mn  Mn7  1  1.00006555  0.25000000  0.50013166  1
  Mn  Mn8  1  0.50000000  0.50000000  0.50000000  1
  Mn  Mn9  1  0.49992056  0.37709800  0.99588344  1
  Mn  Mn10  1  0.49757143  0.62554319  0.50134220  1
  Mn  Mn11  1  0.00000000  0.50000000  0.50000000  1
  Mn  Mn12  1  0.50032887  0.75000000  0.49986834  1
  Mn  Mn13  1  0.50007944  0.62290200  0.00411656  1
  Mn  Mn14  1  0.50007944  0.87709800  0.49572456  1
  Mn  Mn15  1  -0.00006555  0.75000000  0.49986834  1
  Mn  Mn16  1  0.49757143  0.87445681  0.00351494  1
  Mn  Mn17  1  0.00000000  0.00000000  0.50000000  1
  O  O18  1  0.26897756  0.11734208  0.24633828  1
  O  O19  1  0.29627710  0.99982068  0.73870260  1
  O  O20  1  0.26643105  0.25000000  0.26235653  1
  O  O21  1  0.73299621  0.10820118  0.30060144  1
  O  O22  1  0.26621912  0.35890375  0.26597337  1
  O  O23  1  0.26621912  0.14109625  0.70158839  1
  O  O24  1  0.70885589  0.25000000  0.26235653  1
  O  O25  1  0.72703498  0.99982068  0.73870260  1
  O  O26  1  0.29888721  0.25000000  0.73294445  1
  O  O27  1  0.27296502  0.49982068  0.26201467  1
  O  O28  1  0.73646222  0.14078930  0.73195918  1
  O  O29  1  0.73646222  0.35921070  0.29511637  1
  O  O30  1  0.26700379  0.60820118  0.26659385  1
  O  O31  1  0.26897756  0.38265792  0.71570659  1
  O  O32  1  0.70372290  0.49982068  0.26201467  1
  O  O33  1  0.73522389  0.25000000  0.73294445  1
  O  O34  1  0.29627710  0.50017932  0.73798533  1
  O  O35  1  0.26477611  0.75000000  0.26705555  1
  O  O36  1  0.73299621  0.39179882  0.73340615  1
  O  O37  1  0.73102244  0.61734208  0.28429341  1
  O  O38  1  0.26353778  0.85921070  0.26804082  1
  O  O39  1  0.26353778  0.64078930  0.70488363  1
  O  O40  1  0.70111279  0.75000000  0.26705555  1
  O  O41  1  0.72703498  0.50017932  0.73798533  1
  O  O42  1  0.29114411  0.75000000  0.73764347  1
  O  O43  1  0.27296502  0.00017932  0.26129740  1
  O  O44  1  0.73378088  0.64109625  0.73402663  1
  O  O45  1  0.73378088  0.85890375  0.29841161  1
  O  O46  1  0.26700379  0.89179882  0.69939856  1
  O  O47  1  0.70372290  0.00017932  0.26129740  1
  O  O48  1  0.73356895  0.75000000  0.73764347  1
  O  O49  1  0.73102244  0.88265792  0.75366172  1
