# generated using pymatgen
data_Zr4N2O5
_symmetry_space_group_name_H-M   'P 1'
_cell_length_a   8.91289713
_cell_length_b   8.90680788
_cell_length_c   8.89590848
_cell_angle_alpha   109.36763890
_cell_angle_beta   109.39859906
_cell_angle_gamma   109.70653914
_symmetry_Int_Tables_number   1
_chemical_formula_structural   Zr4N2O5
_chemical_formula_sum   'Zr16 N8 O20'
_cell_volume   543.23614658
_cell_formula_units_Z   4
loop_
 _symmetry_equiv_pos_site_id
 _symmetry_equiv_pos_as_xyz
  1  'x, y, z'
loop_
 _atom_site_type_symbol
 _atom_site_label
 _atom_site_symmetry_multiplicity
 _atom_site_fract_x
 _atom_site_fract_y
 _atom_site_fract_z
 _atom_site_occupancy
  N  N0  1  0.02273407  0.52211547  0.77264668  1
  N  N1  1  0.49811023  0.99616470  0.28412095  1
  N  N2  1  0.49575749  0.46530971  0.73110470  1
  N  N3  1  0.26282001  0.23389839  0.26613214  1
  N  N4  1  0.96550158  0.99869135  0.73542843  1
  N  N5  1  0.71315176  0.21413213  0.71773302  1
  N  N6  1  0.99902833  0.71708402  0.49769032  1
  N  N7  1  0.74821009  0.24793240  0.22688723  1
  O  O8  1  0.23863486  0.96203510  0.96566091  1
  O  O9  1  0.00618287  0.76589666  0.02976616  1
  O  O10  1  0.21714021  0.50089285  0.50024756  1
  O  O11  1  0.20050965  0.70174180  0.26154785  1
  O  O12  1  0.44106802  0.93864912  0.73829591  1
  O  O13  1  0.46590163  0.73755810  0.96678687  1
  O  O14  1  0.23127490  0.25995531  0.75382707  1
  O  O15  1  0.25200829  0.02256011  0.50063528  1
  O  O16  1  0.47361516  0.23427563  0.96798136  1
  O  O17  1  0.26652583  0.50428470  0.02947194  1
  O  O18  1  0.73781251  0.97588563  0.97059614  1
  O  O19  1  0.51670637  0.74669038  0.49925477  1
  O  O20  1  0.75996656  0.73089952  0.75389829  1
  O  O21  1  0.51085752  0.48121776  0.24622018  1
  O  O22  1  0.73229195  0.76650931  0.26920985  1
  O  O23  1  0.70546728  0.44388350  0.50092460  1
  O  O24  1  0.76925963  0.50054165  0.03718982  1
  O  O25  1  0.94710149  0.20600902  0.49917181  1
  O  O26  1  0.99747424  0.27606551  0.03734902  1
  O  O27  1  0.97367478  0.99883295  0.24631845  1
  Zr  Zr28  1  0.00054607  0.27058153  0.78320977  1
  Zr  Zr29  1  0.21257309  0.25214039  0.49756637  1
  Zr  Zr30  1  0.46519341  0.96485682  0.50083119  1
  Zr  Zr31  1  0.20881348  0.00288198  0.73465698  1
  Zr  Zr32  1  0.24341792  0.74400537  0.04266688  1
  Zr  Zr33  1  0.00556615  0.00553196  0.00136880  1
  Zr  Zr34  1  0.27486083  0.47755161  0.26074183  1
  Zr  Zr35  1  0.51214306  0.71696812  0.73979852  1
  Zr  Zr36  1  0.72065837  0.99631052  0.21918340  1
  Zr  Zr37  1  0.69886619  0.19955846  0.95603164  1
  Zr  Zr38  1  0.49395792  0.49330559  0.98528011  1
  Zr  Zr39  1  0.48707408  0.22076918  0.21635768  1
  Zr  Zr40  1  0.77222742  0.50242740  0.78418708  1
  Zr  Zr41  1  0.75983362  0.71407926  0.50571568  1
  Zr  Zr42  1  0.98101060  0.76870880  0.26519397  1
  Zr  Zr43  1  0.95527049  0.46141022  0.50111278  1
