# generated using pymatgen
data_Y2S3
_symmetry_space_group_name_H-M   'P 1'
_cell_length_a   21.67361605
_cell_length_b   8.35316671
_cell_length_c   8.35316753
_cell_angle_alpha   90.00000206
_cell_angle_beta   54.68222888
_cell_angle_gamma   54.68222506
_symmetry_Int_Tables_number   1
_chemical_formula_structural   Y2S3
_chemical_formula_sum   'Y16 S24'
_cell_volume   870.81354768
_cell_formula_units_Z   8
loop_
 _symmetry_equiv_pos_site_id
 _symmetry_equiv_pos_as_xyz
  1  'x, y, z'
loop_
 _atom_site_type_symbol
 _atom_site_label
 _atom_site_symmetry_multiplicity
 _atom_site_fract_x
 _atom_site_fract_y
 _atom_site_fract_z
 _atom_site_occupancy
  S  S0  1  0.04794645  0.99743453  0.36263549  1
  S  S1  1  0.12906512  0.48623717  0.99013763  1
  S  S2  1  0.04794645  0.35872511  0.49352415  1
  S  S3  1  0.28538655  0.14127489  0.13736451  1
  S  S4  1  0.28538655  0.50256547  0.00647585  1
  S  S5  1  0.12906512  0.62656647  0.62266601  1
  S  S6  1  0.38201446  0.00315650  0.34777838  1
  S  S7  1  0.20426788  0.87343353  0.50986237  1
  S  S8  1  0.45131954  0.49382077  0.99684350  1
  S  S9  1  0.38201446  0.35080111  0.50617923  1
  S  S10  1  0.20426788  0.01376283  0.87733399  1
  S  S11  1  0.62906512  0.12266601  0.12656647  1
  S  S12  1  0.62906512  0.49013763  0.98623717  1
  S  S13  1  0.45131954  0.65222162  0.64919889  1
  S  S14  1  0.70426788  0.00986237  0.37343353  1
  S  S15  1  0.54794645  0.86263549  0.49743453  1
  S  S16  1  0.78538655  0.50647585  0.00256547  1
  S  S17  1  0.70426788  0.37733399  0.51376283  1
  S  S18  1  0.54794645  0.99352415  0.85872511  1
  S  S19  1  0.95131954  0.14919889  0.15222162  1
  S  S20  1  0.95131954  0.49684350  0.99382077  1
  S  S21  1  0.78538655  0.63736451  0.64127489  1
  S  S22  1  0.88201446  0.84777838  0.50315650  1
  S  S23  1  0.88201446  0.00617923  0.85080111  1
  Y  Y24  1  0.99390126  0.39868761  0.24885108  1
  Y  Y25  1  0.99390126  0.11960861  0.76944515  1
  Y  Y26  1  0.08689002  0.61966447  0.36966447  1
  Y  Y27  1  0.16666700  0.25000000  0.63160294  1
  Y  Y28  1  0.33943174  0.38039139  0.25114892  1
  Y  Y29  1  0.24644298  0.88033553  0.13033553  1
  Y  Y30  1  0.16666700  0.75000000  0.86839706  1
  Y  Y31  1  0.33943174  0.10131239  0.73055485  1
  Y  Y32  1  0.49390126  0.26944515  0.61960861  1
  Y  Y33  1  0.58689002  0.86966447  0.11966447  1
  Y  Y34  1  0.66666700  0.36839706  0.25000000  1
  Y  Y35  1  0.66666700  0.13160294  0.75000000  1
  Y  Y36  1  0.49390126  0.74885108  0.89868761  1
  Y  Y37  1  0.74644298  0.63033553  0.38033553  1
  Y  Y38  1  0.83943174  0.23055485  0.60131239  1
  Y  Y39  1  0.83943174  0.75114892  0.88039139  1
