# generated using pymatgen
data_Li6NCl3
_symmetry_space_group_name_H-M   'P 1'
_cell_length_a   3.73818154
_cell_length_b   3.74088079
_cell_length_c   15.97350552
_cell_angle_alpha   61.34359907
_cell_angle_beta   61.63565244
_cell_angle_gamma   60.06309982
_symmetry_Int_Tables_number   1
_chemical_formula_structural   Li6NCl3
_chemical_formula_sum   'Li6 N1 Cl3'
_cell_volume   161.49137109
_cell_formula_units_Z   1
loop_
 _symmetry_equiv_pos_site_id
 _symmetry_equiv_pos_as_xyz
  1  'x, y, z'
loop_
 _atom_site_type_symbol
 _atom_site_label
 _atom_site_symmetry_multiplicity
 _atom_site_fract_x
 _atom_site_fract_y
 _atom_site_fract_z
 _atom_site_occupancy
  Cl  Cl0  1  0.03371397  0.00391055  0.24320264  1
  Cl  Cl1  1  0.03434672  0.03126338  0.49388329  1
  Cl  Cl2  1  0.02810003  0.02431654  0.74772911  1
  Li  Li3  1  0.31626491  0.29239023  0.03242431  1
  Li  Li4  1  0.81037686  0.78119888  0.16157264  1
  Li  Li5  1  0.20190722  0.18181932  0.87147438  1
  Li  Li6  1  0.80787578  0.80630580  0.41492814  1
  Li  Li7  1  0.80613771  0.80423035  0.66531791  1
  Li  Li8  1  0.69066293  0.66709991  0.00238931  1
  N  N9  1  0.01061388  0.98746505  0.01207826  1
