# generated using pymatgen
data_Nb4Cr2Si5
_symmetry_space_group_name_H-M   'P 1'
_cell_length_a   4.95731670
_cell_length_b   7.88654395
_cell_length_c   9.38611381
_cell_angle_alpha   114.84201473
_cell_angle_beta   105.31212518
_cell_angle_gamma   90.00000000
_symmetry_Int_Tables_number   1
_chemical_formula_structural   Nb4Cr2Si5
_chemical_formula_sum   'Nb8 Cr4 Si10'
_cell_volume   318.59358417
_cell_formula_units_Z   2
loop_
 _symmetry_equiv_pos_site_id
 _symmetry_equiv_pos_as_xyz
  1  'x, y, z'
loop_
 _atom_site_type_symbol
 _atom_site_label
 _atom_site_symmetry_multiplicity
 _atom_site_fract_x
 _atom_site_fract_y
 _atom_site_fract_z
 _atom_site_occupancy
  Si  Si0  1  0.25000000  0.00000000  0.00000000  1
  Si  Si1  1  0.75000000  0.00000000  0.00000000  1
  Si  Si2  1  0.57050082  0.65269235  0.14100163  1
  Si  Si3  1  0.42949918  0.34730765  0.85899837  1
  Si  Si4  1  0.92949918  0.51169071  0.85899837  1
  Si  Si5  1  0.07050082  0.48830929  0.14100163  1
  Si  Si6  1  0.78207998  0.98809777  0.56415996  1
  Si  Si7  1  0.21792002  0.01190223  0.43584004  1
  Si  Si8  1  0.28207998  0.57606219  0.56415996  1
  Si  Si9  1  0.71792002  0.42393781  0.43584004  1
  Cr  Cr10  1  0.94340090  0.69340090  0.38680181  1
  Cr  Cr11  1  0.55659910  0.30659910  0.61319819  1
  Cr  Cr12  1  0.05659910  0.30659910  0.61319819  1
  Cr  Cr13  1  0.44340090  0.69340090  0.38680181  1
  Nb  Nb14  1  0.93669580  0.19250783  0.87339160  1
  Nb  Nb15  1  0.06330420  0.80749217  0.12660840  1
  Nb  Nb16  1  0.56330420  0.31911623  0.12660840  1
  Nb  Nb17  1  0.43669580  0.68088377  0.87339160  1
  Nb  Nb18  1  0.64349498  0.03016559  0.28698995  1
  Nb  Nb19  1  0.35650502  0.96983441  0.71301005  1
  Nb  Nb20  1  0.85650502  0.74317564  0.71301005  1
  Nb  Nb21  1  0.14349498  0.25682436  0.28698995  1
