# generated using pymatgen
data_Ho2S3
_symmetry_space_group_name_H-M   'P 1'
_cell_length_a   21.50645053
_cell_length_b   8.28668268
_cell_length_c   8.28668315
_cell_angle_alpha   89.99999839
_cell_angle_beta   54.69230374
_cell_angle_gamma   54.69230144
_symmetry_Int_Tables_number   1
_chemical_formula_structural   Ho2S3
_chemical_formula_sum   'Ho16 S24'
_cell_volume   850.82226885
_cell_formula_units_Z   8
loop_
 _symmetry_equiv_pos_site_id
 _symmetry_equiv_pos_as_xyz
  1  'x, y, z'
loop_
 _atom_site_type_symbol
 _atom_site_label
 _atom_site_symmetry_multiplicity
 _atom_site_fract_x
 _atom_site_fract_y
 _atom_site_fract_z
 _atom_site_occupancy
  Ho  Ho0  1  0.08518666  0.62221951  0.37221951  1
  Ho  Ho1  1  0.16666700  0.25000000  0.63141812  1
  Ho  Ho2  1  0.33877386  0.38019716  0.25136757  1
  Ho  Ho3  1  0.24814634  0.87778049  0.12778049  1
  Ho  Ho4  1  0.16666700  0.75000000  0.86858188  1
  Ho  Ho5  1  0.33877386  0.10348025  0.73230983  1
  Ho  Ho6  1  0.49455914  0.26769017  0.61980284  1
  Ho  Ho7  1  0.66666700  0.36858188  0.25000000  1
  Ho  Ho8  1  0.58518666  0.87221951  0.12221951  1
  Ho  Ho9  1  0.66666700  0.13141812  0.75000000  1
  Ho  Ho10  1  0.49455914  0.74863243  0.89651975  1
  Ho  Ho11  1  0.74814634  0.62778049  0.37778049  1
  Ho  Ho12  1  0.83877386  0.23230983  0.60348025  1
  Ho  Ho13  1  0.99455914  0.39651975  0.24863243  1
  Ho  Ho14  1  0.99455914  0.11980284  0.76769017  1
  Ho  Ho15  1  0.83877386  0.75136757  0.88019716  1
  S  S16  1  0.12818861  0.48735532  0.99144146  1
  S  S17  1  0.04805911  0.35782759  0.49430660  1
  S  S18  1  0.04805911  0.99799408  0.36151507  1
  S  S19  1  0.28527389  0.14217241  0.13848493  1
  S  S20  1  0.28527389  0.50200592  0.00569340  1
  S  S21  1  0.20514439  0.01264468  0.87600830  1
  S  S22  1  0.12818861  0.62807785  0.62399170  1
  S  S23  1  0.20514439  0.87192215  0.50855854  1
  S  S24  1  0.45133713  0.49404347  0.99689601  1
  S  S25  1  0.38199687  0.35090639  0.50595653  1
  S  S26  1  0.62818861  0.12399170  0.12807785  1
  S  S27  1  0.38199687  0.00310399  0.34805386  1
  S  S28  1  0.62818861  0.49144146  0.98735532  1
  S  S29  1  0.45133713  0.65194614  0.64909361  1
  S  S30  1  0.54805911  0.99430660  0.85782759  1
  S  S31  1  0.54805911  0.86151507  0.49799408  1
  S  S32  1  0.78527389  0.50569340  0.00200592  1
  S  S33  1  0.70514439  0.37600830  0.51264468  1
  S  S34  1  0.70514439  0.00855854  0.37192215  1
  S  S35  1  0.95133713  0.14909361  0.15194614  1
  S  S36  1  0.95133713  0.49689601  0.99404347  1
  S  S37  1  0.88199687  0.00595653  0.85090639  1
  S  S38  1  0.78527389  0.63848493  0.64217241  1
  S  S39  1  0.88199687  0.84805386  0.50310399  1
