# generated using pymatgen
data_LiMn3O4
_symmetry_space_group_name_H-M   'P 1'
_cell_length_a   6.07171005
_cell_length_b   6.07170939
_cell_length_c   6.29578119
_cell_angle_alpha   119.52049196
_cell_angle_beta   119.52048819
_cell_angle_gamma   88.51347964
_symmetry_Int_Tables_number   1
_chemical_formula_structural   LiMn3O4
_chemical_formula_sum   'Li2 Mn6 O8'
_cell_volume   168.38691790
_cell_formula_units_Z   2
loop_
 _symmetry_equiv_pos_site_id
 _symmetry_equiv_pos_as_xyz
  1  'x, y, z'
loop_
 _atom_site_type_symbol
 _atom_site_label
 _atom_site_symmetry_multiplicity
 _atom_site_fract_x
 _atom_site_fract_y
 _atom_site_fract_z
 _atom_site_occupancy
  Li  Li0  1  0.00000000  0.50000000  0.00000000  1
  Li  Li1  1  0.50000000  0.00000000  0.50000000  1
  Mn  Mn2  1  0.00000000  0.00000000  0.00000000  1
  Mn  Mn3  1  0.50000000  0.50000000  0.00000000  1
  Mn  Mn4  1  0.50000000  0.50000000  0.50000000  1
  Mn  Mn5  1  0.50000000  0.00000000  0.00000000  1
  Mn  Mn6  1  0.00000000  0.50000000  0.50000000  1
  Mn  Mn7  1  0.00000000  0.00000000  0.50000000  1
  O  O8  1  0.26294779  0.76164378  0.00037797  1
  O  O9  1  0.24598642  0.25264694  0.49743627  1
  O  O10  1  0.23835622  0.73705221  0.49962203  1
  O  O11  1  0.74735306  0.75401358  0.00256373  1
  O  O12  1  0.25264694  0.24598642  0.99743627  1
  O  O13  1  0.76164378  0.26294779  0.50037797  1
  O  O14  1  0.75401358  0.74735306  0.50256373  1
  O  O15  1  0.73705221  0.23835622  -0.00037797  1
