# generated using pymatgen
data_NdCu(WO4)2
_symmetry_space_group_name_H-M   'P 1'
_cell_length_a   5.14106618
_cell_length_b   6.10273141
_cell_length_c   6.32946800
_cell_angle_alpha   108.33533758
_cell_angle_beta   92.28485676
_cell_angle_gamma   112.28572451
_symmetry_Int_Tables_number   1
_chemical_formula_structural   NdCu(WO4)2
_chemical_formula_sum   'Nd1 Cu1 W2 O8'
_cell_volume   171.53433394
_cell_formula_units_Z   1
loop_
 _symmetry_equiv_pos_site_id
 _symmetry_equiv_pos_as_xyz
  1  'x, y, z'
loop_
 _atom_site_type_symbol
 _atom_site_label
 _atom_site_symmetry_multiplicity
 _atom_site_fract_x
 _atom_site_fract_y
 _atom_site_fract_z
 _atom_site_occupancy
  O  O0  1  0.87075924  0.16796701  0.36150308  1
  O  O1  1  0.34674542  0.64221302  0.49944074  1
  O  O2  1  0.84197528  0.19863319  0.80016864  1
  O  O3  1  0.39396629  0.58599260  0.93761184  1
  O  O4  1  0.39583400  0.15511109  0.04943597  1
  O  O5  1  0.87176928  0.62947462  0.18751366  1
  O  O6  1  0.34860779  0.21136549  0.61132329  1
  O  O7  1  0.90075913  0.59887377  0.74888372  1
  Cu  Cu8  1  0.87167194  0.89888861  0.77459799  1
  Nd  Nd9  1  0.37136706  0.89864950  0.27444044  1
  W  W10  1  0.12203906  0.41293533  0.61385265  1
  W  W11  1  0.62060549  0.38449578  0.93512799  1
