# generated using pymatgen
data_Nb4GaS8
_symmetry_space_group_name_H-M   'P 1'
_cell_length_a   7.13027077
_cell_length_b   7.13027077
_cell_length_c   7.13027077
_cell_angle_alpha   90.15067966
_cell_angle_beta   119.91304322
_cell_angle_gamma   119.91304322
_symmetry_Int_Tables_number   1
_chemical_formula_structural   Nb4GaS8
_chemical_formula_sum   'Nb4 Ga1 S8'
_cell_volume   256.66809270
_cell_formula_units_Z   1
loop_
 _symmetry_equiv_pos_site_id
 _symmetry_equiv_pos_as_xyz
  1  'x, y, z'
loop_
 _atom_site_type_symbol
 _atom_site_label
 _atom_site_symmetry_multiplicity
 _atom_site_fract_x
 _atom_site_fract_y
 _atom_site_fract_z
 _atom_site_occupancy
  Nb  Nb0  1  0.71041836  0.35467660  0.64425824  1
  Nb  Nb1  1  0.28958164  0.35574176  0.64532340  1
  Nb  Nb2  1  0.28958164  0.93383988  0.64425824  1
  Nb  Nb3  1  0.71041836  0.35574176  0.06616012  1
  Ga  Ga4  1  0.50000000  0.75000000  0.25000000  1
  S  S5  1  0.23587270  0.11826326  0.35413596  1
  S  S6  1  0.76412730  0.64586404  0.88173674  1
  S  S7  1  0.76412730  0.11826326  0.88239056  1
  S  S8  1  0.23587270  0.11760944  0.88173674  1
  S  S9  1  0.76677041  0.14931750  0.38254708  1
  S  S10  1  0.23322959  0.61745292  0.85068250  1
  S  S11  1  0.23322959  0.61577667  0.38254708  1
  S  S12  1  0.76677041  0.61745292  0.38422333  1
