# generated using pymatgen
data_Li3Fe2(PO4)3
_symmetry_space_group_name_H-M   'P 1'
_cell_length_a   8.49230751
_cell_length_b   8.76116041
_cell_length_c   12.33330622
_cell_angle_alpha   89.99999416
_cell_angle_beta   88.02835963
_cell_angle_gamma   90.00052563
_symmetry_Int_Tables_number   1
_chemical_formula_structural   Li3Fe2(PO4)3
_chemical_formula_sum   'Li12 Fe8 P12 O48'
_cell_volume   917.08516965
_cell_formula_units_Z   4
loop_
 _symmetry_equiv_pos_site_id
 _symmetry_equiv_pos_as_xyz
  1  'x, y, z'
loop_
 _atom_site_type_symbol
 _atom_site_label
 _atom_site_symmetry_multiplicity
 _atom_site_fract_x
 _atom_site_fract_y
 _atom_site_fract_z
 _atom_site_occupancy
  Li  Li0  1  0.74429552  0.19120347  0.93924313  1
  Li  Li1  1  0.25570732  0.80878330  0.06075538  1
  Li  Li2  1  0.49999156  0.50000555  1.00000032  1
  Li  Li3  1  0.99999802  -0.00000128  0.99999910  1
  Li  Li4  1  1.00000159  0.10417519  0.24999781  1
  Li  Li5  1  0.49999808  0.40054722  0.24999698  1
  Li  Li6  1  0.74430134  0.80878070  0.43924442  1
  Li  Li7  1  0.50000312  0.50000460  0.49999806  1
  Li  Li8  1  0.99999960  0.00000092  0.49999979  1
  Li  Li9  1  0.99999973  0.89582219  0.74999561  1
  Li  Li10  1  0.50001040  0.59945610  0.74999833  1
  Li  Li11  1  0.25570452  0.19122094  0.56075650  1
  O  O12  1  0.06554890  0.09195632  0.83873761  1
  O  O13  1  0.33501746  0.31676253  0.08259696  1
  O  O14  1  0.37615192  0.80638350  0.30825292  1
  O  O15  1  0.62384995  0.80638150  0.19174500  1
  O  O16  1  0.43143102  0.59863801  0.16193178  1
  O  O17  1  0.06554835  0.90804282  0.33873672  1
  O  O18  1  0.12819950  0.70475776  0.18992917  1
  O  O19  1  0.00435245  0.42833632  0.11280246  1
  O  O20  1  0.99564365  0.57166367  0.88719653  1
  O  O21  1  0.87180140  0.29523902  0.81007308  1
  O  O22  1  0.93445079  0.09195838  0.66126041  1
  O  O23  1  0.56856490  0.40135989  0.83806957  1
  O  O24  1  0.37614851  0.19361330  0.80825164  1
  O  O25  1  0.62384949  0.19362692  0.69174723  1
  O  O26  1  0.66497928  0.68324126  0.91740495  1
  O  O27  1  0.74487596  0.95310678  0.98242081  1
  O  O28  1  0.25568410  0.58853541  0.99200585  1
  O  O29  1  0.25512432  0.04689350  0.01758114  1
  O  O30  1  0.74487792  0.04689544  0.48241985  1
  O  O31  1  0.74126965  0.59675203  0.71046688  1
  O  O32  1  0.48249881  0.89744278  0.89181381  1
  O  O33  1  0.74844076  0.90170685  0.78840688  1
  O  O34  1  0.43143579  0.40136496  0.66193580  1
  O  O35  1  0.99564536  0.42833302  0.38719126  1
  O  O36  1  0.25874022  0.59676343  0.78953758  1
  O  O37  1  0.12819742  0.29524860  0.68993259  1
  O  O38  1  0.85972447  0.81660362  0.59210310  1
  O  O39  1  0.74844265  0.09829397  0.28840632  1
  O  O40  1  0.48250111  0.10255808  0.39181303  1
  O  O41  1  0.74431728  0.58853180  0.50799656  1
  O  O42  1  0.66498379  0.31675953  0.41740114  1
  O  O43  1  0.14026906  0.81660266  0.90790154  1
  O  O44  1  0.85973110  0.18339391  0.09210033  1
  O  O45  1  0.33502242  0.68324223  0.58259790  1
  O  O46  1  0.25568644  0.41146833  0.49200360  1
  O  O47  1  0.51750104  0.89744656  0.60818383  1
  O  O48  1  0.25155986  0.90170870  0.71159520  1
  O  O49  1  0.14027408  0.18339772  0.40789917  1
  O  O50  1  0.87180346  0.70475437  0.31006547  1
  O  O51  1  0.74125977  0.40323416  0.21046474  1
  O  O52  1  0.74430540  0.41145740  0.00799898  1
  O  O53  1  0.56856854  0.59863584  0.33806381  1
  O  O54  1  0.25156201  0.09829431  0.21159253  1
  O  O55  1  0.51749955  0.10256396  0.10818297  1
  O  O56  1  0.25874052  0.40324004  0.28953564  1
  O  O57  1  0.25512321  0.95310868  0.51757846  1
  O  O58  1  0.93445044  0.90804594  0.16125980  1
  O  O59  1  0.00436331  0.57167053  0.61280341  1
  P  P60  1  0.16039346  0.63996955  0.89282731  1
  P  P61  1  1.00000099  0.20050936  0.75000142  1
  P  P62  1  0.65870398  0.14276160  0.39522452  1
  P  P63  1  0.34129773  0.85724322  0.60477659  1
  P  P64  1  0.00000172  0.79949251  0.24999690  1
  P  P65  1  0.83960469  0.36002385  0.10717637  1
  P  P66  1  0.16039749  0.36003246  0.39282626  1
  P  P67  1  0.34129801  0.14276323  0.10477550  1
  P  P68  1  0.49999626  0.29380437  0.75000193  1
  P  P69  1  0.65870345  0.85723987  0.89522555  1
  P  P70  1  0.83960609  0.63996923  0.60717891  1
  P  P71  1  0.49999883  0.70619900  0.24999945  1
  Fe  Fe72  1  0.71242445  0.99811648  0.14523504  1
  Fe  Fe73  1  0.21115060  0.49806128  0.14422384  1
  Fe  Fe74  1  0.28754483  0.99811439  0.35475226  1
  Fe  Fe75  1  0.78884882  0.49806288  0.35578867  1
  Fe  Fe76  1  0.21118476  0.50191983  0.64422457  1
  Fe  Fe77  1  0.71243827  0.00189395  0.64523720  1
  Fe  Fe78  1  0.78883941  0.50192992  0.85578632  1
  Fe  Fe79  1  0.28753397  0.00187976  0.85477198  1
