# generated using pymatgen
data_LuCu(WO4)2
_symmetry_space_group_name_H-M   'P 1'
_cell_length_a   5.08129278
_cell_length_b   5.94578514
_cell_length_c   9.88429686
_cell_angle_alpha   90.00000000
_cell_angle_beta   92.30754315
_cell_angle_gamma   90.00000000
_symmetry_Int_Tables_number   1
_chemical_formula_structural   LuCu(WO4)2
_chemical_formula_sum   'Lu2 Cu2 W4 O16'
_cell_volume   298.38493995
_cell_formula_units_Z   2
loop_
 _symmetry_equiv_pos_site_id
 _symmetry_equiv_pos_as_xyz
  1  'x, y, z'
loop_
 _atom_site_type_symbol
 _atom_site_label
 _atom_site_symmetry_multiplicity
 _atom_site_fract_x
 _atom_site_fract_y
 _atom_site_fract_z
 _atom_site_occupancy
  O  O0  1  0.40166411  0.36601711  0.13448390  1
  O  O1  1  0.09833689  0.36601711  0.36551610  1
  O  O2  1  0.59833589  0.63398189  0.86551510  1
  O  O3  1  0.90166311  0.63398189  0.63448390  1
  O  O4  1  0.44605470  0.90607833  0.61054727  1
  O  O5  1  0.05394530  0.90607833  0.88945273  1
  O  O6  1  0.55394530  0.09392067  0.38945273  1
  O  O7  1  0.94605470  0.09392067  0.11054727  1
  O  O8  1  0.89802835  0.63570502  0.11656044  1
  O  O9  1  0.60197065  0.63570502  0.38343956  1
  O  O10  1  0.10197165  0.36429598  0.88343956  1
  O  O11  1  0.39802935  0.36429598  0.61656044  1
  O  O12  1  0.43428732  0.88610735  0.09935431  1
  O  O13  1  0.56571268  0.11389265  0.90064569  1
  O  O14  1  0.06571168  0.88610735  0.40064569  1
  O  O15  1  0.93428832  0.11389265  0.59935431  1
  Cu  Cu16  1  0.25000100  0.70601387  0.75000000  1
  Cu  Cu17  1  0.74999900  0.29398613  0.25000000  1
  Lu  Lu18  1  0.75000000  0.33634518  0.75000000  1
  Lu  Lu19  1  0.25000100  0.66365582  0.25000000  1
  W  W20  1  0.24809434  0.16942493  0.00940368  1
  W  W21  1  0.75190566  0.83057407  0.99059632  1
  W  W22  1  0.25190466  0.16942493  0.49059532  1
  W  W23  1  0.74809534  0.83057407  0.50940368  1
