# generated using pymatgen
data_Pr2Co7B3
_symmetry_space_group_name_H-M   'P 1'
_cell_length_a   5.15105818
_cell_length_b   5.15105818
_cell_length_c   12.73249366
_cell_angle_alpha   90.00000000
_cell_angle_beta   90.00000000
_cell_angle_gamma   120.00000000
_symmetry_Int_Tables_number   1
_chemical_formula_structural   Pr2Co7B3
_chemical_formula_sum   'Pr4 Co14 B6'
_cell_volume   292.57486317
_cell_formula_units_Z   2
loop_
 _symmetry_equiv_pos_site_id
 _symmetry_equiv_pos_as_xyz
  1  'x, y, z'
loop_
 _atom_site_type_symbol
 _atom_site_label
 _atom_site_symmetry_multiplicity
 _atom_site_fract_x
 _atom_site_fract_y
 _atom_site_fract_z
 _atom_site_occupancy
  B  B0  1  0.33333333  0.66666667  0.73106527  1
  B  B1  1  0.66666667  0.33333333  0.73106527  1
  B  B2  1  0.66666667  0.33333333  0.26893473  1
  B  B3  1  0.33333333  0.66666667  0.26893473  1
  B  B4  1  0.66666667  0.33333333  0.50000000  1
  B  B5  1  0.33333333  0.66666667  0.50000000  1
  Co  Co6  1  0.50000000  0.50000000  0.15687376  1
  Co  Co7  1  0.50000000  0.00000000  0.84312624  1
  Co  Co8  1  0.50000000  0.50000000  0.84312624  1
  Co  Co9  1  0.00000000  0.50000000  0.15687376  1
  Co  Co10  1  0.50000000  0.00000000  0.38495444  1
  Co  Co11  1  0.50000000  0.50000000  0.38495444  1
  Co  Co12  1  0.00000000  0.50000000  0.38495444  1
  Co  Co13  1  0.50000000  0.00000000  0.61504556  1
  Co  Co14  1  0.50000000  0.50000000  0.61504556  1
  Co  Co15  1  0.00000000  0.50000000  0.61504556  1
  Co  Co16  1  0.33333333  0.66666667  0.00000000  1
  Co  Co17  1  0.66666667  0.33333333  0.00000000  1
  Co  Co18  1  0.00000000  0.50000000  0.84312624  1
  Co  Co19  1  0.50000000  0.00000000  0.15687376  1
  Pr  Pr20  1  0.00000000  0.00000000  0.73998642  1
  Pr  Pr21  1  0.00000000  0.00000000  0.26001358  1
  Pr  Pr22  1  0.00000000  0.00000000  0.50000000  1
  Pr  Pr23  1  0.00000000  0.00000000  0.00000000  1
