# generated using pymatgen
data_MnCr3Te4
_symmetry_space_group_name_H-M   'P 1'
_cell_length_a   4.14537120
_cell_length_b   7.17846567
_cell_length_c   6.17283549
_cell_angle_alpha   89.99537403
_cell_angle_beta   90.03339444
_cell_angle_gamma   90.00396101
_symmetry_Int_Tables_number   1
_chemical_formula_structural   MnCr3Te4
_chemical_formula_sum   'Mn1 Cr3 Te4'
_cell_volume   183.68753266
_cell_formula_units_Z   1
loop_
 _symmetry_equiv_pos_site_id
 _symmetry_equiv_pos_as_xyz
  1  'x, y, z'
loop_
 _atom_site_type_symbol
 _atom_site_label
 _atom_site_symmetry_multiplicity
 _atom_site_fract_x
 _atom_site_fract_y
 _atom_site_fract_z
 _atom_site_occupancy
  Mn  Mn0  1  0.00000000  -0.00000000  0.50000000  1
  Cr  Cr1  1  0.50000000  0.50000000  0.50000000  1
  Cr  Cr2  1  0.00000000  -0.00000000  -0.00000000  1
  Cr  Cr3  1  0.50000000  0.50000000  -0.00000000  1
  Te  Te4  1  0.50005485  0.16813672  0.75466345  1
  Te  Te5  1  0.99997930  0.66516689  0.75119272  1
  Te  Te6  1  0.00002070  0.33483311  0.24880728  1
  Te  Te7  1  0.49994515  0.83186328  0.24533655  1
