# generated using pymatgen
data_Na6TiMn(SiO3)6
_symmetry_space_group_name_H-M   'P 1'
_cell_length_a   7.34376374
_cell_length_b   7.34376346
_cell_length_c   7.34376424
_cell_angle_alpha   88.32128114
_cell_angle_beta   88.32128418
_cell_angle_gamma   88.32128397
_symmetry_Int_Tables_number   1
_chemical_formula_structural   Na6TiMn(SiO3)6
_chemical_formula_sum   'Na6 Ti1 Mn1 Si6 O18'
_cell_volume   395.55535177
_cell_formula_units_Z   1
loop_
 _symmetry_equiv_pos_site_id
 _symmetry_equiv_pos_as_xyz
  1  'x, y, z'
loop_
 _atom_site_type_symbol
 _atom_site_label
 _atom_site_symmetry_multiplicity
 _atom_site_fract_x
 _atom_site_fract_y
 _atom_site_fract_z
 _atom_site_occupancy
  Mn  Mn0  1  0.75608501  0.75608501  0.75608501  1
  Na  Na1  1  0.01068494  0.01068494  0.47638123  1
  Na  Na2  1  0.47638123  0.01068494  0.01068494  1
  Na  Na3  1  0.46248674  0.03632768  0.46248674  1
  Na  Na4  1  0.46248674  0.46248674  0.03632768  1
  Na  Na5  1  0.01068494  0.47638123  0.01068494  1
  Na  Na6  1  0.03632768  0.46248674  0.46248674  1
  O  O7  1  0.08280295  0.81790306  0.81790306  1
  O  O8  1  0.18054937  0.91198203  0.18054937  1
  O  O9  1  0.18054937  0.18054937  0.91198203  1
  O  O10  1  0.21477207  0.54383162  0.21477207  1
  O  O11  1  0.21477207  0.21477207  0.54383162  1
  O  O12  1  0.24386861  0.50177926  0.76409196  1
  O  O13  1  0.24386861  0.76409196  0.50177926  1
  O  O14  1  0.46382822  0.78788762  0.78788762  1
  O  O15  1  0.50177926  0.24386861  0.76409196  1
  O  O16  1  0.50177926  0.76409196  0.24386861  1
  O  O17  1  0.54383162  0.21477207  0.21477207  1
  O  O18  1  0.76409196  0.24386861  0.50177926  1
  O  O19  1  0.76409196  0.50177926  0.24386861  1
  O  O20  1  0.78788762  0.78788762  0.46382822  1
  O  O21  1  0.78788762  0.46382822  0.78788762  1
  O  O22  1  0.81790306  0.08280295  0.81790306  1
  O  O23  1  0.81790306  0.81790306  0.08280295  1
  O  O24  1  0.91198203  0.18054937  0.18054937  1
  Si  Si25  1  0.27918258  0.27918258  0.73328723  1
  Si  Si26  1  0.27918258  0.73328723  0.27918258  1
  Si  Si27  1  0.26697925  0.72448937  0.72448937  1
  Si  Si28  1  0.73328723  0.27918258  0.27918258  1
  Si  Si29  1  0.72448937  0.26697925  0.72448937  1
  Si  Si30  1  0.72448937  0.72448937  0.26697925  1
  Ti  Ti31  1  0.00930363  0.00930363  0.00930363  1
