# generated using pymatgen
data_LiNiPO4
_symmetry_space_group_name_H-M   'P 1'
_cell_length_a   4.94976148
_cell_length_b   9.94391066
_cell_length_c   6.92682417
_cell_angle_alpha   90.00000000
_cell_angle_beta   91.69611756
_cell_angle_gamma   90.00000000
_symmetry_Int_Tables_number   1
_chemical_formula_structural   LiNiPO4
_chemical_formula_sum   'Li4 Ni4 P4 O16'
_cell_volume   340.78881230
_cell_formula_units_Z   4
loop_
 _symmetry_equiv_pos_site_id
 _symmetry_equiv_pos_as_xyz
  1  'x, y, z'
loop_
 _atom_site_type_symbol
 _atom_site_label
 _atom_site_symmetry_multiplicity
 _atom_site_fract_x
 _atom_site_fract_y
 _atom_site_fract_z
 _atom_site_occupancy
  Li  Li0  1  0.80457291  0.84668925  0.50000844  1
  Li  Li1  1  0.69542709  0.34668925  -0.00000844  1
  Li  Li2  1  0.19542709  0.15331075  0.49999256  1
  Li  Li3  1  0.30457291  0.65331075  0.00000844  1
  Ni  Ni4  1  0.78541513  0.85006992  0.99975180  1
  Ni  Ni5  1  0.71458487  0.35006992  0.50024820  1
  Ni  Ni6  1  0.21458487  0.14993008  0.00024820  1
  Ni  Ni7  1  0.28541513  0.64993008  0.49975180  1
  P  P8  1  0.69727980  0.09532490  0.74891399  1
  P  P9  1  0.80272020  0.59532490  0.75108601  1
  P  P10  1  0.19727980  0.40467510  0.24891399  1
  P  P11  1  0.30272020  0.90467510  0.25108601  1
  O  O12  1  0.81858538  0.15797985  0.93892484  1
  O  O13  1  0.61367286  0.88119452  0.25137931  1
  O  O14  1  0.68787229  0.66191636  0.93374398  1
  O  O15  1  0.31212771  0.33808364  0.06625602  1
  O  O16  1  0.68141462  0.65797985  0.56107516  1
  O  O17  1  0.23474853  0.05741746  0.25537872  1
  O  O18  1  0.73474853  0.44258254  0.75537872  1
  O  O19  1  0.18787229  0.83808364  0.43374398  1
  O  O20  1  0.88632714  0.38119452  0.24862069  1
  O  O21  1  0.26525147  0.55741746  0.24462128  1
  O  O22  1  0.11367286  0.61880548  0.75137931  1
  O  O23  1  0.81212771  0.16191636  0.56625602  1
  O  O24  1  0.18141462  0.84202015  0.06107516  1
  O  O25  1  0.31858538  0.34202015  0.43892484  1
  O  O26  1  0.38632714  0.11880548  0.74862069  1
  O  O27  1  0.76525147  0.94258254  0.74462128  1
