# generated using pymatgen
data_LiNi(PO3)4
_symmetry_space_group_name_H-M   'P 1'
_cell_length_a   7.36240285
_cell_length_b   7.36240325
_cell_length_c   9.77763928
_cell_angle_alpha   82.31233043
_cell_angle_beta   68.84902272
_cell_angle_gamma   110.06871031
_symmetry_Int_Tables_number   1
_chemical_formula_structural   LiNi(PO3)4
_chemical_formula_sum   'Li2 Ni2 P8 O24'
_cell_volume   443.75400009
_cell_formula_units_Z   2
loop_
 _symmetry_equiv_pos_site_id
 _symmetry_equiv_pos_as_xyz
  1  'x, y, z'
loop_
 _atom_site_type_symbol
 _atom_site_label
 _atom_site_symmetry_multiplicity
 _atom_site_fract_x
 _atom_site_fract_y
 _atom_site_fract_z
 _atom_site_occupancy
  Li  Li0  1  0.19412346  0.94412346  0.75000000  1
  Li  Li1  1  0.80587654  0.05587654  0.25000000  1
  Ni  Ni2  1  0.00000000  0.50000000  0.00000000  1
  Ni  Ni3  1  0.00000000  0.00000000  0.50000000  1
  P  P4  1  0.50707577  0.69694733  0.80331760  1
  P  P5  1  0.73618782  0.27414330  0.52456354  1
  P  P6  1  0.99973507  0.68960662  0.30331760  1
  P  P7  1  0.29870684  0.26075136  0.97543646  1
  P  P8  1  0.49292423  0.30305267  0.19668240  1
  P  P9  1  0.70129316  0.73924864  0.02456354  1
  P  P10  1  0.26381218  0.72585670  0.47543646  1
  P  P11  1  0.00026493  0.31039338  0.69668240  1
  O  O12  1  0.49847810  0.15276040  0.59567781  1
  O  O13  1  0.80646700  0.31764130  0.65933593  1
  O  O14  1  0.70518822  0.29819330  0.17280014  1
  O  O15  1  0.52302376  0.53419707  0.15933593  1
  O  O16  1  0.95683110  0.33975307  0.85084955  1
  O  O17  1  0.50152190  0.84723960  0.40432219  1
  O  O18  1  0.30939738  0.19231935  0.35084955  1
  O  O19  1  0.69060262  0.80768065  0.64915045  1
  O  O20  1  0.19353300  0.68235870  0.34066407  1
  O  O21  1  0.21113278  0.50074088  0.56498259  1
  O  O22  1  0.29481178  0.70180670  0.82719986  1
  O  O23  1  0.04316890  0.66024693  0.14915045  1
  O  O24  1  0.88557622  0.70045619  0.92157324  1
  O  O25  1  0.43427653  0.22388463  0.06498259  1
  O  O26  1  0.75156179  0.90584309  0.09567781  1
  O  O27  1  0.12202842  0.80714945  0.57842676  1
  O  O28  1  0.11442378  0.29954381  0.07842676  1
  O  O29  1  0.02900656  0.12201164  0.67280014  1
  O  O30  1  0.97099344  0.87798836  0.32719986  1
  O  O31  1  0.87797158  0.19285055  0.42157324  1
  O  O32  1  0.47697624  0.46580293  0.84066407  1
  O  O33  1  0.78886722  0.49925912  0.43501741  1
  O  O34  1  0.24843821  0.09415591  0.90432219  1
  O  O35  1  0.56572347  0.77611537  0.93501741  1
