# generated using pymatgen
data_MnVCuO4
_symmetry_space_group_name_H-M   'P 1'
_cell_length_a   5.33045978
_cell_length_b   5.33045978
_cell_length_c   6.44529676
_cell_angle_alpha   90.00000000
_cell_angle_beta   90.00000000
_cell_angle_gamma   112.59769148
_symmetry_Int_Tables_number   1
_chemical_formula_structural   MnVCuO4
_chemical_formula_sum   'Mn2 V2 Cu2 O8'
_cell_volume   169.07529180
_cell_formula_units_Z   2
loop_
 _symmetry_equiv_pos_site_id
 _symmetry_equiv_pos_as_xyz
  1  'x, y, z'
loop_
 _atom_site_type_symbol
 _atom_site_label
 _atom_site_symmetry_multiplicity
 _atom_site_fract_x
 _atom_site_fract_y
 _atom_site_fract_z
 _atom_site_occupancy
  O  O0  1  0.24712715  0.75287285  0.97037124  1
  O  O1  1  0.75287285  0.24712715  0.47037124  1
  O  O2  1  0.75287285  0.24712715  0.02962876  1
  O  O3  1  0.24712715  0.75287285  0.52962876  1
  O  O4  1  0.23308773  0.27395401  0.75000000  1
  O  O5  1  0.76691227  0.72604599  0.25000000  1
  O  O6  1  0.72604599  0.76691227  0.75000000  1
  O  O7  1  0.27395401  0.23308773  0.25000000  1
  V  V8  1  0.36091282  0.63908718  0.75000000  1
  V  V9  1  0.63908718  0.36091282  0.25000000  1
  Mn  Mn10  1  0.00000000  0.00000000  0.00000000  1
  Mn  Mn11  1  0.00000000  0.00000000  0.50000000  1
  Cu  Cu12  1  0.67619835  0.32380165  0.75000000  1
  Cu  Cu13  1  0.32380165  0.67619835  0.25000000  1
