# generated using pymatgen
data_Li4Mn5(P3O11)2
_symmetry_space_group_name_H-M   'P 1'
_cell_length_a   12.79008763
_cell_length_b   6.69011704
_cell_length_c   10.99920809
_cell_angle_alpha   90.00000000
_cell_angle_beta   103.24880031
_cell_angle_gamma   90.00000000
_symmetry_Int_Tables_number   1
_chemical_formula_structural   Li4Mn5(P3O11)2
_chemical_formula_sum   'Li8 Mn10 P12 O44'
_cell_volume   916.12109409
_cell_formula_units_Z   2
loop_
 _symmetry_equiv_pos_site_id
 _symmetry_equiv_pos_as_xyz
  1  'x, y, z'
loop_
 _atom_site_type_symbol
 _atom_site_label
 _atom_site_symmetry_multiplicity
 _atom_site_fract_x
 _atom_site_fract_y
 _atom_site_fract_z
 _atom_site_occupancy
  Li  Li0  1  0.18567117  0.15422997  0.56816010  1
  Li  Li1  1  0.18567117  0.34577003  0.06816010  1
  Li  Li2  1  0.33484107  0.52711906  0.88668261  1
  Li  Li3  1  0.33484107  0.97288094  0.38668261  1
  Li  Li4  1  0.66515893  0.02711906  0.61331739  1
  Li  Li5  1  0.66515893  0.47288094  0.11331739  1
  Li  Li6  1  0.81432883  0.65422997  0.93183990  1
  Li  Li7  1  0.81432883  0.84577003  0.43183990  1
  Mn  Mn8  1  0.00000000  0.50000000  0.50000000  1
  Mn  Mn9  1  0.13190369  0.75521709  0.78156241  1
  Mn  Mn10  1  0.00000000  0.00000000  0.00000000  1
  Mn  Mn11  1  0.13190369  0.74478291  0.28156241  1
  Mn  Mn12  1  0.34668380  0.99344337  0.80212839  1
  Mn  Mn13  1  0.34668380  0.50655663  0.30212839  1
  Mn  Mn14  1  0.65331620  0.49344337  0.69787161  1
  Mn  Mn15  1  0.65331620  0.00655663  0.19787161  1
  Mn  Mn16  1  0.86809631  0.25521709  0.71843759  1
  Mn  Mn17  1  0.86809631  0.24478291  0.21843759  1
  O  O18  1  0.01779062  0.22599108  0.86786712  1
  O  O19  1  0.01349897  0.29763278  0.65063822  1
  O  O20  1  0.01779062  0.27400892  0.36786712  1
  O  O21  1  0.01349897  0.20236722  0.15063822  1
  O  O22  1  0.16845875  0.44298502  0.82919493  1
  O  O23  1  0.16606838  0.08154398  0.75809871  1
  O  O24  1  0.18021540  0.44787529  0.54758692  1
  O  O25  1  0.27213971  0.78505186  0.94591902  1
  O  O26  1  0.16845875  0.05701498  0.32919493  1
  O  O27  1  0.16606838  0.41845602  0.25809871  1
  O  O28  1  0.25766368  0.75083490  0.67440625  1
  O  O29  1  0.18021540  0.05212471  0.04758692  1
  O  O30  1  0.27213971  0.71494814  0.44591902  1
  O  O31  1  0.39097381  0.23492111  0.93265644  1
  O  O32  1  0.25766368  0.74916510  0.17440625  1
  O  O33  1  0.34837098  0.12387851  0.62631093  1
  O  O34  1  0.38309487  0.49831686  0.61715075  1
  O  O35  1  0.46289671  0.76267884  0.86254402  1
  O  O36  1  0.39097381  0.26507889  0.43265644  1
  O  O37  1  0.34837098  0.37612149  0.12631093  1
  O  O38  1  0.38309487  0.00168314  0.11715075  1
  O  O39  1  0.46289671  0.73732116  0.36254402  1
  O  O40  1  0.53710329  0.26267884  0.63745598  1
  O  O41  1  0.61690513  0.99831686  0.88284925  1
  O  O42  1  0.65162902  0.62387851  0.87368907  1
  O  O43  1  0.60902619  0.73492111  0.56734356  1
  O  O44  1  0.53710329  0.23732116  0.13745598  1
  O  O45  1  0.61690513  0.50168314  0.38284925  1
  O  O46  1  0.65162902  0.87612149  0.37368907  1
  O  O47  1  0.74233632  0.25083490  0.82559375  1
  O  O48  1  0.60902619  0.76507889  0.06734356  1
  O  O49  1  0.72786029  0.28505186  0.55408098  1
  O  O50  1  0.81978460  0.94787529  0.95241308  1
  O  O51  1  0.74233632  0.24916510  0.32559375  1
  O  O52  1  0.83393162  0.58154398  0.74190129  1
  O  O53  1  0.83154125  0.94298502  0.67080507  1
  O  O54  1  0.72786029  0.21494814  0.05408098  1
  O  O55  1  0.81978460  0.55212471  0.45241308  1
  O  O56  1  0.83393162  0.91845602  0.24190129  1
  O  O57  1  0.83154125  0.55701498  0.17080507  1
  O  O58  1  0.98650103  0.79763278  0.84936178  1
  O  O59  1  0.98220938  0.72599108  0.63213288  1
  O  O60  1  0.98650103  0.70236722  0.34936178  1
  O  O61  1  0.98220938  0.77400892  0.13213288  1
  P  P62  1  0.09511484  0.26320740  0.77893526  1
  P  P63  1  0.09511484  0.23679260  0.27893526  1
  P  P64  1  0.26732553  0.60735781  0.56863646  1
  P  P65  1  0.26732553  0.89264219  0.06863646  1
  P  P66  1  0.41803413  0.27663647  0.57643442  1
  P  P67  1  0.41803413  0.22336353  0.07643442  1
  P  P68  1  0.58196587  0.77663647  0.92356558  1
  P  P69  1  0.58196587  0.72336353  0.42356558  1
  P  P70  1  0.73267447  0.10735781  0.93136354  1
  P  P71  1  0.73267447  0.39264219  0.43136354  1
  P  P72  1  0.90488516  0.76320740  0.72106474  1
  P  P73  1  0.90488516  0.73679260  0.22106474  1
