# generated using pymatgen
data_DyCu(WO4)2
_symmetry_space_group_name_H-M   'P 1'
_cell_length_a   5.13576165
_cell_length_b   6.12612899
_cell_length_c   6.07238965
_cell_angle_alpha   108.84668349
_cell_angle_beta   113.99154539
_cell_angle_gamma   91.61963587
_symmetry_Int_Tables_number   1
_chemical_formula_structural   DyCu(WO4)2
_chemical_formula_sum   'Dy1 Cu1 W2 O8'
_cell_volume   162.34869970
_cell_formula_units_Z   1
loop_
 _symmetry_equiv_pos_site_id
 _symmetry_equiv_pos_as_xyz
  1  'x, y, z'
loop_
 _atom_site_type_symbol
 _atom_site_label
 _atom_site_symmetry_multiplicity
 _atom_site_fract_x
 _atom_site_fract_y
 _atom_site_fract_z
 _atom_site_occupancy
  O  O0  1  0.14823879  0.62699148  0.82841976  1
  O  O1  1  0.64995417  0.49095491  0.34437472  1
  O  O2  1  0.16995957  0.17598506  0.79162770  1
  O  O3  1  0.60435655  0.03292798  0.39555100  1
  O  O4  1  0.61763475  0.91550953  0.83449866  1
  O  O5  1  0.11900167  0.77823299  0.35001800  1
  O  O6  1  0.09584784  0.22889524  0.38630512  1
  O  O7  1  0.66184734  0.37302758  0.78264639  1
  Cu  Cu8  1  0.13007957  0.19992964  0.08713450  1
  Dy  Dy9  1  0.63344992  0.70294581  0.08934264  1
  W  W10  1  0.88146132  0.36985054  0.57606693  1
  W  W11  1  0.38487050  0.03584925  0.60221458  1
