# generated using pymatgen
data_Mn3Sb2
_symmetry_space_group_name_H-M   'P 1'
_cell_length_a   4.32104715
_cell_length_b   4.32022219
_cell_length_c   5.36494322
_cell_angle_alpha   90.00000000
_cell_angle_beta   90.00000000
_cell_angle_gamma   60.00631516
_symmetry_Int_Tables_number   1
_chemical_formula_structural   Mn3Sb2
_chemical_formula_sum   'Mn3 Sb2'
_cell_volume   86.73981326
_cell_formula_units_Z   1
loop_
 _symmetry_equiv_pos_site_id
 _symmetry_equiv_pos_as_xyz
  1  'x, y, z'
loop_
 _atom_site_type_symbol
 _atom_site_label
 _atom_site_symmetry_multiplicity
 _atom_site_fract_x
 _atom_site_fract_y
 _atom_site_fract_z
 _atom_site_occupancy
  Mn  Mn0  1  0.00025545  0.99987228  0.49727914  1
  Mn  Mn1  1  0.00025545  0.99987228  0.00272086  1
  Mn  Mn2  1  0.33302448  0.33348776  0.25000000  1
  Sb  Sb3  1  0.33331418  0.33334291  0.75000000  1
  Sb  Sb4  1  0.66655044  0.66672478  0.25000000  1
