# generated using pymatgen
data_TiZn2O4
_symmetry_space_group_name_H-M   'P 1'
_cell_length_a   6.11163955
_cell_length_b   12.20066280
_cell_length_c   10.40996822
_cell_angle_alpha   54.12572166
_cell_angle_beta   89.86391746
_cell_angle_gamma   90.00000000
_symmetry_Int_Tables_number   1
_chemical_formula_structural   TiZn2O4
_chemical_formula_sum   'Ti8 Zn16 O32'
_cell_volume   628.98038953
_cell_formula_units_Z   8
loop_
 _symmetry_equiv_pos_site_id
 _symmetry_equiv_pos_as_xyz
  1  'x, y, z'
loop_
 _atom_site_type_symbol
 _atom_site_label
 _atom_site_symmetry_multiplicity
 _atom_site_fract_x
 _atom_site_fract_y
 _atom_site_fract_z
 _atom_site_occupancy
  Ti  Ti0  1  0.23657981  0.37565191  0.75104208  1
  Ti  Ti1  1  0.25052677  0.87399365  0.74871061  1
  Ti  Ti2  1  0.50000000  0.63190538  0.50000000  1
  Ti  Ti3  1  0.50197612  0.12156989  0.99597782  1
  Ti  Ti4  1  0.49802388  0.61754771  0.00402218  1
  Ti  Ti5  1  0.74947323  0.12270426  0.25128939  1
  Ti  Ti6  1  0.76342019  0.62669399  0.24895792  1
  Ti  Ti7  1  -0.00000000  0.13120016  0.50000000  1
  Zn  Zn8  1  0.00096529  0.12051568  0.00066726  1
  Zn  Zn9  1  0.99903471  0.62118294  0.99933274  1
  Zn  Zn10  1  0.25032041  0.12468796  0.74962730  1
  Zn  Zn11  1  0.24265035  0.62400904  0.75124206  1
  Zn  Zn12  1  0.26189371  0.30871618  0.12843619  1
  Zn  Zn13  1  0.25627436  0.81139679  0.12408760  1
  Zn  Zn14  1  0.24688652  0.43986685  0.37512875  1
  Zn  Zn15  1  0.24380891  0.93990022  0.37331311  1
  Zn  Zn16  1  0.50000000  0.12805329  0.50000000  1
  Zn  Zn17  1  0.75311348  0.31499560  0.62487125  1
  Zn  Zn18  1  0.74372564  0.43548439  0.87591240  1
  Zn  Zn19  1  0.73810629  0.93715237  0.87156381  1
  Zn  Zn20  1  0.75619109  0.81321332  0.62668689  1
  Zn  Zn21  1  0.74967959  0.37431526  0.25037270  1
  Zn  Zn22  1  0.75734965  0.87525110  0.24875794  1
  Zn  Zn23  1  -0.00000000  0.62871644  0.50000000  1
  O  O24  1  0.03092507  0.25621674  0.75120380  1
  O  O25  1  0.02400329  0.49022834  0.75202071  1
  O  O26  1  0.02803251  0.75387520  0.75382205  1
  O  O27  1  0.01175010  0.99612311  0.73727951  1
  O  O28  1  0.26597753  0.50066121  0.51643265  1
  O  O29  1  0.23415125  0.00030488  0.51580481  1
  O  O30  1  0.26205943  0.74887501  0.98421643  1
  O  O31  1  0.27033335  0.25077966  0.98321249  1
  O  O32  1  0.26803370  0.51129382  0.00192238  1
  O  O33  1  0.26793581  0.01247631  0.00260029  1
  O  O34  1  0.23125764  0.23877024  0.49668293  1
  O  O35  1  0.26571928  0.73811494  0.49845278  1
  O  O36  1  0.48750404  0.25106428  0.76504238  1
  O  O37  1  0.48435994  0.75426773  0.76310976  1
  O  O38  1  0.48207484  0.50073917  0.73373993  1
  O  O39  1  0.46619186  0.99726821  0.74361896  1
  O  O40  1  0.51564006  0.01737650  0.23689024  1
  O  O41  1  0.51249596  0.51610666  0.23495762  1
  O  O42  1  0.51792516  0.73447910  0.26626007  1
  O  O43  1  0.53380814  0.24088717  0.25638104  1
  O  O44  1  0.73196630  0.01321520  0.99807762  1
  O  O45  1  0.76874236  0.23545317  0.50331707  1
  O  O46  1  0.73206419  0.51507660  0.99739971  1
  O  O47  1  0.73428072  0.73656772  0.50154722  1
  O  O48  1  0.76584875  0.01610969  0.48419519  1
  O  O49  1  0.73402247  0.51709286  0.48356735  1
  O  O50  1  0.73794057  0.23309143  0.01578357  1
  O  O51  1  0.72966665  0.73399215  0.01678751  1
  O  O52  1  0.97196749  0.00769726  0.24617795  1
  O  O53  1  0.98824990  0.23340162  0.26272049  1
  O  O54  1  0.96907493  0.50741954  0.24879620  1
  O  O55  1  0.97599671  0.74224905  0.24797929  1
