# generated using pymatgen
data_Sr2CrCuSO3
_symmetry_space_group_name_H-M   'P 1'
_cell_length_a   3.95190581
_cell_length_b   3.95190581
_cell_length_c   15.51337616
_cell_angle_alpha   90.00000000
_cell_angle_beta   90.00000000
_cell_angle_gamma   90.00000000
_symmetry_Int_Tables_number   1
_chemical_formula_structural   Sr2CrCuSO3
_chemical_formula_sum   'Sr4 Cr2 Cu2 S2 O6'
_cell_volume   242.28107571
_cell_formula_units_Z   2
loop_
 _symmetry_equiv_pos_site_id
 _symmetry_equiv_pos_as_xyz
  1  'x, y, z'
loop_
 _atom_site_type_symbol
 _atom_site_label
 _atom_site_symmetry_multiplicity
 _atom_site_fract_x
 _atom_site_fract_y
 _atom_site_fract_z
 _atom_site_occupancy
  O  O0  1  0.75000000  0.75000000  0.56998111  1
  O  O1  1  0.25000000  0.25000000  0.43001889  1
  O  O2  1  0.25000000  0.75000000  0.71250568  1
  O  O3  1  0.25000000  0.75000000  0.28749532  1
  O  O4  1  0.75000000  0.25000000  0.28749532  1
  O  O5  1  0.75000000  0.25000000  0.71250568  1
  S  S6  1  0.75000000  0.75000000  0.90971020  1
  S  S7  1  0.25000000  0.25000000  0.09029080  1
  Cr  Cr8  1  0.25000000  0.25000000  0.30615740  1
  Cr  Cr9  1  0.75000000  0.75000000  0.69384260  1
  Cu  Cu10  1  0.25000000  0.75000000  0.00000000  1
  Cu  Cu11  1  0.75000000  0.25000000  0.00000000  1
  Sr  Sr12  1  0.75000000  0.75000000  0.18390646  1
  Sr  Sr13  1  0.25000000  0.25000000  0.81609354  1
  Sr  Sr14  1  0.75000000  0.75000000  0.41237350  1
  Sr  Sr15  1  0.25000000  0.25000000  0.58762650  1
