# generated using pymatgen
data_LiNiPO4
_symmetry_space_group_name_H-M   'P 1'
_cell_length_a   9.96745200
_cell_length_b   6.95070505
_cell_length_c   4.90395042
_cell_angle_alpha   90.00000000
_cell_angle_beta   90.00000000
_cell_angle_gamma   90.00000000
_symmetry_Int_Tables_number   1
_chemical_formula_structural   LiNiPO4
_chemical_formula_sum   'Li4 Ni4 P4 O16'
_cell_volume   339.74970120
_cell_formula_units_Z   4
loop_
 _symmetry_equiv_pos_site_id
 _symmetry_equiv_pos_as_xyz
  1  'x, y, z'
loop_
 _atom_site_type_symbol
 _atom_site_label
 _atom_site_symmetry_multiplicity
 _atom_site_fract_x
 _atom_site_fract_y
 _atom_site_fract_z
 _atom_site_occupancy
  Li  Li0  1  0.65347683  0.21351145  0.81062728  1
  Li  Li1  1  0.34652317  0.71351145  0.18937272  1
  Li  Li2  1  0.84652317  0.71351145  0.31062728  1
  Li  Li3  1  0.15347683  0.21351145  0.68937272  1
  Ni  Ni4  1  0.64966093  0.71235663  0.80363344  1
  Ni  Ni5  1  0.85033907  0.21235663  0.30363344  1
  Ni  Ni6  1  0.14966093  0.71235663  0.69636656  1
  Ni  Ni7  1  0.35033907  0.21235663  0.19636656  1
  P  P8  1  0.90484766  0.46319209  0.81559474  1
  P  P9  1  0.40484766  0.46319209  0.68440526  1
  P  P10  1  0.09515234  0.96319209  0.18440526  1
  P  P11  1  0.59515234  0.96319209  0.31559474  1
  O  O12  1  0.94382036  0.96265940  0.26136371  1
  O  O13  1  0.44382036  0.96265940  0.23863629  1
  O  O14  1  0.11611059  0.96467458  0.87043813  1
  O  O15  1  0.66191969  0.14880276  0.19956750  1
  O  O16  1  0.55617964  0.46265940  0.76136371  1
  O  O17  1  0.33808031  0.64880276  0.80043250  1
  O  O18  1  0.33982636  0.27662909  0.80071491  1
  O  O19  1  0.16191969  0.14880276  0.30043250  1
  O  O20  1  0.83808031  0.64880276  0.69956750  1
  O  O21  1  0.66017364  0.77662909  0.19928509  1
  O  O22  1  0.61611059  0.96467458  0.62956187  1
  O  O23  1  0.38388941  0.46467458  0.37043813  1
  O  O24  1  0.88388941  0.46467458  0.12956187  1
  O  O25  1  0.16017364  0.77662909  0.30071491  1
  O  O26  1  0.83982636  0.27662909  0.69928509  1
  O  O27  1  0.05617964  0.46265940  0.73863629  1
