# generated using pymatgen
data_Zn2P2O7
_symmetry_space_group_name_H-M   'P 1'
_cell_length_a   4.55848954
_cell_length_b   5.35315978
_cell_length_c   5.35315969
_cell_angle_alpha   103.16826495
_cell_angle_beta   99.10000258
_cell_angle_gamma   99.10002221
_symmetry_Int_Tables_number   1
_chemical_formula_structural   Zn2P2O7
_chemical_formula_sum   'Zn2 P2 O7'
_cell_volume   123.00536276
_cell_formula_units_Z   1
loop_
 _symmetry_equiv_pos_site_id
 _symmetry_equiv_pos_as_xyz
  1  'x, y, z'
loop_
 _atom_site_type_symbol
 _atom_site_label
 _atom_site_symmetry_multiplicity
 _atom_site_fract_x
 _atom_site_fract_y
 _atom_site_fract_z
 _atom_site_occupancy
  O  O0  1  0.27707801  0.93019689  0.62605940  1
  P  P1  1  0.09292354  0.78545102  0.78545113  1
  O  O2  1  0.72292260  0.37394061  0.06980333  1
  O  O3  1  0.72292223  0.06980349  0.37394091  1
  P  P4  1  0.90707621  0.21454898  0.21454907  1
  O  O5  1  0.27707730  0.62605915  0.93019631  1
  O  O6  1  0.21277977  0.38011436  0.38011434  1
  Zn  Zn7  1  0.49999986  0.69065442  0.30934493  1
  O  O8  1  1.00000001  0.99999934  0.00000050  1
  Zn  Zn9  1  0.50000031  0.30934539  0.69065461  1
  O  O10  1  0.78722017  0.61988633  0.61988546  1
