# generated using pymatgen
data_LiCoP2O7
_symmetry_space_group_name_H-M   'P 1'
_cell_length_a   6.80247504
_cell_length_b   8.01688420
_cell_length_c   9.51134004
_cell_angle_alpha   90.00000000
_cell_angle_beta   109.17365405
_cell_angle_gamma   90.00000000
_symmetry_Int_Tables_number   1
_chemical_formula_structural   LiCoP2O7
_chemical_formula_sum   'Li4 Co4 P8 O28'
_cell_volume   489.92418466
_cell_formula_units_Z   4
loop_
 _symmetry_equiv_pos_site_id
 _symmetry_equiv_pos_as_xyz
  1  'x, y, z'
loop_
 _atom_site_type_symbol
 _atom_site_label
 _atom_site_symmetry_multiplicity
 _atom_site_fract_x
 _atom_site_fract_y
 _atom_site_fract_z
 _atom_site_occupancy
  Li  Li0  1  0.79522530  0.12504203  0.46294334  1
  Li  Li1  1  0.79522530  0.37495797  0.96294334  1
  Li  Li2  1  0.20477470  0.62504203  0.03705666  1
  Li  Li3  1  0.20477470  0.87495797  0.53705666  1
  Co  Co4  1  0.71855796  0.77524171  0.00402667  1
  Co  Co5  1  0.71855796  0.72475829  0.50402667  1
  Co  Co6  1  0.28144204  0.27524171  0.49597333  1
  Co  Co7  1  0.28144204  0.22475829  0.99597333  1
  P  P8  1  0.46642926  0.58412831  0.70453390  1
  P  P9  1  0.53357074  0.08412831  0.79546610  1
  P  P10  1  0.46642926  0.91587169  0.20453390  1
  P  P11  1  0.94574348  0.53761450  0.29481285  1
  P  P12  1  0.05425652  0.03761550  0.20518715  1
  P  P13  1  0.53357074  0.41587169  0.29546610  1
  P  P14  1  0.94574348  0.96238550  0.79481285  1
  P  P15  1  0.05425652  0.46238450  0.70518715  1
  O  O16  1  0.06147135  0.31835229  0.60144022  1
  O  O17  1  0.91029198  0.91277198  0.63206928  1
  O  O18  1  0.08970802  0.41277198  0.86793072  1
  O  O19  1  0.51209934  0.23381720  0.88938606  1
  O  O20  1  0.48790066  0.73381720  0.61061394  1
  O  O21  1  0.22963187  0.89726624  0.20871748  1
  O  O22  1  0.77036813  0.39726624  0.29128252  1
  O  O23  1  0.38828839  0.08608262  0.63191391  1
  O  O24  1  0.14872712  0.43806572  0.35214198  1
  O  O25  1  0.22963187  0.60273376  0.70871748  1
  O  O26  1  0.91029198  0.58722802  0.13206928  1
  O  O27  1  0.93852865  0.81835229  0.89855978  1
  O  O28  1  0.48068983  0.41540013  0.63635091  1
  O  O29  1  0.61171161  0.91391738  0.36808609  1
  O  O30  1  0.77036813  0.10273376  0.79128252  1
  O  O31  1  0.48790066  0.76618280  0.11061394  1
  O  O32  1  0.51931017  0.91540013  0.86364909  1
  O  O33  1  0.14872712  0.06193428  0.85214198  1
  O  O34  1  0.85127288  0.56193428  0.64785802  1
  O  O35  1  0.06147135  0.18164771  0.10144022  1
  O  O36  1  0.48068983  0.08459987  0.13635091  1
  O  O37  1  0.51209934  0.26618280  0.38938606  1
  O  O38  1  0.51931017  0.58459987  0.36364909  1
  O  O39  1  0.61171161  0.58608262  0.86808609  1
  O  O40  1  0.93852865  0.68164771  0.39855978  1
  O  O41  1  0.08970802  0.08722802  0.36793072  1
  O  O42  1  0.38828839  0.41391738  0.13191391  1
  O  O43  1  0.85127288  0.93806572  0.14785802  1
