# generated using pymatgen
data_In3Te4
_symmetry_space_group_name_H-M   'P 1'
_cell_length_a   14.07137915
_cell_length_b   14.07137928
_cell_length_c   14.07137966
_cell_angle_alpha   17.74477051
_cell_angle_beta   17.74476878
_cell_angle_gamma   17.74477108
_symmetry_Int_Tables_number   1
_chemical_formula_structural   In3Te4
_chemical_formula_sum   'In3 Te4'
_cell_volume   225.92434386
_cell_formula_units_Z   1
loop_
 _symmetry_equiv_pos_site_id
 _symmetry_equiv_pos_as_xyz
  1  'x, y, z'
loop_
 _atom_site_type_symbol
 _atom_site_label
 _atom_site_symmetry_multiplicity
 _atom_site_fract_x
 _atom_site_fract_y
 _atom_site_fract_z
 _atom_site_occupancy
  In  In0  1  0.00000000  0.00000000  0.00000000  1
  In  In1  1  0.42663332  0.42663332  0.42663332  1
  In  In2  1  0.57336668  0.57336668  0.57336668  1
  Te  Te3  1  0.12876781  0.12876781  0.12876781  1
  Te  Te4  1  0.87123219  0.87123219  0.87123219  1
  Te  Te5  1  0.29060707  0.29060707  0.29060707  1
  Te  Te6  1  0.70939293  0.70939293  0.70939293  1
