# generated using pymatgen
data_CrHg5O6
_symmetry_space_group_name_H-M   'P 1'
_cell_length_a   6.86238044
_cell_length_b   8.28893602
_cell_length_c   8.28893603
_cell_angle_alpha   91.77796105
_cell_angle_beta   95.51400081
_cell_angle_gamma   95.51400080
_symmetry_Int_Tables_number   1
_chemical_formula_structural   CrHg5O6
_chemical_formula_sum   'Cr2 Hg10 O12'
_cell_volume   466.75074035
_cell_formula_units_Z   2
loop_
 _symmetry_equiv_pos_site_id
 _symmetry_equiv_pos_as_xyz
  1  'x, y, z'
loop_
 _atom_site_type_symbol
 _atom_site_label
 _atom_site_symmetry_multiplicity
 _atom_site_fract_x
 _atom_site_fract_y
 _atom_site_fract_z
 _atom_site_occupancy
  O  O0  1  0.29290129  0.51772301  0.72295219  1
  O  O1  1  0.20709871  0.27704781  0.48227699  1
  O  O2  1  0.70709871  0.48227699  0.27704781  1
  O  O3  1  0.79290129  0.72295219  0.51772301  1
  O  O4  1  0.44684783  0.22881626  0.75879203  1
  O  O5  1  0.05315217  0.24120797  0.77118374  1
  O  O6  1  0.85363401  0.18803096  0.09107554  1
  O  O7  1  0.94684783  0.75879203  0.22881626  1
  O  O8  1  0.35363401  0.09107554  0.18803096  1
  O  O9  1  0.14636599  0.81196904  0.90892446  1
  O  O10  1  0.64636599  0.90892446  0.81196904  1
  O  O11  1  0.55315217  0.77118374  0.24120797  1
  Cr  Cr12  1  0.75000000  0.68286701  0.31713299  1
  Cr  Cr13  1  0.25000000  0.31713299  0.68286701  1
  Hg  Hg14  1  0.19721874  0.79736300  0.64950857  1
  Hg  Hg15  1  0.21008782  0.61477621  0.06618122  1
  Hg  Hg16  1  0.71008782  0.06618122  0.61477621  1
  Hg  Hg17  1  0.78991218  0.38522379  0.93381878  1
  Hg  Hg18  1  0.28991218  0.93381878  0.38522379  1
  Hg  Hg19  1  0.30278126  0.35049143  0.20263700  1
  Hg  Hg20  1  0.80278126  0.20263700  0.35049143  1
  Hg  Hg21  1  0.69721874  0.64950857  0.79736300  1
  Hg  Hg22  1  0.50000000  0.00000000  0.00000000  1
  Hg  Hg23  1  0.00000000  0.00000000  0.00000000  1
