# generated using pymatgen
data_LiV(PO3)4
_symmetry_space_group_name_H-M   'P 1'
_cell_length_a   7.01761895
_cell_length_b   12.39618239
_cell_length_c   7.01761863
_cell_angle_alpha   68.79385087
_cell_angle_beta   70.55282060
_cell_angle_gamma   111.20614986
_symmetry_Int_Tables_number   1
_chemical_formula_structural   LiV(PO3)4
_chemical_formula_sum   'Li2 V2 P8 O24'
_cell_volume   448.74515451
_cell_formula_units_Z   2
loop_
 _symmetry_equiv_pos_site_id
 _symmetry_equiv_pos_as_xyz
  1  'x, y, z'
loop_
 _atom_site_type_symbol
 _atom_site_label
 _atom_site_symmetry_multiplicity
 _atom_site_fract_x
 _atom_site_fract_y
 _atom_site_fract_z
 _atom_site_occupancy
  Li  Li0  1  0.91805274  0.75000000  0.91805274  1
  Li  Li1  1  0.08194726  0.25000000  0.08194726  1
  V  V2  1  0.63935771  0.75000000  0.63935771  1
  V  V3  1  0.36064229  0.25000000  0.36064229  1
  P  P4  1  0.30354844  0.03358603  0.84146501  1
  P  P5  1  0.69645156  0.96641397  0.15853499  1
  P  P6  1  0.84146501  0.46641397  0.30354844  1
  P  P7  1  0.15853499  0.53358603  0.69645156  1
  P  P8  1  0.32607530  0.52857053  0.25122046  1
  P  P9  1  0.25122046  0.97142947  0.32607530  1
  P  P10  1  0.67392470  0.47142947  0.74877954  1
  P  P11  1  0.74877954  0.02857053  0.67392470  1
  O  O12  1  0.16737653  0.89557484  0.88668505  1
  O  O13  1  0.99996159  0.85100546  0.54205891  1
  O  O14  1  0.88668505  0.60442516  0.16737653  1
  O  O15  1  0.24429915  0.03025267  0.08792456  1
  O  O16  1  0.29674016  0.64911336  0.71910525  1
  O  O17  1  0.00003841  0.14899454  0.45794109  1
  O  O18  1  0.34356721  0.40776960  0.37232812  1
  O  O19  1  0.11331495  0.39557484  0.83262347  1
  O  O20  1  0.59197919  0.09360868  0.71408339  1
  O  O21  1  0.28591661  0.59360868  0.40802081  1
  O  O22  1  0.37232812  0.09223040  0.34356721  1
  O  O23  1  0.08792456  0.46974733  0.24429915  1
  O  O24  1  0.70325984  0.35088664  0.28089475  1
  O  O25  1  0.71910525  0.85088664  0.29674016  1
  O  O26  1  0.40802081  0.90639132  0.28591661  1
  O  O27  1  0.75570085  0.96974733  0.91207544  1
  O  O28  1  0.65643279  0.59223040  0.62767188  1
  O  O29  1  0.28089475  0.14911336  0.70325984  1
  O  O30  1  0.54205891  0.64899454  0.99996159  1
  O  O31  1  0.71408339  0.40639132  0.59197919  1
  O  O32  1  0.83262347  0.10442516  0.11331495  1
  O  O33  1  0.45794109  0.35100546  0.00003841  1
  O  O34  1  0.91207544  0.53025267  0.75570085  1
  O  O35  1  0.62767188  0.90776960  0.65643279  1
