# generated using pymatgen
data_LiFe(PO3)4
_symmetry_space_group_name_H-M   'P 1'
_cell_length_a   5.23280017
_cell_length_b   10.52330039
_cell_length_c   10.52306951
_cell_angle_alpha   71.22250553
_cell_angle_beta   98.25009135
_cell_angle_gamma   98.25524632
_symmetry_Int_Tables_number   1
_chemical_formula_structural   LiFe(PO3)4
_chemical_formula_sum   'Li2 Fe2 P8 O24'
_cell_volume   540.00641793
_cell_formula_units_Z   2
loop_
 _symmetry_equiv_pos_site_id
 _symmetry_equiv_pos_as_xyz
  1  'x, y, z'
loop_
 _atom_site_type_symbol
 _atom_site_label
 _atom_site_symmetry_multiplicity
 _atom_site_fract_x
 _atom_site_fract_y
 _atom_site_fract_z
 _atom_site_occupancy
  Li  Li0  1  0.44181354  0.41708431  0.41709892  1
  Li  Li1  1  0.55819160  0.58291792  0.58290153  1
  O  O2  1  0.36930773  0.28832112  0.91286279  1
  O  O3  1  0.99181293  0.55469026  0.16489894  1
  O  O4  1  0.00818501  0.44531648  0.83509336  1
  O  O5  1  0.00816525  0.83507878  0.44532807  1
  O  O6  1  0.99998888  0.23572990  0.76427585  1
  O  O7  1  1.00000938  0.76427450  0.23572715  1
  O  O8  1  0.24770137  0.66692344  0.92551181  1
  O  O9  1  0.24768478  0.92549714  0.66693233  1
  O  O10  1  0.32182895  0.44009747  0.66989620  1
  O  O11  1  0.32180334  0.66989826  0.44009390  1
  O  O12  1  0.69718277  0.90605031  0.60776471  1
  O  O13  1  0.36931770  0.91286891  0.28831141  1
  O  O14  1  0.60997151  0.85269273  0.85269317  1
  O  O15  1  0.30280727  0.39223872  0.09394439  1
  O  O16  1  0.75229730  0.33308519  0.07448478  1
  O  O17  1  0.69718851  0.60776622  0.90604586  1
  O  O18  1  0.99183248  0.16491457  0.55467898  1
  O  O19  1  0.39004044  0.14730434  0.14730461  1
  O  O20  1  0.63068522  0.08712918  0.71169142  1
  O  O21  1  0.63069219  0.71168065  0.08713479  1
  O  O22  1  0.67819389  0.33010313  0.55990966  1
  O  O23  1  0.67817053  0.55990625  0.33010629  1
  O  O24  1  0.75231491  0.07450178  0.33307576  1
  O  O25  1  0.30281429  0.09393986  0.39224185  1
  P  P26  1  0.46268502  0.30116867  0.05967294  1
  P  P27  1  0.82533395  0.21298822  0.63289440  1
  P  P28  1  0.17468071  0.36710668  0.78701393  1
  P  P29  1  0.17466949  0.78700921  0.36710703  1
  P  P30  1  0.53731369  0.69883494  0.94032571  1
  P  P31  1  0.53729729  0.94031871  0.69884136  1
  P  P32  1  0.46270577  0.05967952  0.30116097  1
  P  P33  1  0.82532308  0.63289703  0.21298219  1
  Fe  Fe34  1  0.99999453  0.50000544  -0.00001276  1
  Fe  Fe35  1  0.99999867  0.99998618  0.50000271  1
