# generated using pymatgen
data_Fe3O4
_symmetry_space_group_name_H-M   'P 1'
_cell_length_a   6.05209848
_cell_length_b   6.05113669
_cell_length_c   8.66448602
_cell_angle_alpha   89.95807707
_cell_angle_beta   90.00000000
_cell_angle_gamma   90.00000000
_symmetry_Int_Tables_number   1
_chemical_formula_structural   Fe3O4
_chemical_formula_sum   'Fe12 O16'
_cell_volume   317.31137338
_cell_formula_units_Z   4
loop_
 _symmetry_equiv_pos_site_id
 _symmetry_equiv_pos_as_xyz
  1  'x, y, z'
loop_
 _atom_site_type_symbol
 _atom_site_label
 _atom_site_symmetry_multiplicity
 _atom_site_fract_x
 _atom_site_fract_y
 _atom_site_fract_z
 _atom_site_occupancy
  Fe  Fe0  1  0.00000000  -0.00000000  0.50000000  1
  Fe  Fe1  1  0.50000000  -0.00000000  0.00000000  1
  Fe  Fe2  1  0.50000000  0.50000000  0.00000000  1
  Fe  Fe3  1  -0.00000000  0.50000000  0.50000000  1
  Fe  Fe4  1  0.74547342  0.24914802  0.24661408  1
  Fe  Fe5  1  0.25452658  0.24914802  0.24661408  1
  Fe  Fe6  1  0.25452658  0.75085198  0.75338592  1
  Fe  Fe7  1  0.74547342  0.75085198  0.75338592  1
  Fe  Fe8  1  0.00000000  0.74928228  0.12156896  1
  Fe  Fe9  1  -0.00000000  0.25071772  0.87843104  1
  Fe  Fe10  1  0.50000000  0.74711645  0.37892498  1
  Fe  Fe11  1  0.50000000  0.25288355  0.62107502  1
  O  O12  1  0.00000000  0.51048552  0.74267719  1
  O  O13  1  -0.00000000  0.48951448  0.25732281  1
  O  O14  1  -0.00000000  0.00906153  0.25725015  1
  O  O15  1  0.00000000  0.99093847  0.74274985  1
  O  O16  1  0.50000000  0.52714964  0.75543410  1
  O  O17  1  0.50000000  0.47285036  0.24456590  1
  O  O18  1  0.50000000  0.02693220  0.24688680  1
  O  O19  1  0.50000000  0.97306780  0.75311320  1
  O  O20  1  0.77764274  0.25041554  0.48326339  1
  O  O21  1  0.22235726  0.25041554  0.48326339  1
  O  O22  1  0.22235726  0.74958446  0.51673661  1
  O  O23  1  0.77764274  0.74958446  0.51673661  1
  O  O24  1  0.74844884  0.24948297  0.01039358  1
  O  O25  1  0.25155116  0.24948297  0.01039358  1
  O  O26  1  0.25155116  0.75051703  0.98960642  1
  O  O27  1  0.74844884  0.75051703  0.98960642  1
