# generated using pymatgen
data_Li4Ni3P4O15
_symmetry_space_group_name_H-M   'P 1'
_cell_length_a   17.49305812
_cell_length_b   10.32644362
_cell_length_c   6.43708590
_cell_angle_alpha   90.00000000
_cell_angle_beta   90.00000000
_cell_angle_gamma   90.00000000
_symmetry_Int_Tables_number   1
_chemical_formula_structural   Li4Ni3P4O15
_chemical_formula_sum   'Li16 Ni12 P16 O60'
_cell_volume   1162.80213884
_cell_formula_units_Z   4
loop_
 _symmetry_equiv_pos_site_id
 _symmetry_equiv_pos_as_xyz
  1  'x, y, z'
loop_
 _atom_site_type_symbol
 _atom_site_label
 _atom_site_symmetry_multiplicity
 _atom_site_fract_x
 _atom_site_fract_y
 _atom_site_fract_z
 _atom_site_occupancy
  Li  Li0  1  0.00147147  0.51936591  0.23485631  1
  Li  Li1  1  0.03174393  0.95329977  0.11771574  1
  Li  Li2  1  0.09789615  0.17708681  0.84016872  1
  Li  Li3  1  0.20908204  0.76764826  0.29299285  1
  Li  Li4  1  0.29091796  0.26764826  0.79299285  1
  Li  Li5  1  0.40210385  0.67708681  0.34016872  1
  Li  Li6  1  0.46825607  0.45329977  0.61771574  1
  Li  Li7  1  0.49852853  0.01936591  0.73485631  1
  Li  Li8  1  0.50147147  0.98063409  0.23485631  1
  Li  Li9  1  0.53174393  0.54670023  0.11771574  1
  Li  Li10  1  0.59789615  0.32291319  0.84016872  1
  Li  Li11  1  0.70908204  0.73235174  0.29299285  1
  Li  Li12  1  0.79091796  0.23235174  0.79299285  1
  Li  Li13  1  0.90210385  0.82291319  0.34016872  1
  Li  Li14  1  0.96825607  0.04670023  0.61771574  1
  Li  Li15  1  0.99852853  0.48063409  0.73485631  1
  Ni  Ni16  1  0.13247885  0.51236584  0.48938408  1
  Ni  Ni17  1  0.17109767  1.00018973  0.50444717  1
  Ni  Ni18  1  0.23632037  0.25836172  0.23174153  1
  Ni  Ni19  1  0.26367963  0.75836172  0.73174153  1
  Ni  Ni20  1  0.32890233  0.50018973  0.00444717  1
  Ni  Ni21  1  0.36752115  0.01236584  0.98938408  1
  Ni  Ni22  1  0.63247885  0.98763416  0.48938408  1
  Ni  Ni23  1  0.67109767  0.49981027  0.50444717  1
  Ni  Ni24  1  0.73632037  0.24163828  0.23174153  1
  Ni  Ni25  1  0.76367963  0.74163828  0.73174153  1
  Ni  Ni26  1  0.82890233  -0.00018973  0.00444717  1
  Ni  Ni27  1  0.86752115  0.48763416  0.98938408  1
  O  O28  1  0.00421614  0.87743678  0.40626404  1
  O  O29  1  0.01947850  0.81033400  0.77789854  1
  O  O30  1  0.03229833  0.63731093  0.49469642  1
  O  O31  1  0.04799134  0.37373936  0.45925052  1
  O  O32  1  0.08111744  0.13732334  0.53240829  1
  O  O33  1  0.11812449  0.50490394  0.79867418  1
  O  O34  1  0.11957196  0.23580655  0.18465422  1
  O  O35  1  0.12361241  0.54509032  0.18121988  1
  O  O36  1  0.13413391  0.81042643  0.54169888  1
  O  O37  1  0.15574433  0.01578485  0.81507256  1
  O  O38  1  0.15951646  0.95829605  0.18956132  1
  O  O39  1  0.22542950  0.39624432  0.00228371  1
  O  O40  1  0.23303451  0.63196122  0.96685924  1
  O  O41  1  0.22873338  0.38804655  0.46457417  1
  O  O42  1  0.23989843  0.62025211  0.52264630  1
  O  O43  1  0.26010157  0.12025211  0.02264630  1
  O  O44  1  0.27126662  0.88804655  0.96457417  1
  O  O45  1  0.26696549  0.13196122  0.46685924  1
  O  O46  1  0.27457050  0.89624432  0.50228371  1
  O  O47  1  0.34048354  0.45829605  0.68956132  1
  O  O48  1  0.34425567  0.51578485  0.31507256  1
  O  O49  1  0.36586609  0.31042643  0.04169888  1
  O  O50  1  0.37638759  0.04509032  0.68121988  1
  O  O51  1  0.38042804  0.73580655  0.68465422  1
  O  O52  1  0.38187551  0.00490394  0.29867418  1
  O  O53  1  0.41888256  0.63732334  0.03240829  1
  O  O54  1  0.45200866  0.87373936  0.95925052  1
  O  O55  1  0.46770167  0.13731093  0.99469642  1
  O  O56  1  0.48052150  0.31033400  0.27789854  1
  O  O57  1  0.49578386  0.37743678  0.90626404  1
  O  O58  1  0.50421614  0.62256322  0.40626404  1
  O  O59  1  0.51947850  0.68966600  0.77789854  1
  O  O60  1  0.53229833  0.86268907  0.49469642  1
  O  O61  1  0.54799134  0.12626064  0.45925052  1
  O  O62  1  0.58111744  0.36267666  0.53240829  1
  O  O63  1  0.61812449  0.99509606  0.79867418  1
  O  O64  1  0.61957196  0.26419345  0.18465422  1
  O  O65  1  0.62361241  0.95490968  0.18121988  1
  O  O66  1  0.63413391  0.68957357  0.54169888  1
  O  O67  1  0.65574433  0.48421515  0.81507256  1
  O  O68  1  0.65951646  0.54170395  0.18956132  1
  O  O69  1  0.72542950  0.10375568  0.00228371  1
  O  O70  1  0.73303451  0.86803878  0.96685924  1
  O  O71  1  0.72873338  0.11195345  0.46457417  1
  O  O72  1  0.73989843  0.87974789  0.52264630  1
  O  O73  1  0.76010157  0.37974789  0.02264630  1
  O  O74  1  0.77126662  0.61195345  0.96457417  1
  O  O75  1  0.76696549  0.36803878  0.46685924  1
  O  O76  1  0.77457050  0.60375568  0.50228371  1
  O  O77  1  0.84048354  0.04170395  0.68956132  1
  O  O78  1  0.84425567  0.98421515  0.31507256  1
  O  O79  1  0.86586609  0.18957357  0.04169888  1
  O  O80  1  0.87638759  0.45490968  0.68121988  1
  O  O81  1  0.88042804  0.76419345  0.68465422  1
  O  O82  1  0.88187551  0.49509606  0.29867418  1
  O  O83  1  0.91888256  0.86267666  0.03240829  1
  O  O84  1  0.95200866  0.62626064  0.95925052  1
  O  O85  1  0.96770167  0.36268907  0.99469642  1
  O  O86  1  0.98052150  0.18966600  0.27789854  1
  O  O87  1  0.99578386  0.12256322  0.90626404  1
  P  P88  1  0.04878783  0.78029003  0.54000678  1
  P  P89  1  0.06315796  0.23965208  0.36569075  1
  P  P90  1  0.17159665  0.51938047  0.98581239  1
  P  P91  1  0.20926369  0.99522359  -0.00048261  1
  P  P92  1  0.29073631  0.49522459  0.49951739  1
  P  P93  1  0.32840335  0.01938047  0.48581239  1
  P  P94  1  0.43684204  0.73965208  0.86569075  1
  P  P95  1  0.45121217  0.28029003  0.04000678  1
  P  P96  1  0.54878783  0.71970997  0.54000678  1
  P  P97  1  0.56315796  0.26034792  0.36569075  1
  P  P98  1  0.67159665  0.98061953  0.98581239  1
  P  P99  1  0.70926369  0.50477641  -0.00048261  1
  P  P100  1  0.79073631  0.00477641  0.49951739  1
  P  P101  1  0.82840335  0.48061953  0.48581239  1
  P  P102  1  0.93684204  0.76034792  0.86569075  1
  P  P103  1  0.95121217  0.21970997  0.04000678  1
