# generated using pymatgen
data_CuHgSBr
_symmetry_space_group_name_H-M   'P 1'
_cell_length_a   4.10716056
_cell_length_b   10.12859135
_cell_length_c   19.11187072
_cell_angle_alpha   90.00000000
_cell_angle_beta   90.00000000
_cell_angle_gamma   90.00000000
_symmetry_Int_Tables_number   1
_chemical_formula_structural   CuHgSBr
_chemical_formula_sum   'Cu8 Hg8 S8 Br8'
_cell_volume   795.04906159
_cell_formula_units_Z   8
loop_
 _symmetry_equiv_pos_site_id
 _symmetry_equiv_pos_as_xyz
  1  'x, y, z'
loop_
 _atom_site_type_symbol
 _atom_site_label
 _atom_site_symmetry_multiplicity
 _atom_site_fract_x
 _atom_site_fract_y
 _atom_site_fract_z
 _atom_site_occupancy
  Cu  Cu0  1  0.50000000  0.56855654  0.65274544  1
  Cu  Cu1  1  0.50000000  0.06855654  0.84725456  1
  Cu  Cu2  1  0.50000000  0.43144346  0.34725456  1
  Cu  Cu3  1  0.50000000  0.42861100  0.85110128  1
  Cu  Cu4  1  0.50000000  0.93144346  0.15274544  1
  Cu  Cu5  1  0.50000000  0.07138900  0.35110128  1
  Cu  Cu6  1  0.50000000  0.57138900  0.14889872  1
  Cu  Cu7  1  0.50000000  0.92861100  0.64889872  1
  Hg  Hg8  1  0.00000000  0.74968951  0.36272217  1
  Hg  Hg9  1  0.00000000  0.24968951  0.13727783  1
  Hg  Hg10  1  0.00000000  0.75031049  0.86272217  1
  Hg  Hg11  1  0.00000000  0.50000000  0.00000000  1
  Hg  Hg12  1  0.00000000  0.25031049  0.63727783  1
  Hg  Hg13  1  0.00000000  0.00000000  0.50000000  1
  Hg  Hg14  1  0.00000000  0.00000000  0.00000000  1
  Hg  Hg15  1  0.00000000  0.50000000  0.50000000  1
  S  S16  1  0.00000000  0.50998251  0.87233533  1
  S  S17  1  0.00000000  0.99066007  0.87191909  1
  S  S18  1  0.00000000  0.00933993  0.12808091  1
  S  S19  1  0.00000000  0.99001749  0.37233533  1
  S  S20  1  0.00000000  0.49001749  0.12766467  1
  S  S21  1  0.00000000  0.50933993  0.37191909  1
  S  S22  1  0.00000000  0.49066007  0.62808091  1
  S  S23  1  0.00000000  0.00998251  0.62766467  1
  Br  Br24  1  0.50000000  0.74879903  0.23584072  1
  Br  Br25  1  0.50000000  0.24956477  0.48102822  1
  Br  Br26  1  0.50000000  0.75120097  0.73584072  1
  Br  Br27  1  0.50000000  0.25120097  0.76415928  1
  Br  Br28  1  0.50000000  0.74956477  0.01897178  1
  Br  Br29  1  0.50000000  0.25043523  0.98102822  1
  Br  Br30  1  0.50000000  0.75043523  0.51897178  1
  Br  Br31  1  0.50000000  0.24879903  0.26415928  1
