# generated using pymatgen
data_Ca2Fe9O13
_symmetry_space_group_name_H-M   'P 1'
_cell_length_a   3.06092626
_cell_length_b   5.38586507
_cell_length_c   17.03359960
_cell_angle_alpha   98.42803583
_cell_angle_beta   89.98966250
_cell_angle_gamma   106.51370885
_symmetry_Int_Tables_number   1
_chemical_formula_structural   Ca2Fe9O13
_chemical_formula_sum   'Ca2 Fe9 O13'
_cell_volume   266.06612136
_cell_formula_units_Z   1
loop_
 _symmetry_equiv_pos_site_id
 _symmetry_equiv_pos_as_xyz
  1  'x, y, z'
loop_
 _atom_site_type_symbol
 _atom_site_label
 _atom_site_symmetry_multiplicity
 _atom_site_fract_x
 _atom_site_fract_y
 _atom_site_fract_z
 _atom_site_occupancy
  Ca  Ca0  1  0.21347182  0.42688183  0.22822540  1
  Ca  Ca1  1  0.78652818  0.57311817  0.77177460  1
  Fe  Fe2  1  0.50000000  0.00000000  0.50000000  1
  Fe  Fe3  1  0.64527415  0.29051264  0.04041987  1
  Fe  Fe4  1  0.35472585  0.70948736  0.95958013  1
  Fe  Fe5  1  0.75185570  0.50361947  0.41799933  1
  Fe  Fe6  1  0.24814430  0.49638053  0.58200067  1
  Fe  Fe7  1  0.93462424  0.86924083  0.12206687  1
  Fe  Fe8  1  0.06537576  0.13075917  0.87793313  1
  Fe  Fe9  1  0.99276142  0.98542466  0.33196983  1
  Fe  Fe10  1  0.00723858  0.01457534  0.66803017  1
  O  O11  1  0.00000000  0.00000000  0.00000000  1
  O  O12  1  0.88033168  0.76071960  0.22779127  1
  O  O13  1  0.11966832  0.23928040  0.77220873  1
  O  O14  1  0.30536498  0.61061258  0.07682869  1
  O  O15  1  0.69463502  0.38938742  0.92317131  1
  O  O16  1  0.57044472  0.14051386  0.14489854  1
  O  O17  1  0.42955528  0.85948614  0.85510146  1
  O  O18  1  0.62525117  0.25041547  0.31695182  1
  O  O19  1  0.37474883  0.74958453  0.68304818  1
  O  O20  1  0.39271006  0.78542456  0.38953183  1
  O  O21  1  0.60728994  0.21457544  0.61046817  1
  O  O22  1  0.11978604  0.23945637  0.46862222  1
  O  O23  1  0.88021396  0.76054363  0.53137778  1
