# generated using pymatgen
data_KNaSO4
_symmetry_space_group_name_H-M   'P 1'
_cell_length_a   5.68383169
_cell_length_b   5.68383200
_cell_length_c   7.25956823
_cell_angle_alpha   90.00000000
_cell_angle_beta   90.00000000
_cell_angle_gamma   119.99999811
_symmetry_Int_Tables_number   1
_chemical_formula_structural   KNaSO4
_chemical_formula_sum   'K2 Na2 S2 O8'
_cell_volume   203.10652394
_cell_formula_units_Z   2
loop_
 _symmetry_equiv_pos_site_id
 _symmetry_equiv_pos_as_xyz
  1  'x, y, z'
loop_
 _atom_site_type_symbol
 _atom_site_label
 _atom_site_symmetry_multiplicity
 _atom_site_fract_x
 _atom_site_fract_y
 _atom_site_fract_z
 _atom_site_occupancy
  K  K0  1  0.33333300  0.66666700  0.66429703  1
  K  K1  1  0.66666700  0.33333300  0.33570297  1
  Na  Na2  1  0.00000000  0.00000000  0.50000000  1
  Na  Na3  1  0.00000000  0.00000000  0.00000000  1
  S  S4  1  0.33333300  0.66666700  0.21546293  1
  S  S5  1  0.66666700  0.33333300  0.78453707  1
  O  O6  1  0.80989298  0.61978595  0.71139627  1
  O  O7  1  0.61978595  0.80989298  0.28860373  1
  O  O8  1  0.19010702  0.38021405  0.28860373  1
  O  O9  1  0.38021405  0.19010702  0.71139627  1
  O  O10  1  0.66666700  0.33333300  0.98616509  1
  O  O11  1  0.80989298  0.19010702  0.71139627  1
  O  O12  1  0.19010702  0.80989298  0.28860373  1
  O  O13  1  0.33333300  0.66666700  0.01383491  1
