# generated using pymatgen
data_ScBiO3
_symmetry_space_group_name_H-M   'P 1'
_cell_length_a   5.79552240
_cell_length_b   5.79552247
_cell_length_c   10.14259132
_cell_angle_alpha   73.79084996
_cell_angle_beta   73.79084976
_cell_angle_gamma   61.12309396
_symmetry_Int_Tables_number   1
_chemical_formula_structural   ScBiO3
_chemical_formula_sum   'Sc4 Bi4 O12'
_cell_volume   282.20101361
_cell_formula_units_Z   4
loop_
 _symmetry_equiv_pos_site_id
 _symmetry_equiv_pos_as_xyz
  1  'x, y, z'
loop_
 _atom_site_type_symbol
 _atom_site_label
 _atom_site_symmetry_multiplicity
 _atom_site_fract_x
 _atom_site_fract_y
 _atom_site_fract_z
 _atom_site_occupancy
  Sc  Sc0  1  0.76672641  0.73439521  0.75011211  1
  Sc  Sc1  1  0.51515210  0.48484790  0.50000000  1
  Sc  Sc2  1  0.26560479  0.23327359  0.24988789  1
  Sc  Sc3  1  0.01242519  0.98757481  0.00000000  1
  Bi  Bi4  1  0.81209249  0.92093633  0.38334549  1
  Bi  Bi5  1  0.44421853  0.28128736  0.88313187  1
  Bi  Bi6  1  0.71871264  0.55578147  0.11686813  1
  Bi  Bi7  1  0.07906367  0.18790751  0.61665451  1
  O  O8  1  0.64850512  0.05916767  0.58647110  1
  O  O9  1  0.65887720  0.50299216  0.66870810  1
  O  O10  1  0.07814436  0.60601400  0.11395286  1
  O  O11  1  0.94083233  0.35149488  0.41352890  1
  O  O12  1  0.39398600  0.92185564  0.88604714  1
  O  O13  1  0.45852819  0.86003922  0.38225508  1
  O  O14  1  0.02801113  0.12777310  0.17055396  1
  O  O15  1  0.49700784  0.34112280  0.33129190  1
  O  O16  1  0.89025806  0.41143373  0.91529354  1
  O  O17  1  0.13996078  0.54147181  0.61774492  1
  O  O18  1  0.87222690  0.97198887  0.82944604  1
  O  O19  1  0.58856627  0.10974194  0.08470646  1
