# generated using pymatgen
data_LaNb2ClO6
_symmetry_space_group_name_H-M   'P 1'
_cell_length_a   7.40815186
_cell_length_b   8.43792063
_cell_length_c   9.95731409
_cell_angle_alpha   90.00000000
_cell_angle_beta   90.00000000
_cell_angle_gamma   90.00000000
_symmetry_Int_Tables_number   1
_chemical_formula_structural   LaNb2ClO6
_chemical_formula_sum   'La4 Nb8 Cl4 O24'
_cell_volume   622.42570358
_cell_formula_units_Z   4
loop_
 _symmetry_equiv_pos_site_id
 _symmetry_equiv_pos_as_xyz
  1  'x, y, z'
loop_
 _atom_site_type_symbol
 _atom_site_label
 _atom_site_symmetry_multiplicity
 _atom_site_fract_x
 _atom_site_fract_y
 _atom_site_fract_z
 _atom_site_occupancy
  La  La0  1  0.75000000  0.31001452  0.32235640  1
  La  La1  1  0.25000000  0.68998548  0.67764360  1
  La  La2  1  0.25000000  0.81001452  0.17764360  1
  La  La3  1  0.75000000  0.18998548  0.82235640  1
  Nb  Nb4  1  0.50000000  0.00000000  0.50000000  1
  Nb  Nb5  1  0.75000000  0.73220120  0.73565288  1
  Nb  Nb6  1  0.25000000  0.23220120  0.76434712  1
  Nb  Nb7  1  0.75000000  0.76779880  0.23565288  1
  Nb  Nb8  1  0.25000000  0.26779880  0.26434712  1
  Nb  Nb9  1  0.00000000  0.50000000  0.00000000  1
  Nb  Nb10  1  0.50000000  0.50000000  0.00000000  1
  Nb  Nb11  1  0.00000000  0.00000000  0.50000000  1
  Cl  Cl12  1  0.75000000  0.07327474  0.10523514  1
  Cl  Cl13  1  0.75000000  0.42672526  0.60523514  1
  Cl  Cl14  1  0.25000000  0.92672526  0.89476486  1
  Cl  Cl15  1  0.25000000  0.57327474  0.39476486  1
  O  O16  1  0.44510453  0.20008034  0.39589365  1
  O  O17  1  0.45174386  0.11474300  0.67381521  1
  O  O18  1  0.94510453  0.70008034  0.10410635  1
  O  O19  1  0.75000000  0.42006287  0.00323419  1
  O  O20  1  0.25000000  0.08424110  0.17082486  1
  O  O21  1  0.44510453  0.29991966  0.89589365  1
  O  O22  1  0.05489547  0.20008034  0.39589365  1
  O  O23  1  0.25000000  0.57993713  0.99676581  1
  O  O24  1  0.45174386  0.38525700  0.17381521  1
  O  O25  1  0.75000000  0.07993713  0.50323419  1
  O  O26  1  0.55489547  0.70008034  0.10410635  1
  O  O27  1  0.04825614  0.38525700  0.17381521  1
  O  O28  1  0.25000000  0.92006287  0.49676581  1
  O  O29  1  0.54825614  0.61474300  0.82618479  1
  O  O30  1  0.95174386  0.61474300  0.82618479  1
  O  O31  1  0.05489547  0.29991966  0.89589365  1
  O  O32  1  0.25000000  0.41575890  0.67082486  1
  O  O33  1  0.94510453  0.79991966  0.60410635  1
  O  O34  1  0.75000000  0.58424110  0.32917514  1
  O  O35  1  0.75000000  0.91575890  0.82917514  1
  O  O36  1  0.95174386  0.88525700  0.32618479  1
  O  O37  1  0.55489547  0.79991966  0.60410635  1
  O  O38  1  0.04825614  0.11474300  0.67381521  1
  O  O39  1  0.54825614  0.88525700  0.32618479  1
