# generated using pymatgen
data_P2Pb3O8
_symmetry_space_group_name_H-M   'P 1'
_cell_length_a   5.64109991
_cell_length_b   7.58583701
_cell_length_c   9.54364493
_cell_angle_alpha   101.86721812
_cell_angle_beta   90.00000000
_cell_angle_gamma   111.82777542
_symmetry_Int_Tables_number   1
_chemical_formula_structural   P2Pb3O8
_chemical_formula_sum   'P4 Pb6 O16'
_cell_volume   369.69701897
_cell_formula_units_Z   2
loop_
 _symmetry_equiv_pos_site_id
 _symmetry_equiv_pos_as_xyz
  1  'x, y, z'
loop_
 _atom_site_type_symbol
 _atom_site_label
 _atom_site_symmetry_multiplicity
 _atom_site_fract_x
 _atom_site_fract_y
 _atom_site_fract_z
 _atom_site_occupancy
  P  P0  1  0.35413943  0.20827887  0.44990856  1
  P  P1  1  0.64586057  0.79172113  0.55009144  1
  P  P2  1  0.85413943  0.20827887  0.94990856  1
  P  P3  1  0.14586057  0.79172113  0.05009144  1
  Pb  Pb4  1  0.92913578  0.35827157  0.65119128  1
  Pb  Pb5  1  0.07086422  0.64172843  0.34880872  1
  Pb  Pb6  1  0.57086422  0.64172843  0.84880872  1
  Pb  Pb7  1  0.42913578  0.35827157  0.15119128  1
  Pb  Pb8  1  0.75000000  0.00000000  0.25000000  1
  Pb  Pb9  1  0.25000000  0.00000000  0.75000000  1
  O  O10  1  0.88390783  0.71679664  0.11782376  1
  O  O11  1  0.61609217  0.28320336  0.38217624  1
  O  O12  1  0.11609217  0.28320336  0.88217624  1
  O  O13  1  0.66711119  0.28320336  0.88217624  1
  O  O14  1  0.38390783  0.71679664  0.61782376  1
  O  O15  1  0.33288881  0.71679664  0.11782376  1
  O  O16  1  0.10571273  0.71142545  0.88397581  1
  O  O17  1  0.39428727  0.28857455  0.61602419  1
  O  O18  1  0.74131296  0.98262591  0.91727150  1
  O  O19  1  0.16711119  0.28320336  0.38217624  1
  O  O20  1  0.60571273  0.71142545  0.38397581  1
  O  O21  1  0.83288881  0.71679664  0.61782376  1
  O  O22  1  0.25868704  0.01737409  0.08272850  1
  O  O23  1  0.89428727  0.28857455  0.11602419  1
  O  O24  1  0.75868704  0.01737409  0.58272850  1
  O  O25  1  0.24131296  0.98262591  0.41727150  1
