# generated using pymatgen
data_Mo6PbS8
_symmetry_space_group_name_H-M   'P 1'
_cell_length_a   6.60475926
_cell_length_b   6.60475931
_cell_length_c   6.60475991
_cell_angle_alpha   89.12772228
_cell_angle_beta   89.12772232
_cell_angle_gamma   89.12772183
_symmetry_Int_Tables_number   1
_chemical_formula_structural   Mo6PbS8
_chemical_formula_sum   'Mo6 Pb1 S8'
_cell_volume   288.01925860
_cell_formula_units_Z   1
loop_
 _symmetry_equiv_pos_site_id
 _symmetry_equiv_pos_as_xyz
  1  'x, y, z'
loop_
 _atom_site_type_symbol
 _atom_site_label
 _atom_site_symmetry_multiplicity
 _atom_site_fract_x
 _atom_site_fract_y
 _atom_site_fract_z
 _atom_site_occupancy
  Mo  Mo0  1  0.56315153  0.22748600  0.41506777  1
  Mo  Mo1  1  0.77251400  0.58493223  0.43684847  1
  Mo  Mo2  1  0.41506777  0.56315153  0.22748600  1
  Mo  Mo3  1  0.43684847  0.77251400  0.58493223  1
  Mo  Mo4  1  0.58493223  0.43684847  0.77251400  1
  Mo  Mo5  1  0.22748600  0.41506777  0.56315153  1
  Pb  Pb6  1  0.00000000  -0.00000000  -0.00000000  1
  S  S7  1  0.61526548  0.87405052  0.25926091  1
  S  S8  1  0.24473882  0.24473882  0.24473882  1
  S  S9  1  0.74073909  0.38473452  0.12594948  1
  S  S10  1  0.38473452  0.12594948  0.74073909  1
  S  S11  1  0.12594948  0.74073909  0.38473452  1
  S  S12  1  0.25926091  0.61526548  0.87405052  1
  S  S13  1  0.75526118  0.75526118  0.75526118  1
  S  S14  1  0.87405052  0.25926091  0.61526548  1
