# generated using pymatgen
data_Li2Yb5B3O13
_symmetry_space_group_name_H-M   'P 1'
_cell_length_a   3.52269355
_cell_length_b   10.53635289
_cell_length_c   15.91847397
_cell_angle_alpha   108.09261613
_cell_angle_beta   90.00000000
_cell_angle_gamma   90.00000000
_symmetry_Int_Tables_number   1
_chemical_formula_structural   Li2Yb5B3O13
_chemical_formula_sum   'Li4 Yb10 B6 O26'
_cell_volume   561.62211672
_cell_formula_units_Z   2
loop_
 _symmetry_equiv_pos_site_id
 _symmetry_equiv_pos_as_xyz
  1  'x, y, z'
loop_
 _atom_site_type_symbol
 _atom_site_label
 _atom_site_symmetry_multiplicity
 _atom_site_fract_x
 _atom_site_fract_y
 _atom_site_fract_z
 _atom_site_occupancy
  Yb  Yb0  1  0.75000000  0.19039423  0.20536913  1
  Yb  Yb1  1  0.25000000  0.15919295  0.99580533  1
  Yb  Yb2  1  0.75000000  0.97071819  0.61937634  1
  Yb  Yb3  1  0.25000000  0.52747188  0.30070080  1
  Yb  Yb4  1  0.75000000  0.33936990  0.44185350  1
  Yb  Yb5  1  0.75000000  0.84080705  0.00419467  1
  Yb  Yb6  1  0.25000000  0.66063010  0.55814650  1
  Yb  Yb7  1  0.25000000  0.80960577  0.79463087  1
  Yb  Yb8  1  0.25000000  0.02928181  0.38062366  1
  Yb  Yb9  1  0.75000000  0.47252812  0.69929920  1
  Li  Li10  1  0.25000000  0.24718477  0.75381701  1
  Li  Li11  1  0.25000000  0.61023879  0.05010099  1
  Li  Li12  1  0.75000000  0.38976121  0.94989901  1
  Li  Li13  1  0.75000000  0.75281523  0.24618299  1
  B  B14  1  0.25000000  0.41798495  0.11376388  1
  B  B15  1  0.75000000  0.09671086  0.81954555  1
  B  B16  1  0.75000000  0.58201505  0.88623612  1
  B  B17  1  0.25000000  0.21484562  0.57603542  1
  B  B18  1  0.25000000  0.90328914  0.18045445  1
  B  B19  1  0.75000000  0.78515438  0.42396458  1
  O  O20  1  0.25000000  0.85310932  0.24997428  1
  O  O21  1  0.75000000  0.91519468  0.42284157  1
  O  O22  1  0.25000000  0.31303099  0.15098721  1
  O  O23  1  0.25000000  0.60421209  0.68609832  1
  O  O24  1  0.25000000  0.04093584  0.19642262  1
  O  O25  1  0.75000000  0.13788585  0.33777802  1
  O  O26  1  0.75000000  0.45005385  0.83651387  1
  O  O27  1  0.75000000  0.68227917  0.34550174  1
  O  O28  1  0.25000000  0.93192463  0.94747091  1
  O  O29  1  0.25000000  0.54994615  0.16348613  1
  O  O30  1  0.75000000  0.68696901  0.84901279  1
  O  O31  1  0.75000000  0.14689068  0.75002572  1
  O  O32  1  0.25000000  0.82015778  0.09491984  1
  O  O33  1  0.75000000  0.95906416  0.80357738  1
  O  O34  1  0.25000000  0.47745858  0.42996795  1
  O  O35  1  0.25000000  0.23840412  0.49557665  1
  O  O36  1  0.75000000  0.52254142  0.57003205  1
  O  O37  1  0.25000000  0.31772083  0.65449826  1
  O  O38  1  0.25000000  0.39004352  0.02226867  1
  O  O39  1  0.25000000  0.08480532  0.57715843  1
  O  O40  1  0.75000000  0.60995648  0.97773133  1
  O  O41  1  0.75000000  0.06807537  0.05252909  1
  O  O42  1  0.75000000  0.39578791  0.31390168  1
  O  O43  1  0.75000000  0.76159588  0.50442335  1
  O  O44  1  0.25000000  0.86211415  0.66222198  1
  O  O45  1  0.75000000  0.17984222  0.90508016  1
