# generated using pymatgen
data_SrCuAs2O7
_symmetry_space_group_name_H-M   'P 1'
_cell_length_a   5.71585670
_cell_length_b   8.38065759
_cell_length_c   13.05527597
_cell_angle_alpha   90.00000000
_cell_angle_beta   92.23771137
_cell_angle_gamma   90.00000000
_symmetry_Int_Tables_number   1
_chemical_formula_structural   SrCuAs2O7
_chemical_formula_sum   'Sr4 Cu4 As8 O28'
_cell_volume   624.90526060
_cell_formula_units_Z   4
loop_
 _symmetry_equiv_pos_site_id
 _symmetry_equiv_pos_as_xyz
  1  'x, y, z'
loop_
 _atom_site_type_symbol
 _atom_site_label
 _atom_site_symmetry_multiplicity
 _atom_site_fract_x
 _atom_site_fract_y
 _atom_site_fract_z
 _atom_site_occupancy
  Sr  Sr0  1  0.29135867  0.65872548  0.78265958  1
  Sr  Sr1  1  0.70864133  0.34127452  0.21734042  1
  Sr  Sr2  1  0.79135867  0.84127452  0.28265958  1
  Sr  Sr3  1  0.20864133  0.15872548  0.71734042  1
  Cu  Cu4  1  0.79428610  0.85798011  0.61924833  1
  Cu  Cu5  1  0.70571390  0.35798011  0.88075167  1
  Cu  Cu6  1  0.20571390  0.14201989  0.38075167  1
  Cu  Cu7  1  0.29428610  0.64201989  0.11924833  1
  As  As8  1  0.67454912  0.18143625  0.50533263  1
  As  As9  1  0.25310075  0.03315668  0.15710739  1
  As  As10  1  0.17454912  0.31856375  0.00533263  1
  As  As11  1  0.75310075  0.46684332  0.65710739  1
  As  As12  1  0.32545088  0.81856375  0.49466737  1
  As  As13  1  0.74689925  0.96684332  0.84289261  1
  As  As14  1  0.24689925  0.53315668  0.34289261  1
  As  As15  1  0.82545088  0.68143625  0.99466737  1
  O  O16  1  0.96288822  0.55367958  0.30471459  1
  O  O17  1  0.79080019  0.15933042  0.38952312  1
  O  O18  1  0.21712133  0.10875803  0.03022444  1
  O  O19  1  0.20919981  0.84066958  0.61047688  1
  O  O20  1  0.78287867  0.89124197  0.96977556  1
  O  O21  1  0.87720467  0.35185468  0.01797503  1
  O  O22  1  0.67161338  0.59202229  0.89335791  1
  O  O23  1  0.85328426  0.15743696  0.84728582  1
  O  O24  1  0.17161338  0.90797771  0.39335791  1
  O  O25  1  0.12279533  0.64814532  0.98202497  1
  O  O26  1  0.43865146  0.63081913  0.26541571  1
  O  O27  1  0.93865146  0.86918087  0.76541571  1
  O  O28  1  0.14671574  0.84256304  0.15271418  1
  O  O29  1  0.56134854  0.36918087  0.73458429  1
  O  O30  1  0.71712133  0.39124197  0.53022444  1
  O  O31  1  0.32838662  0.40797771  0.10664209  1
  O  O32  1  0.37720467  0.14814532  0.51797503  1
  O  O33  1  0.29080019  0.34066958  0.88952312  1
  O  O34  1  0.35328426  0.34256304  0.34728582  1
  O  O35  1  0.03711178  0.44632042  0.69528541  1
  O  O36  1  0.06134854  0.13081913  0.23458429  1
  O  O37  1  0.46288822  0.94632042  0.80471459  1
  O  O38  1  0.82838662  0.09202229  0.60664209  1
  O  O39  1  0.62279533  0.85185468  0.48202497  1
  O  O40  1  0.70919981  0.65933042  0.11047688  1
  O  O41  1  0.64671574  0.65743696  0.65271418  1
  O  O42  1  0.28287867  0.60875803  0.46977556  1
  O  O43  1  0.53711178  0.05367958  0.19528541  1
