# generated using pymatgen
data_HoCu(WO4)2
_symmetry_space_group_name_H-M   'P 1'
_cell_length_a   5.08321185
_cell_length_b   6.00948586
_cell_length_c   10.01010289
_cell_angle_alpha   90.00000000
_cell_angle_beta   92.75260474
_cell_angle_gamma   90.00000000
_symmetry_Int_Tables_number   1
_chemical_formula_structural   HoCu(WO4)2
_chemical_formula_sum   'Ho2 Cu2 W4 O16'
_cell_volume   305.43070362
_cell_formula_units_Z   2
loop_
 _symmetry_equiv_pos_site_id
 _symmetry_equiv_pos_as_xyz
  1  'x, y, z'
loop_
 _atom_site_type_symbol
 _atom_site_label
 _atom_site_symmetry_multiplicity
 _atom_site_fract_x
 _atom_site_fract_y
 _atom_site_fract_z
 _atom_site_occupancy
  O  O0  1  0.40589439  0.35786504  0.13662820  1
  O  O1  1  0.09410561  0.35786504  0.36337180  1
  O  O2  1  0.59410561  0.64213496  0.86337180  1
  O  O3  1  0.90589439  0.64213496  0.63662820  1
  O  O4  1  0.44824622  0.91078816  0.61030758  1
  O  O5  1  0.05175378  0.91078816  0.88969242  1
  O  O6  1  0.55175378  0.08921184  0.38969242  1
  O  O7  1  0.94824622  0.08921184  0.11030758  1
  O  O8  1  0.89429493  0.63505490  0.11161049  1
  O  O9  1  0.60570507  0.63505490  0.38838951  1
  O  O10  1  0.10570507  0.36494510  0.88838951  1
  O  O11  1  0.39429493  0.36494510  0.61161049  1
  O  O12  1  0.93650633  0.11442626  0.59715418  1
  O  O13  1  0.56349367  0.11442626  0.90284582  1
  O  O14  1  0.06349367  0.88557374  0.40284582  1
  O  O15  1  0.43650633  0.88557374  0.09715418  1
  Cu  Cu16  1  0.25000000  0.71843510  0.75000000  1
  Cu  Cu17  1  0.75000000  0.28156490  0.25000000  1
  Ho  Ho18  1  0.75000000  0.33661125  0.75000000  1
  Ho  Ho19  1  0.25000000  0.66338875  0.25000000  1
  W  W20  1  0.24897913  0.16770922  0.01096091  1
  W  W21  1  0.75102087  0.83229078  0.98903909  1
  W  W22  1  0.25102087  0.16770922  0.48903909  1
  W  W23  1  0.74897913  0.83229078  0.51096091  1
