# generated using pymatgen
data_Pb5(CO4)3
_symmetry_space_group_name_H-M   'P 1'
_cell_length_a   9.17803714
_cell_length_b   9.19224399
_cell_length_c   26.40227760
_cell_angle_alpha   90.14887436
_cell_angle_beta   90.24927543
_cell_angle_gamma   59.87959402
_symmetry_Int_Tables_number   1
_chemical_formula_structural   Pb5(CO4)3
_chemical_formula_sum   'Pb30 C18 O72'
_cell_volume   1926.68631858
_cell_formula_units_Z   6
loop_
 _symmetry_equiv_pos_site_id
 _symmetry_equiv_pos_as_xyz
  1  'x, y, z'
loop_
 _atom_site_type_symbol
 _atom_site_label
 _atom_site_symmetry_multiplicity
 _atom_site_fract_x
 _atom_site_fract_y
 _atom_site_fract_z
 _atom_site_occupancy
  Pb  Pb0  1  0.22705192  0.77161493  0.30224588  1
  Pb  Pb1  1  0.77273742  0.00041411  0.30157514  1
  Pb  Pb2  1  0.99984971  0.22700149  0.30241817  1
  Pb  Pb3  1  0.77177490  0.22759031  0.80160938  1
  Pb  Pb4  1  0.22778278  0.99914282  0.80257026  1
  Pb  Pb5  1  0.99853511  0.77411467  0.80220897  1
  Pb  Pb6  1  0.35032221  0.00014465  0.40018454  1
  Pb  Pb7  1  0.00110268  0.64940614  0.40029165  1
  Pb  Pb8  1  0.64936630  0.35071862  0.40022954  1
  Pb  Pb9  1  0.64963305  0.99989921  0.90026435  1
  Pb  Pb10  1  0.00008865  0.34975702  0.90018343  1
  Pb  Pb11  1  0.35097263  0.65023773  0.90034870  1
  Pb  Pb12  1  0.99911109  0.99892555  0.18115587  1
  Pb  Pb13  1  0.99757484  0.00084769  0.68130090  1
  Pb  Pb14  1  0.65468039  0.66327516  0.21862372  1
  Pb  Pb15  1  0.32955518  0.32413576  0.21651499  1
  Pb  Pb16  1  0.31860847  0.34499571  0.71882496  1
  Pb  Pb17  1  0.65405951  0.67021383  0.71658106  1
  Pb  Pb18  1  0.62611855  0.92727741  0.10968636  1
  Pb  Pb19  1  0.93154543  0.44601706  0.11034942  1
  Pb  Pb20  1  0.37374979  0.55154342  0.10947398  1
  Pb  Pb21  1  0.37771520  0.06903312  0.61076403  1
  Pb  Pb22  1  0.55381250  0.37299349  0.60984831  1
  Pb  Pb23  1  0.92584036  0.62523098  0.60951710  1
  Pb  Pb24  1  0.31324638  0.00633900  0.00974052  1
  Pb  Pb25  1  0.00370593  0.67508543  0.00520991  1
  Pb  Pb26  1  0.67676072  0.31693592  0.00606595  1
  Pb  Pb27  1  0.67873895  0.99646844  0.50543406  1
  Pb  Pb28  1  0.99379424  0.32279054  0.50627338  1
  Pb  Pb29  1  0.31970949  0.68677620  0.50980372  1
  C  C30  1  0.00046822  0.99802027  0.02609787  1
  C  C31  1  0.99855684  -0.00004583  0.52625547  1
  C  C32  1  0.33336457  0.33313864  0.37951914  1
  C  C33  1  0.66666781  0.66639148  0.37964332  1
  C  C34  1  0.66634845  0.66679264  0.87956936  1
  C  C35  1  0.33322495  0.33350133  0.87973148  1
  C  C36  1  0.99927418  0.67149708  0.20348586  1
  C  C37  1  0.66958132  0.33019514  0.20315296  1
  C  C38  1  0.33032485  0.99841983  0.20292669  1
  C  C39  1  0.99980095  0.33013100  0.70323904  1
  C  C40  1  0.32883754  0.66929786  0.70303112  1
  C  C41  1  0.67070516  0.00057202  0.70363117  1
  C  C42  1  0.66371198  0.66719601  0.01546998  1
  C  C43  1  0.33400010  0.32724552  0.01504399  1
  C  C44  1  0.33037448  0.33668647  0.51560409  1
  C  C45  1  0.66099971  0.66660669  0.51512168  1
  C  C46  1  0.00046213  0.99980311  0.40142006  1
  C  C47  1  0.00014447  0.00022971  0.90134899  1
  O  O48  1  0.00003853  0.52897485  0.20435892  1
  O  O49  1  0.52729870  0.47338830  0.20345421  1
  O  O50  1  0.47359111  0.99774951  0.20215427  1
  O  O51  1  0.00069506  0.47211288  0.70339224  1
  O  O52  1  0.47175989  0.52626552  0.70226579  1
  O  O53  1  0.52867852  0.00010769  0.70439588  1
  O  O54  1  0.14138033  0.67149320  0.20281657  1
  O  O55  1  0.66952645  0.18924752  0.20348360  1
  O  O56  1  0.18941413  0.14054298  0.20376419  1
  O  O57  1  0.81165277  0.33060891  0.20279572  1
  O  O58  1  0.85732046  0.81359829  0.20346681  1
  O  O59  1  0.33099763  0.85679550  0.20326301  1
  O  O60  1  0.85845377  0.33058776  0.70372952  1
  O  O61  1  0.33016707  0.80981513  0.70386958  1
  O  O62  1  0.81306013  0.85885763  0.70297151  1
  O  O63  1  0.18762489  0.66894224  0.70339134  1
  O  O64  1  0.14250429  0.18839454  0.70290718  1
  O  O65  1  0.67073495  0.14213862  0.70370460  1
  O  O66  1  0.68009353  0.66935924  0.13383292  1
  O  O67  1  0.33099662  0.34492587  0.13142119  1
  O  O68  1  0.34967184  0.31980949  0.63414168  1
  O  O69  1  0.67581643  0.66959653  0.63166948  1
  O  O70  1  0.85828980  0.00017197  0.40061082  1
  O  O71  1  0.00079828  0.14154589  0.40082293  1
  O  O72  1  0.14300403  0.85730306  0.40121448  1
  O  O73  1  0.14294946  0.99964447  0.90116940  1
  O  O74  1  0.00044167  0.85834309  0.90051566  1
  O  O75  1  0.85824121  0.14235079  0.90077880  1
  O  O76  1  0.47677262  0.19268768  0.38021464  1
  O  O77  1  0.19258947  0.33088268  0.37994155  1
  O  O78  1  0.33044315  0.47637754  0.38007856  1
  O  O79  1  0.66898552  0.80683686  0.38008526  1
  O  O80  1  0.52327448  0.66909434  0.38005293  1
  O  O81  1  0.80747336  0.52318635  0.38042273  1
  O  O82  1  0.52288379  0.80740823  0.88015916  1
  O  O83  1  0.80694120  0.66925656  0.88028415  1
  O  O84  1  0.66901406  0.52392564  0.87995000  1
  O  O85  1  0.33083275  0.19298188  0.88013728  1
  O  O86  1  0.47650406  0.33056605  0.88040578  1
  O  O87  1  0.19238813  0.47649386  0.88027076  1
  O  O88  1  0.36562932  0.99723148  0.09030566  1
  O  O89  1  0.99882251  0.64308954  0.08972598  1
  O  O90  1  0.64069744  0.37568317  0.09013443  1
  O  O91  1  0.64257089  0.00106587  0.58987789  1
  O  O92  1  0.01580199  0.35909711  0.59019522  1
  O  O93  1  0.36281135  0.63372817  0.59048407  1
  O  O94  1  0.67276205  0.80411359  0.01918194  1
  O  O95  1  0.80192554  0.52104415  0.01750536  1
  O  O96  1  0.51993670  0.67570174  0.00911150  1
  O  O97  1  0.47680799  0.18952641  0.01263004  1
  O  O98  1  0.32947040  0.47249239  0.01964487  1
  O  O99  1  0.19269707  0.32731594  0.01166341  1
  O  O100  1  0.32260250  0.19867525  0.51754376  1
  O  O101  1  0.19511213  0.48012069  0.50936063  1
  O  O102  1  0.47713310  0.32707845  0.51935510  1
  O  O103  1  0.51955372  0.80763839  0.51190152  1
  O  O104  1  0.66590428  0.52406617  0.51259790  1
  O  O105  1  0.80235679  0.67051803  0.51971731  1
  O  O106  1  0.26372176  0.99918456  0.31929528  1
  O  O107  1  0.00049337  0.73771302  0.31951358  1
  O  O108  1  0.73688591  0.26420385  0.31930412  1
  O  O109  1  0.73703605  0.00064432  0.81957502  1
  O  O110  1  0.00097754  0.26188496  0.81940114  1
  O  O111  1  0.26380080  0.73642762  0.81931596  1
  O  O112  1  0.00025087  0.00014573  0.26679045  1
  O  O113  1  0.00018309  0.99996742  0.76691646  1
  O  O114  1  0.14247495  0.85621550  0.02578437  1
  O  O115  1  0.85835258  0.99976892  0.02621024  1
  O  O116  1  0.00140417  0.13966550  0.02465709  1
  O  O117  1  0.85763123  0.14193844  0.52636585  1
  O  O118  1  0.14137982  0.99877644  0.52480247  1
  O  O119  1  0.99871590  0.85830261  0.52597574  1
