# generated using pymatgen
data_H2O
_symmetry_space_group_name_H-M   'P 1'
_cell_length_a   3.96751249
_cell_length_b   8.12138675
_cell_length_c   8.32015926
_cell_angle_alpha   90.00229527
_cell_angle_beta   90.05835834
_cell_angle_gamma   90.01231274
_symmetry_Int_Tables_number   1
_chemical_formula_structural   H2O
_chemical_formula_sum   'H24 O12'
_cell_volume   268.08955805
_cell_formula_units_Z   12
loop_
 _symmetry_equiv_pos_site_id
 _symmetry_equiv_pos_as_xyz
  1  'x, y, z'
loop_
 _atom_site_type_symbol
 _atom_site_label
 _atom_site_symmetry_multiplicity
 _atom_site_fract_x
 _atom_site_fract_y
 _atom_site_fract_z
 _atom_site_occupancy
  H  H0  1  0.27257757  0.07624046  0.84677884  1
  H  H1  1  0.63817121  0.54740097  0.40631356  1
  H  H2  1  0.51017179  0.66090611  0.91299519  1
  H  H3  1  0.19030434  0.21962095  0.72754842  1
  H  H4  1  0.46190085  0.22427390  0.21564793  1
  H  H5  1  0.89671544  0.08847458  0.46605297  1
  H  H6  1  0.78819592  0.72429642  0.78467101  1
  H  H7  1  0.11265374  0.45283264  0.90594520  1
  H  H8  1  0.35158887  0.58890229  0.53431430  1
  H  H9  1  0.74043897  0.16104661  0.08740220  1
  H  H10  1  0.00860318  0.83902133  0.58729972  1
  H  H11  1  0.60952804  0.04674376  0.59367963  1
  H  H12  1  0.05946568  0.72007885  0.27193941  1
  H  H13  1  0.77299058  0.42339115  0.65257264  1
  H  H14  1  0.39911780  0.41128591  0.03421398  1
  H  H15  1  0.55903847  0.78016542  0.22795727  1
  H  H16  1  0.24084260  0.33902384  0.41320573  1
  H  H17  1  0.85208509  0.91166306  0.96615409  1
  H  H18  1  0.47720854  0.92356189  0.34716837  1
  H  H19  1  0.69099625  0.27969100  0.77140776  1
  H  H20  1  0.96218097  0.27596753  0.28480934  1
  H  H21  1  0.13926495  0.95346299  0.09399577  1
  H  H22  1  0.28782710  0.77602261  0.71555609  1
  H  H23  1  0.97704234  0.57650729  0.15297703  1
  O  O24  1  0.75031067  0.99801854  0.50700731  1
  O  O25  1  0.25292173  0.50170725  0.99281003  1
  O  O26  1  0.99827299  0.00219477  0.00721530  1
  O  O27  1  0.87948641  0.63821974  0.24520596  1
  O  O28  1  0.14252296  0.23945022  0.36063902  1
  O  O29  1  0.87111083  0.36131892  0.74460277  1
  O  O30  1  0.64227658  0.26062292  0.13988470  1
  O  O31  1  0.49814187  0.49857762  0.49316562  1
  O  O32  1  0.10735429  0.73951779  0.63978939  1
  O  O33  1  0.37015925  0.13776055  0.75437877  1
  O  O34  1  0.60801750  0.76060705  0.86050959  1
  O  O35  1  0.37911463  0.86182307  0.25488510  1
