# generated using pymatgen
data_NaNbO3
_symmetry_space_group_name_H-M   'P 1'
_cell_length_a   5.73822740
_cell_length_b   5.69120510
_cell_length_c   15.95675738
_cell_angle_alpha   90.00000000
_cell_angle_beta   90.00000000
_cell_angle_gamma   90.00000000
_symmetry_Int_Tables_number   1
_chemical_formula_structural   NaNbO3
_chemical_formula_sum   'Na8 Nb8 O24'
_cell_volume   521.10667191
_cell_formula_units_Z   8
loop_
 _symmetry_equiv_pos_site_id
 _symmetry_equiv_pos_as_xyz
  1  'x, y, z'
loop_
 _atom_site_type_symbol
 _atom_site_label
 _atom_site_symmetry_multiplicity
 _atom_site_fract_x
 _atom_site_fract_y
 _atom_site_fract_z
 _atom_site_occupancy
  Na  Na0  1  0.04597589  0.50000000  0.50000000  1
  Na  Na1  1  0.54655977  0.00000000  0.50000000  1
  Na  Na2  1  0.95402411  0.50000000  0.00000000  1
  Na  Na3  1  0.00000000  0.50459545  0.25000000  1
  Na  Na4  1  0.50000000  -0.00075985  0.75000000  1
  Na  Na5  1  0.50000000  1.00075985  0.25000000  1
  Na  Na6  1  0.00000000  0.49540455  0.75000000  1
  Na  Na7  1  0.45344023  0.00000000  0.00000000  1
  Nb  Nb8  1  0.47477106  0.49966744  0.87514695  1
  Nb  Nb9  1  0.47477106  0.50033256  0.12485305  1
  Nb  Nb10  1  0.52522894  0.49966744  0.62485305  1
  Nb  Nb11  1  0.97464392  0.00089723  0.12483265  1
  Nb  Nb12  1  0.02535608  0.99910277  0.62483265  1
  Nb  Nb13  1  0.02535608  0.00089723  0.37516735  1
  Nb  Nb14  1  0.97464392  0.99910277  0.87516735  1
  Nb  Nb15  1  0.52522894  0.50033256  0.37514695  1
  O  O16  1  0.51410389  0.50000000  0.00000000  1
  O  O17  1  0.48589611  0.50000000  0.50000000  1
  O  O18  1  0.25784906  0.75361040  0.12521996  1
  O  O19  1  0.75761964  0.25359006  0.12471510  1
  O  O20  1  0.00000000  0.00097808  0.25000000  1
  O  O21  1  0.25734583  0.24761610  0.12469336  1
  O  O22  1  0.74215094  0.24638960  0.62521996  1
  O  O23  1  0.98587489  0.00000000  0.50000000  1
  O  O24  1  0.24244477  0.74755545  0.37479798  1
  O  O25  1  0.50000000  0.49865227  0.25000000  1
  O  O26  1  0.74265417  0.24761610  0.37530664  1
  O  O27  1  0.01412511  0.00000000  0.00000000  1
  O  O28  1  0.25784906  0.24638960  0.87478004  1
  O  O29  1  0.74215094  0.75361040  0.37478004  1
  O  O30  1  0.24244477  0.25244455  0.62520202  1
  O  O31  1  0.74265417  0.75238390  0.62469336  1
  O  O32  1  0.50000000  0.50134773  0.75000000  1
  O  O33  1  0.25734583  0.75238390  0.87530664  1
  O  O34  1  0.75761964  0.74640994  0.87528490  1
  O  O35  1  0.75755523  0.74755545  0.12520202  1
  O  O36  1  0.75755523  0.25244455  0.87479798  1
  O  O37  1  0.24238036  0.25359006  0.37528490  1
  O  O38  1  0.00000000  0.99902192  0.75000000  1
  O  O39  1  0.24238036  0.74640994  0.62471510  1
