# generated using pymatgen
data_KYb2F7
_symmetry_space_group_name_H-M   'P 1'
_cell_length_a   4.34966538
_cell_length_b   6.03297842
_cell_length_c   6.93421592
_cell_angle_alpha   113.12152821
_cell_angle_beta   90.00000000
_cell_angle_gamma   90.00000000
_symmetry_Int_Tables_number   1
_chemical_formula_structural   KYb2F7
_chemical_formula_sum   'K1 Yb2 F7'
_cell_volume   167.34737214
_cell_formula_units_Z   1
loop_
 _symmetry_equiv_pos_site_id
 _symmetry_equiv_pos_as_xyz
  1  'x, y, z'
loop_
 _atom_site_type_symbol
 _atom_site_label
 _atom_site_symmetry_multiplicity
 _atom_site_fract_x
 _atom_site_fract_y
 _atom_site_fract_z
 _atom_site_occupancy
  K  K0  1  0.49644842  0.00000000  0.50000000  1
  Yb  Yb1  1  0.99131360  0.29418513  0.20745466  1
  Yb  Yb2  1  0.99131360  0.70581487  0.79254534  1
  F  F3  1  0.99479776  0.89686927  0.15179059  1
  F  F4  1  0.99659232  0.32615859  0.54767246  1
  F  F5  1  0.49132718  0.73344589  0.76722224  1
  F  F6  1  0.99479776  0.10313073  0.84820941  1
  F  F7  1  0.99659232  0.67384141  0.45232754  1
  F  F8  1  0.94828984  0.50000000  -0.00000000  1
  F  F9  1  0.49132718  0.26655411  0.23277776  1
