# generated using pymatgen
data_H2O
_symmetry_space_group_name_H-M   'P 1'
_cell_length_a   3.97078367
_cell_length_b   8.19844026
_cell_length_c   8.26686516
_cell_angle_alpha   89.99124527
_cell_angle_beta   89.98901963
_cell_angle_gamma   89.95352896
_symmetry_Int_Tables_number   1
_chemical_formula_structural   H2O
_chemical_formula_sum   'H24 O12'
_cell_volume   269.12135535
_cell_formula_units_Z   12
loop_
 _symmetry_equiv_pos_site_id
 _symmetry_equiv_pos_as_xyz
  1  'x, y, z'
loop_
 _atom_site_type_symbol
 _atom_site_label
 _atom_site_symmetry_multiplicity
 _atom_site_fract_x
 _atom_site_fract_y
 _atom_site_fract_z
 _atom_site_occupancy
  H  H0  1  0.48136690  0.91915527  0.64920712  1
  H  H1  1  0.85748981  0.08794094  0.94618969  1
  H  H2  1  0.01486276  0.15648196  0.57507543  1
  H  H3  1  0.68515096  0.28001156  0.22828904  1
  H  H4  1  0.06521769  0.72025933  0.72760355  1
  H  H5  1  0.23378828  0.65619627  0.42488899  1
  H  H6  1  0.39414030  0.58829879  0.05404476  1
  H  H7  1  0.76790817  0.41900842  0.35101619  1
  H  H8  1  0.18454362  0.22064501  0.27213065  1
  H  H9  1  0.14089331  0.95772634  0.90147572  1
  H  H10  1  0.44611594  0.22574562  0.78009759  1
  H  H11  1  0.60775014  0.04278679  0.40111424  1
  H  H12  1  0.80461563  0.72542000  0.22003680  1
  H  H13  1  0.30410473  0.77358058  0.27958544  1
  H  H14  1  0.89084789  0.91230027  0.44562677  1
  H  H15  1  0.11071830  0.45822952  0.09874998  1
  H  H16  1  0.64098553  0.54207341  0.59909756  1
  H  H17  1  0.35827297  0.41164592  0.55439156  1
  H  H18  1  0.26744533  0.08102618  0.14992455  1
  H  H19  1  0.98312862  0.58113625  0.85033412  1
  H  H20  1  0.94583762  0.27391150  0.72044141  1
  H  H21  1  0.73535792  0.84320048  0.07488244  1
  H  H22  1  0.56476573  0.77967040  0.77146513  1
  H  H23  1  0.51601697  0.34372942  0.92501639  1
  O  O24  1  0.99869773  0.99874042  0.99187432  1
  O  O25  1  0.49926220  0.50087759  0.50868721  1
  O  O26  1  0.74968663  0.00150963  0.49145285  1
  O  O27  1  0.62732074  0.75451655  0.13931281  1
  O  O28  1  0.36500399  0.13997230  0.24428626  1
  O  O29  1  0.12625419  0.74477147  0.36003347  1
  O  O30  1  0.86547348  0.36045111  0.25628899  1
  O  O31  1  0.62365312  0.25479634  0.86053355  1
  O  O32  1  0.38407484  0.86018691  0.74362576  1
  O  O33  1  0.25263591  0.49911045  0.00837818  1
  O  O34  1  0.12323101  0.24483335  0.63982425  1
  O  O35  1  0.88518104  0.63965365  0.75571725  1
