# generated using pymatgen
data_LiScF4
_symmetry_space_group_name_H-M   'P 1'
_cell_length_a   5.05767112
_cell_length_b   5.05747959
_cell_length_c   6.22069253
_cell_angle_alpha   113.98704311
_cell_angle_beta   113.98714895
_cell_angle_gamma   89.99384745
_symmetry_Int_Tables_number   1
_chemical_formula_structural   LiScF4
_chemical_formula_sum   'Li2 Sc2 F8'
_cell_volume   130.19640612
_cell_formula_units_Z   2
loop_
 _symmetry_equiv_pos_site_id
 _symmetry_equiv_pos_as_xyz
  1  'x, y, z'
loop_
 _atom_site_type_symbol
 _atom_site_label
 _atom_site_symmetry_multiplicity
 _atom_site_fract_x
 _atom_site_fract_y
 _atom_site_fract_z
 _atom_site_occupancy
  Li  Li0  1  0.87499161  0.62498312  0.74998363  1
  Li  Li1  1  0.12500839  0.37501688  0.25001637  1
  Sc  Sc2  1  0.62500993  0.87502556  0.25001510  1
  Sc  Sc3  1  0.37499007  0.12497444  0.74998490  1
  F  F4  1  0.61630529  0.25489833  0.58903572  1
  F  F5  1  0.97271436  0.83398538  0.58893138  1
  F  F6  1  0.75492024  0.47272754  0.08900319  1
  F  F7  1  0.24507976  0.52727246  0.91099681  1
  F  F8  1  0.66596511  0.88370880  0.91102357  1
  F  F9  1  0.02728564  0.16601462  0.41106862  1
  F  F10  1  0.33403489  0.11629120  0.08897643  1
  F  F11  1  0.38369471  0.74510167  0.41096428  1
