# generated using pymatgen
data_MnH6SO6
_symmetry_space_group_name_H-M   'P 1'
_cell_length_a   5.67462132
_cell_length_b   9.60686279
_cell_length_c   9.92404637
_cell_angle_alpha   90.00000000
_cell_angle_beta   90.00000000
_cell_angle_gamma   90.00000000
_symmetry_Int_Tables_number   1
_chemical_formula_structural   MnH6SO6
_chemical_formula_sum   'Mn4 H24 S4 O24'
_cell_volume   541.01244850
_cell_formula_units_Z   4
loop_
 _symmetry_equiv_pos_site_id
 _symmetry_equiv_pos_as_xyz
  1  'x, y, z'
loop_
 _atom_site_type_symbol
 _atom_site_label
 _atom_site_symmetry_multiplicity
 _atom_site_fract_x
 _atom_site_fract_y
 _atom_site_fract_z
 _atom_site_occupancy
  Mn  Mn0  1  0.24612014  0.19050608  0.27504186  1
  Mn  Mn1  1  0.25387986  0.80949392  0.77504186  1
  Mn  Mn2  1  0.74612014  0.30949392  0.72495814  1
  Mn  Mn3  1  0.75387986  0.69050608  0.22495814  1
  H  H4  1  0.98730541  0.09867019  0.86968820  1
  H  H5  1  0.61806543  0.46792497  0.40578377  1
  H  H6  1  0.10364926  0.96715496  0.10130236  1
  H  H7  1  0.89635074  0.46715496  0.39869764  1
  H  H8  1  0.51917167  0.09924316  0.87297120  1
  H  H9  1  0.01269459  0.59867019  0.63031180  1
  H  H10  1  0.68369470  0.70977227  0.64871128  1
  H  H11  1  0.98082833  0.90075684  0.37297120  1
  H  H12  1  0.60364926  0.53284504  0.89869764  1
  H  H13  1  0.81630530  0.29022773  0.14871128  1
  H  H14  1  0.49736326  0.26370885  0.03956974  1
  H  H15  1  0.11806543  0.03207503  0.59421623  1
  H  H16  1  0.01917167  0.40075684  0.12702880  1
  H  H17  1  0.48082833  0.59924316  0.62702880  1
  H  H18  1  0.48730541  0.40132981  0.13031180  1
  H  H19  1  0.38193457  0.96792497  0.09421623  1
  H  H20  1  0.31630530  0.20977227  0.85128872  1
  H  H21  1  0.51269459  0.90132981  0.36968820  1
  H  H22  1  0.50263674  0.76370885  0.46043026  1
  H  H23  1  0.88193457  0.53207503  0.90578377  1
  H  H24  1  0.39635074  0.03284504  0.60130236  1
  H  H25  1  0.99736326  0.23629115  0.96043026  1
  H  H26  1  0.00263674  0.73629115  0.53956974  1
  H  H27  1  0.18369470  0.79022773  0.35128872  1
  S  S28  1  0.25476459  0.65794142  0.06509387  1
  S  S29  1  0.24523541  0.34205858  0.56509387  1
  S  S30  1  0.74523541  0.15794142  0.43490613  1
  S  S31  1  0.75476459  0.84205858  0.93490613  1
  O  O32  1  0.98951693  0.29741403  0.13128065  1
  O  O33  1  0.25444954  0.98597232  0.63515979  1
  O  O34  1  0.99046254  0.70279957  0.63469465  1
  O  O35  1  0.02940031  0.42399327  0.61980906  1
  O  O36  1  0.74555046  0.48597232  0.86484021  1
  O  O37  1  0.53640982  0.92377455  0.88269974  1
  O  O38  1  0.48951693  0.20258597  0.86871935  1
  O  O39  1  0.47059969  0.57600673  0.11980906  1
  O  O40  1  0.50953746  0.29720043  0.13469465  1
  O  O41  1  0.25764652  0.62917522  0.91133164  1
  O  O42  1  0.24555046  0.01402768  0.13515979  1
  O  O43  1  0.52940031  0.07600673  0.38019094  1
  O  O44  1  0.51048307  0.70258597  0.63128065  1
  O  O45  1  0.75444954  0.51402768  0.36484021  1
  O  O46  1  0.46359018  0.42377455  0.61730026  1
  O  O47  1  0.75764652  0.87082478  0.08866836  1
  O  O48  1  0.74235348  0.12917522  0.58866836  1
  O  O49  1  0.01048307  0.79741403  0.36871935  1
  O  O50  1  0.00953746  0.20279957  0.86530535  1
  O  O51  1  0.03640982  0.57622545  0.11730026  1
  O  O52  1  0.49046254  0.79720043  0.36530535  1
  O  O53  1  0.96359018  0.07622545  0.38269974  1
  O  O54  1  0.97059969  0.92399327  0.88019094  1
  O  O55  1  0.24235348  0.37082478  0.41133164  1
