# generated using pymatgen
data_Y(FeO2)2
_symmetry_space_group_name_H-M   'P 1'
_cell_length_a   3.54395845
_cell_length_b   3.53520837
_cell_length_c   25.20060576
_cell_angle_alpha   89.99446504
_cell_angle_beta   90.12836467
_cell_angle_gamma   119.90880929
_symmetry_Int_Tables_number   1
_chemical_formula_structural   Y(FeO2)2
_chemical_formula_sum   'Y3 Fe6 O12'
_cell_volume   273.67945671
_cell_formula_units_Z   3
loop_
 _symmetry_equiv_pos_site_id
 _symmetry_equiv_pos_as_xyz
  1  'x, y, z'
loop_
 _atom_site_type_symbol
 _atom_site_label
 _atom_site_symmetry_multiplicity
 _atom_site_fract_x
 _atom_site_fract_y
 _atom_site_fract_z
 _atom_site_occupancy
  Y  Y0  1  0.34640976  0.67300471  0.66629941  1
  Y  Y1  1  0.00000000  0.00000000  0.00000000  1
  Y  Y2  1  0.65359024  0.32699529  0.33370059  1
  Fe  Fe3  1  0.33161772  0.66610391  0.45377514  1
  Fe  Fe4  1  0.65584007  0.32643716  0.12055631  1
  Fe  Fe5  1  0.34415993  0.67356284  0.87944369  1
  Fe  Fe6  1  0.98195076  0.98971615  0.21347057  1
  Fe  Fe7  1  0.01804924  0.01028385  0.78652943  1
  Fe  Fe8  1  0.66838228  0.33389609  0.54622486  1
  O  O9  1  0.01683868  0.01013847  0.87100412  1
  O  O10  1  0.98586541  0.99305336  0.29202390  1
  O  O11  1  0.33451853  0.66741428  0.95816190  1
  O  O12  1  0.34566060  0.67434388  0.79460856  1
  O  O13  1  0.65979453  0.33022619  0.46178090  1
  O  O14  1  0.34020547  0.66977381  0.53821910  1
  O  O15  1  0.65433940  0.32565612  0.20539144  1
  O  O16  1  0.01413459  0.00694664  0.70797610  1
  O  O17  1  0.66548147  0.33258572  0.04183810  1
  O  O18  1  0.98316132  0.98986153  0.12899588  1
  O  O19  1  0.67824998  0.33889126  0.62472132  1
  O  O20  1  0.32175002  0.66110874  0.37527868  1
