# generated using pymatgen
data_YSbMo2O9
_symmetry_space_group_name_H-M   'P 1'
_cell_length_a   9.72805106
_cell_length_b   9.72805092
_cell_length_c   10.87354478
_cell_angle_alpha   111.85006020
_cell_angle_beta   111.85005987
_cell_angle_gamma   95.45166289
_symmetry_Int_Tables_number   1
_chemical_formula_structural   YSbMo2O9
_chemical_formula_sum   'Y4 Sb4 Mo8 O36'
_cell_volume   853.29060758
_cell_formula_units_Z   4
loop_
 _symmetry_equiv_pos_site_id
 _symmetry_equiv_pos_as_xyz
  1  'x, y, z'
loop_
 _atom_site_type_symbol
 _atom_site_label
 _atom_site_symmetry_multiplicity
 _atom_site_fract_x
 _atom_site_fract_y
 _atom_site_fract_z
 _atom_site_occupancy
  Y  Y0  1  0.87417851  0.12582149  0.75000000  1
  Y  Y1  1  0.32807046  0.67192954  0.75000000  1
  Y  Y2  1  0.12582149  0.87417851  0.25000000  1
  Y  Y3  1  0.67192954  0.32807046  0.25000000  1
  Sb  Sb4  1  0.38003558  0.34949121  0.46424489  1
  Sb  Sb5  1  0.61996442  0.65050879  0.53575511  1
  Sb  Sb6  1  0.65050879  0.61996442  0.03575511  1
  Sb  Sb7  1  0.34949121  0.38003558  0.96424489  1
  Mo  Mo8  1  0.43402058  0.05811428  0.69313888  1
  Mo  Mo9  1  0.56597942  0.94188572  0.30686112  1
  Mo  Mo10  1  0.05811428  0.43402058  0.19313888  1
  Mo  Mo11  1  0.04637280  0.25913268  0.52507037  1
  Mo  Mo12  1  0.94188572  0.56597942  0.80686112  1
  Mo  Mo13  1  0.95362720  0.74086732  0.47492963  1
  Mo  Mo14  1  0.74086732  0.95362720  0.97492963  1
  Mo  Mo15  1  0.25913268  0.04637280  0.02507037  1
  O  O16  1  0.45805384  0.57690781  0.59956467  1
  O  O17  1  0.90445852  0.93285861  0.10198693  1
  O  O18  1  0.20871961  0.36413492  0.29734460  1
  O  O19  1  0.85532865  0.37905023  0.77279173  1
  O  O20  1  0.06714139  0.09554148  0.39801307  1
  O  O21  1  0.79128039  0.63586508  0.70265540  1
  O  O22  1  0.42309219  0.54194616  0.90043533  1
  O  O23  1  0.57690781  0.45805384  0.09956467  1
  O  O24  1  0.93285861  0.90445852  0.60198693  1
  O  O25  1  0.14467135  0.62094977  0.22720827  1
  O  O26  1  0.62094977  0.14467135  0.72720827  1
  O  O27  1  0.69339757  0.01987462  0.49791109  1
  O  O28  1  0.44269814  0.90653530  0.74804890  1
  O  O29  1  0.63586508  0.79128039  0.20265540  1
  O  O30  1  0.54194616  0.42309219  0.40043533  1
  O  O31  1  0.87098951  0.29814704  0.43173566  1
  O  O32  1  0.12901049  0.70185296  0.56826434  1
  O  O33  1  0.59443259  0.77859959  0.92067560  1
  O  O34  1  0.98012538  0.30660243  0.00208891  1
  O  O35  1  0.77881177  0.95748927  0.82637525  1
  O  O36  1  0.22140041  0.40556741  0.57932440  1
  O  O37  1  0.95748927  0.77881177  0.32637525  1
  O  O38  1  0.37905023  0.85532865  0.27279173  1
  O  O39  1  0.09346470  0.55730186  0.75195110  1
  O  O40  1  0.01987462  0.69339757  0.99791109  1
  O  O41  1  0.22118823  0.04251073  0.17362475  1
  O  O42  1  0.30660243  0.98012538  0.50208891  1
  O  O43  1  0.09554148  0.06714139  0.89801307  1
  O  O44  1  0.40556741  0.22140041  0.07932440  1
  O  O45  1  0.04251073  0.22118823  0.67362475  1
  O  O46  1  0.29814704  0.87098951  0.93173566  1
  O  O47  1  0.70185296  0.12901049  0.06826434  1
  O  O48  1  0.36413492  0.20871961  0.79734460  1
  O  O49  1  0.55730186  0.09346470  0.25195110  1
  O  O50  1  0.90653530  0.44269814  0.24804890  1
  O  O51  1  0.77859959  0.59443259  0.42067560  1
