# generated using pymatgen
data_MoCl3
_symmetry_space_group_name_H-M   'P 1'
_cell_length_a   5.91338080
_cell_length_b   5.91338076
_cell_length_c   13.10369068
_cell_angle_alpha   90.16423706
_cell_angle_beta   90.16423702
_cell_angle_gamma   116.02637447
_symmetry_Int_Tables_number   1
_chemical_formula_structural   MoCl3
_chemical_formula_sum   'Mo4 Cl12'
_cell_volume   411.73860625
_cell_formula_units_Z   4
loop_
 _symmetry_equiv_pos_site_id
 _symmetry_equiv_pos_as_xyz
  1  'x, y, z'
loop_
 _atom_site_type_symbol
 _atom_site_label
 _atom_site_symmetry_multiplicity
 _atom_site_fract_x
 _atom_site_fract_y
 _atom_site_fract_z
 _atom_site_occupancy
  Mo  Mo0  1  0.97949437  0.02050563  0.75000000  1
  Mo  Mo1  1  0.02050563  0.97949437  0.25000000  1
  Mo  Mo2  1  0.31299887  0.68700113  0.25000000  1
  Mo  Mo3  1  0.68700113  0.31299887  0.75000000  1
  Cl  Cl4  1  0.67261346  0.66591759  0.64923164  1
  Cl  Cl5  1  0.99368213  0.66758599  0.85068705  1
  Cl  Cl6  1  0.31491217  0.98142923  0.12392525  1
  Cl  Cl7  1  0.01857077  0.68508783  0.37607475  1
  Cl  Cl8  1  0.66591759  0.67261346  0.14923164  1
  Cl  Cl9  1  0.66758599  0.99368213  0.35068705  1
  Cl  Cl10  1  0.33408241  0.32738654  0.85076836  1
  Cl  Cl11  1  0.98142923  0.31491217  0.62392525  1
  Cl  Cl12  1  0.33241401  0.00631787  0.64931295  1
  Cl  Cl13  1  0.00631787  0.33241401  0.14931295  1
  Cl  Cl14  1  0.68508783  0.01857077  0.87607475  1
  Cl  Cl15  1  0.32738654  0.33408241  0.35076836  1
