# generated using pymatgen
data_Pr10(B3C4)3
_symmetry_space_group_name_H-M   'P 1'
_cell_length_a   8.54892004
_cell_length_b   8.54892004
_cell_length_c   25.40062105
_cell_angle_alpha   90.00000000
_cell_angle_beta   90.00000000
_cell_angle_gamma   90.00000000
_symmetry_Int_Tables_number   1
_chemical_formula_structural   Pr10(B3C4)3
_chemical_formula_sum   'Pr40 B36 C48'
_cell_volume   1856.37984864
_cell_formula_units_Z   4
loop_
 _symmetry_equiv_pos_site_id
 _symmetry_equiv_pos_as_xyz
  1  'x, y, z'
loop_
 _atom_site_type_symbol
 _atom_site_label
 _atom_site_symmetry_multiplicity
 _atom_site_fract_x
 _atom_site_fract_y
 _atom_site_fract_z
 _atom_site_occupancy
  Pr  Pr0  1  0.71446119  0.19742734  0.82159449  1
  Pr  Pr1  1  0.41534004  0.69557157  0.94617190  1
  Pr  Pr2  1  0.90147246  0.01481585  0.06065986  1
  Pr  Pr3  1  0.39655378  0.09388958  0.20959440  1
  Pr  Pr4  1  0.40147246  0.48518415  0.68934014  1
  Pr  Pr5  1  0.60344622  0.90611042  0.70959440  1
  Pr  Pr6  1  0.48518415  0.40147246  0.31065986  1
  Pr  Pr7  1  0.91534004  0.80442843  0.80382810  1
  Pr  Pr8  1  0.01481585  0.90147246  0.93934014  1
  Pr  Pr9  1  0.01274961  0.68249971  0.66717619  1
  Pr  Pr10  1  0.59852754  0.51481585  0.18934014  1
  Pr  Pr11  1  0.51274961  0.81750029  0.08282381  1
  Pr  Pr12  1  0.98725039  0.31750029  0.16717619  1
  Pr  Pr13  1  0.59388958  0.10344622  0.95959440  1
  Pr  Pr14  1  0.09852754  0.98518415  0.56065986  1
  Pr  Pr15  1  0.69557157  0.41534004  0.05382810  1
  Pr  Pr16  1  0.80442843  0.91534004  0.19617190  1
  Pr  Pr17  1  0.58465996  0.30442843  0.44617190  1
  Pr  Pr18  1  0.31750029  0.98725039  0.83282381  1
  Pr  Pr19  1  0.90611042  0.60344622  0.29040560  1
  Pr  Pr20  1  0.69742734  0.78553881  0.57159449  1
  Pr  Pr21  1  0.89655378  0.40611042  0.54040560  1
  Pr  Pr22  1  0.80257266  0.28553881  0.67840551  1
  Pr  Pr23  1  0.68249971  0.01274961  0.33282381  1
  Pr  Pr24  1  0.09388958  0.39655378  0.79040560  1
  Pr  Pr25  1  0.19557157  0.08465996  0.69617190  1
  Pr  Pr26  1  0.51481585  0.59852754  0.81065986  1
  Pr  Pr27  1  0.10344622  0.59388958  0.04040560  1
  Pr  Pr28  1  0.98518415  0.09852754  0.43934014  1
  Pr  Pr29  1  0.08465996  0.19557157  0.30382810  1
  Pr  Pr30  1  0.19742734  0.71446119  0.17840551  1
  Pr  Pr31  1  0.40611042  0.89655378  0.45959440  1
  Pr  Pr32  1  0.78553881  0.69742734  0.42840551  1
  Pr  Pr33  1  0.30442843  0.58465996  0.55382810  1
  Pr  Pr34  1  0.21446119  0.30257266  0.92840551  1
  Pr  Pr35  1  0.30257266  0.21446119  0.07159449  1
  Pr  Pr36  1  0.48725039  0.18249971  0.58282381  1
  Pr  Pr37  1  0.28553881  0.80257266  0.32159449  1
  Pr  Pr38  1  0.18249971  0.48725039  0.41717619  1
  Pr  Pr39  1  0.81750029  0.51274961  0.91717619  1
  B  B40  1  0.14250460  0.63652771  0.88329296  1
  B  B41  1  0.62403436  0.48880594  0.60725204  1
  B  B42  1  0.08058017  0.91941983  0.25000000  1
  B  B43  1  0.28142421  0.20366476  0.47516800  1
  B  B44  1  0.70366476  0.21857579  0.22516800  1
  B  B45  1  0.86347229  0.64250460  0.13329296  1
  B  B46  1  0.35749540  0.13652771  0.36670704  1
  B  B47  1  0.29633524  0.78142421  0.72516800  1
  B  B48  1  0.85749540  0.36347229  0.38329296  1
  B  B49  1  0.98880594  0.87596564  0.35725204  1
  B  B50  1  0.12403436  0.01119406  0.14274796  1
  B  B51  1  0.87596564  0.98880594  0.64274796  1
  B  B52  1  0.63652771  0.14250460  0.11670704  1
  B  B53  1  0.41941983  0.41941983  0.00000000  1
  B  B54  1  0.20366476  0.28142421  0.52483200  1
  B  B55  1  0.41274926  0.30144634  0.84261474  1
  B  B56  1  0.58058017  0.58058017  0.50000000  1
  B  B57  1  0.08725074  0.80144634  0.40738526  1
  B  B58  1  0.36347229  0.85749540  0.61670704  1
  B  B59  1  0.91274926  0.19855366  0.90738526  1
  B  B60  1  0.64250460  0.86347229  0.86670704  1
  B  B61  1  0.69855366  0.58725074  0.65738526  1
  B  B62  1  0.78142421  0.29633524  0.27483200  1
  B  B63  1  0.21857579  0.70366476  0.77483200  1
  B  B64  1  0.51119406  0.37596564  0.89274796  1
  B  B65  1  0.30144634  0.41274926  0.15738526  1
  B  B66  1  0.01119406  0.12403436  0.85725204  1
  B  B67  1  0.79633524  0.71857579  0.02483200  1
  B  B68  1  0.80144634  0.08725074  0.59261474  1
  B  B69  1  0.13652771  0.35749540  0.63329296  1
  B  B70  1  0.58725074  0.69855366  0.34261474  1
  B  B71  1  0.48880594  0.62403436  0.39274796  1
  B  B72  1  0.91941983  0.08058017  0.75000000  1
  B  B73  1  0.37596564  0.51119406  0.10725204  1
  B  B74  1  0.71857579  0.79633524  0.97516800  1
  B  B75  1  0.19855366  0.91274926  0.09261474  1
  C  C76  1  0.97257992  0.28786002  0.01150335  1
  C  C77  1  0.61529683  0.89316251  0.81089791  1
  C  C78  1  0.71213998  0.02742008  0.48849665  1
  C  C79  1  0.51058595  0.40267052  0.95068253  1
  C  C80  1  0.17992685  0.29696909  0.58162527  1
  C  C81  1  0.49448522  0.18950492  0.68620173  1
  C  C82  1  0.07395298  0.78320316  0.46593128  1
  C  C83  1  0.60683749  0.11529683  0.06089791  1
  C  C84  1  0.57395298  0.71679684  0.28406872  1
  C  C85  1  0.21679684  0.92604702  0.03406872  1
  C  C86  1  0.10683749  0.38470317  0.68910209  1
  C  C87  1  0.28786002  0.97257992  0.98849665  1
  C  C88  1  0.89316251  0.61529683  0.18910209  1
  C  C89  1  0.67992685  0.20303091  0.16837473  1
  C  C90  1  0.78786002  0.52742008  0.76150335  1
  C  C91  1  0.11529683  0.60683749  0.93910209  1
  C  C92  1  0.20303091  0.67992685  0.83162527  1
  C  C93  1  0.42604702  0.28320316  0.78406872  1
  C  C94  1  0.18950492  0.49448522  0.31379827  1
  C  C95  1  0.99448522  0.31049508  0.06379827  1
  C  C96  1  0.78320316  0.07395298  0.53406872  1
  C  C97  1  0.79696909  0.32007315  0.33162527  1
  C  C98  1  0.82007315  0.70303091  0.08162527  1
  C  C99  1  0.21213998  0.47257992  0.26150335  1
  C  C100  1  0.71679684  0.57395298  0.71593128  1
  C  C101  1  0.47257992  0.21213998  0.73849665  1
  C  C102  1  0.98941405  0.90267052  0.29931747  1
  C  C103  1  0.09732948  0.01058595  0.20068253  1
  C  C104  1  0.70303091  0.82007315  0.91837473  1
  C  C105  1  0.40267052  0.51058595  0.04931747  1
  C  C106  1  0.32007315  0.79696909  0.66837473  1
  C  C107  1  0.50551478  0.81049508  0.18620173  1
  C  C108  1  0.02742008  0.71213998  0.51150335  1
  C  C109  1  0.88470317  0.39316251  0.43910209  1
  C  C110  1  0.52742008  0.78786002  0.23849665  1
  C  C111  1  0.28320316  0.42604702  0.21593128  1
  C  C112  1  0.59732948  0.48941405  0.54931747  1
  C  C113  1  0.01058595  0.09732948  0.79931747  1
  C  C114  1  0.92604702  0.21679684  0.96593128  1
  C  C115  1  0.90267052  0.98941405  0.70068253  1
  C  C116  1  0.29696909  0.17992685  0.41837473  1
  C  C117  1  0.31049508  0.99448522  0.93620173  1
  C  C118  1  0.39316251  0.88470317  0.56089791  1
  C  C119  1  0.68950492  0.00551478  0.43620173  1
  C  C120  1  0.81049508  0.50551478  0.81379827  1
  C  C121  1  0.38470317  0.10683749  0.31089791  1
  C  C122  1  0.48941405  0.59732948  0.45068253  1
  C  C123  1  0.00551478  0.68950492  0.56379827  1
