# generated using pymatgen
data_MnH16C4(NCl2)2
_symmetry_space_group_name_H-M   'P 1'
_cell_length_a   7.28291383
_cell_length_b   7.40342604
_cell_length_c   22.51288398
_cell_angle_alpha   90.00000000
_cell_angle_beta   90.00000000
_cell_angle_gamma   90.00000000
_symmetry_Int_Tables_number   1
_chemical_formula_structural   MnH16C4(NCl2)2
_chemical_formula_sum   'Mn4 H64 C16 N8 Cl16'
_cell_volume   1213.86124772
_cell_formula_units_Z   4
loop_
 _symmetry_equiv_pos_site_id
 _symmetry_equiv_pos_as_xyz
  1  'x, y, z'
loop_
 _atom_site_type_symbol
 _atom_site_label
 _atom_site_symmetry_multiplicity
 _atom_site_fract_x
 _atom_site_fract_y
 _atom_site_fract_z
 _atom_site_occupancy
  Mn  Mn0  1  0.00000000  0.00000000  0.00000000  1
  Mn  Mn1  1  0.00000000  0.50000000  0.50000000  1
  Mn  Mn2  1  0.50000000  0.50000000  0.00000000  1
  Mn  Mn3  1  0.50000000  0.00000000  0.50000000  1
  H  H4  1  0.51732079  0.19509727  0.21107922  1
  H  H5  1  0.98267921  0.69509727  0.78892078  1
  H  H6  1  0.00934281  0.65385420  0.90031161  1
  H  H7  1  0.01070554  0.19772120  0.33606681  1
  H  H8  1  0.17992354  0.45192238  0.83427451  1
  H  H9  1  0.32007646  0.45192238  0.33427451  1
  H  H10  1  0.52296173  0.99794660  0.25615728  1
  H  H11  1  0.95344155  0.05413096  0.42995860  1
  H  H12  1  0.97703827  0.49794660  0.74384272  1
  H  H13  1  0.71118865  0.54936198  0.29135108  1
  H  H14  1  0.02296173  0.50205340  0.25615728  1
  H  H15  1  0.45344155  0.44586904  0.42995860  1
  H  H16  1  0.50934281  0.34614580  0.59968839  1
  H  H17  1  0.01732079  0.30490273  0.21107922  1
  H  H18  1  0.49065719  0.15385420  0.09968839  1
  H  H19  1  0.04655845  0.44586904  0.92995860  1
  H  H20  1  0.83727896  0.00552046  0.59615290  1
  H  H21  1  0.50934281  0.84614580  0.90031161  1
  H  H22  1  0.54655845  0.55413096  0.57004140  1
  H  H23  1  0.01070554  0.69772120  0.16393319  1
  H  H24  1  0.45344155  0.94586904  0.07004140  1
  H  H25  1  0.99065719  0.34614580  0.09968839  1
  H  H26  1  0.98929446  0.30227880  0.83606681  1
  H  H27  1  0.33727896  0.49447954  0.59615290  1
  H  H28  1  0.16272104  0.99447954  0.40384710  1
  H  H29  1  0.98267921  0.19509727  0.71107922  1
  H  H30  1  0.67992354  0.04807762  0.83427451  1
  H  H31  1  0.47703827  0.50205340  0.75615728  1
  H  H32  1  0.98929446  0.80227880  0.66393319  1
  H  H33  1  0.21118865  0.95063802  0.29135108  1
  H  H34  1  0.52296173  0.49794660  0.24384272  1
  H  H35  1  0.66272104  0.50552046  0.40384710  1
  H  H36  1  0.67992354  0.54807762  0.66572549  1
  H  H37  1  0.48929446  0.69772120  0.66393319  1
  H  H38  1  0.02296173  0.00205340  0.24384272  1
  H  H39  1  0.04655845  0.94586904  0.57004140  1
  H  H40  1  0.99065719  0.84614580  0.40031161  1
  H  H41  1  0.01732079  0.80490273  0.28892078  1
  H  H42  1  0.51070554  0.30227880  0.33606681  1
  H  H43  1  0.51732079  0.69509727  0.28892078  1
  H  H44  1  0.82007646  0.54807762  0.16572549  1
  H  H45  1  0.71118865  0.04936198  0.20864892  1
  H  H46  1  0.00934281  0.15385420  0.59968839  1
  H  H47  1  0.16272104  0.49447954  0.09615290  1
  H  H48  1  0.78881135  0.54936198  0.79135108  1
  H  H49  1  0.49065719  0.65385420  0.40031161  1
  H  H50  1  0.17992354  0.95192238  0.66572549  1
  H  H51  1  0.82007646  0.04807762  0.33427451  1
  H  H52  1  0.47703827  0.00205340  0.74384272  1
  H  H53  1  0.54655845  0.05413096  0.92995860  1
  H  H54  1  0.83727896  0.50552046  0.90384710  1
  H  H55  1  0.33727896  0.99447954  0.90384710  1
  H  H56  1  0.21118865  0.45063802  0.20864892  1
  H  H57  1  0.66272104  0.00552046  0.09615290  1
  H  H58  1  0.48267921  0.30490273  0.71107922  1
  H  H59  1  0.32007646  0.95192238  0.16572549  1
  H  H60  1  0.28881135  0.95063802  0.79135108  1
  H  H61  1  0.48929446  0.19772120  0.83606681  1
  H  H62  1  0.95344155  0.55413096  0.07004140  1
  H  H63  1  0.51070554  0.80227880  0.16393319  1
  H  H64  1  0.78881135  0.04936198  0.70864892  1
  H  H65  1  0.97703827  0.99794660  0.75615728  1
  H  H66  1  0.48267921  0.80490273  0.78892078  1
  H  H67  1  0.28881135  0.45063802  0.70864892  1
  C  C68  1  0.52954495  0.05482555  0.83675792  1
  C  C69  1  0.06097924  0.44679425  0.21258896  1
  C  C70  1  0.47045505  0.94517445  0.16324208  1
  C  C71  1  0.06097924  0.94679425  0.28741104  1
  C  C72  1  0.56097924  0.55320575  0.28741104  1
  C  C73  1  0.97045505  0.55482555  0.16324208  1
  C  C74  1  0.56097924  0.05320575  0.21258896  1
  C  C75  1  0.02954495  0.44517445  0.83675792  1
  C  C76  1  0.43902076  0.44679425  0.71258896  1
  C  C77  1  0.93902076  0.55320575  0.78741104  1
  C  C78  1  0.93902076  0.05320575  0.71258896  1
  C  C79  1  0.02954495  0.94517445  0.66324208  1
  C  C80  1  0.43902076  0.94679425  0.78741104  1
  C  C81  1  0.47045505  0.44517445  0.33675792  1
  C  C82  1  0.52954495  0.55482555  0.66324208  1
  C  C83  1  0.97045505  0.05482555  0.33675792  1
  N  N84  1  0.97774383  0.51674039  0.89657951  1
  N  N85  1  0.47774383  0.48325961  0.60342049  1
  N  N86  1  0.52225617  0.01674039  0.10342049  1
  N  N87  1  0.02225617  0.48325961  0.10342049  1
  N  N88  1  0.02225617  0.98325961  0.39657951  1
  N  N89  1  0.52225617  0.51674039  0.39657951  1
  N  N90  1  0.47774383  0.98325961  0.89657951  1
  N  N91  1  0.97774383  0.01674039  0.60342049  1
  Cl  Cl92  1  0.51929749  0.54680185  0.89124798  1
  Cl  Cl93  1  0.01929749  0.95319815  0.89124798  1
  Cl  Cl94  1  0.48070251  0.95319815  0.39124798  1
  Cl  Cl95  1  0.77590758  0.22254487  0.48666940  1
  Cl  Cl96  1  0.72409242  0.22254487  0.98666940  1
  Cl  Cl97  1  0.22409242  0.27745513  0.98666940  1
  Cl  Cl98  1  0.77590758  0.72254487  0.01333060  1
  Cl  Cl99  1  0.98070251  0.54680185  0.39124798  1
  Cl  Cl100  1  0.27590758  0.27745513  0.48666940  1
  Cl  Cl101  1  0.22409242  0.77745513  0.51333060  1
  Cl  Cl102  1  0.27590758  0.77745513  0.01333060  1
  Cl  Cl103  1  0.01929749  0.45319815  0.60875202  1
  Cl  Cl104  1  0.98070251  0.04680185  0.10875202  1
  Cl  Cl105  1  0.48070251  0.45319815  0.10875202  1
  Cl  Cl106  1  0.51929749  0.04680185  0.60875202  1
  Cl  Cl107  1  0.72409242  0.72254487  0.51333060  1
