# generated using pymatgen
data_CdH16C4(NCl2)2
_symmetry_space_group_name_H-M   'P 1'
_cell_length_a   7.48371331
_cell_length_b   7.59625788
_cell_length_c   22.70759999
_cell_angle_alpha   90.00000000
_cell_angle_beta   90.00000000
_cell_angle_gamma   90.00000000
_symmetry_Int_Tables_number   1
_chemical_formula_structural   CdH16C4(NCl2)2
_chemical_formula_sum   'Cd4 H64 C16 N8 Cl16'
_cell_volume   1290.88655368
_cell_formula_units_Z   4
loop_
 _symmetry_equiv_pos_site_id
 _symmetry_equiv_pos_as_xyz
  1  'x, y, z'
loop_
 _atom_site_type_symbol
 _atom_site_label
 _atom_site_symmetry_multiplicity
 _atom_site_fract_x
 _atom_site_fract_y
 _atom_site_fract_z
 _atom_site_occupancy
  Cd  Cd0  1  0.00000000  0.00000000  0.00000000  1
  Cd  Cd1  1  0.00000000  0.50000000  0.50000000  1
  Cd  Cd2  1  0.50000000  0.50000000  0.00000000  1
  Cd  Cd3  1  0.50000000  0.00000000  0.50000000  1
  H  H4  1  0.19360696  0.97244223  0.71170173  1
  H  H5  1  0.00881249  0.32544541  0.78542372  1
  H  H6  1  0.83506250  0.01229521  0.40041499  1
  H  H7  1  0.49638699  0.65629195  0.60192645  1
  H  H8  1  0.31755096  0.95446432  0.83945777  1
  H  H9  1  0.50881249  0.17455459  0.78542372  1
  H  H10  1  0.99638699  0.84370805  0.60192645  1
  H  H11  1  0.49778668  0.80231629  0.84107612  1
  H  H12  1  0.50249842  0.97347077  0.74549288  1
  H  H13  1  0.49118751  0.82544541  0.21457628  1
  H  H14  1  0.33506250  0.48770479  0.40041499  1
  H  H15  1  0.69360696  0.52755777  0.71170173  1
  H  H16  1  0.00221332  0.30231629  0.15892388  1
  H  H17  1  0.99118751  0.17455459  0.28542372  1
  H  H18  1  0.30639304  0.97244223  0.21170173  1
  H  H19  1  0.00361301  0.15629195  0.39807355  1
  H  H20  1  0.80639304  0.02755777  0.28829827  1
  H  H21  1  0.69360696  0.02755777  0.78829827  1
  H  H22  1  0.00361301  0.65629195  0.10192645  1
  H  H23  1  0.49750158  0.02652923  0.25450712  1
  H  H24  1  0.18244904  0.95446432  0.33945777  1
  H  H25  1  0.96621208  0.04212882  0.56857928  1
  H  H26  1  0.19360696  0.47244223  0.78829827  1
  H  H27  1  0.31755096  0.45446432  0.66054223  1
  H  H28  1  0.49750158  0.52652923  0.24549288  1
  H  H29  1  0.96621208  0.54212882  0.93142072  1
  H  H30  1  0.03378792  0.45787118  0.06857928  1
  H  H31  1  0.66493750  0.51229521  0.59958501  1
  H  H32  1  0.49118751  0.32544541  0.28542372  1
  H  H33  1  0.49778668  0.30231629  0.65892388  1
  H  H34  1  0.50361301  0.84370805  0.10192645  1
  H  H35  1  0.16493750  0.48770479  0.90041499  1
  H  H36  1  0.16493750  0.98770479  0.59958501  1
  H  H37  1  0.80639304  0.52755777  0.21170173  1
  H  H38  1  0.50249842  0.47347077  0.75450712  1
  H  H39  1  0.99750158  0.97347077  0.24549288  1
  H  H40  1  0.46621208  0.95787118  0.93142072  1
  H  H41  1  0.50221332  0.19768371  0.15892388  1
  H  H42  1  0.46621208  0.45787118  0.56857928  1
  H  H43  1  0.50221332  0.69768371  0.34107612  1
  H  H44  1  0.53378792  0.04212882  0.06857928  1
  H  H45  1  0.03378792  0.95787118  0.43142072  1
  H  H46  1  0.83506250  0.51229521  0.09958501  1
  H  H47  1  0.68244904  0.04553568  0.16054223  1
  H  H48  1  0.81755096  0.04553568  0.66054223  1
  H  H49  1  0.99778668  0.19768371  0.65892388  1
  H  H50  1  0.00881249  0.82544541  0.71457628  1
  H  H51  1  0.81755096  0.54553568  0.83945777  1
  H  H52  1  0.18244904  0.45446432  0.16054223  1
  H  H53  1  0.53378792  0.54212882  0.43142072  1
  H  H54  1  0.00249842  0.02652923  0.75450712  1
  H  H55  1  0.00249842  0.52652923  0.74549288  1
  H  H56  1  0.66493750  0.01229521  0.90041499  1
  H  H57  1  0.49638699  0.15629195  0.89807355  1
  H  H58  1  0.50361301  0.34370805  0.39807355  1
  H  H59  1  0.68244904  0.54553568  0.33945777  1
  H  H60  1  0.33506250  0.98770479  0.09958501  1
  H  H61  1  0.99118751  0.67455459  0.21457628  1
  H  H62  1  0.99638699  0.34370805  0.89807355  1
  H  H63  1  0.50881249  0.67455459  0.71457628  1
  H  H64  1  0.30639304  0.47244223  0.28829827  1
  H  H65  1  0.00221332  0.80231629  0.34107612  1
  H  H66  1  0.99778668  0.69768371  0.84107612  1
  H  H67  1  0.99750158  0.47347077  0.25450712  1
  C  C68  1  0.54710398  0.53501618  0.71328579  1
  C  C69  1  0.04710398  0.96498382  0.71328579  1
  C  C70  1  0.04710398  0.46498382  0.78671421  1
  C  C71  1  0.95289602  0.53501618  0.21328579  1
  C  C72  1  0.96384903  0.55711842  0.83937938  1
  C  C73  1  0.03615097  0.94288158  0.33937938  1
  C  C74  1  0.45289602  0.96498382  0.21328579  1
  C  C75  1  0.96384903  0.05711842  0.66062062  1
  C  C76  1  0.95289602  0.03501618  0.28671421  1
  C  C77  1  0.45289602  0.46498382  0.28671421  1
  C  C78  1  0.53615097  0.05711842  0.16062062  1
  C  C79  1  0.46384903  0.44288158  0.66062062  1
  C  C80  1  0.54710398  0.03501618  0.78671421  1
  C  C81  1  0.46384903  0.94288158  0.83937938  1
  C  C82  1  0.03615097  0.44288158  0.16062062  1
  C  C83  1  0.53615097  0.55711842  0.33937938  1
  N  N84  1  0.52694522  0.02207626  0.89606022  1
  N  N85  1  0.97305478  0.52207626  0.10393978  1
  N  N86  1  0.52694522  0.52207626  0.60393978  1
  N  N87  1  0.47305478  0.47792374  0.39606022  1
  N  N88  1  0.47305478  0.97792374  0.10393978  1
  N  N89  1  0.97305478  0.02207626  0.39606022  1
  N  N90  1  0.02694522  0.97792374  0.60393978  1
  N  N91  1  0.02694522  0.47792374  0.89606022  1
  Cl  Cl92  1  0.02854711  0.44380219  0.38723830  1
  Cl  Cl93  1  0.21443499  0.78725153  0.48321351  1
  Cl  Cl94  1  0.78556501  0.21274847  0.51678649  1
  Cl  Cl95  1  0.28556501  0.78725153  0.98321351  1
  Cl  Cl96  1  0.52854711  0.05619781  0.38723830  1
  Cl  Cl97  1  0.28556501  0.28725153  0.51678649  1
  Cl  Cl98  1  0.78556501  0.71274847  0.98321351  1
  Cl  Cl99  1  0.71443499  0.71274847  0.48321351  1
  Cl  Cl100  1  0.52854711  0.55619781  0.11276170  1
  Cl  Cl101  1  0.97145289  0.55619781  0.61276170  1
  Cl  Cl102  1  0.47145289  0.94380219  0.61276170  1
  Cl  Cl103  1  0.21443499  0.28725153  0.01678649  1
  Cl  Cl104  1  0.47145289  0.44380219  0.88723830  1
  Cl  Cl105  1  0.71443499  0.21274847  0.01678649  1
  Cl  Cl106  1  0.97145289  0.05619781  0.88723830  1
  Cl  Cl107  1  0.02854711  0.94380219  0.11276170  1
