# generated using pymatgen
data_P2H19C6I2NCl4
_symmetry_space_group_name_H-M   'P 1'
_cell_length_a   11.14984663
_cell_length_b   12.56009896
_cell_length_c   15.43278257
_cell_angle_alpha   112.17949699
_cell_angle_beta   90.00000000
_cell_angle_gamma   90.00000000
_symmetry_Int_Tables_number   1
_chemical_formula_structural   P2H19C6I2NCl4
_chemical_formula_sum   'P8 H76 C24 I8 N4 Cl16'
_cell_volume   2001.33535891
_cell_formula_units_Z   4
loop_
 _symmetry_equiv_pos_site_id
 _symmetry_equiv_pos_as_xyz
  1  'x, y, z'
loop_
 _atom_site_type_symbol
 _atom_site_label
 _atom_site_symmetry_multiplicity
 _atom_site_fract_x
 _atom_site_fract_y
 _atom_site_fract_z
 _atom_site_occupancy
  P  P0  1  0.74941693  0.10364127  0.16247465  1
  P  P1  1  0.25058307  0.89635873  0.83752535  1
  P  P2  1  0.61731038  0.31604548  0.15297577  1
  P  P3  1  0.75058307  0.10364127  0.66247465  1
  P  P4  1  0.88268962  0.31604548  0.65297577  1
  P  P5  1  0.38268962  0.68395452  0.84702423  1
  P  P6  1  0.11731038  0.68395452  0.34702423  1
  P  P7  1  0.24941693  0.89635873  0.33752535  1
  H  H8  1  0.19450707  0.65913675  0.91431814  1
  H  H9  1  0.73886221  0.47198847  0.16192368  1
  H  H10  1  0.97835416  0.39906780  0.55463355  1
  H  H11  1  0.86291329  0.10244121  0.29203676  1
  H  H12  1  0.44532774  0.86607795  0.87062860  1
  H  H13  1  0.65498274  0.24608189  0.79657885  1
  H  H14  1  0.55858585  0.72299498  0.94310519  1
  H  H15  1  0.08699271  0.61222024  0.18142074  1
  H  H16  1  0.38240496  0.03017556  0.81019561  1
  H  H17  1  0.15079718  0.06887469  0.43291993  1
  H  H18  1  0.73974115  0.90778446  0.64359974  1
  H  H19  1  0.16047898  0.94088860  0.98749596  1
  H  H20  1  0.02927282  0.51696000  0.23355445  1
  H  H21  1  0.02164584  0.60093220  0.44536645  1
  H  H22  1  0.42307913  0.74296831  0.01069458  1
  H  H23  1  0.05858585  0.27700502  0.55689481  1
  H  H24  1  0.91679277  0.17574473  0.10088087  1
  H  H25  1  0.15498274  0.75391811  0.70342115  1
  H  H26  1  0.97072718  0.48304000  0.76644555  1
  H  H27  1  0.43673235  0.96858892  0.40569634  1
  H  H28  1  0.05467226  0.86607795  0.37062860  1
  H  H29  1  0.05168393  0.35358703  0.75448587  1
  H  H30  1  0.30549293  0.65913675  0.41431814  1
  H  H31  1  0.23974115  0.09221554  0.85640026  1
  H  H32  1  0.84920282  0.93112531  0.56708007  1
  H  H33  1  0.55467226  0.13392205  0.12937140  1
  H  H34  1  0.88240496  0.96982444  0.68980439  1
  H  H35  1  0.84501726  0.24608189  0.29657885  1
  H  H36  1  0.07692087  0.74296831  0.51069458  1
  H  H37  1  0.08320723  0.82425527  0.89911913  1
  H  H38  1  0.34501726  0.75391811  0.20342115  1
  H  H39  1  0.94141415  0.72299498  0.44310519  1
  H  H40  1  0.76025885  0.90778446  0.14359974  1
  H  H41  1  0.93673235  0.03141108  0.09430366  1
  H  H42  1  0.72152052  0.17459849  0.32779187  1
  H  H43  1  0.27847948  0.82540151  0.67220813  1
  H  H44  1  0.65079718  0.93112531  0.06708007  1
  H  H45  1  0.92307913  0.25703169  0.48930542  1
  H  H46  1  0.91300729  0.38777976  0.81857926  1
  H  H47  1  0.26025885  0.09221554  0.35640026  1
  H  H48  1  0.94831607  0.64641297  0.24551413  1
  H  H49  1  0.36291329  0.89755879  0.20796324  1
  H  H50  1  0.58320723  0.17574473  0.60088087  1
  H  H51  1  0.47072718  0.51696000  0.73355445  1
  H  H52  1  0.58699271  0.38777976  0.31857926  1
  H  H53  1  0.52927282  0.48304000  0.26644555  1
  H  H54  1  0.80549293  0.34086325  0.08568186  1
  H  H55  1  0.34920282  0.06887469  0.93291993  1
  H  H56  1  0.41679277  0.82425527  0.39911913  1
  H  H57  1  0.81542473  0.38340447  0.21153184  1
  H  H58  1  0.66047898  0.05911140  0.51250404  1
  H  H59  1  0.13708671  0.89755879  0.70796324  1
  H  H60  1  0.44141415  0.27700502  0.05689481  1
  H  H61  1  0.56326765  0.03141108  0.59430366  1
  H  H62  1  0.94532774  0.13392205  0.62937140  1
  H  H63  1  0.41300729  0.61222024  0.68142074  1
  H  H64  1  0.44831607  0.35358703  0.25448587  1
  H  H65  1  0.26113779  0.52801153  0.83807632  1
  H  H66  1  0.83952102  0.05911140  0.01250404  1
  H  H67  1  0.23886221  0.52801153  0.33807632  1
  H  H68  1  0.47835416  0.60093220  0.94536645  1
  H  H69  1  0.33952102  0.94088860  0.48749596  1
  H  H70  1  0.06326765  0.96858892  0.90569634  1
  H  H71  1  0.76113779  0.47198847  0.66192368  1
  H  H72  1  0.52164584  0.39906780  0.05463355  1
  H  H73  1  0.68457527  0.38340447  0.71153184  1
  H  H74  1  0.31542473  0.61659553  0.28846816  1
  H  H75  1  0.77847948  0.17459849  0.82779187  1
  H  H76  1  0.69450707  0.34086325  0.58568186  1
  H  H77  1  0.22152052  0.82540151  0.17220813  1
  H  H78  1  0.63708671  0.10244121  0.79203676  1
  H  H79  1  0.11759504  0.03017556  0.31019561  1
  H  H80  1  0.61759504  0.96982444  0.18980439  1
  H  H81  1  0.18457527  0.61659553  0.78846816  1
  H  H82  1  0.57692087  0.25703169  0.98930542  1
  H  H83  1  0.55168393  0.64641297  0.74551413  1
  C  C84  1  0.81237739  0.96429278  0.63833988  1
  C  C85  1  0.03751210  0.60743386  0.24143375  1
  C  C86  1  0.53109630  0.31151237  0.05369260  1
  C  C87  1  0.79938976  0.16347739  0.28136177  1
  C  C88  1  0.74085886  0.38259958  0.65283419  1
  C  C89  1  0.25914114  0.61740042  0.34716581  1
  C  C90  1  0.96248790  0.39256614  0.75856625  1
  C  C91  1  0.03109630  0.68848763  0.44630740  1
  C  C92  1  0.68762261  0.96429278  0.13833988  1
  C  C93  1  0.87222348  0.09265196  0.08496218  1
  C  C94  1  0.96890370  0.31151237  0.55369260  1
  C  C95  1  0.20061024  0.83652261  0.71863823  1
  C  C96  1  0.12777652  0.90734804  0.91503782  1
  C  C97  1  0.75914114  0.38259958  0.15283419  1
  C  C98  1  0.18762261  0.03570722  0.36166012  1
  C  C99  1  0.53751210  0.39256614  0.25856625  1
  C  C100  1  0.24085886  0.61740042  0.84716581  1
  C  C101  1  0.29938976  0.83652261  0.21863823  1
  C  C102  1  0.62777652  0.09265196  0.58496218  1
  C  C103  1  0.46248790  0.60743386  0.74143375  1
  C  C104  1  0.31237739  0.03570722  0.86166012  1
  C  C105  1  0.37222348  0.90734804  0.41503782  1
  C  C106  1  0.46890370  0.68848763  0.94630740  1
  C  C107  1  0.70061024  0.16347739  0.78136177  1
  I  I108  1  0.21830637  0.19840196  0.19131992  1
  I  I109  1  0.78169363  0.80159804  0.80868008  1
  I  I110  1  0.14000347  0.35274467  0.98055609  1
  I  I111  1  0.64000347  0.64725533  0.51944391  1
  I  I112  1  0.71830637  0.80159804  0.30868008  1
  I  I113  1  0.85999653  0.64725533  0.01944391  1
  I  I114  1  0.28169363  0.19840196  0.69131992  1
  I  I115  1  0.35999653  0.35274467  0.48055609  1
  N  N116  1  0.13611242  0.82095989  0.35773180  1
  N  N117  1  0.86388758  0.17904011  0.64226820  1
  N  N118  1  0.63611242  0.17904011  0.14226820  1
  N  N119  1  0.36388758  0.82095989  0.85773180  1
  Cl  Cl120  1  0.38447911  0.04839879  0.10071675  1
  Cl  Cl121  1  0.71882419  0.47936572  0.93514136  1
  Cl  Cl122  1  0.99910367  0.17917445  0.89365715  1
  Cl  Cl123  1  0.28117581  0.52063428  0.06485864  1
  Cl  Cl124  1  0.44050189  0.33940820  0.78154032  1
  Cl  Cl125  1  0.05949811  0.33940820  0.28154032  1
  Cl  Cl126  1  0.50089633  0.17917445  0.39365715  1
  Cl  Cl127  1  0.61552089  0.95160121  0.89928325  1
  Cl  Cl128  1  0.00089633  0.82082555  0.10634285  1
  Cl  Cl129  1  0.55949811  0.66059180  0.21845968  1
  Cl  Cl130  1  0.49910367  0.82082555  0.60634285  1
  Cl  Cl131  1  0.78117581  0.47936572  0.43514136  1
  Cl  Cl132  1  0.94050189  0.66059180  0.71845968  1
  Cl  Cl133  1  0.88447911  0.95160121  0.39928325  1
  Cl  Cl134  1  0.21882419  0.52063428  0.56485864  1
  Cl  Cl135  1  0.11552089  0.04839879  0.60071675  1
