# generated using pymatgen
data_Si2H15C5N
_symmetry_space_group_name_H-M   'P 1'
_cell_length_a   6.85681757
_cell_length_b   11.36158893
_cell_length_c   13.48517709
_cell_angle_alpha   90.00000000
_cell_angle_beta   90.00000000
_cell_angle_gamma   104.12929054
_symmetry_Int_Tables_number   1
_chemical_formula_structural   Si2H15C5N
_chemical_formula_sum   'Si8 H60 C20 N4'
_cell_volume   1018.77181664
_cell_formula_units_Z   4
loop_
 _symmetry_equiv_pos_site_id
 _symmetry_equiv_pos_as_xyz
  1  'x, y, z'
loop_
 _atom_site_type_symbol
 _atom_site_label
 _atom_site_symmetry_multiplicity
 _atom_site_fract_x
 _atom_site_fract_y
 _atom_site_fract_z
 _atom_site_occupancy
  Si  Si0  1  0.98864526  0.75955367  0.00075407  1
  Si  Si1  1  0.94124435  0.49117655  0.91186122  1
  Si  Si2  1  0.51135474  0.74044633  0.50075407  1
  Si  Si3  1  0.55875565  0.00882345  0.41186122  1
  Si  Si4  1  0.01135474  0.24044633  0.99924593  1
  Si  Si5  1  0.44124435  0.99117655  0.58813878  1
  Si  Si6  1  0.05875565  0.50882345  0.08813878  1
  Si  Si7  1  0.48864526  0.25955367  0.49924593  1
  H  H8  1  0.56160464  0.10231624  0.74426379  1
  H  H9  1  0.23555111  0.93703598  0.31964505  1
  H  H10  1  0.64103182  0.73411804  0.32736697  1
  H  H11  1  0.74621680  0.74406538  0.64316081  1
  H  H12  1  0.59079191  0.95192673  0.75020108  1
  H  H13  1  0.26444889  0.56296402  0.81964505  1
  H  H14  1  0.75413806  0.45161853  0.52776102  1
  H  H15  1  0.18943138  0.11459885  0.09994799  1
  H  H16  1  0.93160368  0.08390450  0.43143610  1
  H  H17  1  0.49246438  0.70796592  0.68471343  1
  H  H18  1  0.31056862  0.38540115  0.59994799  1
  H  H19  1  0.34436918  0.64746299  0.17555415  1
  H  H20  1  0.56839632  0.41609550  0.93143610  1
  H  H21  1  0.76444889  0.06296402  0.68035495  1
  H  H22  1  0.87094777  0.99643658  0.32106559  1
  H  H23  1  0.00753562  0.79203408  0.18471343  1
  H  H24  1  0.62905223  0.50356342  0.82106559  1
  H  H25  1  0.50753562  0.29203408  0.31528657  1
  H  H26  1  0.43839536  0.89768376  0.25573621  1
  H  H27  1  0.68943138  0.61459885  0.40005201  1
  H  H28  1  0.93839536  0.39768376  0.24426379  1
  H  H29  1  0.35896818  0.26588196  0.67263303  1
  H  H30  1  0.24586194  0.54838147  0.47223898  1
  H  H31  1  0.35815048  0.84084954  0.03024440  1
  H  H32  1  0.91026212  0.90433546  0.12497950  1
  H  H33  1  0.37094777  0.49643658  0.17893441  1
  H  H34  1  0.65563082  0.35253701  0.82444585  1
  H  H35  1  0.40920809  0.04807327  0.24979892  1
  H  H36  1  0.06839632  0.91609550  0.56856390  1
  H  H37  1  0.85896818  0.76588196  0.82736697  1
  H  H38  1  0.81056862  0.88540115  0.90005201  1
  H  H39  1  0.73555111  0.43703598  0.18035495  1
  H  H40  1  0.99246438  0.20796592  0.81528657  1
  H  H41  1  0.12905223  0.00356342  0.67893441  1
  H  H42  1  0.25413806  0.95161853  0.97223898  1
  H  H43  1  0.58973788  0.59566454  0.62497950  1
  H  H44  1  0.06160464  0.60231624  0.75573621  1
  H  H45  1  0.25378320  0.25593462  0.35683919  1
  H  H46  1  0.14103182  0.23411804  0.17263303  1
  H  H47  1  0.30447939  0.83065021  0.90135117  1
  H  H48  1  0.43160368  0.58390450  0.06856390  1
  H  H49  1  0.15563082  0.85253701  0.67555415  1
  H  H50  1  0.84201993  0.76411458  0.41429207  1
  H  H51  1  0.65798007  0.73588542  0.91429207  1
  H  H52  1  0.14184952  0.65915046  0.53024440  1
  H  H53  1  0.41026212  0.40433546  0.37502050  1
  H  H54  1  0.08973788  0.09566454  0.87502050  1
  H  H55  1  0.09079191  0.45192673  0.74979892  1
  H  H56  1  0.74586194  0.04838147  0.02776102  1
  H  H57  1  0.84436918  0.14746299  0.32444585  1
  H  H58  1  0.90920809  0.54807327  0.25020108  1
  H  H59  1  0.19552061  0.66934979  0.40135117  1
  H  H60  1  0.15798007  0.23588542  0.58570793  1
  H  H61  1  0.34201993  0.26411458  0.08570793  1
  H  H62  1  0.64184952  0.15915046  0.96975560  1
  H  H63  1  0.85815048  0.34084954  0.46975560  1
  H  H64  1  0.24621680  0.24406538  0.85683919  1
  H  H65  1  0.69552061  0.16934979  0.09864883  1
  H  H66  1  0.75378320  0.75593462  0.14316081  1
  H  H67  1  0.80447939  0.33065021  0.59864883  1
  C  C68  1  0.18700954  0.21105811  0.09842392  1
  C  C69  1  0.24998835  0.85418340  0.97364796  1
  C  C70  1  0.40736869  0.30706763  0.37516386  1
  C  C71  1  0.17368942  0.93599078  0.63126281  1
  C  C72  1  0.25001165  0.64581660  0.47364796  1
  C  C73  1  0.74998835  0.35418340  0.52635204  1
  C  C74  1  0.39476318  0.96929255  0.29915973  1
  C  C75  1  0.75001165  0.14581660  0.02635204  1
  C  C76  1  0.89476318  0.46929255  0.20084027  1
  C  C77  1  0.32631058  0.56400922  0.13126281  1
  C  C78  1  0.09263131  0.19293237  0.87516386  1
  C  C79  1  0.10523682  0.53070745  0.79915973  1
  C  C80  1  0.81299046  0.78894189  0.90157608  1
  C  C81  1  0.60523682  0.03070745  0.70084027  1
  C  C82  1  0.90736869  0.80706763  0.12483614  1
  C  C83  1  0.67368942  0.43599078  0.86873719  1
  C  C84  1  0.82631058  0.06400922  0.36873719  1
  C  C85  1  0.59263131  0.69293237  0.62483614  1
  C  C86  1  0.31299046  0.28894189  0.59842392  1
  C  C87  1  0.68700954  0.71105811  0.40157608  1
  N  N88  1  0.48209340  0.10578904  0.49726158  1
  N  N89  1  0.51790660  0.89421096  0.50273842  1
  N  N90  1  0.01790660  0.39421096  0.99726158  1
  N  N91  1  0.98209340  0.60578904  0.00273842  1
