# generated using pymatgen
data_YCu(MoO4)2
_symmetry_space_group_name_H-M   'P 1'
_cell_length_a   9.88324815
_cell_length_b   10.30289572
_cell_length_c   14.72561213
_cell_angle_alpha   90.00000000
_cell_angle_beta   90.00000000
_cell_angle_gamma   90.00000000
_symmetry_Int_Tables_number   1
_chemical_formula_structural   YCu(MoO4)2
_chemical_formula_sum   'Y8 Cu8 Mo16 O64'
_cell_volume   1499.45128612
_cell_formula_units_Z   8
loop_
 _symmetry_equiv_pos_site_id
 _symmetry_equiv_pos_as_xyz
  1  'x, y, z'
loop_
 _atom_site_type_symbol
 _atom_site_label
 _atom_site_symmetry_multiplicity
 _atom_site_fract_x
 _atom_site_fract_y
 _atom_site_fract_z
 _atom_site_occupancy
  Y  Y0  1  0.27812650  0.46569215  0.10390445  1
  Y  Y1  1  0.22187350  0.96569215  0.89609555  1
  Y  Y2  1  0.77812650  0.53430785  0.39609555  1
  Y  Y3  1  0.77812650  0.03430785  0.10390445  1
  Y  Y4  1  0.27812650  0.96569215  0.39609555  1
  Y  Y5  1  0.72187350  0.53430785  0.89609555  1
  Y  Y6  1  0.22187350  0.46569215  0.60390445  1
  Y  Y7  1  0.72187350  0.03430785  0.60390445  1
  Cu  Cu8  1  0.18904978  0.31752602  0.80392820  1
  Cu  Cu9  1  0.81095022  0.18247398  0.30392820  1
  Cu  Cu10  1  0.18904978  0.81752602  0.69607180  1
  Cu  Cu11  1  0.31095022  0.81752602  0.19607180  1
  Cu  Cu12  1  0.68904978  0.18247398  0.80392820  1
  Cu  Cu13  1  0.68904978  0.68247398  0.69607180  1
  Cu  Cu14  1  0.31095022  0.31752602  0.30392820  1
  Cu  Cu15  1  0.81095022  0.68247398  0.19607180  1
  Mo  Mo16  1  0.99985333  0.28104344  0.94353935  1
  Mo  Mo17  1  0.50014667  0.78104344  0.05646065  1
  Mo  Mo18  1  0.83169077  0.39674583  0.65323578  1
  Mo  Mo19  1  0.00014667  0.71895656  0.05646065  1
  Mo  Mo20  1  0.50014667  0.28104344  0.44353935  1
  Mo  Mo21  1  0.66830923  0.89674583  0.34676422  1
  Mo  Mo22  1  0.00014667  0.21895656  0.44353935  1
  Mo  Mo23  1  0.66830923  0.39674583  0.15323578  1
  Mo  Mo24  1  0.33169077  0.60325417  0.84676422  1
  Mo  Mo25  1  0.49985333  0.21895656  0.94353935  1
  Mo  Mo26  1  0.99985333  0.78104344  0.55646065  1
  Mo  Mo27  1  0.16830923  0.60325417  0.34676422  1
  Mo  Mo28  1  0.33169077  0.10325417  0.65323578  1
  Mo  Mo29  1  0.16830923  0.10325417  0.15323578  1
  Mo  Mo30  1  0.49985333  0.71895656  0.55646065  1
  Mo  Mo31  1  0.83169077  0.89674583  0.84676422  1
  O  O32  1  0.39599277  0.61259137  0.62385659  1
  O  O33  1  0.20809169  0.07385117  0.03735893  1
  O  O34  1  0.70809169  0.92614883  0.46264107  1
  O  O35  1  0.10854927  0.32932207  0.50206263  1
  O  O36  1  0.89599277  0.38740863  0.87614341  1
  O  O37  1  0.24261146  0.98933136  0.72842314  1
  O  O38  1  0.60854927  0.67067793  0.99793737  1
  O  O39  1  0.90338337  0.12891165  0.52388171  1
  O  O40  1  0.10932525  0.67997263  0.63159472  1
  O  O41  1  0.60400723  0.88740863  0.12385659  1
  O  O42  1  0.60932525  0.82002737  0.63159472  1
  O  O43  1  0.27602767  0.76663261  0.81936180  1
  O  O44  1  0.00983665  0.91268324  0.83213971  1
  O  O45  1  0.40338337  0.87108835  0.97611829  1
  O  O46  1  0.10400723  0.61259137  0.12385659  1
  O  O47  1  0.29190831  0.57385117  0.96264107  1
  O  O48  1  0.70809169  0.42614883  0.03735893  1
  O  O49  1  0.39067475  0.17997263  0.36840528  1
  O  O50  1  0.74261146  0.01066864  0.77157686  1
  O  O51  1  0.39145073  0.32932207  0.00206263  1
  O  O52  1  0.39067475  0.67997263  0.13159472  1
  O  O53  1  0.89067475  0.82002737  0.13159472  1
  O  O54  1  0.60400723  0.38740863  0.37614341  1
  O  O55  1  0.25738854  0.48933136  0.27157686  1
  O  O56  1  0.99016335  0.08731676  0.16786029  1
  O  O57  1  0.27602767  0.26663261  0.68063820  1
  O  O58  1  0.72397233  0.73336739  0.31936180  1
  O  O59  1  0.59661663  0.12891165  0.02388171  1
  O  O60  1  0.10400723  0.11259137  0.37614341  1
  O  O61  1  0.09661663  0.87108835  0.47611829  1
  O  O62  1  0.22397233  0.26663261  0.18063820  1
  O  O63  1  0.40338337  0.37108835  0.52388171  1
  O  O64  1  0.60854927  0.17067793  0.50206263  1
  O  O65  1  0.75738854  0.01066864  0.27157686  1
  O  O66  1  0.09661663  0.37108835  0.02388171  1
  O  O67  1  0.10854927  0.82932207  0.99793737  1
  O  O68  1  0.50983665  0.08731676  0.66786029  1
  O  O69  1  0.29190831  0.07385117  0.53735893  1
  O  O70  1  0.89067475  0.32002737  0.36840528  1
  O  O71  1  0.50983665  0.58731676  0.83213971  1
  O  O72  1  0.90338337  0.62891165  0.97611829  1
  O  O73  1  0.49016335  0.91268324  0.33213971  1
  O  O74  1  0.75738854  0.51066864  0.22842314  1
  O  O75  1  0.72397233  0.23336739  0.18063820  1
  O  O76  1  0.00983665  0.41268324  0.66786029  1
  O  O77  1  0.89599277  0.88740863  0.62385659  1
  O  O78  1  0.89145073  0.67067793  0.49793737  1
  O  O79  1  0.99016335  0.58731676  0.33213971  1
  O  O80  1  0.25738854  0.98933136  0.22842314  1
  O  O81  1  0.10932525  0.17997263  0.86840528  1
  O  O82  1  0.79190831  0.92614883  0.96264107  1
  O  O83  1  0.49016335  0.41268324  0.16786029  1
  O  O84  1  0.89145073  0.17067793  0.00206263  1
  O  O85  1  0.39599277  0.11259137  0.87614341  1
  O  O86  1  0.60932525  0.32002737  0.86840528  1
  O  O87  1  0.24261146  0.48933136  0.77157686  1
  O  O88  1  0.77602767  0.73336739  0.81936180  1
  O  O89  1  0.59661663  0.62891165  0.47611829  1
  O  O90  1  0.74261146  0.51066864  0.72842314  1
  O  O91  1  0.39145073  0.82932207  0.49793737  1
  O  O92  1  0.79190831  0.42614883  0.53735893  1
  O  O93  1  0.77602767  0.23336739  0.68063820  1
  O  O94  1  0.20809169  0.57385117  0.46264107  1
  O  O95  1  0.22397233  0.76663261  0.31936180  1
