# generated using pymatgen
data_LiMoAsO6
_symmetry_space_group_name_H-M   'P 1'
_cell_length_a   5.00568006
_cell_length_b   9.09604894
_cell_length_c   9.57260553
_cell_angle_alpha   90.00000000
_cell_angle_beta   90.00000000
_cell_angle_gamma   90.00000000
_symmetry_Int_Tables_number   1
_chemical_formula_structural   LiMoAsO6
_chemical_formula_sum   'Li4 Mo4 As4 O24'
_cell_volume   435.85902115
_cell_formula_units_Z   4
loop_
 _symmetry_equiv_pos_site_id
 _symmetry_equiv_pos_as_xyz
  1  'x, y, z'
loop_
 _atom_site_type_symbol
 _atom_site_label
 _atom_site_symmetry_multiplicity
 _atom_site_fract_x
 _atom_site_fract_y
 _atom_site_fract_z
 _atom_site_occupancy
  Li  Li0  1  0.60347615  0.85184964  0.62093626  1
  Li  Li1  1  0.10347615  0.35184964  0.87906374  1
  Li  Li2  1  0.39652385  0.35184964  0.37906374  1
  Li  Li3  1  0.89652385  0.85184964  0.12093626  1
  Mo  Mo4  1  0.39010790  0.99837880  0.33855020  1
  Mo  Mo5  1  0.10989210  0.99837880  0.83855020  1
  Mo  Mo6  1  0.60989210  0.49837880  0.66144980  1
  Mo  Mo7  1  0.89010790  0.49837880  0.16144980  1
  As  As8  1  0.10000972  0.67861015  0.44848745  1
  As  As9  1  0.39999028  0.67861015  0.94848745  1
  As  As10  1  0.89999028  0.17861015  0.55151255  1
  As  As11  1  0.60000972  0.17861015  0.05151255  1
  O  O12  1  0.76190918  0.34458750  0.01606225  1
  O  O13  1  0.91816024  0.87086423  0.74982800  1
  O  O14  1  0.59608441  0.49470729  0.25541716  1
  O  O15  1  0.41816024  0.37086423  0.75017200  1
  O  O16  1  0.23809082  0.84458750  0.98393775  1
  O  O17  1  0.44627114  0.67182150  0.76641804  1
  O  O18  1  0.20285668  0.53650042  0.00445819  1
  O  O19  1  0.09608441  0.99470729  0.24458284  1
  O  O20  1  0.29714332  0.53650042  0.50445819  1
  O  O21  1  0.79714332  0.03650042  0.99554181  1
  O  O22  1  0.94627114  0.17182150  0.73358196  1
  O  O23  1  0.55372886  0.17182150  0.23358196  1
  O  O24  1  0.05372886  0.67182150  0.26641804  1
  O  O25  1  0.90391559  0.49470729  0.75541716  1
  O  O26  1  0.29082919  0.17248047  0.97607178  1
  O  O27  1  0.08183976  0.37086423  0.25017200  1
  O  O28  1  0.79082919  0.67248047  0.52392822  1
  O  O29  1  0.40391559  0.99470729  0.74458284  1
  O  O30  1  0.70917081  0.67248047  0.02392822  1
  O  O31  1  0.70285668  0.03650042  0.49554181  1
  O  O32  1  0.20917081  0.17248047  0.47607178  1
  O  O33  1  0.26190918  0.84458750  0.48393775  1
  O  O34  1  0.58183976  0.87086423  0.24982800  1
  O  O35  1  0.73809082  0.34458750  0.51606225  1
