# generated using pymatgen
data_InH6(CO3)3
_symmetry_space_group_name_H-M   'P 1'
_cell_length_a   6.86976845
_cell_length_b   10.28600047
_cell_length_c   11.21543736
_cell_angle_alpha   96.11582148
_cell_angle_beta   90.00000000
_cell_angle_gamma   90.00000000
_symmetry_Int_Tables_number   1
_chemical_formula_structural   InH6(CO3)3
_chemical_formula_sum   'In4 H24 C12 O36'
_cell_volume   787.99966449
_cell_formula_units_Z   4
loop_
 _symmetry_equiv_pos_site_id
 _symmetry_equiv_pos_as_xyz
  1  'x, y, z'
loop_
 _atom_site_type_symbol
 _atom_site_label
 _atom_site_symmetry_multiplicity
 _atom_site_fract_x
 _atom_site_fract_y
 _atom_site_fract_z
 _atom_site_occupancy
  In  In0  1  0.65386330  0.76170102  0.47392795  1
  In  In1  1  0.84613670  0.76170102  0.97392795  1
  In  In2  1  0.15386330  0.23829898  0.02607205  1
  In  In3  1  0.34613670  0.23829898  0.52607205  1
  H  H4  1  0.92075624  0.61706968  0.58465610  1
  H  H5  1  0.84895293  0.48500821  0.71371829  1
  H  H6  1  0.58402738  0.40943001  0.08704208  1
  H  H7  1  0.65104707  0.48500821  0.21371829  1
  H  H8  1  0.47591164  0.76250252  0.08154803  1
  H  H9  1  0.68931793  0.09775251  0.54119598  1
  H  H10  1  0.34895293  0.51499179  0.78628171  1
  H  H11  1  0.18931793  0.90224749  0.95880402  1
  H  H12  1  0.52408836  0.23749748  0.91845197  1
  H  H13  1  0.08402738  0.59056999  0.41295792  1
  H  H14  1  0.37818682  0.85611931  0.32438228  1
  H  H15  1  0.87818682  0.14388069  0.17561772  1
  H  H16  1  0.91597262  0.40943001  0.58704208  1
  H  H17  1  0.02408836  0.76250252  0.58154803  1
  H  H18  1  0.41597262  0.59056999  0.91295792  1
  H  H19  1  0.42075624  0.38293032  0.91534390  1
  H  H20  1  0.12181318  0.85611931  0.82438228  1
  H  H21  1  0.57924376  0.61706968  0.08465610  1
  H  H22  1  0.07924376  0.38293032  0.41534390  1
  H  H23  1  0.15104707  0.51499179  0.28628171  1
  H  H24  1  0.31068207  0.90224749  0.45880402  1
  H  H25  1  0.97591164  0.23749748  0.41845197  1
  H  H26  1  0.81068207  0.09775251  0.04119598  1
  H  H27  1  0.62181318  0.14388069  0.67561772  1
  C  C28  1  0.33375669  0.00808568  0.15215281  1
  C  C29  1  0.83375669  0.99191432  0.34784719  1
  C  C30  1  0.44561320  0.52794303  0.55729415  1
  C  C31  1  0.66624331  0.99191432  0.84784719  1
  C  C32  1  0.55438680  0.47205697  0.44270585  1
  C  C33  1  0.82421346  0.87170700  0.25096484  1
  C  C34  1  0.16624331  0.00808568  0.65215281  1
  C  C35  1  0.05438680  0.52794303  0.05729415  1
  C  C36  1  0.94561320  0.47205697  0.94270585  1
  C  C37  1  0.17578654  0.12829300  0.74903516  1
  C  C38  1  0.67578654  0.87170700  0.75096484  1
  C  C39  1  0.32421346  0.12829300  0.24903516  1
  O  O40  1  0.77765835  0.96881458  0.45253451  1
  O  O41  1  0.39050599  0.89915679  0.17974435  1
  O  O42  1  0.74200070  0.76579113  0.78317414  1
  O  O43  1  0.86987541  0.17312542  0.09336967  1
  O  O44  1  0.36987541  0.82687458  0.40663033  1
  O  O45  1  0.88049817  0.89057236  0.14685379  1
  O  O46  1  0.85014575  0.55193696  0.88606363  1
  O  O47  1  0.38049817  0.10942764  0.35314621  1
  O  O48  1  0.95708479  0.35105642  0.91134622  1
  O  O49  1  0.60949401  0.10084321  0.82025565  1
  O  O50  1  0.22234165  0.03118542  0.54746549  1
  O  O51  1  0.84849722  0.48696697  0.62602629  1
  O  O52  1  0.35014575  0.44806304  0.61393637  1
  O  O53  1  0.14985425  0.44806304  0.11393637  1
  O  O54  1  0.64985425  0.55193696  0.38606363  1
  O  O55  1  0.61950183  0.89057236  0.64685379  1
  O  O56  1  0.75799930  0.76579113  0.28317414  1
  O  O57  1  0.13012459  0.82687458  0.90663033  1
  O  O58  1  0.44609514  0.30619902  0.96625068  1
  O  O59  1  0.34849722  0.51303303  0.87397371  1
  O  O60  1  0.05390486  0.30619902  0.46625068  1
  O  O61  1  0.89050599  0.10084321  0.32025565  1
  O  O62  1  0.55390486  0.69380098  0.03374932  1
  O  O63  1  0.65150278  0.48696697  0.12602629  1
  O  O64  1  0.72234165  0.96881458  0.95253451  1
  O  O65  1  0.27765835  0.03118542  0.04746549  1
  O  O66  1  0.10949401  0.89915679  0.67974435  1
  O  O67  1  0.63012459  0.17312542  0.59336967  1
  O  O68  1  0.25799930  0.23420887  0.21682586  1
  O  O69  1  0.11950183  0.10942764  0.85314621  1
  O  O70  1  0.24200070  0.23420887  0.71682586  1
  O  O71  1  0.94609514  0.69380098  0.53374932  1
  O  O72  1  0.45708479  0.64894358  0.58865378  1
  O  O73  1  0.04291521  0.64894358  0.08865378  1
  O  O74  1  0.54291521  0.35105642  0.41134622  1
  O  O75  1  0.15150278  0.51303303  0.37397371  1
