# generated using pymatgen
data_NdFeSb3
_symmetry_space_group_name_H-M   'P 1'
_cell_length_a   6.23706552
_cell_length_b   12.70923776
_cell_length_c   18.49192709
_cell_angle_alpha   90.00000000
_cell_angle_beta   90.00000000
_cell_angle_gamma   90.00000000
_symmetry_Int_Tables_number   1
_chemical_formula_structural   NdFeSb3
_chemical_formula_sum   'Nd12 Fe12 Sb36'
_cell_volume   1465.82452320
_cell_formula_units_Z   12
loop_
 _symmetry_equiv_pos_site_id
 _symmetry_equiv_pos_as_xyz
  1  'x, y, z'
loop_
 _atom_site_type_symbol
 _atom_site_label
 _atom_site_symmetry_multiplicity
 _atom_site_fract_x
 _atom_site_fract_y
 _atom_site_fract_z
 _atom_site_occupancy
  Nd  Nd0  1  0.98052818  0.70051404  0.41715650  1
  Nd  Nd1  1  0.95229733  0.30711758  0.25000000  1
  Nd  Nd2  1  0.48052818  0.29948596  0.41715650  1
  Nd  Nd3  1  0.01947182  0.29948596  0.91715650  1
  Nd  Nd4  1  0.45229733  0.69288242  0.25000000  1
  Nd  Nd5  1  0.04770267  0.69288242  0.75000000  1
  Nd  Nd6  1  0.51947182  0.70051404  0.91715650  1
  Nd  Nd7  1  0.98052818  0.70051404  0.08284350  1
  Nd  Nd8  1  0.48052818  0.29948596  0.08284350  1
  Nd  Nd9  1  0.51947182  0.70051404  0.58284350  1
  Nd  Nd10  1  0.01947182  0.29948596  0.58284350  1
  Nd  Nd11  1  0.54770267  0.30711758  0.75000000  1
  Fe  Fe12  1  0.81721350  0.89874115  0.82143739  1
  Fe  Fe13  1  0.31721350  0.10125885  0.67856261  1
  Fe  Fe14  1  0.68278650  0.89874115  0.17856261  1
  Fe  Fe15  1  0.75000000  0.10500233  0.50000000  1
  Fe  Fe16  1  0.18278650  0.10125885  0.32143739  1
  Fe  Fe17  1  0.18278650  0.10125885  0.17856261  1
  Fe  Fe18  1  0.68278650  0.89874115  0.32143739  1
  Fe  Fe19  1  0.75000000  0.10500233  0.00000000  1
  Fe  Fe20  1  0.25000000  0.89499767  0.00000000  1
  Fe  Fe21  1  0.25000000  0.89499767  0.50000000  1
  Fe  Fe22  1  0.31721350  0.10125885  0.82143739  1
  Fe  Fe23  1  0.81721350  0.89874115  0.67856261  1
  Sb  Sb24  1  0.28299316  0.49684872  0.83436663  1
  Sb  Sb25  1  0.53304617  0.97081293  0.58777461  1
  Sb  Sb26  1  0.33257149  0.94122303  0.25000000  1
  Sb  Sb27  1  0.54163321  0.78201878  0.75000000  1
  Sb  Sb28  1  0.46695383  0.02918707  0.41222539  1
  Sb  Sb29  1  0.21700684  0.49684872  0.33436663  1
  Sb  Sb30  1  0.71700684  0.50315128  0.33436663  1
  Sb  Sb31  1  0.45836679  0.21798122  0.25000000  1
  Sb  Sb32  1  0.48385038  0.77933297  0.08456823  1
  Sb  Sb33  1  0.01614962  0.77933297  0.91543177  1
  Sb  Sb34  1  0.78299316  0.50315128  0.83436663  1
  Sb  Sb35  1  0.25000000  0.50274765  0.00000000  1
  Sb  Sb36  1  0.75000000  0.49725235  0.00000000  1
  Sb  Sb37  1  0.48385038  0.77933297  0.41543177  1
  Sb  Sb38  1  0.96695383  0.97081293  0.41222539  1
  Sb  Sb39  1  0.03304617  0.02918707  0.58777461  1
  Sb  Sb40  1  0.25000000  0.50274765  0.50000000  1
  Sb  Sb41  1  0.01614962  0.77933297  0.58456823  1
  Sb  Sb42  1  0.95836679  0.78201878  0.25000000  1
  Sb  Sb43  1  0.04163321  0.21798122  0.75000000  1
  Sb  Sb44  1  0.75000000  0.49725235  0.50000000  1
  Sb  Sb45  1  0.46695383  0.02918707  0.08777461  1
  Sb  Sb46  1  0.71700684  0.50315128  0.16563337  1
  Sb  Sb47  1  0.03304617  0.02918707  0.91222539  1
  Sb  Sb48  1  0.96695383  0.97081293  0.08777461  1
  Sb  Sb49  1  0.16742851  0.94122303  0.75000000  1
  Sb  Sb50  1  0.78299316  0.50315128  0.66563337  1
  Sb  Sb51  1  0.66742851  0.05877697  0.75000000  1
  Sb  Sb52  1  0.98385038  0.22066703  0.41543177  1
  Sb  Sb53  1  0.98385038  0.22066703  0.08456823  1
  Sb  Sb54  1  0.83257149  0.05877697  0.25000000  1
  Sb  Sb55  1  0.21700684  0.49684872  0.16563337  1
  Sb  Sb56  1  0.51614962  0.22066703  0.91543177  1
  Sb  Sb57  1  0.53304617  0.97081293  0.91222539  1
  Sb  Sb58  1  0.51614962  0.22066703  0.58456823  1
  Sb  Sb59  1  0.28299316  0.49684872  0.66563337  1
