# generated using pymatgen
data_Mn7CoSb4
_symmetry_space_group_name_H-M   'P 1'
_cell_length_a   3.95022149
_cell_length_b   3.95022149
_cell_length_c   12.83912357
_cell_angle_alpha   90.00000000
_cell_angle_beta   90.00000000
_cell_angle_gamma   90.00000000
_symmetry_Int_Tables_number   1
_chemical_formula_structural   Mn7CoSb4
_chemical_formula_sum   'Mn7 Co1 Sb4'
_cell_volume   200.34489166
_cell_formula_units_Z   1
loop_
 _symmetry_equiv_pos_site_id
 _symmetry_equiv_pos_as_xyz
  1  'x, y, z'
loop_
 _atom_site_type_symbol
 _atom_site_label
 _atom_site_symmetry_multiplicity
 _atom_site_fract_x
 _atom_site_fract_y
 _atom_site_fract_z
 _atom_site_occupancy
  Mn  Mn0  1  0.75000000  0.75000000  0.35699968  1
  Mn  Mn1  1  0.75000000  0.75000000  0.86386085  1
  Mn  Mn2  1  0.25000000  0.25000000  0.13613915  1
  Mn  Mn3  1  0.25000000  0.25000000  0.64300032  1
  Mn  Mn4  1  0.75000000  0.25000000  0.50000000  1
  Mn  Mn5  1  0.25000000  0.75000000  0.00000000  1
  Mn  Mn6  1  0.25000000  0.75000000  0.50000000  1
  Co  Co7  1  0.75000000  0.25000000  0.00000000  1
  Sb  Sb8  1  0.75000000  0.75000000  0.14405855  1
  Sb  Sb9  1  0.75000000  0.75000000  0.64444985  1
  Sb  Sb10  1  0.25000000  0.25000000  0.35555015  1
  Sb  Sb11  1  0.25000000  0.25000000  0.85594145  1
