# generated using pymatgen
data_TeHO3
_symmetry_space_group_name_H-M   'P 1'
_cell_length_a   8.34849777
_cell_length_b   11.71524473
_cell_length_c   4.95951553
_cell_angle_alpha   91.19240238
_cell_angle_beta   89.97269758
_cell_angle_gamma   89.96703021
_symmetry_Int_Tables_number   1
_chemical_formula_structural   TeHO3
_chemical_formula_sum   'Te8 H8 O24'
_cell_volume   484.95872308
_cell_formula_units_Z   8
loop_
 _symmetry_equiv_pos_site_id
 _symmetry_equiv_pos_as_xyz
  1  'x, y, z'
loop_
 _atom_site_type_symbol
 _atom_site_label
 _atom_site_symmetry_multiplicity
 _atom_site_fract_x
 _atom_site_fract_y
 _atom_site_fract_z
 _atom_site_occupancy
  Te  Te0  1  0.46277103  0.60897790  0.01223295  1
  Te  Te1  1  0.53465584  0.38040088  0.51376745  1
  Te  Te2  1  0.96568793  0.88033656  0.51320601  1
  Te  Te3  1  0.03715942  0.10914440  0.01135213  1
  Te  Te4  1  0.35238361  0.92924749  0.18479282  1
  Te  Te5  1  0.65998434  0.07437142  0.61791445  1
  Te  Te6  1  0.83981835  0.57458313  0.61890680  1
  Te  Te7  1  0.14774162  0.42922947  0.18565761  1
  H  H8  1  0.23335401  0.70350551  0.77060002  1
  H  H9  1  0.66352897  0.31674544  0.07719703  1
  H  H10  1  0.83482532  0.81795491  0.07765431  1
  H  H11  1  0.26677155  0.20341935  0.77139254  1
  H  H12  1  0.52707709  0.14283084  0.01598546  1
  H  H13  1  0.97112046  0.64306429  0.01837502  1
  H  H14  1  0.50015449  0.71865857  0.45194765  1
  H  H15  1  0.99109833  0.21899010  0.44948565  1
  O  O16  1  0.26041706  0.57812202  0.19557775  1
  O  O17  1  0.73211182  0.42650898  0.70175074  1
  O  O18  1  0.76790169  0.92636666  0.70133690  1
  O  O19  1  0.23934376  0.07798691  0.19521512  1
  O  O20  1  0.40828062  0.47607691  0.77761679  1
  O  O21  1  0.58325432  0.51482413  0.27551091  1
  O  O22  1  0.91657214  0.01489033  0.27467174  1
  O  O23  1  0.09180465  0.97605623  0.77701615  1
  O  O24  1  0.34987363  0.71780877  0.78655550  1
  O  O25  1  0.65094704  0.28425386  0.25674612  1
  O  O26  1  0.84993555  0.78434307  0.25539628  1
  O  O27  1  0.15065166  0.21827187  0.78820595  1
  O  O28  1  0.33010920  0.34717227  0.33379120  1
  O  O29  1  0.64675745  0.65421695  0.80817751  1
  O  O30  1  0.85350251  0.15408116  0.80552769  1
  O  O31  1  0.17044032  0.84712767  0.33356323  1
  O  O32  1  0.45256774  0.97099376  0.51531296  1
  O  O33  1  0.56436025  0.06320177  0.98079288  1
  O  O34  1  0.93538934  0.56322651  0.98146713  1
  O  O35  1  0.04740991  0.47097419  0.51606968  1
  O  O36  1  0.49768418  0.74067856  0.26019435  1
  O  O37  1  0.51362897  0.24849326  0.72387077  1
  O  O38  1  0.98684103  0.74832286  0.72254379  1
  O  O39  1  0.00178279  0.24096302  0.25871197  1
