# generated using pymatgen
data_Cs2Cr4Cu(HO4)4
_symmetry_space_group_name_H-M   'P 1'
_cell_length_a   7.74571993
_cell_length_b   7.96617299
_cell_length_c   7.85217963
_cell_angle_alpha   93.26895187
_cell_angle_beta   98.99704880
_cell_angle_gamma   117.35410180
_symmetry_Int_Tables_number   1
_chemical_formula_structural   Cs2Cr4Cu(HO4)4
_chemical_formula_sum   'Cs2 Cr4 Cu1 H4 O16'
_cell_volume   420.42642455
_cell_formula_units_Z   1
loop_
 _symmetry_equiv_pos_site_id
 _symmetry_equiv_pos_as_xyz
  1  'x, y, z'
loop_
 _atom_site_type_symbol
 _atom_site_label
 _atom_site_symmetry_multiplicity
 _atom_site_fract_x
 _atom_site_fract_y
 _atom_site_fract_z
 _atom_site_occupancy
  Cs  Cs0  1  0.25989892  0.73822643  0.16575638  1
  Cs  Cs1  1  0.74010108  0.26177357  0.83424362  1
  Cr  Cr2  1  0.29841775  0.24460982  0.15218389  1
  Cr  Cr3  1  0.70158225  0.75539018  0.84781611  1
  Cr  Cr4  1  0.75488832  0.53116735  0.33112470  1
  Cr  Cr5  1  0.24511168  0.46883265  0.66887530  1
  Cu  Cu6  1  0.00000000  0.00000000  0.50000000  1
  H  H7  1  0.78924153  0.00008221  0.20487898  1
  H  H8  1  0.31426222  0.01042586  0.63664304  1
  H  H9  1  0.21075847  -0.00008221  0.79512102  1
  H  H10  1  0.68573778  0.98957414  0.36335696  1
  O  O11  1  0.18588768  0.94600178  0.66872500  1
  O  O12  1  0.66651670  0.88457184  0.99756742  1
  O  O13  1  0.91228590  0.76585834  0.35007927  1
  O  O14  1  0.08771410  0.23414166  0.64992073  1
  O  O15  1  0.11137128  0.27738088  0.07619809  1
  O  O16  1  0.73654357  0.86597836  0.67612289  1
  O  O17  1  0.48684991  0.52320659  0.78762980  1
  O  O18  1  0.26877039  0.53934146  0.48118617  1
  O  O19  1  0.73122961  0.46065854  0.51881383  1
  O  O20  1  0.88862872  0.72261912  0.92380191  1
  O  O21  1  0.33348330  0.11542816  0.00243258  1
  O  O22  1  0.51315009  0.47679341  0.21237020  1
  O  O23  1  0.26345643  0.13402164  0.32387711  1
  O  O24  1  0.81411232  0.05399822  0.33127500  1
  O  O25  1  0.83826782  0.41542740  0.22335022  1
  O  O26  1  0.16173218  0.58457260  0.77664978  1
