# generated using pymatgen
data_CrWO4
_symmetry_space_group_name_H-M   'P 1'
_cell_length_a   6.27912658
_cell_length_b   7.22691099
_cell_length_c   7.36356842
_cell_angle_alpha   79.32580151
_cell_angle_beta   64.76295086
_cell_angle_gamma   64.25118114
_symmetry_Int_Tables_number   1
_chemical_formula_structural   CrWO4
_chemical_formula_sum   'Cr4 W4 O16'
_cell_volume   272.24331261
_cell_formula_units_Z   4
loop_
 _symmetry_equiv_pos_site_id
 _symmetry_equiv_pos_as_xyz
  1  'x, y, z'
loop_
 _atom_site_type_symbol
 _atom_site_label
 _atom_site_symmetry_multiplicity
 _atom_site_fract_x
 _atom_site_fract_y
 _atom_site_fract_z
 _atom_site_occupancy
  Cr  Cr0  1  0.00007795  0.50000000  0.99984410  1
  Cr  Cr1  1  0.00110928  0.99778145  0.50000000  1
  Cr  Cr2  1  0.49992205  0.50000000  0.00015590  1
  Cr  Cr3  1  0.49889072  0.00221855  0.50000000  1
  W  W4  1  -0.00003824  0.50000000  0.50000000  1
  W  W5  1  -0.00000000  0.00000000  0.00000000  1
  W  W6  1  0.50003824  0.50000000  0.50000000  1
  W  W7  1  0.50000000  0.00000000  0.00000000  1
  O  O8  1  0.65277691  0.50000000  0.69444618  1
  O  O9  1  0.15293950  0.50000000  0.69412100  1
  O  O10  1  0.15230738  0.19850994  0.49237428  1
  O  O11  1  0.84319160  0.80149006  0.50762572  1
  O  O12  1  0.14940277  0.70119445  1.00000000  1
  O  O13  1  0.66913154  0.00117712  0.19616548  1
  O  O14  1  0.13470298  0.99882288  0.19616548  1
  O  O15  1  0.35531835  0.80149006  0.49237428  1
  O  O16  1  0.85059723  0.29880555  0.00000000  1
  O  O17  1  0.32969134  0.00117712  0.80383452  1
  O  O18  1  0.65298866  0.69402268  1.00000000  1
  O  O19  1  0.86647414  0.99882288  0.80383452  1
  O  O20  1  0.84722309  0.50000000  0.30555382  1
  O  O21  1  0.64918268  0.19850994  0.50762572  1
  O  O22  1  0.34701134  0.30597732  0.00000000  1
  O  O23  1  0.34706050  0.50000000  0.30587900  1
