# generated using pymatgen
data_H7BrO3
_symmetry_space_group_name_H-M   'P 1'
_cell_length_a   6.12895592
_cell_length_b   6.67008376
_cell_length_c   6.67008376
_cell_angle_alpha   58.54625479
_cell_angle_beta   91.84635240
_cell_angle_gamma   91.84635240
_symmetry_Int_Tables_number   1
_chemical_formula_structural   H7BrO3
_chemical_formula_sum   'H14 Br2 O6'
_cell_volume   232.45188142
_cell_formula_units_Z   2
loop_
 _symmetry_equiv_pos_site_id
 _symmetry_equiv_pos_as_xyz
  1  'x, y, z'
loop_
 _atom_site_type_symbol
 _atom_site_label
 _atom_site_symmetry_multiplicity
 _atom_site_fract_x
 _atom_site_fract_y
 _atom_site_fract_z
 _atom_site_occupancy
  H  H0  1  0.45785805  0.98093022  0.86192586  1
  H  H1  1  0.61228162  0.82118871  0.81504223  1
  H  H2  1  0.95785805  0.36192586  0.48093022  1
  H  H3  1  0.11228162  0.31504223  0.32118871  1
  H  H4  1  0.86433142  0.53615061  0.97851515  1
  H  H5  1  0.74584002  0.56870882  0.74167715  1
  H  H6  1  0.23250150  0.74581238  0.52388196  1
  H  H7  1  0.03364048  0.76335521  0.68042854  1
  H  H8  1  0.30241047  0.85574966  0.69013919  1
  H  H9  1  0.73250150  0.02388196  0.24581238  1
  H  H10  1  0.53364048  0.18042854  0.26335521  1
  H  H11  1  0.80241047  0.19013919  0.35574966  1
  H  H12  1  0.36433142  0.47851515  0.03615061  1
  H  H13  1  0.24584002  0.24167715  0.06870882  1
  Br  Br14  1  0.50021584  0.48759308  0.54780661  1
  Br  Br15  1  0.00021584  0.04780661  0.98759308  1
  O  O16  1  0.46112586  0.83920361  0.85134722  1
  O  O17  1  0.96112586  0.35134722  0.33920361  1
  O  O18  1  0.83339240  0.64978830  0.81172367  1
  O  O19  1  0.17356635  0.84601556  0.58005329  1
  O  O20  1  0.67356635  0.08005329  0.34601556  1
  O  O21  1  0.33339240  0.31172367  0.14978830  1
