# generated using pymatgen
data_Mg4AlZn11
_symmetry_space_group_name_H-M   'P 1'
_cell_length_a   5.23815059
_cell_length_b   5.23815059
_cell_length_c   11.81563473
_cell_angle_alpha   90.00000000
_cell_angle_beta   90.00000000
_cell_angle_gamma   118.67359312
_symmetry_Int_Tables_number   1
_chemical_formula_structural   Mg4AlZn11
_chemical_formula_sum   'Mg4 Al1 Zn11'
_cell_volume   284.44251479
_cell_formula_units_Z   1
loop_
 _symmetry_equiv_pos_site_id
 _symmetry_equiv_pos_as_xyz
  1  'x, y, z'
loop_
 _atom_site_type_symbol
 _atom_site_label
 _atom_site_symmetry_multiplicity
 _atom_site_fract_x
 _atom_site_fract_y
 _atom_site_fract_z
 _atom_site_occupancy
  Mg  Mg0  1  0.33446370  0.66553630  0.16458959  1
  Mg  Mg1  1  0.33446370  0.66553630  0.83541041  1
  Mg  Mg2  1  0.00091679  0.99908321  0.11700192  1
  Mg  Mg3  1  0.00091679  0.99908321  0.88299808  1
  Al  Al4  1  0.66253940  0.33746060  0.50000000  1
  Zn  Zn5  1  0.66405990  0.33594010  0.11291087  1
  Zn  Zn6  1  0.66405990  0.33594010  0.88708913  1
  Zn  Zn7  1  0.33328064  0.66671936  0.39685929  1
  Zn  Zn8  1  0.33328064  0.66671936  0.60314071  1
  Zn  Zn9  1  0.00267918  0.99732082  0.50000000  1
  Zn  Zn10  1  0.83351696  0.16648304  0.31123755  1
  Zn  Zn11  1  0.33363523  0.16583251  0.31049575  1
  Zn  Zn12  1  0.83416749  0.66636477  0.31049575  1
  Zn  Zn13  1  0.83351696  0.16648304  0.68876245  1
  Zn  Zn14  1  0.33363523  0.16583251  0.68950425  1
  Zn  Zn15  1  0.83416749  0.66636477  0.68950425  1
