# generated using pymatgen
data_VSb2O5
_symmetry_space_group_name_H-M   'P 1'
_cell_length_a   4.94916181
_cell_length_b   5.62659340
_cell_length_c   18.03760039
_cell_angle_alpha   90.00000000
_cell_angle_beta   90.00000000
_cell_angle_gamma   90.00000000
_symmetry_Int_Tables_number   1
_chemical_formula_structural   VSb2O5
_chemical_formula_sum   'V4 Sb8 O20'
_cell_volume   502.29163626
_cell_formula_units_Z   4
loop_
 _symmetry_equiv_pos_site_id
 _symmetry_equiv_pos_as_xyz
  1  'x, y, z'
loop_
 _atom_site_type_symbol
 _atom_site_label
 _atom_site_symmetry_multiplicity
 _atom_site_fract_x
 _atom_site_fract_y
 _atom_site_fract_z
 _atom_site_occupancy
  V  V0  1  0.87938153  0.67469333  0.25000000  1
  V  V1  1  0.37938153  0.82530667  0.75000000  1
  V  V2  1  0.62061847  0.17469333  0.25000000  1
  V  V3  1  0.12061847  0.32530667  0.75000000  1
  Sb  Sb4  1  0.03362434  0.67601753  0.58847433  1
  Sb  Sb5  1  0.96637566  0.32398247  0.41152567  1
  Sb  Sb6  1  0.46637566  0.17601753  0.91152567  1
  Sb  Sb7  1  0.03362434  0.67601753  0.91152567  1
  Sb  Sb8  1  0.53362434  0.82398247  0.41152567  1
  Sb  Sb9  1  0.46637566  0.17601753  0.58847433  1
  Sb  Sb10  1  0.96637566  0.32398247  0.08847433  1
  Sb  Sb11  1  0.53362434  0.82398247  0.08847433  1
  O  O12  1  0.24092747  0.07334543  0.67858721  1
  O  O13  1  0.66007037  0.13453692  0.04285466  1
  O  O14  1  0.16007037  0.36546308  0.54285466  1
  O  O15  1  0.28859577  0.15993013  0.25000000  1
  O  O16  1  0.33992963  0.86546308  0.95714534  1
  O  O17  1  0.74092747  0.42665457  0.32141279  1
  O  O18  1  0.66007037  0.13453692  0.45714534  1
  O  O19  1  0.74092747  0.42665457  0.17858721  1
  O  O20  1  0.21140423  0.65993013  0.25000000  1
  O  O21  1  0.78859577  0.34006987  0.75000000  1
  O  O22  1  0.83992963  0.63453692  0.45714534  1
  O  O23  1  0.75907253  0.92665457  0.32141279  1
  O  O24  1  0.25907253  0.57334543  0.67858721  1
  O  O25  1  0.71140423  0.84006987  0.75000000  1
  O  O26  1  0.75907253  0.92665457  0.17858721  1
  O  O27  1  0.25907253  0.57334543  0.82141279  1
  O  O28  1  0.16007037  0.36546308  0.95714534  1
  O  O29  1  0.83992963  0.63453692  0.04285466  1
  O  O30  1  0.33992963  0.86546308  0.54285466  1
  O  O31  1  0.24092747  0.07334543  0.82141279  1
