# generated using pymatgen
data_FeH14C3Br3NO2
_symmetry_space_group_name_H-M   'P 1'
_cell_length_a   7.64393828
_cell_length_b   8.58082007
_cell_length_c   17.46535018
_cell_angle_alpha   90.00000000
_cell_angle_beta   90.00000000
_cell_angle_gamma   90.00000000
_symmetry_Int_Tables_number   1
_chemical_formula_structural   FeH14C3Br3NO2
_chemical_formula_sum   'Fe4 H56 C12 Br12 N4 O8'
_cell_volume   1145.57430730
_cell_formula_units_Z   4
loop_
 _symmetry_equiv_pos_site_id
 _symmetry_equiv_pos_as_xyz
  1  'x, y, z'
loop_
 _atom_site_type_symbol
 _atom_site_label
 _atom_site_symmetry_multiplicity
 _atom_site_fract_x
 _atom_site_fract_y
 _atom_site_fract_z
 _atom_site_occupancy
  Fe  Fe0  1  0.00000000  0.00000000  0.00000000  1
  Fe  Fe1  1  0.00000000  0.50000000  0.50000000  1
  Fe  Fe2  1  0.50000000  0.00000000  0.00000000  1
  Fe  Fe3  1  0.50000000  0.50000000  0.50000000  1
  H  H4  1  0.59329200  0.87612553  0.76664495  1
  H  H5  1  0.60228891  0.79907074  0.51993777  1
  H  H6  1  0.40670800  0.12387447  0.23335505  1
  H  H7  1  0.60228891  0.70092926  0.01993777  1
  H  H8  1  0.25000000  0.25955852  0.63103723  1
  H  H9  1  0.25000000  0.53257889  0.22195105  1
  H  H10  1  0.41458765  0.30980521  0.28091653  1
  H  H11  1  0.09329200  0.12387447  0.23335505  1
  H  H12  1  0.97321538  0.21847698  0.69084733  1
  H  H13  1  0.39771109  0.20092926  0.48006223  1
  H  H14  1  0.75000000  0.46742111  0.77804895  1
  H  H15  1  0.47321538  0.78152302  0.30915267  1
  H  H16  1  0.90670800  0.87612553  0.76664495  1
  H  H17  1  0.43380290  0.69774048  0.96828262  1
  H  H18  1  0.47321538  0.71847698  0.80915267  1
  H  H19  1  0.13231338  0.50055510  0.13408750  1
  H  H20  1  0.75000000  0.75955852  0.86896277  1
  H  H21  1  0.86768662  0.00055510  0.36591250  1
  H  H22  1  0.52678462  0.28152302  0.19084733  1
  H  H23  1  0.13231338  0.99944490  0.63408750  1
  H  H24  1  0.02678462  0.78152302  0.30915267  1
  H  H25  1  0.25000000  0.96742111  0.72195105  1
  H  H26  1  0.97321538  0.28152302  0.19084733  1
  H  H27  1  0.25000000  0.24044148  0.13103723  1
  H  H28  1  0.09329200  0.37612553  0.73335505  1
  H  H29  1  0.10228891  0.29907074  0.98006223  1
  H  H30  1  0.63231338  0.49944490  0.86591250  1
  H  H31  1  0.63231338  0.00055510  0.36591250  1
  H  H32  1  0.41458765  0.19019479  0.78091653  1
  H  H33  1  0.40670800  0.37612553  0.73335505  1
  H  H34  1  0.56619710  0.30225952  0.03171738  1
  H  H35  1  0.90670800  0.62387447  0.26664495  1
  H  H36  1  0.89771109  0.79907074  0.51993777  1
  H  H37  1  0.75000000  0.03257889  0.27804895  1
  H  H38  1  0.91458765  0.80980521  0.21908347  1
  H  H39  1  0.58541235  0.69019479  0.71908347  1
  H  H40  1  0.75000000  0.74044148  0.36896277  1
  H  H41  1  0.06619710  0.69774048  0.96828262  1
  H  H42  1  0.36768662  0.50055510  0.13408750  1
  H  H43  1  0.59329200  0.62387447  0.26664495  1
  H  H44  1  0.08541235  0.19019479  0.78091653  1
  H  H45  1  0.93380290  0.30225952  0.03171738  1
  H  H46  1  0.56619710  0.19774048  0.53171738  1
  H  H47  1  0.52678462  0.21847698  0.69084733  1
  H  H48  1  0.08541235  0.30980521  0.28091653  1
  H  H49  1  0.91458765  0.69019479  0.71908347  1
  H  H50  1  0.06619710  0.80225952  0.46828262  1
  H  H51  1  0.43380290  0.80225952  0.46828262  1
  H  H52  1  0.86768662  0.49944490  0.86591250  1
  H  H53  1  0.10228891  0.20092926  0.48006223  1
  H  H54  1  0.89771109  0.70092926  0.01993777  1
  H  H55  1  0.93380290  0.19774048  0.53171738  1
  H  H56  1  0.39771109  0.29907074  0.98006223  1
  H  H57  1  0.36768662  0.99944490  0.63408750  1
  H  H58  1  0.58541235  0.80980521  0.21908347  1
  H  H59  1  0.02678462  0.71847698  0.80915267  1
  C  C60  1  0.75000000  0.97098338  0.33308967  1
  C  C61  1  0.58802805  0.74958695  0.77482134  1
  C  C62  1  0.25000000  0.02901662  0.66691033  1
  C  C63  1  0.75000000  0.52901662  0.83308967  1
  C  C64  1  0.91197195  0.75041305  0.27482134  1
  C  C65  1  0.91197195  0.74958695  0.77482134  1
  C  C66  1  0.41197195  0.24958695  0.72517866  1
  C  C67  1  0.41197195  0.25041305  0.22517866  1
  C  C68  1  0.08802805  0.24958695  0.72517866  1
  C  C69  1  0.25000000  0.47098338  0.16691033  1
  C  C70  1  0.08802805  0.25041305  0.22517866  1
  C  C71  1  0.58802805  0.75041305  0.27482134  1
  Br  Br72  1  0.75000000  0.50044973  0.60437115  1
  Br  Br73  1  0.75000000  0.07242677  0.89670437  1
  Br  Br74  1  0.25000000  0.00044973  0.89562885  1
  Br  Br75  1  0.75000000  0.49786515  0.08125013  1
  Br  Br76  1  0.75000000  0.99955027  0.10437115  1
  Br  Br77  1  0.25000000  0.50213485  0.91874987  1
  Br  Br78  1  0.25000000  0.92757323  0.10329563  1
  Br  Br79  1  0.25000000  0.57242677  0.60329563  1
  Br  Br80  1  0.75000000  0.42757323  0.39670437  1
  Br  Br81  1  0.75000000  0.00213485  0.58125013  1
  Br  Br82  1  0.25000000  0.99786515  0.41874987  1
  Br  Br83  1  0.25000000  0.49955027  0.39562885  1
  N  N84  1  0.75000000  0.70067527  0.81674095  1
  N  N85  1  0.75000000  0.79932473  0.31674095  1
  N  N86  1  0.25000000  0.20067527  0.68325905  1
  N  N87  1  0.25000000  0.29932473  0.18325905  1
  O  O88  1  0.45965757  0.25990807  0.52095726  1
  O  O89  1  0.54034243  0.75990807  0.97904274  1
  O  O90  1  0.54034243  0.74009193  0.47904274  1
  O  O91  1  0.95965757  0.74009193  0.47904274  1
  O  O92  1  0.95965757  0.75990807  0.97904274  1
  O  O93  1  0.45965757  0.24009193  0.02095726  1
  O  O94  1  0.04034243  0.24009193  0.02095726  1
  O  O95  1  0.04034243  0.25990807  0.52095726  1
