# generated using pymatgen
data_Ta2H4O7
_symmetry_space_group_name_H-M   'P 1'
_cell_length_a   7.48111037
_cell_length_b   7.59226785
_cell_length_c   7.46055396
_cell_angle_alpha   59.59453174
_cell_angle_beta   61.07816617
_cell_angle_gamma   62.00255978
_symmetry_Int_Tables_number   1
_chemical_formula_structural   Ta2H4O7
_chemical_formula_sum   'Ta4 H8 O14'
_cell_volume   305.39264634
_cell_formula_units_Z   2
loop_
 _symmetry_equiv_pos_site_id
 _symmetry_equiv_pos_as_xyz
  1  'x, y, z'
loop_
 _atom_site_type_symbol
 _atom_site_label
 _atom_site_symmetry_multiplicity
 _atom_site_fract_x
 _atom_site_fract_y
 _atom_site_fract_z
 _atom_site_occupancy
  Ta  Ta0  1  0.50039029  0.98324871  0.50833257  1
  Ta  Ta1  1  0.50805736  0.48755809  0.00977878  1
  Ta  Ta2  1  0.01675129  0.49960971  0.49197157  1
  Ta  Ta3  1  0.51244191  0.49194264  0.50539422  1
  H  H4  1  0.95222769  0.75983438  0.86987757  1
  H  H5  1  0.80911867  0.91365895  -0.00079379  1
  H  H6  1  0.66647261  0.06668785  0.69797200  1
  H  H7  1  0.08079545  0.06958035  0.68434836  1
  H  H8  1  0.24016562  0.04777231  0.08193964  1
  H  H9  1  0.08634105  0.19088133  0.22198483  1
  H  H10  1  0.93041965  0.91920455  0.33472416  1
  H  H11  1  0.93331215  0.33352739  0.93113246  1
  O  O12  1  0.56522138  0.17926303  0.21613698  1
  O  O13  1  0.21694022  0.51907574  0.57545521  1
  O  O14  1  0.18452806  0.15487890  0.58581354  1
  O  O15  1  0.58051214  0.53375200  0.20709557  1
  O  O16  1  0.20900229  0.53739387  0.20264723  1
  O  O17  1  0.58940646  0.15509827  0.58983294  1
  O  O18  1  0.48092426  0.78305978  0.81147117  1
  O  O19  1  0.82073697  0.43477862  0.46062139  1
  O  O20  1  0.84512110  0.81547194  0.42522050  1
  O  O21  1  0.46624800  0.41948786  0.82135870  1
  O  O22  1  0.84490173  0.41059354  0.83433767  1
  O  O23  1  0.46260613  0.79099771  0.44904340  1
  O  O24  1  0.88886862  0.91138409  0.85036481  1
  O  O25  1  0.08861591  0.11113138  0.15061751  1
