# generated using pymatgen
data_Ca(H8O5)2
_symmetry_space_group_name_H-M   'P 1'
_cell_length_a   6.31557643
_cell_length_b   6.20152749
_cell_length_c   11.21294503
_cell_angle_alpha   89.72420197
_cell_angle_beta   88.81857471
_cell_angle_gamma   91.37671422
_symmetry_Int_Tables_number   1
_chemical_formula_structural   Ca(H8O5)2
_chemical_formula_sum   'Ca2 H32 O20'
_cell_volume   438.94238610
_cell_formula_units_Z   2
loop_
 _symmetry_equiv_pos_site_id
 _symmetry_equiv_pos_as_xyz
  1  'x, y, z'
loop_
 _atom_site_type_symbol
 _atom_site_label
 _atom_site_symmetry_multiplicity
 _atom_site_fract_x
 _atom_site_fract_y
 _atom_site_fract_z
 _atom_site_occupancy
  Ca  Ca0  1  0.01052777  0.99882960  0.25936420  1
  Ca  Ca1  1  0.98739867  0.00004387  0.73352714  1
  H  H2  1  0.28084095  0.37093314  0.35568634  1
  H  H3  1  0.03912550  0.43479711  0.37245244  1
  H  H4  1  0.72876021  0.60321688  0.35104996  1
  H  H5  1  0.86582889  0.68954754  0.46052264  1
  H  H6  1  0.55898858  0.01929977  0.37218998  1
  H  H7  1  0.62332870  0.26682233  0.35436076  1
  H  H8  1  0.38884195  0.71524829  0.34824335  1
  H  H9  1  0.31262871  0.85494217  0.46151264  1
  H  H10  1  0.74086598  0.37565514  0.85782741  1
  H  H11  1  0.99489256  0.33124532  0.88231648  1
  H  H12  1  0.02235861  0.63632234  0.86715588  1
  H  H13  1  0.28184394  0.61967238  0.85147139  1
  H  H14  1  0.31519429  0.07640010  0.91507526  1
  H  H15  1  0.37145936  0.29001031  0.83777522  1
  H  H16  1  0.63005078  0.70585803  0.84850871  1
  H  H17  1  0.72162042  0.85348075  0.95458796  1
  H  H18  1  0.72133704  0.61930080  0.64370665  1
  H  H19  1  0.96426212  0.55527091  0.62529245  1
  H  H20  1  0.26947422  0.39093542  0.64759719  1
  H  H21  1  0.13232608  0.31206240  0.53627172  1
  H  H22  1  0.43438956  0.97436338  0.62967837  1
  H  H23  1  0.37316071  0.72888397  0.64519270  1
  H  H24  1  0.61121852  0.27772258  0.64507244  1
  H  H25  1  0.69080242  0.13651185  0.53356478  1
  H  H26  1  0.07130898  0.56789333  0.14773763  1
  H  H27  1  0.14166814  0.72008822  0.04225066  1
  H  H28  1  0.88338999  0.28652214  0.06053577  1
  H  H29  1  0.73482298  0.38579569  0.16501650  1
  H  H30  1  0.61706970  0.72139966  0.14742318  1
  H  H31  1  0.63316473  0.98898699  0.14237270  1
  H  H32  1  0.39110725  0.28111020  0.14807331  1
  H  H33  1  0.37761207  0.02027417  0.11931844  1
  O  O34  1  0.51017045  0.48717600  0.31785124  1
  O  O35  1  0.49895316  0.49592887  0.81340853  1
  O  O36  1  0.49701682  0.50436105  0.68022871  1
  O  O37  1  0.53372591  0.48394992  0.18501081  1
  O  O38  1  0.13587894  0.31175731  0.38394478  1
  O  O39  1  0.87398604  0.66865588  0.37258172  1
  O  O40  1  0.68457391  0.12084597  0.37683408  1
  O  O41  1  0.33001274  0.86044401  0.37266681  1
  O  O42  1  0.84941191  0.27326902  0.88715896  1
  O  O43  1  0.15765258  0.71269258  0.87746942  1
  O  O44  1  0.26429224  0.16303783  0.84993765  1
  O  O45  1  0.73116734  0.83000234  0.86743336  1
  O  O46  1  0.86831333  0.68127742  0.62071888  1
  O  O47  1  0.12359782  0.33194129  0.62518198  1
  O  O48  1  0.31249952  0.87111272  0.61876373  1
  O  O49  1  0.67443444  0.13365181  0.62259845  1
  O  O50  1  0.13350640  0.71270136  0.13021581  1
  O  O51  1  0.88237678  0.30979200  0.14721372  1
  O  O52  1  0.70261349  0.85742830  0.11814929  1
  O  O53  1  0.29415680  0.14849554  0.12976384  1
