# generated using pymatgen
data_ThMn4(CuO4)3
_symmetry_space_group_name_H-M   'P 1'
_cell_length_a   6.49406205
_cell_length_b   6.49383956
_cell_length_c   6.49387305
_cell_angle_alpha   109.44401295
_cell_angle_beta   109.60584241
_cell_angle_gamma   109.36777312
_symmetry_Int_Tables_number   1
_chemical_formula_structural   ThMn4(CuO4)3
_chemical_formula_sum   'Th1 Mn4 Cu3 O12'
_cell_volume   210.80318274
_cell_formula_units_Z   1
loop_
 _symmetry_equiv_pos_site_id
 _symmetry_equiv_pos_as_xyz
  1  'x, y, z'
loop_
 _atom_site_type_symbol
 _atom_site_label
 _atom_site_symmetry_multiplicity
 _atom_site_fract_x
 _atom_site_fract_y
 _atom_site_fract_z
 _atom_site_occupancy
  Th  Th0  1  0.00001047  0.00000934  0.00000814  1
  Mn  Mn1  1  0.00003612  0.00000584  0.49999268  1
  Mn  Mn2  1  0.50001331  0.00000397  0.00001582  1
  Mn  Mn3  1  0.49990968  0.49998482  0.49998205  1
  Mn  Mn4  1  0.00002637  0.49999359  0.00003996  1
  Cu  Cu5  1  0.49998392  -0.00001213  0.49999285  1
  Cu  Cu6  1  0.49997923  0.50000456  0.00000609  1
  Cu  Cu7  1  0.00003094  0.50000302  0.49999359  1
  O  O8  1  0.30021033  0.12939488  0.82916572  1
  O  O9  1  0.69978537  0.52896325  0.82917381  1
  O  O10  1  0.82889293  0.70025709  0.52913442  1
  O  O11  1  0.17110804  0.29974205  0.47086105  1
  O  O12  1  0.30021479  0.47103628  0.17081995  1
  O  O13  1  0.69979085  0.87060692  0.17082616  1
  O  O14  1  0.17111019  0.70024591  0.87135513  1
  O  O15  1  0.47075323  0.17145770  0.29930069  1
  O  O16  1  0.87215643  0.17145498  0.70069688  1
  O  O17  1  0.52925244  0.82854321  0.70069667  1
  O  O18  1  0.12784214  0.82854594  0.29929877  1
  O  O19  1  0.82889321  0.29975877  0.12863958  1
