# generated using pymatgen
data_Nd(MnSn)6
_symmetry_space_group_name_H-M   'P 1'
_cell_length_a   5.50269682
_cell_length_b   9.05269665
_cell_length_c   15.21419190
_cell_angle_alpha   107.32612412
_cell_angle_beta   100.42568930
_cell_angle_gamma   90.00443469
_symmetry_Int_Tables_number   1
_chemical_formula_structural   Nd(MnSn)6
_chemical_formula_sum   'Nd3 Mn18 Sn18'
_cell_volume   710.37344657
_cell_formula_units_Z   3
loop_
 _symmetry_equiv_pos_site_id
 _symmetry_equiv_pos_as_xyz
  1  'x, y, z'
loop_
 _atom_site_type_symbol
 _atom_site_label
 _atom_site_symmetry_multiplicity
 _atom_site_fract_x
 _atom_site_fract_y
 _atom_site_fract_z
 _atom_site_occupancy
  Nd  Nd0  1  0.32974503  0.82996057  0.66118062  1
  Nd  Nd1  1  0.66860002  0.16880854  0.33904267  1
  Nd  Nd2  1  0.99968428  0.99897014  0.00079102  1
  Mn  Mn3  1  0.16758228  0.41455204  0.33430050  1
  Mn  Mn4  1  0.33234597  0.83481687  0.16761823  1
  Mn  Mn5  1  0.66828410  0.66788942  0.83371466  1
  Mn  Mn6  1  0.50049315  0.75258000  0.00049184  1
  Mn  Mn7  1  0.16423119  0.16460348  0.83252084  1
  Mn  Mn8  1  0.83501148  0.33121407  0.16784588  1
  Mn  Mn9  1  0.82962882  0.07971131  0.66606458  1
  Mn  Mn10  1  0.16487808  0.66778180  0.83318447  1
  Mn  Mn11  1  0.49873677  0.99795700  0.50025010  1
  Mn  Mn12  1  0.50096007  0.24622336  0.00044437  1
  Mn  Mn13  1  0.99900237  0.99774709  0.50049850  1
  Mn  Mn14  1  0.00005719  0.49826076  0.49990037  1
  Mn  Mn15  1  0.83485509  0.83507768  0.16744079  1
  Mn  Mn16  1  0.83287454  0.58372245  0.66636109  1
  Mn  Mn17  1  0.33257677  0.33133624  0.16789606  1
  Mn  Mn18  1  0.16656215  0.91789754  0.33409434  1
  Mn  Mn19  1  0.66615586  0.16414034  0.83254308  1
  Mn  Mn20  1  0.49973200  0.49816191  0.50024599  1
  Sn  Sn21  1  0.00122431  0.33386329  0.00065328  1
  Sn  Sn22  1  0.88671955  0.88690786  0.77558733  1
  Sn  Sn23  1  0.11229697  0.11224920  0.22524273  1
  Sn  Sn24  1  0.22456396  0.22362206  0.45056724  1
  Sn  Sn25  1  0.44403100  0.44436500  0.88977312  1
  Sn  Sn26  1  0.10985086  0.60928720  0.21984866  1
  Sn  Sn27  1  0.78048370  0.27937841  0.56272205  1
  Sn  Sn28  1  0.88839325  0.38931879  0.78033549  1
  Sn  Sn29  1  0.21862569  0.71744961  0.43773228  1
  Sn  Sn30  1  0.33441961  0.49792546  0.66844682  1
  Sn  Sn31  1  0.55680666  0.05631164  0.11388707  1
  Sn  Sn32  1  0.66606018  0.50100671  0.33239214  1
  Sn  Sn33  1  0.44198720  0.94264507  0.88639915  1
  Sn  Sn34  1  0.33118722  0.16950218  0.66756104  1
  Sn  Sn35  1  0.77421190  0.77313027  0.55045052  1
  Sn  Sn36  1  0.66616664  0.82973967  0.33253517  1
  Sn  Sn37  1  0.55619663  0.55455287  0.11158666  1
  Sn  Sn38  1  0.00003544  0.66338111  0.00021628  1
