# generated using pymatgen
data_VInCuO5
_symmetry_space_group_name_H-M   'P 1'
_cell_length_a   6.24506936
_cell_length_b   8.92283435
_cell_length_c   15.48860643
_cell_angle_alpha   106.68500977
_cell_angle_beta   90.00000000
_cell_angle_gamma   90.00000000
_symmetry_Int_Tables_number   1
_chemical_formula_structural   VInCuO5
_chemical_formula_sum   'V8 In8 Cu8 O40'
_cell_volume   826.74494155
_cell_formula_units_Z   8
loop_
 _symmetry_equiv_pos_site_id
 _symmetry_equiv_pos_as_xyz
  1  'x, y, z'
loop_
 _atom_site_type_symbol
 _atom_site_label
 _atom_site_symmetry_multiplicity
 _atom_site_fract_x
 _atom_site_fract_y
 _atom_site_fract_z
 _atom_site_occupancy
  V  V0  1  0.15296208  0.07000942  0.14759861  1
  V  V1  1  0.65296208  0.92999058  0.35240139  1
  V  V2  1  0.84703792  0.92999058  0.85240139  1
  V  V3  1  0.34703792  0.07000942  0.64759861  1
  V  V4  1  0.87225604  0.32287753  0.64582719  1
  V  V5  1  0.62774396  0.32287753  0.14582719  1
  V  V6  1  0.12774396  0.67712247  0.35417281  1
  V  V7  1  0.37225604  0.67712247  0.85417281  1
  In  In8  1  0.12183502  0.37593594  0.04548201  1
  In  In9  1  0.11055004  0.70294469  0.65175216  1
  In  In10  1  0.88944996  0.29705531  0.34824784  1
  In  In11  1  0.38944996  0.70294469  0.15175216  1
  In  In12  1  0.61055004  0.29705531  0.84824784  1
  In  In13  1  0.62183502  0.62406406  0.45451799  1
  In  In14  1  0.37816498  0.37593594  0.54548201  1
  In  In15  1  0.87816498  0.62406406  0.95451799  1
  Cu  Cu16  1  0.35708826  0.06866156  0.93570042  1
  Cu  Cu17  1  0.14291174  0.06866156  0.43570042  1
  Cu  Cu18  1  0.85708826  0.93133844  0.56429958  1
  Cu  Cu19  1  0.11127797  0.28893999  0.83600023  1
  Cu  Cu20  1  0.64291174  0.93133844  0.06429958  1
  Cu  Cu21  1  0.61127797  0.71106001  0.66399977  1
  Cu  Cu22  1  0.38872203  0.28893999  0.33600023  1
  Cu  Cu23  1  0.88872203  0.71106001  0.16399977  1
  O  O24  1  0.37696410  0.94419485  0.14319719  1
  O  O25  1  0.88280096  0.14872182  0.56142474  1
  O  O26  1  0.62303590  0.05580515  0.85680281  1
  O  O27  1  0.12303590  0.94419485  0.64319719  1
  O  O28  1  0.12775418  0.72041245  0.24847239  1
  O  O29  1  0.83032353  0.71192263  0.57063787  1
  O  O30  1  0.61719904  0.14872182  0.06142474  1
  O  O31  1  0.07509836  0.02794963  0.84918638  1
  O  O32  1  0.10598809  0.62898051  0.06636062  1
  O  O33  1  0.89401191  0.37101949  0.93363938  1
  O  O34  1  0.86372452  0.41974251  0.14109091  1
  O  O35  1  0.57509836  0.97205037  0.65081362  1
  O  O36  1  0.84412010  0.86160301  0.94993571  1
  O  O37  1  0.66967647  0.71192263  0.07063787  1
  O  O38  1  0.90917340  0.55243207  0.36595094  1
  O  O39  1  0.36372452  0.58025749  0.35890909  1
  O  O40  1  0.15316368  0.23585634  0.24759554  1
  O  O41  1  0.15587990  0.13839699  0.05006429  1
  O  O42  1  0.87224582  0.27958755  0.75152761  1
  O  O43  1  0.59082660  0.55243207  0.86595094  1
  O  O44  1  0.11719904  0.85127818  0.43857526  1
  O  O45  1  0.37224582  0.72041245  0.74847239  1
  O  O46  1  0.84683632  0.76414366  0.75240446  1
  O  O47  1  0.62775418  0.27958755  0.25152761  1
  O  O48  1  0.60598809  0.37101949  0.43363938  1
  O  O49  1  0.42490164  0.02794963  0.34918638  1
  O  O50  1  0.09082660  0.44756793  0.63404906  1
  O  O51  1  0.39401191  0.62898051  0.56636062  1
  O  O52  1  0.63627548  0.41974251  0.64109091  1
  O  O53  1  0.16967647  0.28807737  0.42936213  1
  O  O54  1  0.13627548  0.58025749  0.85890909  1
  O  O55  1  0.34683632  0.23585634  0.74759554  1
  O  O56  1  0.33032353  0.28807737  0.92936213  1
  O  O57  1  0.34412010  0.13839699  0.55006429  1
  O  O58  1  0.65316368  0.76414366  0.25240446  1
  O  O59  1  0.40917340  0.44756793  0.13404906  1
  O  O60  1  0.87696410  0.05580515  0.35680281  1
  O  O61  1  0.92490164  0.97205037  0.15081362  1
  O  O62  1  0.65587990  0.86160301  0.44993571  1
  O  O63  1  0.38280096  0.85127818  0.93857526  1
