# generated using pymatgen
data_Cu3Mo2O9
_symmetry_space_group_name_H-M   'P 1'
_cell_length_a   6.89095057
_cell_length_b   7.76066506
_cell_length_c   14.88120595
_cell_angle_alpha   90.00000000
_cell_angle_beta   90.00000000
_cell_angle_gamma   90.00000000
_symmetry_Int_Tables_number   1
_chemical_formula_structural   Cu3Mo2O9
_chemical_formula_sum   'Cu12 Mo8 O36'
_cell_volume   795.82247889
_cell_formula_units_Z   4
loop_
 _symmetry_equiv_pos_site_id
 _symmetry_equiv_pos_as_xyz
  1  'x, y, z'
loop_
 _atom_site_type_symbol
 _atom_site_label
 _atom_site_symmetry_multiplicity
 _atom_site_fract_x
 _atom_site_fract_y
 _atom_site_fract_z
 _atom_site_occupancy
  Cu  Cu0  1  0.00202250  0.16288141  0.14148907  1
  Cu  Cu1  1  0.99680551  0.29696030  0.93494835  1
  Cu  Cu2  1  0.74409705  0.50330964  0.49801396  1
  Cu  Cu3  1  0.74409705  0.00330964  0.00198604  1
  Cu  Cu4  1  0.99680551  0.79696030  0.56505165  1
  Cu  Cu5  1  0.50202250  0.83711859  0.85851093  1
  Cu  Cu6  1  0.24409705  0.99669036  0.99801396  1
  Cu  Cu7  1  0.49680551  0.20303970  0.43494835  1
  Cu  Cu8  1  0.00202250  0.66288141  0.35851093  1
  Cu  Cu9  1  0.50202250  0.33711859  0.64148907  1
  Cu  Cu10  1  0.24409705  0.49669036  0.50198604  1
  Cu  Cu11  1  0.49680551  0.70303970  0.06505165  1
  Mo  Mo12  1  0.49583546  0.26197351  0.16585913  1
  Mo  Mo13  1  0.99583546  0.23802649  0.66585913  1
  Mo  Mo14  1  0.49573440  0.84615578  0.61408098  1
  Mo  Mo15  1  0.49583546  0.76197351  0.33414087  1
  Mo  Mo16  1  0.49573440  0.34615578  0.88591902  1
  Mo  Mo17  1  0.99583546  0.73802649  0.83414087  1
  Mo  Mo18  1  0.99573440  0.65384422  0.11408098  1
  Mo  Mo19  1  0.99573440  0.15384422  0.38591902  1
  O  O20  1  0.99202758  0.03272755  0.60963847  1
  O  O21  1  0.48895743  0.06936088  0.59451709  1
  O  O22  1  0.78498999  0.36754017  0.63083177  1
  O  O23  1  0.49596133  0.41114199  0.51455933  1
  O  O24  1  0.48919597  0.29789674  0.28143888  1
  O  O25  1  0.98919597  0.20210326  0.78143888  1
  O  O26  1  0.98895743  0.93063912  0.40548291  1
  O  O27  1  0.98895743  0.43063912  0.09451709  1
  O  O28  1  0.99596133  0.58885801  0.48544067  1
  O  O29  1  0.71559204  0.14230202  0.13401603  1
  O  O30  1  0.78067566  0.25477951  0.43617875  1
  O  O31  1  0.00229709  0.19524940  0.26820454  1
  O  O32  1  0.78498999  0.86754017  0.86916823  1
  O  O33  1  0.21180799  0.74841140  0.06206782  1
  O  O34  1  0.28498999  0.13245983  0.13083177  1
  O  O35  1  0.98919597  0.70210326  0.71856112  1
  O  O36  1  0.21559204  0.85769798  0.86598397  1
  O  O37  1  0.49596133  0.91114199  0.98544067  1
  O  O38  1  0.71180799  0.25158860  0.93793218  1
  O  O39  1  0.50229709  0.30475060  0.76820454  1
  O  O40  1  0.49202758  0.96727245  0.39036153  1
  O  O41  1  0.99202758  0.53272755  0.89036153  1
  O  O42  1  0.99596133  0.08885801  0.01455933  1
  O  O43  1  0.49202758  0.46727245  0.10963847  1
  O  O44  1  0.50229709  0.80475060  0.73179546  1
  O  O45  1  0.78067566  0.75477951  0.06382125  1
  O  O46  1  0.48895743  0.56936088  0.90548291  1
  O  O47  1  0.28067566  0.74522049  0.56382125  1
  O  O48  1  0.71180799  0.75158860  0.56206782  1
  O  O49  1  0.28498999  0.63245983  0.36916823  1
  O  O50  1  0.21559204  0.35769798  0.63401603  1
  O  O51  1  0.21180799  0.24841140  0.43793218  1
  O  O52  1  0.28067566  0.24522049  0.93617875  1
  O  O53  1  0.71559204  0.64230202  0.36598397  1
  O  O54  1  0.00229709  0.69524940  0.23179546  1
  O  O55  1  0.48919597  0.79789674  0.21856112  1
