# generated using pymatgen
data_YbCo(BO2)5
_symmetry_space_group_name_H-M   'P 1'
_cell_length_a   7.47541062
_cell_length_b   8.71945422
_cell_length_c   9.45337424
_cell_angle_alpha   93.59014939
_cell_angle_beta   90.00000000
_cell_angle_gamma   90.00000000
_symmetry_Int_Tables_number   1
_chemical_formula_structural   YbCo(BO2)5
_chemical_formula_sum   'Yb4 Co4 B20 O40'
_cell_volume   614.97586191
_cell_formula_units_Z   4
loop_
 _symmetry_equiv_pos_site_id
 _symmetry_equiv_pos_as_xyz
  1  'x, y, z'
loop_
 _atom_site_type_symbol
 _atom_site_label
 _atom_site_symmetry_multiplicity
 _atom_site_fract_x
 _atom_site_fract_y
 _atom_site_fract_z
 _atom_site_occupancy
  Yb  Yb0  1  0.31621734  0.68860362  0.73451136  1
  Yb  Yb1  1  0.81621734  0.81139638  0.76548864  1
  Yb  Yb2  1  0.18378266  0.18860362  0.23451136  1
  Yb  Yb3  1  0.68378266  0.31139638  0.26548864  1
  Co  Co4  1  0.09475828  0.09233118  0.63409234  1
  Co  Co5  1  0.40524172  0.59233118  0.13409234  1
  Co  Co6  1  0.59475828  0.40766882  0.86590766  1
  Co  Co7  1  0.90524172  0.90766882  0.36590766  1
  B  B8  1  0.81275281  0.56945325  0.08843843  1
  B  B9  1  0.90049590  0.33389309  0.49204972  1
  B  B10  1  0.03544514  0.78003194  0.05448392  1
  B  B11  1  0.53544514  0.71996806  0.44551608  1
  B  B12  1  0.57186014  0.91274304  0.25457801  1
  B  B13  1  0.17826028  0.98200770  0.89730197  1
  B  B14  1  0.32173972  0.48200770  0.39730197  1
  B  B15  1  0.42813986  0.08725696  0.74542199  1
  B  B16  1  0.40049590  0.16610691  0.00795028  1
  B  B17  1  0.96455486  0.21996806  0.94551608  1
  B  B18  1  0.09950410  0.66610691  0.50795028  1
  B  B19  1  0.18724719  0.43054675  0.91156157  1
  B  B20  1  0.68724719  0.06945325  0.58843843  1
  B  B21  1  0.92813986  0.41274304  0.75457801  1
  B  B22  1  0.82173972  0.01799230  0.10269803  1
  B  B23  1  0.46455486  0.28003194  0.55448392  1
  B  B24  1  0.07186014  0.58725696  0.24542199  1
  B  B25  1  0.67826028  0.51799230  0.60269803  1
  B  B26  1  0.31275281  0.93054675  0.41156157  1
  B  B27  1  0.59950410  0.83389309  0.99204972  1
  O  O28  1  0.15702330  0.68264393  0.13732999  1
  O  O29  1  0.77489994  0.45140344  0.48263141  1
  O  O30  1  0.20900222  0.46953495  0.26730144  1
  O  O31  1  0.60798907  0.66842371  0.57678025  1
  O  O32  1  0.87923477  0.68214113  0.01048890  1
  O  O33  1  0.47130224  0.58866417  0.34564678  1
  O  O34  1  0.85337403  0.00040372  0.56082416  1
  O  O35  1  0.03359825  0.69389440  0.37213357  1
  O  O36  1  0.96640175  0.30610560  0.62786643  1
  O  O37  1  0.39201093  0.33157629  0.42321975  1
  O  O38  1  0.59622083  0.01548132  0.70012359  1
  O  O39  1  0.40377917  0.98451868  0.29987641  1
  O  O40  1  0.65702330  0.81735607  0.36267001  1
  O  O41  1  0.46640175  0.19389440  0.87213357  1
  O  O42  1  0.72510006  0.95140344  0.98263141  1
  O  O43  1  0.14662597  0.99959628  0.43917584  1
  O  O44  1  0.22510006  0.54859656  0.51736859  1
  O  O45  1  0.35337403  0.49959628  0.93917584  1
  O  O46  1  0.37923477  0.81785887  0.48951110  1
  O  O47  1  0.02869776  0.08866417  0.84564678  1
  O  O48  1  0.04967813  0.74722803  0.62413502  1
  O  O49  1  0.09622083  0.48451868  0.79987641  1
  O  O50  1  0.45032187  0.24722803  0.12413502  1
  O  O51  1  0.54967813  0.75277197  0.87586498  1
  O  O52  1  0.53359825  0.80610560  0.12786643  1
  O  O53  1  0.29099778  0.96953495  0.76730144  1
  O  O54  1  0.70900222  0.03046505  0.23269856  1
  O  O55  1  0.90377917  0.51548132  0.20012359  1
  O  O56  1  0.79099778  0.53046505  0.73269856  1
  O  O57  1  0.62076523  0.18214113  0.51048890  1
  O  O58  1  0.64662597  0.50040372  0.06082416  1
  O  O59  1  0.95032187  0.25277197  0.37586498  1
  O  O60  1  0.34297670  0.18264393  0.63732999  1
  O  O61  1  0.12076523  0.31785887  0.98951110  1
  O  O62  1  0.89201093  0.16842371  0.07678025  1
  O  O63  1  0.27489994  0.04859656  0.01736859  1
  O  O64  1  0.10798907  0.83157629  0.92321975  1
  O  O65  1  0.52869776  0.41133583  0.65435322  1
  O  O66  1  0.84297670  0.31735607  0.86267001  1
  O  O67  1  0.97130224  0.91133583  0.15435322  1
