# generated using pymatgen
data_Ba9(LaS6)2
_symmetry_space_group_name_H-M   'P 1'
_cell_length_a   13.51323514
_cell_length_b   7.80191150
_cell_length_c   17.91556109
_cell_angle_alpha   54.50689400
_cell_angle_beta   59.81316215
_cell_angle_gamma   29.99947390
_symmetry_Int_Tables_number   1
_chemical_formula_structural   Ba9(LaS6)2
_chemical_formula_sum   'Ba9 La2 S12'
_cell_volume   768.91293515
_cell_formula_units_Z   1
loop_
 _symmetry_equiv_pos_site_id
 _symmetry_equiv_pos_as_xyz
  1  'x, y, z'
loop_
 _atom_site_type_symbol
 _atom_site_label
 _atom_site_symmetry_multiplicity
 _atom_site_fract_x
 _atom_site_fract_y
 _atom_site_fract_z
 _atom_site_occupancy
  Ba  Ba0  1  1.00000000  0.00123442  0.24083490  1
  Ba  Ba1  1  0.00000000  0.00000000  0.50000000  1
  Ba  Ba2  1  0.32229821  0.03451686  0.24066895  1
  Ba  Ba3  1  0.33765468  0.99351748  0.50000000  1
  Ba  Ba4  1  0.32229821  0.99858751  0.75933105  1
  Ba  Ba5  1  0.66234532  0.00648252  0.50000000  1
  Ba  Ba6  1  0.67770179  0.96548314  0.75933105  1
  Ba  Ba7  1  0.67770179  0.00141249  0.24066895  1
  Ba  Ba8  1  0.00000000  0.99876558  0.75916510  1
  La  La9  1  0.33330703  0.00003896  0.00000000  1
  La  La10  1  0.66669297  0.99996104  1.00000000  1
  S  S11  1  0.36829194  0.48257334  0.11182625  1
  S  S12  1  0.33308570  0.50795867  0.36920574  1
  S  S13  1  0.63170806  0.58745017  0.11182625  1
  S  S14  1  0.33308570  0.49278322  0.63079426  1
  S  S15  1  0.66691430  0.50721678  0.36920574  1
  S  S16  1  0.36829194  0.41254983  0.88817375  1
  S  S17  1  1.00000000  0.48264457  0.11182754  1
  S  S18  1  0.66691430  0.49204133  0.63079426  1
  S  S19  1  0.00000000  0.50255578  0.37326027  1
  S  S20  1  0.63170806  0.51742666  0.88817375  1
  S  S21  1  1.00000000  0.49744422  0.62673973  1
  S  S22  1  0.00000000  0.51735543  0.88817246  1
