# generated using pymatgen
data_Fe5Ni7S16
_symmetry_space_group_name_H-M   'P 1'
_cell_length_a   6.71521934
_cell_length_b   6.64694969
_cell_length_c   26.43163930
_cell_angle_alpha   60.21574213
_cell_angle_beta   60.49487211
_cell_angle_gamma   60.58006949
_symmetry_Int_Tables_number   1
_chemical_formula_structural   Fe5Ni7S16
_chemical_formula_sum   'Fe10 Ni14 S32'
_cell_volume   842.33805364
_cell_formula_units_Z   2
loop_
 _symmetry_equiv_pos_site_id
 _symmetry_equiv_pos_as_xyz
  1  'x, y, z'
loop_
 _atom_site_type_symbol
 _atom_site_label
 _atom_site_symmetry_multiplicity
 _atom_site_fract_x
 _atom_site_fract_y
 _atom_site_fract_z
 _atom_site_occupancy
  Fe  Fe0  1  0.12080757  0.12402871  0.03258306  1
  Fe  Fe1  1  0.49981868  0.49976230  0.12534069  1
  Fe  Fe2  1  0.50028284  0.49558291  0.25280112  1
  Fe  Fe3  1  0.50023560  0.49983960  0.37446043  1
  Fe  Fe4  1  0.50038458  0.50342371  0.49852726  1
  Fe  Fe5  1  0.49998148  0.00132413  0.37472424  1
  Fe  Fe6  1  0.49981145  0.50012123  0.62523365  1
  Fe  Fe7  1  0.49937013  0.49610959  0.75138646  1
  Fe  Fe8  1  0.50043496  0.49614479  0.87372135  1
  Fe  Fe9  1  0.50041128  0.00867959  0.87366253  1
  Ni  Ni10  1  0.50036175  0.49939319  -0.00012054  1
  Ni  Ni11  1  0.12547218  0.12432062  0.28067660  1
  Ni  Ni12  1  0.50008650  -0.00035349  0.12498869  1
  Ni  Ni13  1  0.12035429  0.12526436  0.53225101  1
  Ni  Ni14  1  0.99910234  0.49987442  0.12520174  1
  Ni  Ni15  1  0.87942303  0.87463023  0.21788128  1
  Ni  Ni16  1  0.12560962  0.12396455  0.78060061  1
  Ni  Ni17  1  -0.00012963  0.50008483  0.37503315  1
  Ni  Ni18  1  0.87528140  0.87584016  0.46915667  1
  Ni  Ni19  1  0.49985388  0.00010981  0.62501661  1
  Ni  Ni20  1  0.00018342  0.49992014  0.62499099  1
  Ni  Ni21  1  0.87893170  0.87448141  0.71797241  1
  Ni  Ni22  1  0.99839888  0.50057667  0.87508874  1
  Ni  Ni23  1  0.87822540  0.87578524  0.96837195  1
  S  S24  1  0.25373021  0.25468095  0.06343044  1
  S  S25  1  0.26151663  0.26131300  0.18059975  1
  S  S26  1  0.25912963  0.73473084  0.06467164  1
  S  S27  1  0.73452156  0.25967262  0.06456504  1
  S  S28  1  0.26038468  0.25558100  0.31422306  1
  S  S29  1  0.27687753  0.73432842  0.18660771  1
  S  S30  1  0.73505606  0.27551798  0.18655238  1
  S  S31  1  0.26110416  0.25668761  0.43164079  1
  S  S32  1  0.73979822  0.73898000  0.06915175  1
  S  S33  1  0.25893158  0.72717463  0.31439808  1
  S  S34  1  0.73214759  0.25371121  0.31463761  1
  S  S35  1  0.73845952  0.73809134  0.18725766  1
  S  S36  1  0.26091395  0.26131962  0.56326962  1
  S  S37  1  0.27060955  0.74480214  0.43527182  1
  S  S38  1  0.73947610  0.27430859  0.43563854  1
  S  S39  1  0.73858231  0.74350037  0.31837981  1
  S  S40  1  0.26113765  0.26110842  0.68105866  1
  S  S41  1  0.26256120  0.72562008  0.56395364  1
  S  S42  1  0.72448890  0.26354412  0.56377150  1
  S  S43  1  0.73874559  0.74442967  0.43589666  1
  S  S44  1  0.25893643  0.25700122  0.81419712  1
  S  S45  1  0.27415882  0.73767774  0.68615588  1
  S  S46  1  0.73845341  0.27340799  0.68600638  1
  S  S47  1  0.25853550  0.72573745  0.81442228  1
  S  S48  1  0.73914778  0.73894895  0.56891068  1
  S  S49  1  0.25895649  0.25307882  0.93390035  1
  S  S50  1  0.73264791  0.25534830  0.81374473  1
  S  S51  1  0.73925930  0.73881043  0.68670475  1
  S  S52  1  0.27636446  0.74466247  0.93371848  1
  S  S53  1  0.73972794  0.27443066  0.93432419  1
  S  S54  1  0.73441752  0.74481283  0.81863378  1
  S  S55  1  0.73852849  0.74807184  0.93475451  1
