# generated using pymatgen
data_Cu4Mo5O17
_symmetry_space_group_name_H-M   'P 1'
_cell_length_a   6.85581390
_cell_length_b   9.64022097
_cell_length_c   11.09873973
_cell_angle_alpha   105.85593932
_cell_angle_beta   92.03034221
_cell_angle_gamma   110.06463772
_symmetry_Int_Tables_number   1
_chemical_formula_structural   Cu4Mo5O17
_chemical_formula_sum   'Cu8 Mo10 O34'
_cell_volume   655.98939297
_cell_formula_units_Z   2
loop_
 _symmetry_equiv_pos_site_id
 _symmetry_equiv_pos_as_xyz
  1  'x, y, z'
loop_
 _atom_site_type_symbol
 _atom_site_label
 _atom_site_symmetry_multiplicity
 _atom_site_fract_x
 _atom_site_fract_y
 _atom_site_fract_z
 _atom_site_occupancy
  Cu  Cu0  1  0.74593757  0.28786444  0.07471586  1
  Cu  Cu1  1  0.07608897  0.77649463  0.55499305  1
  Cu  Cu2  1  0.25406243  0.71213556  0.92528414  1
  Cu  Cu3  1  0.92391103  0.22350537  0.44500695  1
  Cu  Cu4  1  0.68576010  0.45352123  0.37500475  1
  Cu  Cu5  1  0.31423990  0.54647877  0.62499525  1
  Cu  Cu6  1  0.21345418  0.90329669  0.29931028  1
  Cu  Cu7  1  0.78654582  0.09670331  0.70068972  1
  Mo  Mo8  1  0.31736652  0.18817837  0.61109423  1
  Mo  Mo9  1  0.75746871  0.62251114  0.02720181  1
  Mo  Mo10  1  0.68263348  0.81182163  0.38890577  1
  Mo  Mo11  1  0.77503300  0.79204928  0.79986633  1
  Mo  Mo12  1  0.24253129  0.37748886  0.97279819  1
  Mo  Mo13  1  0.71878925  0.96163973  0.14861626  1
  Mo  Mo14  1  0.20624367  0.55701482  0.32885645  1
  Mo  Mo15  1  0.22496700  0.20795072  0.20013367  1
  Mo  Mo16  1  0.79375633  0.44298518  0.67114355  1
  Mo  Mo17  1  0.28121075  0.03836027  0.85138374  1
  O  O18  1  0.73516045  0.00911318  0.32914046  1
  O  O19  1  0.16148833  0.32891437  0.34815957  1
  O  O20  1  0.33837712  0.75031576  0.30439662  1
  O  O21  1  0.69943371  0.75004699  0.17826385  1
  O  O22  1  0.20348380  0.61826642  0.50142254  1
  O  O23  1  0.02472437  0.66299789  0.06428943  1
  O  O24  1  0.63964216  0.90528679  0.53963290  1
  O  O25  1  0.54863929  0.59892901  0.37063217  1
  O  O26  1  0.85879182  0.15270046  0.13087163  1
  O  O27  1  0.06440074  0.50248039  0.73107560  1
  O  O28  1  0.04683015  0.17079277  0.58604575  1
  O  O29  1  0.95316985  0.82920723  0.41395425  1
  O  O30  1  0.26483955  0.99088682  0.67085954  1
  O  O31  1  0.49684623  0.25232351  0.23688804  1
  O  O32  1  0.14120818  0.84729954  0.86912837  1
  O  O33  1  0.90218578  0.98788202  0.79081011  1
  O  O34  1  0.30056629  0.24995301  0.82173615  1
  O  O35  1  0.54548499  0.08449770  0.90302329  1
  O  O36  1  0.97527563  0.33700211  0.93571057  1
  O  O37  1  0.74395770  0.58135726  0.84343554  1
  O  O38  1  0.50315377  0.74767649  0.76311196  1
  O  O39  1  0.36035784  0.09471321  0.46036710  1
  O  O40  1  0.79651620  0.38173358  0.49857746  1
  O  O41  1  0.45451501  0.91550230  0.09697671  1
  O  O42  1  0.78308179  0.83614457  0.98949133  1
  O  O43  1  0.83851167  0.67108563  0.65184043  1
  O  O44  1  0.45136071  0.40107099  0.62936783  1
  O  O45  1  0.25604230  0.41864274  0.15656446  1
  O  O46  1  0.93559926  0.49751961  0.26892440  1
  O  O47  1  0.66162288  0.24968424  0.69560338  1
  O  O48  1  0.21691821  0.16385543  0.01050867  1
  O  O49  1  0.09781422  0.01211798  0.20918989  1
  O  O50  1  0.37624541  0.57091104  0.96239517  1
  O  O51  1  0.62375459  0.42908896  0.03760483  1
