# generated using pymatgen
data_Cr4Cu3Se8
_symmetry_space_group_name_H-M   'P 1'
_cell_length_a   7.49668596
_cell_length_b   7.44655625
_cell_length_c   7.49668541
_cell_angle_alpha   60.22095630
_cell_angle_beta   60.03975915
_cell_angle_gamma   60.22095443
_symmetry_Int_Tables_number   1
_chemical_formula_structural   Cr4Cu3Se8
_chemical_formula_sum   'Cr4 Cu3 Se8'
_cell_volume   296.99740763
_cell_formula_units_Z   1
loop_
 _symmetry_equiv_pos_site_id
 _symmetry_equiv_pos_as_xyz
  1  'x, y, z'
loop_
 _atom_site_type_symbol
 _atom_site_label
 _atom_site_symmetry_multiplicity
 _atom_site_fract_x
 _atom_site_fract_y
 _atom_site_fract_z
 _atom_site_occupancy
  Cr  Cr0  1  0.49574828  0.99490307  0.49574828  1
  Cr  Cr1  1  0.49574828  0.51360038  0.49574828  1
  Cr  Cr2  1  0.48089848  0.50905656  0.00098840  1
  Cr  Cr3  1  0.00098840  0.50905656  0.48089848  1
  Cu  Cu4  1  0.13139668  0.11860332  0.13139668  1
  Cu  Cu5  1  0.89861284  0.35138716  0.89861284  1
  Cu  Cu6  1  0.87531315  0.87468685  0.87531315  1
  Se  Se7  1  0.25809698  0.25687127  0.25809698  1
  Se  Se8  1  0.27839248  0.25076706  0.72007339  1
  Se  Se9  1  0.25809698  0.72693476  0.25809698  1
  Se  Se10  1  0.72007339  0.25076706  0.27839248  1
  Se  Se11  1  0.26904278  0.74448049  0.74199625  1
  Se  Se12  1  0.74199625  0.74448049  0.26904278  1
  Se  Se13  1  0.73779751  0.27387633  0.73779751  1
  Se  Se14  1  0.73779751  0.75052864  0.73779751  1
