# generated using pymatgen
data_ScRe2Si3
_symmetry_space_group_name_H-M   'P 1'
_cell_length_a   5.22736958
_cell_length_b   9.98495869
_cell_length_c   14.61980426
_cell_angle_alpha   90.00000000
_cell_angle_beta   90.00000000
_cell_angle_gamma   105.17464869
_symmetry_Int_Tables_number   1
_chemical_formula_structural   ScRe2Si3
_chemical_formula_sum   'Sc8 Re16 Si24'
_cell_volume   736.47487626
_cell_formula_units_Z   8
loop_
 _symmetry_equiv_pos_site_id
 _symmetry_equiv_pos_as_xyz
  1  'x, y, z'
loop_
 _atom_site_type_symbol
 _atom_site_label
 _atom_site_symmetry_multiplicity
 _atom_site_fract_x
 _atom_site_fract_y
 _atom_site_fract_z
 _atom_site_occupancy
  Sc  Sc0  1  0.64332969  0.26809299  0.82416491  1
  Sc  Sc1  1  0.37523670  0.73190701  0.17583509  1
  Sc  Sc2  1  0.64332969  0.26809299  0.17583509  1
  Sc  Sc3  1  0.37523670  0.73190701  0.82416491  1
  Sc  Sc4  1  0.14239461  0.26785163  0.67511229  1
  Sc  Sc5  1  0.87454297  0.73214837  0.32488771  1
  Sc  Sc6  1  0.14239461  0.26785163  0.32488771  1
  Sc  Sc7  1  0.87454297  0.73214837  0.67511229  1
  Re  Re8  1  0.71669451  0.40361165  0.61112585  1
  Re  Re9  1  0.31308286  0.59638835  0.38887415  1
  Re  Re10  1  0.71669451  0.40361165  0.38887415  1
  Re  Re11  1  0.31308286  0.59638835  0.61112585  1
  Re  Re12  1  0.21860118  0.40569660  0.88487881  1
  Re  Re13  1  0.81290457  0.59430340  0.11512119  1
  Re  Re14  1  0.21860118  0.40569660  0.11512119  1
  Re  Re15  1  0.81290457  0.59430340  0.88487881  1
  Re  Re16  1  0.84295698  0.17574687  0.00000000  1
  Re  Re17  1  0.66721012  0.82425313  -0.00000000  1
  Re  Re18  1  0.33770193  0.17285510  0.50000000  1
  Re  Re19  1  0.16484683  0.82714490  0.50000000  1
  Re  Re20  1  0.78424621  0.00000000  0.73198877  1
  Re  Re21  1  0.78424621  0.00000000  0.26801123  1
  Re  Re22  1  0.28514711  0.00000000  0.76876039  1
  Re  Re23  1  0.28514711  0.00000000  0.23123961  1
  Si  Si24  1  0.57920448  0.14823139  0.64340334  1
  Si  Si25  1  0.43097309  0.85176861  0.35659666  1
  Si  Si26  1  0.57920448  0.14823139  0.35659666  1
  Si  Si27  1  0.43097309  0.85176861  0.64340334  1
  Si  Si28  1  0.08168342  0.14974869  0.85660984  1
  Si  Si29  1  0.93193473  0.85025131  0.14339016  1
  Si  Si30  1  0.08168342  0.14974869  0.14339016  1
  Si  Si31  1  0.93193473  0.85025131  0.85660984  1
  Si  Si32  1  0.01332800  0.50014434  0.74780217  1
  Si  Si33  1  0.51318366  0.49985566  0.25219783  1
  Si  Si34  1  0.01332800  0.50014434  0.25219783  1
  Si  Si35  1  0.51318366  0.49985566  0.74780217  1
  Si  Si36  1  0.13132682  0.75616587  -0.00000000  1
  Si  Si37  1  0.37516095  0.24383413  -0.00000000  1
  Si  Si38  1  0.87119968  0.23840485  0.50000000  1
  Si  Si39  1  0.63279483  0.76159515  0.50000000  1
  Si  Si40  1  0.87303775  0.42364673  0.00000000  1
  Si  Si41  1  0.44939102  0.57635327  0.00000000  1
  Si  Si42  1  0.93945330  0.58076986  0.50000000  1
  Si  Si43  1  0.35868344  0.41923014  0.50000000  1
  Si  Si44  1  0.59493760  0.00000000  0.89044679  1
  Si  Si45  1  0.59493760  0.00000000  0.10955321  1
  Si  Si46  1  0.09179277  1.00000000  0.61063635  1
  Si  Si47  1  0.09179277  1.00000000  0.38936365  1
