# generated using pymatgen
data_YbCe9O20
_symmetry_space_group_name_H-M   'P 1'
_cell_length_a   7.71776870
_cell_length_b   19.33446300
_cell_length_c   10.22801916
_cell_angle_alpha   19.07193070
_cell_angle_beta   55.42354523
_cell_angle_gamma   59.91540117
_symmetry_Int_Tables_number   1
_chemical_formula_structural   YbCe9O20
_chemical_formula_sum   'Yb1 Ce9 O20'
_cell_volume   407.10798896
_cell_formula_units_Z   1
loop_
 _symmetry_equiv_pos_site_id
 _symmetry_equiv_pos_as_xyz
  1  'x, y, z'
loop_
 _atom_site_type_symbol
 _atom_site_label
 _atom_site_symmetry_multiplicity
 _atom_site_fract_x
 _atom_site_fract_y
 _atom_site_fract_z
 _atom_site_occupancy
  Yb  Yb0  1  0.00000000  0.00000000  0.00000000  1
  Ce  Ce1  1  0.00016348  0.19897008  0.99950217  1
  Ce  Ce2  1  0.50000000  0.00000000  0.00000000  1
  Ce  Ce3  1  0.00022073  0.40086498  0.00000938  1
  Ce  Ce4  1  0.50311691  0.19910572  0.99899222  1
  Ce  Ce5  1  0.49699021  0.39671696  0.00754364  1
  Ce  Ce6  1  0.99983652  0.80102992  0.00049783  1
  Ce  Ce7  1  0.50300979  0.60328304  0.99245636  1
  Ce  Ce8  1  0.49688309  0.80089428  0.00100778  1
  Ce  Ce9  1  0.99977927  0.59913502  -0.00000938  1
  O  O10  1  0.12642360  0.14970986  0.24932692  1
  O  O11  1  0.12833045  0.35693330  0.23466508  1
  O  O12  1  0.62452233  0.14908605  0.25131995  1
  O  O13  1  0.38283207  0.05094529  0.74498285  1
  O  O14  1  0.12633944  0.55093721  0.24810781  1
  O  O15  1  0.62402746  0.35154917  0.24778704  1
  O  O16  1  0.37604782  0.25191245  0.74573502  1
  O  O17  1  0.12729075  0.74502971  0.25533316  1
  O  O18  1  0.87249501  0.05108558  0.74480617  1
  O  O19  1  0.37615347  0.44905524  0.75128929  1
  O  O20  1  0.12750499  0.94891442  0.25519383  1
  O  O21  1  0.62384653  0.55094476  0.24871071  1
  O  O22  1  0.87270925  0.25497029  0.74466684  1
  O  O23  1  0.37597254  0.64845083  0.75221296  1
  O  O24  1  0.62395218  0.74808755  0.25426498  1
  O  O25  1  0.61716793  0.94905471  0.25501715  1
  O  O26  1  0.87366056  0.44906279  0.75189219  1
  O  O27  1  0.37547767  0.85091395  0.74868005  1
  O  O28  1  0.87166955  0.64306670  0.76533492  1
  O  O29  1  0.87357640  0.85029014  0.75067308  1
