# generated using pymatgen
data_Na2Ti9O19
_symmetry_space_group_name_H-M   'P 1'
_cell_length_a   3.80903452
_cell_length_b   6.43425844
_cell_length_c   15.54306944
_cell_angle_alpha   80.38669118
_cell_angle_beta   82.96176330
_cell_angle_gamma   72.78270552
_symmetry_Int_Tables_number   1
_chemical_formula_structural   Na2Ti9O19
_chemical_formula_sum   'Na2 Ti9 O19'
_cell_volume   357.67235974
_cell_formula_units_Z   1
loop_
 _symmetry_equiv_pos_site_id
 _symmetry_equiv_pos_as_xyz
  1  'x, y, z'
loop_
 _atom_site_type_symbol
 _atom_site_label
 _atom_site_symmetry_multiplicity
 _atom_site_fract_x
 _atom_site_fract_y
 _atom_site_fract_z
 _atom_site_occupancy
  Na  Na0  1  0.32284026  0.86276513  0.49155435  1
  Na  Na1  1  0.67715974  0.13723487  0.50844565  1
  Ti  Ti2  1  0.18729525  0.74292510  0.88248440  1
  Ti  Ti3  1  0.81270475  0.25707490  0.11751560  1
  Ti  Ti4  1  0.91509101  0.87465784  0.29516014  1
  Ti  Ti5  1  0.10814419  0.66541187  0.11829975  1
  Ti  Ti6  1  0.78832678  0.71650672  0.70683972  1
  Ti  Ti7  1  0.00000000  0.50000000  0.50000000  1
  Ti  Ti8  1  0.21167322  0.28349328  0.29316028  1
  Ti  Ti9  1  0.08490899  0.12534216  0.70483986  1
  Ti  Ti10  1  0.89185581  0.33458813  0.88170025  1
  O  O11  1  0.24935822  0.77029891  0.73098466  1
  O  O12  1  0.12627915  0.74981287  0.99762883  1
  O  O13  1  0.07307661  0.59546638  0.25838041  1
  O  O14  1  0.35237691  0.41192223  0.88332394  1
  O  O15  1  0.92692339  0.40453362  0.74161959  1
  O  O16  1  0.87372085  0.25018713  0.00237117  1
  O  O17  1  0.64762309  0.58807777  0.11667606  1
  O  O18  1  0.89957989  0.78595615  0.41488406  1
  O  O19  1  0.37554591  0.95483484  0.29407334  1
  O  O20  1  0.75064178  0.22970109  0.26901534  1
  O  O21  1  0.15162088  0.28638841  0.41036983  1
  O  O22  1  0.27247464  0.31260378  0.14244695  1
  O  O23  1  0.72752536  0.68739622  0.85755305  1
  O  O24  1  0.62445409  0.04516516  0.70592666  1
  O  O25  1  0.50000000  0.50000000  0.50000000  1
  O  O26  1  0.95092997  0.94477009  0.15336998  1
  O  O27  1  0.04907003  0.05522991  0.84663002  1
  O  O28  1  0.10042011  0.21404385  0.58511594  1
  O  O29  1  0.84837912  0.71361159  0.58963017  1
