# generated using pymatgen
data_Ti10Cu7S20
_symmetry_space_group_name_H-M   'P 1'
_cell_length_a   6.66552113
_cell_length_b   6.66552138
_cell_length_c   66.83943459
_cell_angle_alpha   29.75520973
_cell_angle_beta   29.75520597
_cell_angle_gamma   29.90585427
_symmetry_Int_Tables_number   1
_chemical_formula_structural   Ti10Cu7S20
_chemical_formula_sum   'Ti10 Cu7 S20'
_cell_volume   649.68999016
_cell_formula_units_Z   1
loop_
 _symmetry_equiv_pos_site_id
 _symmetry_equiv_pos_as_xyz
  1  'x, y, z'
loop_
 _atom_site_type_symbol
 _atom_site_label
 _atom_site_symmetry_multiplicity
 _atom_site_fract_x
 _atom_site_fract_y
 _atom_site_fract_z
 _atom_site_occupancy
  Ti  Ti0  1  0.99785254  0.99785254  0.00101047  1
  Ti  Ti1  1  -0.00117886  -0.00117886  0.10008032  1
  Ti  Ti2  1  0.00340314  0.00340314  0.19976989  1
  Ti  Ti3  1  0.99561193  0.99561193  0.30042918  1
  Ti  Ti4  1  0.00449939  0.00449939  0.49952342  1
  Ti  Ti5  1  0.00041638  0.00041638  0.39989841  1
  Ti  Ti6  1  0.99603759  0.99603759  0.60035054  1
  Ti  Ti7  1  0.00091679  0.00091679  0.69981235  1
  Ti  Ti8  1  0.00347430  0.00347430  0.79965818  1
  Ti  Ti9  1  0.00147093  0.00147093  0.90001920  1
  Cu  Cu10  1  0.13591041  0.13591041  0.31498341  1
  Cu  Cu11  1  0.86363023  0.86363023  0.18502819  1
  Cu  Cu12  1  0.13601714  0.13601714  0.61494705  1
  Cu  Cu13  1  0.86390453  0.86390453  0.48503457  1
  Cu  Cu14  1  0.86972552  0.86972552  0.78353513  1
  Cu  Cu15  1  0.85663261  0.85663261  0.88588277  1
  Cu  Cu16  1  0.85107621  0.85107621  0.98731822  1
  S  S17  1  0.24906765  0.24906765  0.02671728  1
  S  S18  1  0.25787694  0.25787694  0.12560501  1
  S  S19  1  0.74022256  0.74022256  0.07408018  1
  S  S20  1  0.25003373  0.25003373  0.22671926  1
  S  S21  1  0.74610438  0.74610438  0.17378996  1
  S  S22  1  0.25526323  0.25526323  0.32583396  1
  S  S23  1  0.74959043  0.74959043  0.27329887  1
  S  S24  1  0.26057897  0.26057897  0.42518600  1
  S  S25  1  0.73930668  0.73930668  0.37483193  1
  S  S26  1  0.24996943  0.24996943  0.52673629  1
  S  S27  1  0.74492533  0.74492533  0.47412874  1
  S  S28  1  0.25514442  0.25514442  0.62584522  1
  S  S29  1  0.74991415  0.74991415  0.57327684  1
  S  S30  1  0.26272607  0.26272607  0.72481763  1
  S  S31  1  0.73943919  0.73943919  0.67478035  1
  S  S32  1  0.25662938  0.25662938  0.82514341  1
  S  S33  1  0.74204104  0.74204104  0.77451727  1
  S  S34  1  0.25297414  0.25297414  0.92593067  1
  S  S35  1  0.74294591  0.74294591  0.87412836  1
  S  S36  1  0.74384558  0.74384558  0.97415144  1
