# generated using pymatgen
data_V(WO4)2
_symmetry_space_group_name_H-M   'P 1'
_cell_length_a   4.94866116
_cell_length_b   6.99739860
_cell_length_c   6.23085111
_cell_angle_alpha   107.12191498
_cell_angle_beta   125.32920411
_cell_angle_gamma   88.80745706
_symmetry_Int_Tables_number   1
_chemical_formula_structural   V(WO4)2
_chemical_formula_sum   'V1 W2 O8'
_cell_volume   165.10649465
_cell_formula_units_Z   1
loop_
 _symmetry_equiv_pos_site_id
 _symmetry_equiv_pos_as_xyz
  1  'x, y, z'
loop_
 _atom_site_type_symbol
 _atom_site_label
 _atom_site_symmetry_multiplicity
 _atom_site_fract_x
 _atom_site_fract_y
 _atom_site_fract_z
 _atom_site_occupancy
  V  V0  1  0.12466015  0.22325932  0.09967077  1
  W  W1  1  0.90091558  0.39732524  0.62354265  1
  W  W2  1  0.34891559  0.04951875  0.57620731  1
  O  O3  1  0.16538271  0.63162740  0.80753310  1
  O  O4  1  0.49090135  0.44883542  0.34441646  1
  O  O5  1  0.20490285  0.19466383  0.81172953  1
  O  O6  1  0.45616758  0.07420805  0.33321795  1
  O  O7  1  0.75845862  0.99765054  0.85493721  1
  O  O8  1  0.08373624  0.81450171  0.39159561  1
  O  O9  1  0.04441696  0.25176307  0.38760420  1
  O  O10  1  0.79320238  0.37227667  0.86616021  1
