# generated using pymatgen
data_NaAlSi2H2O7
_symmetry_space_group_name_H-M   'P 1'
_cell_length_a   12.05506172
_cell_length_b   12.05537479
_cell_length_c   12.01081076
_cell_angle_alpha   110.33056383
_cell_angle_beta   108.61141648
_cell_angle_gamma   109.62517008
_symmetry_Int_Tables_number   1
_chemical_formula_structural   NaAlSi2H2O7
_chemical_formula_sum   'Na8 Al8 Si16 H16 O56'
_cell_volume   1340.91492400
_cell_formula_units_Z   8
loop_
 _symmetry_equiv_pos_site_id
 _symmetry_equiv_pos_as_xyz
  1  'x, y, z'
loop_
 _atom_site_type_symbol
 _atom_site_label
 _atom_site_symmetry_multiplicity
 _atom_site_fract_x
 _atom_site_fract_y
 _atom_site_fract_z
 _atom_site_occupancy
  Na  Na0  1  0.08744570  0.26437653  0.83311202  1
  Na  Na1  1  0.07384039  0.32379000  0.24976249  1
  Na  Na2  1  0.43059697  0.75343805  0.66621799  1
  Na  Na3  1  0.41962649  0.16941289  0.74998922  1
  Na  Na4  1  0.58037351  0.83058711  0.25001078  1
  Na  Na5  1  0.56940303  0.24656195  0.33378201  1
  Na  Na6  1  0.92615961  0.67621000  0.75023751  1
  Na  Na7  1  0.91255430  0.73562347  0.16688798  1
  Al  Al8  1  0.21348028  0.74856092  0.77328540  1
  Al  Al9  1  0.02472017  0.05982221  0.27326813  1
  Al  Al10  1  0.27484091  0.57413811  0.03475990  1
  Al  Al11  1  0.53942105  0.74019021  0.46521348  1
  Al  Al12  1  0.46057895  0.25980979  0.53478652  1
  Al  Al13  1  0.72515909  0.42586189  0.96524010  1
  Al  Al14  1  0.97527983  0.94017779  0.72673187  1
  Al  Al15  1  0.78651972  0.25143908  0.22671460  1
  Si  Si16  1  0.08105013  0.79563023  0.54170961  1
  Si  Si17  1  0.02535436  0.46106525  0.73642869  1
  Si  Si18  1  0.20914679  0.96624414  0.43158244  1
  Si  Si19  1  0.46528547  0.72231268  0.93157965  1
  Si  Si20  1  0.26130298  0.71566950  0.31389159  1
  Si  Si21  1  0.25398856  0.03940849  0.95831671  1
  Si  Si22  1  0.59824081  0.55253725  0.81388326  1
  Si  Si23  1  0.27545795  0.21111395  0.23649160  1
  Si  Si24  1  0.72454205  0.78888605  0.76350840  1
  Si  Si25  1  0.40175919  0.44746275  0.18611674  1
  Si  Si26  1  0.74601144  0.96059151  0.04168329  1
  Si  Si27  1  0.73869702  0.28433050  0.68610841  1
  Si  Si28  1  0.53471453  0.27768732  0.06842035  1
  Si  Si29  1  0.79085321  0.03375586  0.56841756  1
  Si  Si30  1  0.97464564  0.53893475  0.26357131  1
  Si  Si31  1  0.91894987  0.20436977  0.45829039  1
  H  H32  1  0.05050388  0.81334207  0.02716749  1
  H  H33  1  0.35427216  0.91385035  0.67118969  1
  H  H34  1  0.21319338  0.47600489  0.52667253  1
  H  H35  1  0.33054844  0.33692510  0.87967174  1
  H  H36  1  0.10857556  0.27865331  0.05543343  1
  H  H37  1  0.45712216  0.95031006  0.62018462  1
  H  H38  1  0.24298200  0.18314750  0.82889032  1
  H  H39  1  0.22197987  0.55263261  0.44413706  1
  H  H40  1  0.77802013  0.44736739  0.55586294  1
  H  H41  1  0.75701800  0.81685250  0.17110968  1
  H  H42  1  0.54287784  0.04968994  0.37981538  1
  H  H43  1  0.89142444  0.72134669  0.94456657  1
  H  H44  1  0.66945156  0.66307490  0.12032826  1
  H  H45  1  0.78680662  0.52399511  0.47332747  1
  H  H46  1  0.64572784  0.08614965  0.32881031  1
  H  H47  1  0.94949612  0.18665793  0.97283251  1
  O  O48  1  0.20863873  0.87923494  0.89199832  1
  O  O49  1  0.07301038  0.59630494  0.72333049  1
  O  O50  1  0.08382014  0.96077977  0.32162824  1
  O  O51  1  0.12193817  0.48216438  0.88000613  1
  O  O52  1  0.16783933  0.93355801  0.54000082  1
  O  O53  1  0.19483903  0.76970936  0.63021630  1
  O  O54  1  0.01742013  0.33343421  0.61664124  1
  O  O55  1  0.97608417  0.71989098  0.98168818  1
  O  O56  1  0.13950583  0.06461138  0.86976724  1
  O  O57  1  0.13142510  0.58447111  0.29128092  1
  O  O58  1  0.01282602  0.18347485  0.39197244  1
  O  O59  1  0.36080650  0.73768204  0.82161002  1
  O  O60  1  0.23095549  0.84312441  0.34631808  1
  O  O61  1  0.27267894  0.24665927  0.79631171  1
  O  O62  1  0.45032369  0.97610519  0.70360899  1
  O  O63  1  0.26134234  0.50577130  0.48166788  1
  O  O64  1  0.27875074  0.67744795  0.18092506  1
  O  O65  1  0.50314680  0.61518973  0.84638662  1
  O  O66  1  0.39322708  0.75481918  0.44791030  1
  O  O67  1  0.12711262  0.15031540  0.22337661  1
  O  O68  1  0.39359134  0.12797225  0.95999118  1
  O  O69  1  0.34621270  0.11320104  0.52232545  1
  O  O70  1  0.71672758  0.90069655  0.88334643  1
  O  O71  1  0.60207846  0.74193094  0.61991448  1
  O  O72  1  0.50347951  0.40204198  0.68100643  1
  O  O73  1  0.29339666  0.34028975  0.20896329  1
  O  O74  1  0.30665019  0.44519326  0.05208122  1
  O  O75  1  0.40905438  0.67601080  0.02233348  1
  O  O76  1  0.59094562  0.32398920  0.97766652  1
  O  O77  1  0.69334981  0.55480674  0.94791878  1
  O  O78  1  0.70660334  0.65971025  0.79103671  1
  O  O79  1  0.49652049  0.59795802  0.31899357  1
  O  O80  1  0.39792154  0.25806906  0.38008552  1
  O  O81  1  0.28327242  0.09930345  0.11665357  1
  O  O82  1  0.65378730  0.88679896  0.47767455  1
  O  O83  1  0.60640866  0.87202775  0.04000882  1
  O  O84  1  0.87288738  0.84968460  0.77662339  1
  O  O85  1  0.60677292  0.24518082  0.55208970  1
  O  O86  1  0.49685320  0.38481027  0.15361338  1
  O  O87  1  0.72124926  0.32255205  0.81907494  1
  O  O88  1  0.73865766  0.49422870  0.51833212  1
  O  O89  1  0.54967631  0.02389481  0.29639101  1
  O  O90  1  0.72732106  0.75334073  0.20368829  1
  O  O91  1  0.76904451  0.15687559  0.65368192  1
  O  O92  1  0.63919350  0.26231796  0.17838998  1
  O  O93  1  0.98717398  0.81652515  0.60802756  1
  O  O94  1  0.86857490  0.41552889  0.70872008  1
  O  O95  1  0.86049417  0.93538862  0.13023276  1
  O  O96  1  0.02391583  0.28010902  0.01831182  1
  O  O97  1  0.98257987  0.66656579  0.38335876  1
  O  O98  1  0.80516097  0.23029064  0.36978370  1
  O  O99  1  0.83216067  0.06644199  0.45999918  1
  O  O100  1  0.87806183  0.51783562  0.11999387  1
  O  O101  1  0.91617986  0.03922023  0.67837176  1
  O  O102  1  0.92698962  0.40369506  0.27666951  1
  O  O103  1  0.79136127  0.12076506  0.10800168  1
