# generated using pymatgen
data_Tl3In7Se10
_symmetry_space_group_name_H-M   'P 1'
_cell_length_a   6.76621700
_cell_length_b   33.87282092
_cell_length_c   13.47045993
_cell_angle_alpha   29.04008296
_cell_angle_beta   127.63773679
_cell_angle_gamma   118.41934610
_symmetry_Int_Tables_number   1
_chemical_formula_structural   Tl3In7Se10
_chemical_formula_sum   'Tl6 In14 Se20'
_cell_volume   1173.18397702
_cell_formula_units_Z   2
loop_
 _symmetry_equiv_pos_site_id
 _symmetry_equiv_pos_as_xyz
  1  'x, y, z'
loop_
 _atom_site_type_symbol
 _atom_site_label
 _atom_site_symmetry_multiplicity
 _atom_site_fract_x
 _atom_site_fract_y
 _atom_site_fract_z
 _atom_site_occupancy
  Tl  Tl0  1  0.25003635  0.85001801  0.99980140  1
  Tl  Tl1  1  0.25144955  0.65041571  0.99948975  1
  Tl  Tl2  1  0.74855045  0.54958429  0.00051025  1
  Tl  Tl3  1  0.74996365  0.34998199  0.00019860  1
  Tl  Tl4  1  0.24853079  0.04973446  0.99992169  1
  Tl  Tl5  1  0.75146921  0.15026554  0.00007831  1
  In  In6  1  0.24953519  0.95010070  0.49976463  1
  In  In7  1  0.25011653  0.74990121  0.50037197  1
  In  In8  1  0.74964853  0.84995301  0.50015615  1
  In  In9  1  0.25043069  0.54994118  0.50003066  1
  In  In10  1  0.74961932  0.94988865  0.00007319  1
  In  In11  1  0.74956931  0.65005882  0.49996934  1
  In  In12  1  0.25035147  0.35004699  0.49984385  1
  In  In13  1  0.75031443  0.75002235  0.00004808  1
  In  In14  1  0.74988347  0.45009879  0.49962803  1
  In  In15  1  0.24968557  0.44997765  -0.00004808  1
  In  In16  1  0.25026680  0.14996699  0.50027528  1
  In  In17  1  0.75046481  0.24989930  0.50023537  1
  In  In18  1  0.25038068  0.25011135  0.99992681  1
  In  In19  1  0.74973320  0.05003301  0.49972472  1
  Se  Se20  1  0.17277435  0.86541599  0.49994491  1
  Se  Se21  1  0.67346697  0.89617181  0.84611797  1
  Se  Se22  1  0.17114582  0.66502990  0.50012898  1
  Se  Se23  1  0.67286717  0.69669137  0.84551543  1
  Se  Se24  1  0.32689584  0.90374554  0.15437288  1
  Se  Se25  1  0.82746826  0.93358757  0.50232927  1
  Se  Se26  1  0.17327507  0.46474025  0.50209386  1
  Se  Se27  1  0.32713278  0.70378338  0.15414613  1
  Se  Se28  1  0.67286722  0.49621662  0.84585387  1
  Se  Se29  1  0.82672493  0.73525975  0.49790614  1
  Se  Se30  1  0.17253174  0.26641243  0.49767073  1
  Se  Se31  1  0.32713283  0.50330863  0.15448457  1
  Se  Se32  1  0.67310416  0.29625446  0.84562712  1
  Se  Se33  1  0.82885418  0.53497010  0.49987102  1
  Se  Se34  1  0.17488941  0.06586213  0.50001243  1
  Se  Se35  1  0.32653303  0.30382819  0.15388203  1
  Se  Se36  1  0.67317187  0.09597920  0.84534008  1
  Se  Se37  1  0.82722565  0.33458401  0.50005509  1
  Se  Se38  1  0.32682813  0.10402080  0.15465992  1
  Se  Se39  1  0.82511059  0.13413787  0.49998757  1
