# generated using pymatgen
data_Li2TiO3
_symmetry_space_group_name_H-M   'P 1'
_cell_length_a   5.91741793
_cell_length_b   17.69055312
_cell_length_c   15.64299813
_cell_angle_alpha   19.20308761
_cell_angle_beta   55.49157674
_cell_angle_gamma   60.21358369
_symmetry_Int_Tables_number   1
_chemical_formula_structural   Li2TiO3
_chemical_formula_sum   'Li16 Ti8 O24'
_cell_volume   439.40533712
_cell_formula_units_Z   8
loop_
 _symmetry_equiv_pos_site_id
 _symmetry_equiv_pos_as_xyz
  1  'x, y, z'
loop_
 _atom_site_type_symbol
 _atom_site_label
 _atom_site_symmetry_multiplicity
 _atom_site_fract_x
 _atom_site_fract_y
 _atom_site_fract_z
 _atom_site_occupancy
  Li  Li0  1  0.13128378  0.12644237  0.12195021  1
  Li  Li1  1  0.12170257  0.29696929  0.12090784  1
  Li  Li2  1  0.11240493  0.45774985  0.12831859  1
  Li  Li3  1  0.62431180  0.12753519  0.12227252  1
  Li  Li4  1  0.13350683  0.62581842  0.12178517  1
  Li  Li5  1  0.62079917  0.28997448  0.12696089  1
  Li  Li6  1  0.62710051  0.45587405  0.12951827  1
  Li  Li7  1  0.12231324  0.79344152  0.12508459  1
  Li  Li8  1  0.13024948  0.29058557  0.62564622  1
  Li  Li9  1  0.11973791  0.95656655  0.13072075  1
  Li  Li10  1  0.62863755  0.61543407  0.13236999  1
  Li  Li11  1  0.62692492  0.12689961  0.62304655  1
  Li  Li12  1  0.12764119  0.62311687  0.62583415  1
  Li  Li13  1  0.61797398  0.96616719  0.12127870  1
  Li  Li14  1  0.62321938  0.45782728  0.62728943  1
  Li  Li15  1  0.11816306  0.95676253  0.63120557  1
  Ti  Ti16  1  0.14567313  0.14753206  0.59489060  1
  Ti  Ti17  1  0.10600341  0.43687748  0.65411240  1
  Ti  Ti18  1  0.62505629  0.79227977  0.12439193  1
  Ti  Ti19  1  0.62862333  0.29216654  0.62507566  1
  Ti  Ti20  1  0.12650099  0.79772346  0.61879671  1
  Ti  Ti21  1  0.61898656  0.62219615  0.62057303  1
  Ti  Ti22  1  0.62420125  0.78674896  0.63159047  1
  Ti  Ti23  1  0.63206573  0.96280870  0.62900999  1
  O  O24  1  0.37180696  0.01341669  0.40428337  1
  O  O25  1  0.37187640  0.19086127  0.40138632  1
  O  O26  1  0.35446529  0.35513772  0.39777679  1
  O  O27  1  0.87414070  0.02404534  0.39571788  1
  O  O28  1  0.40614200  0.04320918  0.87342475  1
  O  O29  1  0.86063759  0.19078294  0.39109348  1
  O  O30  1  0.39022487  0.53655474  0.38264859  1
  O  O31  1  0.37645114  0.22553625  0.85003549  1
  O  O32  1  0.38469899  0.70597606  0.36460237  1
  O  O33  1  0.87641372  0.35899206  0.39941660  1
  O  O34  1  0.39008630  0.39337136  0.86013125  1
  O  O35  1  0.37439759  0.86050140  0.39818905  1
  O  O36  1  0.86320386  0.04721530  0.86737367  1
  O  O37  1  0.84761361  0.54086743  0.37624982  1
  O  O38  1  0.89887063  0.22826534  0.85273531  1
  O  O39  1  0.37398661  0.56035011  0.85446572  1
  O  O40  1  0.87593051  0.69587719  0.39631926  1
  O  O41  1  0.40301518  0.72431820  0.84695142  1
  O  O42  1  0.88037149  0.39310709  0.84842732  1
  O  O43  1  0.84390711  0.85807079  0.40551098  1
  O  O44  1  0.87497805  0.57069479  0.84634339  1
  O  O45  1  0.37556982  0.88799125  0.85384145  1
  O  O46  1  0.87417209  0.72417858  0.85129411  1
  O  O47  1  0.86971751  0.87920795  0.88344336  1
