# generated using pymatgen
data_Li2Mn2CoO8
_symmetry_space_group_name_H-M   'P 1'
_cell_length_a   5.86530273
_cell_length_b   5.88993805
_cell_length_c   5.77125095
_cell_angle_alpha   90.00000000
_cell_angle_beta   60.52904022
_cell_angle_gamma   121.25913782
_symmetry_Int_Tables_number   1
_chemical_formula_structural   Li2Mn2CoO8
_chemical_formula_sum   'Li2 Mn2 Co1 O8'
_cell_volume   139.37540747
_cell_formula_units_Z   1
loop_
 _symmetry_equiv_pos_site_id
 _symmetry_equiv_pos_as_xyz
  1  'x, y, z'
loop_
 _atom_site_type_symbol
 _atom_site_label
 _atom_site_symmetry_multiplicity
 _atom_site_fract_x
 _atom_site_fract_y
 _atom_site_fract_z
 _atom_site_occupancy
  Li  Li0  1  0.24729937  0.12062584  0.12635031  1
  Li  Li1  1  0.75270063  0.87937416  0.87364969  1
  Mn  Mn2  1  -0.00000000  0.50000000  0.00000000  1
  Mn  Mn3  1  -0.00000000  0.50000000  0.50000000  1
  Co  Co4  1  0.50000000  -0.00000000  0.50000000  1
  O  O5  1  0.01006599  0.71189078  0.24496700  1
  O  O6  1  0.97561253  0.26245221  0.26219373  1
  O  O7  1  0.53942204  0.23763591  0.70923392  1
  O  O8  1  0.53942204  0.23763591  0.25134404  1
  O  O9  1  0.98993401  0.28810922  0.75503300  1
  O  O10  1  0.02438747  0.73754779  0.73780627  1
  O  O11  1  0.46057796  0.76236409  0.29076608  1
  O  O12  1  0.46057796  0.76236409  0.74865596  1
