# generated using pymatgen
data_TlPbCl3
_symmetry_space_group_name_H-M   'P 1'
_cell_length_a   11.68587757
_cell_length_b   11.57326352
_cell_length_c   11.57326275
_cell_angle_alpha   94.24298204
_cell_angle_beta   117.29325296
_cell_angle_gamma   117.29325562
_symmetry_Int_Tables_number   1
_chemical_formula_structural   TlPbCl3
_chemical_formula_sum   'Tl8 Pb8 Cl24'
_cell_volume   1153.26007084
_cell_formula_units_Z   8
loop_
 _symmetry_equiv_pos_site_id
 _symmetry_equiv_pos_as_xyz
  1  'x, y, z'
loop_
 _atom_site_type_symbol
 _atom_site_label
 _atom_site_symmetry_multiplicity
 _atom_site_fract_x
 _atom_site_fract_y
 _atom_site_fract_z
 _atom_site_occupancy
  Tl  Tl0  1  0.18113812  0.15538996  0.65538996  1
  Tl  Tl1  1  0.18113812  0.52574816  0.02574816  1
  Tl  Tl2  1  0.49827339  0.64957178  0.47318885  1
  Tl  Tl3  1  0.49827339  0.97318885  0.14957178  1
  Tl  Tl4  1  0.99330751  0.99595761  0.99734990  1
  Tl  Tl5  1  0.49827339  0.02508453  0.84870161  1
  Tl  Tl6  1  0.49827339  0.34870161  0.52508453  1
  Tl  Tl7  1  0.99330751  0.49734990  0.49595761  1
  Pb  Pb8  1  0.99441295  0.74720648  0.74720648  1
  Pb  Pb9  1  0.23150222  0.86575111  0.36575111  1
  Pb  Pb10  1  0.48074675  0.63858685  0.84215990  1
  Pb  Pb11  1  0.83168377  0.49235680  0.99235680  1
  Pb  Pb12  1  0.48074675  0.34215990  0.13858685  1
  Pb  Pb13  1  0.83168377  0.83932696  0.33932696  1
  Pb  Pb14  1  0.79934209  0.14967105  0.64967105  1
  Pb  Pb15  1  0.99441295  0.24720648  0.24720648  1
  Cl  Cl16  1  0.12521879  0.83999778  0.56389242  1
  Cl  Cl17  1  0.25866685  0.69966806  0.83190890  1
  Cl  Cl18  1  0.12693784  0.31346892  0.81346892  1
  Cl  Cl19  1  0.12521879  0.78522101  0.06132637  1
  Cl  Cl20  1  0.12521879  0.56132637  0.28522101  1
  Cl  Cl21  1  0.51210847  0.81470753  0.69740094  1
  Cl  Cl22  1  0.25866685  0.05899879  0.92675795  1
  Cl  Cl23  1  0.25866685  0.42675795  0.55899879  1
  Cl  Cl24  1  0.50111724  0.89008549  0.39008549  1
  Cl  Cl25  1  0.52080236  0.38420218  0.88420218  1
  Cl  Cl26  1  0.12521879  0.06389242  0.33999778  1
  Cl  Cl27  1  0.25866685  0.33190890  0.19966806  1
  Cl  Cl28  1  0.74117734  0.65539307  0.80673842  1
  Cl  Cl29  1  0.86122662  0.91978072  0.64339192  1
  Cl  Cl30  1  0.50111724  0.11103175  0.61103175  1
  Cl  Cl31  1  0.52080236  0.63660018  0.13660018  1
  Cl  Cl32  1  0.74117734  0.58578426  0.43443891  1
  Cl  Cl33  1  0.74117734  0.93443891  0.08578426  1
  Cl  Cl34  1  0.51210847  0.19740094  0.31470753  1
  Cl  Cl35  1  0.86122662  0.44144590  0.71783470  1
  Cl  Cl36  1  0.86122662  0.21783470  0.94144590  1
  Cl  Cl37  1  0.87333154  0.68666577  0.18666577  1
  Cl  Cl38  1  0.74117734  0.30673842  0.15539307  1
  Cl  Cl39  1  0.86122662  0.14339192  0.41978072  1
