# generated using pymatgen
data_Nb4IrSe10
_symmetry_space_group_name_H-M   'P 1'
_cell_length_a   17.64410713
_cell_length_b   9.43915674
_cell_length_c   7.77805263
_cell_angle_alpha   64.37661756
_cell_angle_beta   62.98955931
_cell_angle_gamma   18.76951608
_symmetry_Int_Tables_number   1
_chemical_formula_structural   Nb4IrSe10
_chemical_formula_sum   'Nb4 Ir1 Se10'
_cell_volume   371.33266807
_cell_formula_units_Z   1
loop_
 _symmetry_equiv_pos_site_id
 _symmetry_equiv_pos_as_xyz
  1  'x, y, z'
loop_
 _atom_site_type_symbol
 _atom_site_label
 _atom_site_symmetry_multiplicity
 _atom_site_fract_x
 _atom_site_fract_y
 _atom_site_fract_z
 _atom_site_occupancy
  Nb  Nb0  1  0.96193557  0.08114089  0.00099619  1
  Nb  Nb1  1  0.27220771  0.85193343  0.00484017  1
  Nb  Nb2  1  0.32779229  0.14806657  0.99515983  1
  Nb  Nb3  1  0.63806443  0.91885911  0.99900381  1
  Ir  Ir4  1  0.80000000  0.00000000  0.00000000  1
  Se  Se5  1  0.98410308  0.73015944  0.24793071  1
  Se  Se6  1  0.16591688  0.34688072  0.77155290  1
  Se  Se7  1  0.23777790  0.62595114  0.23800711  1
  Se  Se8  1  0.36222210  0.37404886  0.76199289  1
  Se  Se9  1  0.43408312  0.65311928  0.22844710  1
  Se  Se10  1  0.61589692  0.26984056  0.75206929  1
  Se  Se11  1  0.59665053  0.70201913  0.24725261  1
  Se  Se12  1  0.74978866  0.37782665  0.78471957  1
  Se  Se13  1  0.85021134  0.62217335  0.21528043  1
  Se  Se14  1  0.00334947  0.29798087  0.75274739  1
