# generated using pymatgen
data_RbAg4I5
_symmetry_space_group_name_H-M   'P 1'
_cell_length_a   11.41788182
_cell_length_b   11.70372419
_cell_length_c   11.79739430
_cell_angle_alpha   89.73459655
_cell_angle_beta   90.10003635
_cell_angle_gamma   89.50329972
_symmetry_Int_Tables_number   1
_chemical_formula_structural   RbAg4I5
_chemical_formula_sum   'Rb4 Ag16 I20'
_cell_volume   1576.42765741
_cell_formula_units_Z   4
loop_
 _symmetry_equiv_pos_site_id
 _symmetry_equiv_pos_as_xyz
  1  'x, y, z'
loop_
 _atom_site_type_symbol
 _atom_site_label
 _atom_site_symmetry_multiplicity
 _atom_site_fract_x
 _atom_site_fract_y
 _atom_site_fract_z
 _atom_site_occupancy
  Rb  Rb0  1  0.02129402  0.00658544  0.98883557  1
  Rb  Rb1  1  0.26187995  0.49588114  0.75467702  1
  Rb  Rb2  1  0.48195847  0.75276591  0.25814602  1
  Rb  Rb3  1  0.73303883  0.24380636  0.50096694  1
  Ag  Ag4  1  0.11819748  0.27327138  0.40714884  1
  Ag  Ag5  1  0.17009172  0.89062969  0.42800371  1
  Ag  Ag6  1  0.23312930  0.86433348  0.67298620  1
  Ag  Ag7  1  0.32811833  0.13596754  0.78344242  1
  Ag  Ag8  1  0.33219943  0.09501318  0.39097999  1
  Ag  Ag9  1  0.38719872  0.32576920  0.09321670  1
  Ag  Ag10  1  0.59044976  0.91733231  0.66916553  1
  Ag  Ag11  1  0.64498037  0.58407287  0.88165793  1
  Ag  Ag12  1  0.65990009  0.21351254  0.87362845  1
  Ag  Ag13  1  0.76222364  0.28603967  0.10206332  1
  Ag  Ag14  1  0.79502452  0.80814001  0.79613786  1
  Ag  Ag15  1  0.80593040  0.57554011  0.07543695  1
  Ag  Ag16  1  0.89628775  0.75778987  0.21472452  1
  Ag  Ag17  1  0.95927336  0.40601925  0.19737556  1
  Ag  Ag18  1  0.91244687  0.67283053  0.60961195  1
  Ag  Ag19  1  0.93907096  0.58199601  0.38139915  1
  I  I20  1  0.99684970  0.43553781  0.56075345  1
  I  I21  1  0.04554046  0.74529817  0.80034175  1
  I  I22  1  0.08363537  0.60125130  0.16490594  1
  I  I23  1  0.15780470  0.09291800  0.58681876  1
  I  I24  1  0.19792048  0.25611141  0.95003565  1
  I  I25  1  0.24372558  0.95412546  0.20873312  1
  I  I26  1  0.29601959  0.69706283  0.50977112  1
  I  I27  1  0.34124545  0.33409099  0.33420160  1
  I  I28  1  0.41059091  0.91223354  0.83311850  1
  I  I29  1  0.44619350  0.55231174  0.01101225  1
  I  I30  1  0.50241012  0.29397899  0.70701799  1
  I  I31  1  0.55512569  0.99528038  0.44674142  1
  I  I32  1  0.56770124  0.15050639  0.08701726  1
  I  I33  1  0.65962030  0.66201411  0.65740275  1
  I  I34  1  0.71161886  0.50220169  0.29141489  1
  I  I35  1  0.73850156  0.81310680  0.04272527  1
  I  I36  1  0.80115227  0.04921821  0.75183160  1
  I  I37  1  0.83786011  0.41184818  0.90580167  1
  I  I38  1  0.91601929  0.84332614  0.43151864  1
  I  I39  1  0.94027083  0.18068135  0.25483175  1
