# generated using pymatgen
data_Tb4F15
_symmetry_space_group_name_H-M   'P 1'
_cell_length_a   8.60701081
_cell_length_b   8.60568065
_cell_length_c   8.60781837
_cell_angle_alpha   99.00207401
_cell_angle_beta   98.89454990
_cell_angle_gamma   98.87373616
_symmetry_Int_Tables_number   1
_chemical_formula_structural   Tb4F15
_chemical_formula_sum   'Tb8 F30'
_cell_volume   611.65644303
_cell_formula_units_Z   2
loop_
 _symmetry_equiv_pos_site_id
 _symmetry_equiv_pos_as_xyz
  1  'x, y, z'
loop_
 _atom_site_type_symbol
 _atom_site_label
 _atom_site_symmetry_multiplicity
 _atom_site_fract_x
 _atom_site_fract_y
 _atom_site_fract_z
 _atom_site_occupancy
  Tb  Tb0  1  0.74999928  0.75005857  0.74992677  1
  Tb  Tb1  1  0.25000227  0.68344595  0.81667876  1
  Tb  Tb2  1  0.18361245  0.75025724  0.31654215  1
  Tb  Tb3  1  0.31636032  0.18341751  0.74968243  1
  Tb  Tb4  1  0.25000937  0.24998643  0.25001471  1
  Tb  Tb5  1  0.68353280  0.81674354  0.25014578  1
  Tb  Tb6  1  0.81640446  0.24977270  0.68333553  1
  Tb  Tb7  1  0.75006946  0.31638234  0.18359661  1
  F  F8  1  0.03834621  0.46147711  0.74982747  1
  F  F9  1  0.84331545  0.31580586  0.95295493  1
  F  F10  1  0.22757395  0.98739577  0.22685321  1
  F  F11  1  0.95286388  0.84341485  0.31570063  1
  F  F12  1  0.27304332  0.51266332  0.27255257  1
  F  F13  1  0.53826909  0.24990701  0.96159015  1
  F  F14  1  0.34340199  0.45285959  0.81574851  1
  F  F15  1  0.72743631  0.72687234  0.48735777  1
  F  F16  1  0.51282972  0.27247925  0.27318298  1
  F  F17  1  0.45296062  0.81573009  0.34329226  1
  F  F18  1  0.77305360  0.77246609  0.01252806  1
  F  F19  1  0.31572347  0.95306589  0.84343524  1
  F  F20  1  0.75006156  0.03862808  0.46142428  1
  F  F21  1  0.01275844  0.77321363  0.77241250  1
  F  F22  1  0.18438562  0.65663541  0.54704726  1
  F  F23  1  0.81564365  0.34337644  0.45304207  1
  F  F24  1  0.98723674  0.22668915  0.22752117  1
  F  F25  1  0.24992077  0.96126823  0.53853965  1
  F  F26  1  0.68427074  0.04698719  0.15653917  1
  F  F27  1  0.22713523  0.22749599  0.98740916  1
  F  F28  1  0.54702052  0.18421457  0.65669364  1
  F  F29  1  0.48723522  0.72755285  0.72689506  1
  F  F30  1  0.27246699  0.27314851  0.51251840  1
  F  F31  1  0.65652181  0.54704441  0.18423912  1
  F  F32  1  0.46169488  0.75012617  0.03841367  1
  F  F33  1  0.72696076  0.48738345  0.72749219  1
  F  F34  1  0.04708802  0.15664816  0.68435867  1
  F  F35  1  0.77252873  0.01265139  0.77319002  1
  F  F36  1  0.15660658  0.68421825  0.04712254  1
  F  F37  1  0.96165570  0.53851669  0.25019488  1
