# generated using pymatgen
data_SrMg2Al6(Si3O10)3
_symmetry_space_group_name_H-M   'P 1'
_cell_length_a   10.25966783
_cell_length_b   10.32237315
_cell_length_c   14.27236074
_cell_angle_alpha   90.51666071
_cell_angle_beta   89.33167805
_cell_angle_gamma   119.66090143
_symmetry_Int_Tables_number   1
_chemical_formula_structural   SrMg2Al6(Si3O10)3
_chemical_formula_sum   'Sr2 Mg4 Al12 Si18 O60'
_cell_volume   1313.35032001
_cell_formula_units_Z   2
loop_
 _symmetry_equiv_pos_site_id
 _symmetry_equiv_pos_as_xyz
  1  'x, y, z'
loop_
 _atom_site_type_symbol
 _atom_site_label
 _atom_site_symmetry_multiplicity
 _atom_site_fract_x
 _atom_site_fract_y
 _atom_site_fract_z
 _atom_site_occupancy
  Sr  Sr0  1  0.01290203  0.01585716  0.24341749  1
  Sr  Sr1  1  0.98899036  0.00445107  0.74383315  1
  Mg  Mg2  1  0.32906075  0.66246099  0.24789892  1
  Mg  Mg3  1  0.32985852  0.66533875  0.74807554  1
  Mg  Mg4  1  0.67489105  0.33945356  0.24694264  1
  Mg  Mg5  1  0.67267805  0.33128588  0.74936710  1
  Al  Al6  1  0.10116325  0.75659176  0.61423891  1
  Al  Al7  1  0.00284286  0.49858569  0.75289994  1
  Al  Al8  1  0.50138770  0.99671950  0.24937538  1
  Al  Al9  1  0.35997359  0.25149498  0.11332927  1
  Al  Al10  1  0.49848048  0.49614694  0.74705174  1
  Al  Al11  1  0.50962653  0.50646490  0.25265523  1
  Al  Al12  1  0.49749184  0.00171974  0.74955644  1
  Al  Al13  1  0.89838528  0.65836840  0.11264257  1
  Al  Al14  1  0.75270701  0.10337980  0.88650203  1
  Al  Al15  1  0.99362560  0.49800430  0.24749336  1
  Al  Al16  1  0.89592124  0.23755989  0.61482742  1
  Al  Al17  1  0.89339527  0.24103477  0.38697336  1
  Si  Si18  1  0.09922944  0.75501669  0.38675827  1
  Si  Si19  1  0.24456469  0.90604136  0.88951351  1
  Si  Si20  1  0.24931231  0.90082429  0.11429093  1
  Si  Si21  1  0.09714149  0.33822025  0.11353004  1
  Si  Si22  1  0.10287790  0.34137139  0.88907285  1
  Si  Si23  1  0.24697610  0.34559171  0.38631417  1
  Si  Si24  1  0.25107702  0.34985522  0.60994312  1
  Si  Si25  1  0.64830779  0.89407845  0.61268062  1
  Si  Si26  1  0.65149647  0.89797276  0.38907362  1
  Si  Si27  1  0.35829580  0.25252740  0.88858889  1
  Si  Si28  1  0.64781927  0.75026156  0.88723284  1
  Si  Si29  1  0.65136230  0.75791526  0.11170256  1
  Si  Si30  1  0.34771197  0.10181849  0.61054522  1
  Si  Si31  1  0.34444553  0.09640345  0.38744204  1
  Si  Si32  1  0.75101308  0.64842377  0.61344822  1
  Si  Si33  1  0.75404147  0.65091218  0.39237053  1
  Si  Si34  1  0.90093584  0.66259904  0.88668345  1
  Si  Si35  1  0.74984741  0.10458528  0.11103324  1
  O  O36  1  0.07748378  0.79694310  0.14722415  1
  O  O37  1  0.06767478  0.80722949  0.85857421  1
  O  O38  1  0.20345757  0.93309142  0.35502736  1
  O  O39  1  0.20398166  0.94788575  0.64457271  1
  O  O40  1  0.11748887  0.73243477  0.49469390  1
  O  O41  1  0.13499800  0.64775896  0.31783549  1
  O  O42  1  0.14235935  0.64229807  0.68347341  1
  O  O43  1  0.26930568  0.88916443  0.00021194  1
  O  O44  1  0.13327858  0.48742039  0.17502411  1
  O  O45  1  0.13518313  0.48922585  0.82975276  1
  O  O46  1  0.10913747  0.37391886  0.00175085  1
  O  O47  1  0.35245661  0.86571766  0.82470811  1
  O  O48  1  0.36160122  0.85901040  0.17378298  1
  O  O49  1  0.07812962  0.26816581  0.64382226  1
  O  O50  1  0.07548860  0.27334384  0.35374803  1
  O  O51  1  0.20213333  0.27060380  0.14454304  1
  O  O52  1  0.22982355  0.29590404  0.85793459  1
  O  O53  1  0.50314252  0.85913642  0.32544601  1
  O  O54  1  0.50042492  0.86174614  0.67586116  1
  O  O55  1  0.27529224  0.38613338  0.49772554  1
  O  O56  1  0.35863243  0.49352997  0.32413425  1
  O  O57  1  0.35826987  0.49765008  0.67389406  1
  O  O58  1  0.61393545  0.89295780  0.50104375  1
  O  O59  1  0.28809134  0.21331474  0.35846151  1
  O  O60  1  0.31099496  0.23464795  0.63829162  1
  O  O61  1  0.50620995  0.64479046  0.17718609  1
  O  O62  1  0.50146363  0.63545580  0.82446745  1
  O  O63  1  0.61366640  0.72360865  -0.00001112  1
  O  O64  1  0.28222608  0.07478017  0.85894087  1
  O  O65  1  0.29041991  0.06681356  0.14721479  1
  O  O66  1  0.70663179  0.92001433  0.85689246  1
  O  O67  1  0.69797858  0.93050517  0.13766963  1
  O  O68  1  0.40106738  0.27907985  0.99568477  1
  O  O69  1  0.51094270  0.36812994  0.18264068  1
  O  O70  1  0.49830175  0.35429387  0.81798654  1
  O  O71  1  0.70212384  0.77250781  0.36683039  1
  O  O72  1  0.68466885  0.76087885  0.63768092  1
  O  O73  1  0.37658747  0.10483897  0.49803936  1
  O  O74  1  0.64677116  0.50723248  0.32927165  1
  O  O75  1  0.64408476  0.50044583  0.67525009  1
  O  O76  1  0.73476804  0.60993702  0.50216205  1
  O  O77  1  0.49073330  0.12750559  0.32622430  1
  O  O78  1  0.49432106  0.13167118  0.66939085  1
  O  O79  1  0.79416622  0.74542892  0.14610120  1
  O  O80  1  0.78559791  0.72090464  0.85243791  1
  O  O81  1  0.93010790  0.72726452  0.35905270  1
  O  O82  1  0.92298622  0.73233327  0.64649595  1
  O  O83  1  0.63628574  0.14235050  0.81883431  1
  O  O84  1  0.64281832  0.14002281  0.17931486  1
  O  O85  1  0.88578697  0.62728898  0.99481474  1
  O  O86  1  0.85787105  0.50147677  0.17586068  1
  O  O87  1  0.87118577  0.51893473  0.82422323  1
  O  O88  1  0.73169970  0.12911955  0.00346679  1
  O  O89  1  0.85780260  0.35791431  0.31781639  1
  O  O90  1  0.86199708  0.35449757  0.68808863  1
  O  O91  1  0.86644454  0.25809631  0.50185687  1
  O  O92  1  0.79096368  0.05090594  0.34968133  1
  O  O93  1  0.79494674  0.04485315  0.64938596  1
  O  O94  1  0.92771294  0.20001556  0.14353457  1
  O  O95  1  0.94605721  0.19753319  0.85666971  1
