# generated using pymatgen
data_FeCu4Re14(Mo3S20)2
_symmetry_space_group_name_H-M   'P 1'
_cell_length_a   6.83017923
_cell_length_b   6.83017889
_cell_length_c   34.17596936
_cell_angle_alpha   59.75457955
_cell_angle_beta   59.75458119
_cell_angle_gamma   59.73603082
_symmetry_Int_Tables_number   1
_chemical_formula_structural   FeCu4Re14(Mo3S20)2
_chemical_formula_sum   'Fe1 Cu4 Re14 Mo6 S40'
_cell_volume   1120.93793619
_cell_formula_units_Z   1
loop_
 _symmetry_equiv_pos_site_id
 _symmetry_equiv_pos_as_xyz
  1  'x, y, z'
loop_
 _atom_site_type_symbol
 _atom_site_label
 _atom_site_symmetry_multiplicity
 _atom_site_fract_x
 _atom_site_fract_y
 _atom_site_fract_z
 _atom_site_occupancy
  Fe  Fe0  1  0.99953581  0.99953581  0.80020897  1
  Cu  Cu1  1  0.00016636  0.00016636  0.00014542  1
  Cu  Cu2  1  0.00031840  0.00031840  0.20000467  1
  Cu  Cu3  1  0.00035523  0.00035523  0.39995168  1
  Cu  Cu4  1  0.00022476  0.00022476  0.60006450  1
  Re  Re5  1  0.18720257  0.60368139  0.12082801  1
  Re  Re6  1  0.60366999  0.60366999  0.03753223  1
  Re  Re7  1  0.60368139  0.18720257  0.12082801  1
  Re  Re8  1  0.18734876  0.60389242  0.32070317  1
  Re  Re9  1  0.60375926  0.60375926  0.23746603  1
  Re  Re10  1  0.60389242  0.18734876  0.32070317  1
  Re  Re11  1  0.18747892  0.60385315  0.52070751  1
  Re  Re12  1  0.60385315  0.18747892  0.52070751  1
  Re  Re13  1  0.60381849  0.60381849  0.43743708  1
  Re  Re14  1  0.18924177  0.60377405  0.72037004  1
  Re  Re15  1  0.60377405  0.18924177  0.72037004  1
  Re  Re16  1  0.60401044  0.60401044  0.63732733  1
  Re  Re17  1  0.18670914  0.60284620  0.92127527  1
  Re  Re18  1  0.60284620  0.18670914  0.92127527  1
  Mo  Mo19  1  0.60311498  0.60311498  0.12069862  1
  Mo  Mo20  1  0.60335083  0.60335083  0.32055126  1
  Mo  Mo21  1  0.60325047  0.60325047  0.52057835  1
  Mo  Mo22  1  0.60315374  0.60315374  0.72033065  1
  Mo  Mo23  1  0.60206425  0.60206425  0.83859357  1
  Mo  Mo24  1  0.60227691  0.60227691  0.92108898  1
  S  S25  1  0.36523171  0.36523171  0.07308403  1
  S  S26  1  0.36342955  0.36342955  0.18108785  1
  S  S27  1  0.36334714  0.90539334  0.07271432  1
  S  S28  1  0.36537912  0.36537912  0.27302593  1
  S  S29  1  0.40570636  0.86687220  0.17347907  1
  S  S30  1  0.90539334  0.36334714  0.07271432  1
  S  S31  1  0.86692765  0.86692765  0.08121815  1
  S  S32  1  0.36372596  0.36372596  0.38091075  1
  S  S33  1  0.86687220  0.40570636  0.17347907  1
  S  S34  1  0.36345852  0.90543345  0.27265526  1
  S  S35  1  0.86412277  0.86412277  0.17294237  1
  S  S36  1  0.36550352  0.36550352  0.47301338  1
  S  S37  1  0.40611745  0.86698491  0.37334556  1
  S  S38  1  0.90543345  0.36345852  0.27265526  1
  S  S39  1  0.86713928  0.86713928  0.28109119  1
  S  S40  1  0.36369523  0.36369523  0.58090944  1
  S  S41  1  0.36358547  0.90524487  0.47263456  1
  S  S42  1  0.86698491  0.40611745  0.37334556  1
  S  S43  1  0.86425752  0.86425752  0.37278648  1
  S  S44  1  0.36574008  0.36574008  0.67281823  1
  S  S45  1  0.40590596  0.86705649  0.57337353  1
  S  S46  1  0.90524487  0.36358547  0.47263456  1
  S  S47  1  0.86714981  0.86714981  0.48108826  1
  S  S48  1  0.36347234  0.36347234  0.78092041  1
  S  S49  1  0.36397725  0.90553542  0.67244807  1
  S  S50  1  0.86705649  0.40590596  0.57337353  1
  S  S51  1  0.86434055  0.86434055  0.57280589  1
  S  S52  1  0.36286781  0.36286781  0.87398827  1
  S  S53  1  0.40521207  0.87041198  0.77236158  1
  S  S54  1  0.90553542  0.36397725  0.67244807  1
  S  S55  1  0.86631234  0.86631234  0.68154757  1
  S  S56  1  0.36290692  0.36290692  0.98129675  1
  S  S57  1  0.36141739  0.90558029  0.87349086  1
  S  S58  1  0.87041198  0.40521207  0.77236158  1
  S  S59  1  0.86709862  0.86709862  0.77154030  1
  S  S60  1  0.40618434  0.86677343  0.97341197  1
  S  S61  1  0.90558029  0.36141739  0.87349086  1
  S  S62  1  0.86730876  0.86730876  0.88149119  1
  S  S63  1  0.86677343  0.40618434  0.97341197  1
  S  S64  1  0.86409385  0.86409385  0.97285664  1
