# generated using pymatgen
data_LiSb2(PO4)3
_symmetry_space_group_name_H-M   'P 1'
_cell_length_a   8.77710749
_cell_length_b   12.73887977
_cell_length_c   9.06964415
_cell_angle_alpha   90.00000000
_cell_angle_beta   90.00000000
_cell_angle_gamma   90.05622258
_symmetry_Int_Tables_number   1
_chemical_formula_structural   LiSb2(PO4)3
_chemical_formula_sum   'Li4 Sb8 P12 O48'
_cell_volume   1014.08111351
_cell_formula_units_Z   4
loop_
 _symmetry_equiv_pos_site_id
 _symmetry_equiv_pos_as_xyz
  1  'x, y, z'
loop_
 _atom_site_type_symbol
 _atom_site_label
 _atom_site_symmetry_multiplicity
 _atom_site_fract_x
 _atom_site_fract_y
 _atom_site_fract_z
 _atom_site_occupancy
  Li  Li0  1  0.71475773  0.30725356  0.76109732  1
  Li  Li1  1  0.78524227  0.19274644  0.26109732  1
  Li  Li2  1  0.28524227  0.69274644  0.23890268  1
  Li  Li3  1  0.21475773  0.80725356  0.73890268  1
  Sb  Sb4  1  0.74534022  0.39733354  0.45276597  1
  Sb  Sb5  1  0.25465978  0.60266646  0.54723403  1
  Sb  Sb6  1  0.24534022  0.89733354  0.04723403  1
  Sb  Sb7  1  0.74581389  0.88755852  0.54432218  1
  Sb  Sb8  1  0.24581389  0.38755852  0.95567782  1
  Sb  Sb9  1  0.25418611  0.11244148  0.45567782  1
  Sb  Sb10  1  0.75465978  0.10266646  0.95276597  1
  Sb  Sb11  1  0.75418611  0.61244148  0.04432218  1
  P  P12  1  0.61715240  0.65779476  0.39397875  1
  P  P13  1  0.39350109  0.64108113  0.91038057  1
  P  P14  1  0.55179736  0.00744025  0.26062248  1
  P  P15  1  0.11715240  0.15779476  0.10602125  1
  P  P16  1  0.44820264  0.99255975  0.73937752  1
  P  P17  1  0.05179736  0.50744025  0.23937752  1
  P  P18  1  0.88284760  0.84220524  0.89397875  1
  P  P19  1  0.10649891  0.85891887  0.41038057  1
  P  P20  1  0.89350109  0.14108113  0.58961943  1
  P  P21  1  0.60649891  0.35891887  0.08961943  1
  P  P22  1  0.94820264  0.49255975  0.76062248  1
  P  P23  1  0.38284760  0.34220524  0.60602125  1
  O  O24  1  0.31191990  0.32560300  0.76290168  1
  O  O25  1  0.33776334  0.44843324  0.53753177  1
  O  O26  1  0.15912979  0.58178153  0.32494817  1
  O  O27  1  0.04372159  0.56001939  0.65795635  1
  O  O28  1  0.66223666  0.55156676  0.46246823  1
  O  O29  1  0.32159852  0.69823424  0.03945338  1
  O  O30  1  0.45627841  0.93998061  0.15795635  1
  O  O31  1  0.95627841  0.43998061  0.34204365  1
  O  O32  1  0.95568994  0.57966815  0.13493676  1
  O  O33  1  0.68808010  0.67439700  0.23709832  1
  O  O34  1  0.83776334  0.94843324  0.96246823  1
  O  O35  1  0.17840148  0.80176576  0.53945338  1
  O  O36  1  0.65331275  0.93290897  0.35502953  1
  O  O37  1  0.67840148  0.30176576  0.96054662  1
  O  O38  1  0.16123873  0.97704889  0.39602906  1
  O  O39  1  0.14439792  0.80924868  0.26137205  1
  O  O40  1  0.15331275  0.43290897  0.14497047  1
  O  O41  1  0.18566952  0.24099622  0.99798565  1
  O  O42  1  0.31433048  0.25900378  0.49798565  1
  O  O43  1  0.34087021  0.91821847  0.82494817  1
  O  O44  1  0.33876127  0.52295111  0.89602906  1
  O  O45  1  0.66123873  0.47704889  0.10397094  1
  O  O46  1  0.05605411  0.83143929  0.88462891  1
  O  O47  1  0.16223666  0.05156676  0.03753177  1
  O  O48  1  0.07182455  0.14078663  0.57659271  1
  O  O49  1  0.04431006  0.42033185  0.86506324  1
  O  O50  1  0.35560208  0.69075132  0.76137205  1
  O  O51  1  0.18808010  0.17439700  0.26290168  1
  O  O52  1  0.54372159  0.06001939  0.84204365  1
  O  O53  1  0.42817545  0.35921337  0.07659271  1
  O  O54  1  0.45568994  0.07966815  0.36506324  1
  O  O55  1  0.54431006  0.92033185  0.63493676  1
  O  O56  1  0.83876127  0.02295111  0.60397094  1
  O  O57  1  0.57182455  0.64078663  0.92340729  1
  O  O58  1  0.84668725  0.56709103  0.85502953  1
  O  O59  1  0.85560208  0.19075132  0.73862795  1
  O  O60  1  0.81433048  0.75900378  0.00201435  1
  O  O61  1  0.84087021  0.41821847  0.67505183  1
  O  O62  1  0.92817545  0.85921337  0.42340729  1
  O  O63  1  0.68566952  0.74099622  0.50201435  1
  O  O64  1  0.64439792  0.30924868  0.23862795  1
  O  O65  1  0.44394589  0.66856071  0.38462891  1
  O  O66  1  0.65912979  0.08178153  0.17505183  1
  O  O67  1  0.82159852  0.19823424  0.46054662  1
  O  O68  1  0.55605411  0.33143929  0.61537109  1
  O  O69  1  0.81191990  0.82560300  0.73709832  1
  O  O70  1  0.94394589  0.16856071  0.11537109  1
  O  O71  1  0.34668725  0.06709103  0.64497047  1
