# generated using pymatgen
data_LaPdO4
_symmetry_space_group_name_H-M   'P 1'
_cell_length_a   3.85767518
_cell_length_b   3.85767518
_cell_length_c   6.40404370
_cell_angle_alpha   72.47087427
_cell_angle_beta   90.00000000
_cell_angle_gamma   120.00000000
_symmetry_Int_Tables_number   1
_chemical_formula_structural   LaPdO4
_chemical_formula_sum   'La1 Pd1 O4'
_cell_volume   77.38235580
_cell_formula_units_Z   1
loop_
 _symmetry_equiv_pos_site_id
 _symmetry_equiv_pos_as_xyz
  1  'x, y, z'
loop_
 _atom_site_type_symbol
 _atom_site_label
 _atom_site_symmetry_multiplicity
 _atom_site_fract_x
 _atom_site_fract_y
 _atom_site_fract_z
 _atom_site_occupancy
  La  La0  1  -0.00000000  0.00000000  -0.00000000  1
  Pd  Pd1  1  0.50000000  0.00000000  0.50000000  1
  O  O2  1  0.61188592  0.22377184  0.16434224  1
  O  O3  1  0.15588930  0.31177859  0.53233211  1
  O  O4  1  0.84411070  0.68822141  0.46766789  1
  O  O5  1  0.38811408  0.77622816  0.83565776  1
