# generated using pymatgen
data_Ag2Te
_symmetry_space_group_name_H-M   'P 1'
_cell_length_a   4.78229167
_cell_length_b   19.22388305
_cell_length_c   8.31854829
_cell_angle_alpha   30.06713144
_cell_angle_beta   55.37376862
_cell_angle_gamma   60.54365980
_symmetry_Int_Tables_number   1
_chemical_formula_structural   Ag2Te
_chemical_formula_sum   'Ag8 Te4'
_cell_volume   315.28945069
_cell_formula_units_Z   4
loop_
 _symmetry_equiv_pos_site_id
 _symmetry_equiv_pos_as_xyz
  1  'x, y, z'
loop_
 _atom_site_type_symbol
 _atom_site_label
 _atom_site_symmetry_multiplicity
 _atom_site_fract_x
 _atom_site_fract_y
 _atom_site_fract_z
 _atom_site_occupancy
  Ag  Ag0  1  0.33182126  0.00029203  0.33220797  1
  Ag  Ag1  1  0.33182126  0.24970797  0.33337610  1
  Ag  Ag2  1  0.75287987  0.99805568  0.75985844  1
  Ag  Ag3  1  0.25264136  0.50028716  0.25008706  1
  Ag  Ag4  1  0.75287987  0.25194432  0.75208116  1
  Ag  Ag5  1  0.25264136  0.74971284  0.25123571  1
  Ag  Ag6  1  0.75344371  0.50141280  0.74718766  1
  Ag  Ag7  1  0.75344371  0.74858720  0.75283887  1
  Te  Te8  1  0.00137938  0.99493556  0.00421587  1
  Te  Te9  1  0.00137938  0.25506444  0.98395810  1
  Te  Te10  1  0.99113442  0.50463141  0.99051371  1
  Te  Te11  1  0.99113442  0.74536859  0.00903935  1
