# generated using pymatgen
data_In11Cu9Se20
_symmetry_space_group_name_H-M   'P 1'
_cell_length_a   29.65247111
_cell_length_b   13.25287679
_cell_length_c   11.13128907
_cell_angle_alpha   53.38073202
_cell_angle_beta   36.88805823
_cell_angle_gamma   26.54166293
_symmetry_Int_Tables_number   1
_chemical_formula_structural   In11Cu9Se20
_chemical_formula_sum   'In11 Cu9 Se20'
_cell_volume   1051.46141825
_cell_formula_units_Z   1
loop_
 _symmetry_equiv_pos_site_id
 _symmetry_equiv_pos_as_xyz
  1  'x, y, z'
loop_
 _atom_site_type_symbol
 _atom_site_label
 _atom_site_symmetry_multiplicity
 _atom_site_fract_x
 _atom_site_fract_y
 _atom_site_fract_z
 _atom_site_occupancy
  In  In0  1  0.00007257  0.00037345  0.99913418  1
  In  In1  1  0.10487318  0.48842094  0.98973049  1
  In  In2  1  0.05417269  0.25351196  0.48699100  1
  In  In3  1  0.30256241  0.49103624  0.00911120  1
  In  In4  1  0.25100925  0.24786317  0.49903060  1
  In  In5  1  0.49973505  0.49993743  -0.00018024  1
  In  In6  1  0.46087885  0.22890386  0.48594956  1
  In  In7  1  0.68765436  0.51936825  0.00892767  1
  In  In8  1  0.63877218  0.26385545  0.51144001  1
  In  In9  1  0.90435760  0.50289482  0.98930374  1
  In  In10  1  0.84967890  0.24672450  0.51311218  1
  Cu  Cu11  1  0.19951329  0.00166150  0.00018924  1
  Cu  Cu12  1  0.39912259  0.00138886  0.00128932  1
  Cu  Cu13  1  0.60003554  0.00051398  -0.00001035  1
  Cu  Cu14  1  0.15579335  0.73725343  0.49197255  1
  Cu  Cu15  1  0.79970329  0.00136249  0.99972279  1
  Cu  Cu16  1  0.35191898  0.75564183  0.49243191  1
  Cu  Cu17  1  0.53977561  0.76427602  0.50882234  1
  Cu  Cu18  1  0.74961250  0.75129935  0.50031394  1
  Cu  Cu19  1  0.95042094  0.74734751  0.50903766  1
  Se  Se20  1  0.01774403  0.37447514  0.25025894  1
  Se  Se21  1  0.21849668  0.37249459  0.25233664  1
  Se  Se22  1  0.19012942  0.08967542  0.74920523  1
  Se  Se23  1  0.13220519  0.87526562  0.24819817  1
  Se  Se24  1  0.06158142  0.65797723  0.74706563  1
  Se  Se25  1  0.41974376  0.37307418  0.24786404  1
  Se  Se26  1  0.38676924  0.09331781  0.75344315  1
  Se  Se27  1  0.33361850  0.87246467  0.24686637  1
  Se  Se28  1  0.28741288  0.62198566  0.72626362  1
  Se  Se29  1  0.61944258  0.37327781  0.24885310  1
  Se  Se30  1  0.59067038  0.08646276  0.75047873  1
  Se  Se31  1  0.52996196  0.87902165  0.25141026  1
  Se  Se32  1  0.45991560  0.65975214  0.75297635  1
  Se  Se33  1  0.80244616  0.40821074  0.27434394  1
  Se  Se34  1  0.78602646  0.09399432  0.75487253  1
  Se  Se35  1  0.73395320  0.87334592  0.24839404  1
  Se  Se36  1  0.65895970  0.66433499  0.74983463  1
  Se  Se37  1  0.98574549  0.10378195  0.72726468  1
  Se  Se38  1  0.92435919  0.86485875  0.27325416  1
  Se  Se39  1  0.86115505  0.65859362  0.75049600  1
