# generated using pymatgen
data_Sr2CoReO6
_symmetry_space_group_name_H-M   'P 1'
_cell_length_a   5.63506401
_cell_length_b   5.65558151
_cell_length_c   7.99741817
_cell_angle_alpha   90.10702127
_cell_angle_beta   90.00000000
_cell_angle_gamma   90.00000000
_symmetry_Int_Tables_number   1
_chemical_formula_structural   Sr2CoReO6
_chemical_formula_sum   'Sr4 Co2 Re2 O12'
_cell_volume   254.87378403
_cell_formula_units_Z   2
loop_
 _symmetry_equiv_pos_site_id
 _symmetry_equiv_pos_as_xyz
  1  'x, y, z'
loop_
 _atom_site_type_symbol
 _atom_site_label
 _atom_site_symmetry_multiplicity
 _atom_site_fract_x
 _atom_site_fract_y
 _atom_site_fract_z
 _atom_site_occupancy
  Sr  Sr0  1  0.48200505  0.49649424  0.74958075  1
  Sr  Sr1  1  0.01799495  0.99649424  0.24958075  1
  Sr  Sr2  1  0.98200505  0.00350576  0.75041925  1
  Sr  Sr3  1  0.51799495  0.50350576  0.25041925  1
  Co  Co4  1  0.00000000  0.50000000  0.50000000  1
  Co  Co5  1  0.50000000  0.00000000  0.00000000  1
  Re  Re6  1  0.50000000  0.00000000  0.50000000  1
  Re  Re7  1  0.00000000  0.50000000  0.00000000  1
  O  O8  1  0.28260215  0.73873728  0.47270197  1
  O  O9  1  0.76272462  0.78491834  0.47136394  1
  O  O10  1  0.78260215  0.76126272  0.02729803  1
  O  O11  1  0.21739785  0.23873728  0.97270197  1
  O  O12  1  0.23727538  0.21508166  0.52863606  1
  O  O13  1  0.26272462  0.71508166  0.02863606  1
  O  O14  1  0.71739785  0.26126272  0.52729803  1
  O  O15  1  0.50638074  0.94641014  0.73721015  1
  O  O16  1  0.73727538  0.28491834  0.97136394  1
  O  O17  1  0.49361926  0.05358986  0.26278985  1
  O  O18  1  0.99361926  0.44641014  0.23721015  1
  O  O19  1  0.00638074  0.55358986  0.76278985  1
