# generated using pymatgen
data_LiBiP2O7
_symmetry_space_group_name_H-M   'P 1'
_cell_length_a   7.31197977
_cell_length_b   8.82417601
_cell_length_c   9.97106632
_cell_angle_alpha   90.00000000
_cell_angle_beta   109.42053607
_cell_angle_gamma   90.00000000
_symmetry_Int_Tables_number   1
_chemical_formula_structural   LiBiP2O7
_chemical_formula_sum   'Li4 Bi4 P8 O28'
_cell_volume   606.75047445
_cell_formula_units_Z   4
loop_
 _symmetry_equiv_pos_site_id
 _symmetry_equiv_pos_as_xyz
  1  'x, y, z'
loop_
 _atom_site_type_symbol
 _atom_site_label
 _atom_site_symmetry_multiplicity
 _atom_site_fract_x
 _atom_site_fract_y
 _atom_site_fract_z
 _atom_site_occupancy
  Li  Li0  1  0.28905340  0.06891414  0.77364876  1
  Li  Li1  1  0.71094660  0.93108586  0.22635124  1
  Li  Li2  1  0.28905340  0.43108586  0.27364876  1
  Li  Li3  1  0.71094660  0.56891414  0.72635124  1
  Bi  Bi4  1  0.75048385  0.00112637  0.75796401  1
  Bi  Bi5  1  0.24951615  0.99887363  0.24203599  1
  Bi  Bi6  1  0.24951615  0.50112637  0.74203599  1
  Bi  Bi7  1  0.75048385  0.49887363  0.25796401  1
  P  P8  1  0.34958649  0.78266851  0.56075663  1
  P  P9  1  0.09165174  0.25309095  0.46621598  1
  P  P10  1  0.34958649  0.71733149  0.06075663  1
  P  P11  1  0.90834826  0.75309095  0.03378402  1
  P  P12  1  0.90834826  0.74690905  0.53378402  1
  P  P13  1  0.09165174  0.24690905  0.96621598  1
  P  P14  1  0.65041351  0.21733149  0.43924337  1
  P  P15  1  0.65041351  0.28266851  0.93924337  1
  O  O16  1  0.83564048  0.61147073  0.08721289  1
  O  O17  1  0.14276617  0.76877645  0.58797579  1
  O  O18  1  0.16435952  0.38852927  0.91278711  1
  O  O19  1  0.85723383  0.26877645  0.91202421  1
  O  O20  1  0.14276617  0.73122355  0.08797579  1
  O  O21  1  0.54875140  0.13420209  0.87828354  1
  O  O22  1  0.68480734  0.29955731  0.09783090  1
  O  O23  1  0.31519266  0.79955731  0.40216910  1
  O  O24  1  0.16748870  0.24422263  0.12986912  1
  O  O25  1  0.44024416  0.92212733  0.65268269  1
  O  O26  1  0.83251130  0.74422263  0.37013088  1
  O  O27  1  0.16748870  0.25577737  0.62986912  1
  O  O28  1  0.54875140  0.36579791  0.37828354  1
  O  O29  1  0.45124860  0.63420209  0.62171646  1
  O  O30  1  0.88310219  0.90297989  0.10339937  1
  O  O31  1  0.16435952  0.11147073  0.41278711  1
  O  O32  1  0.11689781  0.40297989  0.39660063  1
  O  O33  1  0.55975584  0.07787267  0.34731731  1
  O  O34  1  0.45124860  0.86579791  0.12171646  1
  O  O35  1  0.55975584  0.42212733  0.84731731  1
  O  O36  1  0.44024416  0.57787267  0.15268269  1
  O  O37  1  0.68480734  0.20044269  0.59783090  1
  O  O38  1  0.85723383  0.23122355  0.41202421  1
  O  O39  1  0.88310219  0.59702011  0.60339937  1
  O  O40  1  0.11689781  0.09702011  0.89660063  1
  O  O41  1  0.31519266  0.70044269  0.90216910  1
  O  O42  1  0.83564048  0.88852927  0.58721289  1
  O  O43  1  0.83251130  0.75577737  0.87013088  1
