# generated using pymatgen
data_Nb24(CuS8)5
_symmetry_space_group_name_H-M   'P 1'
_cell_length_a   13.27200948
_cell_length_b   13.27200959
_cell_length_c   132.68142147
_cell_angle_alpha   14.53901206
_cell_angle_beta   14.53901037
_cell_angle_gamma   14.53459511
_symmetry_Int_Tables_number   1
_chemical_formula_structural   Nb24(CuS8)5
_chemical_formula_sum   'Nb24 Cu5 S40'
_cell_volume   1282.13690043
_cell_formula_units_Z   1
loop_
 _symmetry_equiv_pos_site_id
 _symmetry_equiv_pos_as_xyz
  1  'x, y, z'
loop_
 _atom_site_type_symbol
 _atom_site_label
 _atom_site_symmetry_multiplicity
 _atom_site_fract_x
 _atom_site_fract_y
 _atom_site_fract_z
 _atom_site_occupancy
  Nb  Nb0  1  0.07985036  0.07985036  0.00835887  1
  Nb  Nb1  1  0.09068044  0.09068044  0.10628401  1
  Nb  Nb2  1  0.07689730  0.07689730  0.20902325  1
  Nb  Nb3  1  0.91403894  0.91403894  0.09278205  1
  Nb  Nb4  1  0.07916514  0.07916514  0.30853956  1
  Nb  Nb5  1  0.92019666  0.92019666  0.19158715  1
  Nb  Nb6  1  0.08036146  0.08036146  0.40842752  1
  Nb  Nb7  1  0.92377865  0.92377865  0.29085487  1
  Nb  Nb8  1  0.09006103  0.09006103  0.50647443  1
  Nb  Nb9  1  0.90907205  0.90907205  0.39376655  1
  Nb  Nb10  1  0.07710326  0.07710326  0.60940150  1
  Nb  Nb11  1  0.91660703  0.91660703  0.49230548  1
  Nb  Nb12  1  0.97863043  0.97863043  0.60434853  1
  Nb  Nb13  1  0.08315820  0.08315820  0.70842393  1
  Nb  Nb14  1  0.92264662  0.92264662  0.59064874  1
  Nb  Nb15  1  0.97556582  0.97556582  0.80496979  1
  Nb  Nb16  1  0.02600882  0.02600882  0.69475177  1
  Nb  Nb17  1  0.08485121  0.08485121  0.80802345  1
  Nb  Nb18  1  0.91539146  0.91539146  0.69195320  1
  Nb  Nb19  1  0.02204027  0.02204027  0.89569089  1
  Nb  Nb20  1  0.07996981  0.07996981  0.90886288  1
  Nb  Nb21  1  0.91702304  0.91702304  0.79160538  1
  Nb  Nb22  1  0.92475667  0.92475667  0.89044235  1
  Nb  Nb23  1  0.91306297  0.91306297  0.99299450  1
  Cu  Cu24  1  0.14964170  0.14964170  0.31651166  1
  Cu  Cu25  1  0.84965499  0.84965499  0.18362033  1
  Cu  Cu26  1  0.85062335  0.85062335  0.58338033  1
  Cu  Cu27  1  0.85127077  0.85127077  0.88321179  1
  Cu  Cu28  1  0.84027920  0.84027920  0.98543164  1
  S  S29  1  0.20207676  0.20207676  0.02278254  1
  S  S30  1  0.28735752  0.28735752  0.02995070  1
  S  S31  1  0.21460623  0.21460623  0.12049040  1
  S  S32  1  0.28993459  0.28993459  0.12952313  1
  S  S33  1  0.70858306  0.70858306  0.07072101  1
  S  S34  1  0.79146152  0.79146152  0.07817762  1
  S  S35  1  0.20587997  0.20587997  0.22209463  1
  S  S36  1  0.29287879  0.29287879  0.22889381  1
  S  S37  1  0.71215062  0.71215062  0.17035978  1
  S  S38  1  0.79124006  0.79124006  0.17825529  1
  S  S39  1  0.20929696  0.20929696  0.32165224  1
  S  S40  1  0.28775121  0.28775121  0.32966864  1
  S  S41  1  0.70739152  0.70739152  0.27106119  1
  S  S42  1  0.79437129  0.79437129  0.27783995  1
  S  S43  1  0.20842991  0.20842991  0.42186432  1
  S  S44  1  0.28944621  0.28944621  0.42963286  1
  S  S45  1  0.70960910  0.70960910  0.37067923  1
  S  S46  1  0.78367752  0.78367752  0.37984573  1
  S  S47  1  0.21969474  0.21969474  0.51931679  1
  S  S48  1  0.28881583  0.28881583  0.53005186  1
  S  S49  1  0.71274496  0.71274496  0.46992713  1
  S  S50  1  0.78826979  0.78826979  0.47895952  1
  S  S51  1  0.20223807  0.20223807  0.62246632  1
  S  S52  1  0.29711172  0.29711172  0.62781345  1
  S  S53  1  0.71455851  0.71455851  0.56934122  1
  S  S54  1  0.78885548  0.78885548  0.57878069  1
  S  S55  1  0.20982817  0.20982817  0.72117124  1
  S  S56  1  0.29113797  0.29113797  0.72941893  1
  S  S57  1  0.70621711  0.70621711  0.67148564  1
  S  S58  1  0.78972085  0.78972085  0.67896991  1
  S  S59  1  0.21752337  0.21752337  0.81950393  1
  S  S60  1  0.29356126  0.29356126  0.82864243  1
  S  S61  1  0.71009828  0.71009828  0.77033667  1
  S  S62  1  0.78930543  0.78930543  0.77903816  1
  S  S63  1  0.21196686  0.21196686  0.92086966  1
  S  S64  1  0.28552074  0.28552074  0.93073513  1
  S  S65  1  0.70599045  0.70599045  0.87162783  1
  S  S66  1  0.78889218  0.78889218  0.87895426  1
  S  S67  1  0.71100934  0.71100934  0.97003162  1
  S  S68  1  0.78340840  0.78340840  0.97988815  1
