# generated using pymatgen
data_BePH3O5
_symmetry_space_group_name_H-M   'P 1'
_cell_length_a   8.70517635
_cell_length_b   8.94835388
_cell_length_c   5.16851236
_cell_angle_alpha   90.00000000
_cell_angle_beta   90.00000000
_cell_angle_gamma   90.00000000
_symmetry_Int_Tables_number   1
_chemical_formula_structural   BePH3O5
_chemical_formula_sum   'Be4 P4 H12 O20'
_cell_volume   402.61159990
_cell_formula_units_Z   4
loop_
 _symmetry_equiv_pos_site_id
 _symmetry_equiv_pos_as_xyz
  1  'x, y, z'
loop_
 _atom_site_type_symbol
 _atom_site_label
 _atom_site_symmetry_multiplicity
 _atom_site_fract_x
 _atom_site_fract_y
 _atom_site_fract_z
 _atom_site_occupancy
  Be  Be0  1  0.16653845  0.89930820  0.51549631  1
  Be  Be1  1  0.33346155  0.39930820  0.01549631  1
  Be  Be2  1  0.66653845  0.60069180  0.51549631  1
  Be  Be3  1  0.83346155  0.10069180  0.01549631  1
  P  P4  1  0.18732141  0.08332448  0.98102471  1
  P  P5  1  0.31267859  0.58332448  0.48102471  1
  P  P6  1  0.68732141  0.41667552  0.98102471  1
  P  P7  1  0.81267859  0.91667552  0.48102471  1
  H  H8  1  0.01476705  0.72319789  0.23478822  1
  H  H9  1  0.05848791  0.61527498  0.01119690  1
  H  H10  1  0.15777256  0.42116790  0.67162469  1
  H  H11  1  0.34222744  0.92116790  0.17162469  1
  H  H12  1  0.44151209  0.11527498  0.51119690  1
  H  H13  1  0.48523295  0.22319789  0.73478822  1
  H  H14  1  0.51476705  0.77680211  0.23478822  1
  H  H15  1  0.55848791  0.88472502  0.01119690  1
  H  H16  1  0.65777256  0.07883210  0.67162469  1
  H  H17  1  0.84222744  0.57883210  0.17162469  1
  H  H18  1  0.94151209  0.38472502  0.51119690  1
  H  H19  1  0.98523295  0.27680211  0.73478822  1
  O  O20  1  0.97139951  0.66903679  0.08715948  1
  O  O21  1  0.01517376  0.10304117  0.00213815  1
  O  O22  1  0.23842903  0.99303824  0.74575807  1
  O  O23  1  0.24480553  0.98498251  0.22894188  1
  O  O24  1  0.22799660  0.73151729  0.49008260  1
  O  O25  1  0.27200340  0.23151729  0.99008260  1
  O  O26  1  0.25519447  0.48498251  0.72894188  1
  O  O27  1  0.26157097  0.49303824  0.24575807  1
  O  O28  1  0.48482624  0.60304117  0.50213815  1
  O  O29  1  0.52860049  0.16903679  0.58715948  1
  O  O30  1  0.47139951  0.83096321  0.08715948  1
  O  O31  1  0.51517376  0.39695883  0.00213815  1
  O  O32  1  0.73842903  0.50696176  0.74575807  1
  O  O33  1  0.74480553  0.51501749  0.22894188  1
  O  O34  1  0.72799660  0.76848271  0.49008260  1
  O  O35  1  0.77200340  0.26848271  0.99008260  1
  O  O36  1  0.75519447  0.01501749  0.72894188  1
  O  O37  1  0.76157097  0.00696176  0.24575807  1
  O  O38  1  0.98482624  0.89695883  0.50213815  1
  O  O39  1  0.02860049  0.33096321  0.58715948  1
