# generated using pymatgen
data_Li6Mo2O7
_symmetry_space_group_name_H-M   'P 1'
_cell_length_a   5.97398873
_cell_length_b   12.09515663
_cell_length_c   10.40113451
_cell_angle_alpha   30.68991641
_cell_angle_beta   54.94521678
_cell_angle_gamma   60.40171516
_symmetry_Int_Tables_number   1
_chemical_formula_structural   Li6Mo2O7
_chemical_formula_sum   'Li12 Mo4 O14'
_cell_volume   314.00283912
_cell_formula_units_Z   2
loop_
 _symmetry_equiv_pos_site_id
 _symmetry_equiv_pos_as_xyz
  1  'x, y, z'
loop_
 _atom_site_type_symbol
 _atom_site_label
 _atom_site_symmetry_multiplicity
 _atom_site_fract_x
 _atom_site_fract_y
 _atom_site_fract_z
 _atom_site_occupancy
  Li  Li0  1  0.01721410  0.00000000  0.01934258  1
  Li  Li1  1  0.98655073  0.25000000  1.00000000  1
  Li  Li2  1  0.51151092  0.00000000  0.98578480  1
  Li  Li3  1  0.98308052  0.50000000  0.01421520  1
  Li  Li4  1  0.95953481  0.75000000  1.00000000  1
  Li  Li5  1  0.95953481  0.25000000  0.50000000  1
  Li  Li6  1  0.55589926  0.50000000  0.98065742  1
  Li  Li7  1  0.98251764  0.50000000  0.51936719  1
  Li  Li8  1  0.55347748  0.75000000  0.00000000  1
  Li  Li9  1  0.55347748  0.25000000  0.50000000  1
  Li  Li10  1  0.98655073  0.75000000  0.50000000  1
  Li  Li11  1  0.52125202  0.00000000  0.48063281  1
  Mo  Mo12  1  0.50144705  0.25000000  1.00000000  1
  Mo  Mo13  1  0.49226441  0.50000000  0.48779715  1
  Mo  Mo14  1  0.96785870  0.00000000  0.51220285  1
  Mo  Mo15  1  0.50144705  0.75000000  0.50000000  1
  O  O16  1  0.22946120  0.22993222  0.27691706  1
  O  O17  1  0.74207024  0.23479406  0.28235185  1
  O  O18  1  0.27636206  0.26520594  0.71764815  1
  O  O19  1  0.27636206  0.73479406  0.24806003  1
  O  O20  1  0.74918115  0.50000000  0.25572310  1
  O  O21  1  0.25438699  0.50000000  0.73711208  1
  O  O22  1  0.22861114  0.00000000  0.26288792  1
  O  O23  1  0.74315977  0.72993222  0.26321849  1
  O  O24  1  0.22946120  0.77006778  0.73678151  1
  O  O25  1  0.74315977  0.27006778  0.72308294  1
  O  O26  1  0.74941359  0.00000000  0.24632095  1
  O  O27  1  0.74205550  0.50000000  0.75367905  1
  O  O28  1  0.74207024  0.76520594  0.75193997  1
  O  O29  1  0.76062735  0.00000000  0.74427690  1
