# generated using pymatgen
data_Te7WCl5O
_symmetry_space_group_name_H-M   'P 1'
_cell_length_a   7.78057187
_cell_length_b   8.36184195
_cell_length_c   26.85154694
_cell_angle_alpha   89.99942612
_cell_angle_beta   89.99996612
_cell_angle_gamma   90.00000288
_symmetry_Int_Tables_number   1
_chemical_formula_structural   Te7WCl5O
_chemical_formula_sum   'Te28 W4 Cl20 O4'
_cell_volume   1746.95928785
_cell_formula_units_Z   4
loop_
 _symmetry_equiv_pos_site_id
 _symmetry_equiv_pos_as_xyz
  1  'x, y, z'
loop_
 _atom_site_type_symbol
 _atom_site_label
 _atom_site_symmetry_multiplicity
 _atom_site_fract_x
 _atom_site_fract_y
 _atom_site_fract_z
 _atom_site_occupancy
  Te  Te0  1  0.95737824  0.27337182  0.93117332  1
  Te  Te1  1  0.91239733  0.78135108  0.41563457  1
  Te  Te2  1  0.41239548  0.78135293  0.08436679  1
  Te  Te3  1  0.08762508  0.21865952  0.58440870  1
  Te  Te4  1  0.04262927  0.27338035  0.43122699  1
  Te  Te5  1  0.58987272  0.06043058  0.63996314  1
  Te  Te6  1  0.54262786  0.72662203  0.43122717  1
  Te  Te7  1  0.54262798  0.27337795  0.06877279  1
  Te  Te8  1  0.08986663  0.06042844  0.86003613  1
  Te  Te9  1  0.91239733  0.21864890  0.08436538  1
  Te  Te10  1  0.91010547  0.93954079  0.13991970  1
  Te  Te11  1  0.45737958  0.27337146  0.56882588  1
  Te  Te12  1  0.95737839  0.72662807  0.56882660  1
  Te  Te13  1  0.58762731  0.78134072  0.58440963  1
  Te  Te14  1  0.58762723  0.21865929  0.91559032  1
  Te  Te15  1  0.41009604  0.93953989  0.36007973  1
  Te  Te16  1  0.41009772  0.06045943  0.13992059  1
  Te  Te17  1  0.04262953  0.72661983  0.06877296  1
  Te  Te18  1  0.45737929  0.72662861  0.93117408  1
  Te  Te19  1  0.49998912  0.99999835  0.50001277  1
  Te  Te20  1  0.58987252  0.93956949  0.86003677  1
  Te  Te21  1  0.08986700  0.93957135  0.63996376  1
  Te  Te22  1  0.41239517  0.21864707  0.41563316  1
  Te  Te23  1  0.08762505  0.78134056  0.91559123  1
  Te  Te24  1  0.99998927  0.99999825  0.99998683  1
  Te  Te25  1  0.91010529  0.06045942  0.36008033  1
  Te  Te26  1  0.99998916  0.00000176  0.50001310  1
  Te  Te27  1  0.49998924  0.00000148  0.99998720  1
  W  W28  1  0.77732864  0.50000028  0.74999998  1
  W  W29  1  0.22261446  0.50000002  0.24999992  1
  W  W30  1  0.72316180  0.49999993  0.24999993  1
  W  W31  1  0.27684968  0.50000001  0.75000008  1
  Cl  Cl32  1  0.73923693  0.55460923  0.16195541  1
  Cl  Cl33  1  0.75876680  0.78249321  0.73349657  1
  Cl  Cl34  1  0.24128601  0.21751618  0.26650893  1
  Cl  Cl35  1  0.74997744  0.51506300  0.99998168  1
  Cl  Cl36  1  0.26075332  0.55459450  0.66195705  1
  Cl  Cl37  1  0.25885885  0.78247583  0.76650283  1
  Cl  Cl38  1  0.73923685  0.44539115  0.33804451  1
  Cl  Cl39  1  0.23933581  0.44538892  0.16195281  1
  Cl  Cl40  1  0.24998111  0.51506325  0.50001407  1
  Cl  Cl41  1  0.74119047  0.21753152  0.23349108  1
  Cl  Cl42  1  0.74997723  0.48493683  0.50001834  1
  Cl  Cl43  1  0.76066328  0.55459724  0.83804621  1
  Cl  Cl44  1  0.75876686  0.21750708  0.76650346  1
  Cl  Cl45  1  0.76066428  0.44540264  0.66195382  1
  Cl  Cl46  1  0.26075343  0.44540510  0.83804310  1
  Cl  Cl47  1  0.24128606  0.78248396  0.23349107  1
  Cl  Cl48  1  0.74118985  0.78246883  0.26650883  1
  Cl  Cl49  1  0.24998108  0.48493697  0.99998580  1
  Cl  Cl50  1  0.25885812  0.21752340  0.73349789  1
  Cl  Cl51  1  0.23933563  0.55461111  0.33804712  1
  O  O52  1  0.98359640  0.50000014  0.24999995  1
  O  O53  1  0.51680382  0.50000008  0.74999996  1
  O  O54  1  0.01642385  0.50000031  0.75000003  1
  O  O55  1  0.48316165  0.49999986  0.25000001  1
