# generated using pymatgen
data_Na3SrTiNb3O12
_symmetry_space_group_name_H-M   'P 1'
_cell_length_a   7.93043815
_cell_length_b   7.92466218
_cell_length_c   7.99304016
_cell_angle_alpha   90.10139089
_cell_angle_beta   89.88763288
_cell_angle_gamma   89.87857840
_symmetry_Int_Tables_number   1
_chemical_formula_structural   Na3SrTiNb3O12
_chemical_formula_sum   'Na6 Sr2 Ti2 Nb6 O24'
_cell_volume   502.32806355
_cell_formula_units_Z   2
loop_
 _symmetry_equiv_pos_site_id
 _symmetry_equiv_pos_as_xyz
  1  'x, y, z'
loop_
 _atom_site_type_symbol
 _atom_site_label
 _atom_site_symmetry_multiplicity
 _atom_site_fract_x
 _atom_site_fract_y
 _atom_site_fract_z
 _atom_site_occupancy
  Na  Na0  1  0.25021056  0.74970865  0.25185911  1
  Na  Na1  1  0.24873755  0.75015321  0.75126496  1
  Na  Na2  1  0.24945618  0.24970733  0.75112301  1
  Na  Na3  1  0.75054382  0.75029267  0.24887699  1
  Na  Na4  1  0.75126245  0.24984679  0.24873504  1
  Na  Na5  1  0.74978944  0.25029135  0.74814089  1
  Sr  Sr6  1  0.25043716  0.24977939  0.24823897  1
  Sr  Sr7  1  0.74956284  0.75022061  0.75176103  1
  Ti  Ti8  1  0.50000000  0.00000000  0.00000000  1
  Ti  Ti9  1  0.00000000  0.50000000  0.50000000  1
  Nb  Nb10  1  0.00000000  0.00000000  0.00000000  1
  Nb  Nb11  1  0.00000000  0.00000000  0.50000000  1
  Nb  Nb12  1  0.00000000  0.50000000  0.00000000  1
  Nb  Nb13  1  0.50000000  0.00000000  0.50000000  1
  Nb  Nb14  1  0.50000000  0.50000000  0.00000000  1
  Nb  Nb15  1  0.50000000  0.50000000  0.50000000  1
  O  O16  1  0.99538518  0.51222253  0.74968374  1
  O  O17  1  0.99746918  0.98653503  0.75015163  1
  O  O18  1  0.03903224  0.25003370  0.99083378  1
  O  O19  1  0.02887007  0.74920403  0.49387040  1
  O  O20  1  0.25005505  0.53398761  0.00322991  1
  O  O21  1  0.25077633  0.97018832  0.00524254  1
  O  O22  1  0.24913031  0.46607286  0.50191400  1
  O  O23  1  0.25000016  0.03726608  0.50088552  1
  O  O24  1  0.46483034  0.24922236  0.99372045  1
  O  O25  1  0.46672547  0.74995363  0.49332518  1
  O  O26  1  0.49582359  0.48775632  0.24992262  1
  O  O27  1  0.49757095  0.01127791  0.24936929  1
  O  O28  1  0.50242905  0.98872209  0.75063071  1
  O  O29  1  0.50417641  0.51224368  0.75007738  1
  O  O30  1  0.53327453  0.25004637  0.50667482  1
  O  O31  1  0.53516966  0.75077764  0.00627955  1
  O  O32  1  0.74999984  0.96273392  0.49911448  1
  O  O33  1  0.75086969  0.53392714  0.49808600  1
  O  O34  1  0.74922367  0.02981168  0.99475746  1
  O  O35  1  0.74994495  0.46601239  0.99677009  1
  O  O36  1  0.97112993  0.25079597  0.50612960  1
  O  O37  1  0.96096776  0.74996630  0.00916622  1
  O  O38  1  0.00253082  0.01346497  0.24984837  1
  O  O39  1  0.00461482  0.48777747  0.25031626  1
