# generated using pymatgen
data_BaLaTiCuO6
_symmetry_space_group_name_H-M   'P 1'
_cell_length_a   3.95741221
_cell_length_b   31.62392897
_cell_length_c   5.61419313
_cell_angle_alpha   44.75535352
_cell_angle_beta   90.00000000
_cell_angle_gamma   90.00000000
_symmetry_Int_Tables_number   1
_chemical_formula_structural   BaLaTiCuO6
_chemical_formula_sum   'Ba4 La4 Ti4 Cu4 O24'
_cell_volume   494.69456274
_cell_formula_units_Z   4
loop_
 _symmetry_equiv_pos_site_id
 _symmetry_equiv_pos_as_xyz
  1  'x, y, z'
loop_
 _atom_site_type_symbol
 _atom_site_label
 _atom_site_symmetry_multiplicity
 _atom_site_fract_x
 _atom_site_fract_y
 _atom_site_fract_z
 _atom_site_occupancy
  Ba  Ba0  1  0.00000000  0.99325689  0.02697245  1
  Ba  Ba1  1  0.00000000  0.12349438  0.00602250  1
  Ba  Ba2  1  0.00000000  0.25150562  -0.00602250  1
  Ba  Ba3  1  0.00000000  0.38174311  0.97302755  1
  La  La4  1  0.00000000  0.50653293  0.97386828  1
  La  La5  1  0.00000000  0.62597329  -0.00389316  1
  La  La6  1  0.00000000  0.74902671  0.00389316  1
  La  La7  1  0.00000000  0.86846707  0.02613172  1
  Ti  Ti8  1  0.50000000  0.12313138  0.50747449  1
  Ti  Ti9  1  0.50000000  0.99526974  0.51892104  1
  Ti  Ti10  1  0.50000000  0.37973026  0.48107896  1
  Ti  Ti11  1  0.50000000  0.25186862  0.49252551  1
  Cu  Cu12  1  0.50000000  0.62645844  0.49416623  1
  Cu  Cu13  1  0.50000000  0.50461787  0.48152853  1
  Cu  Cu14  1  0.50000000  0.74854156  0.50583377  1
  Cu  Cu15  1  0.50000000  0.87038213  0.51847147  1
  O  O16  1  0.00000000  0.99355786  0.52576858  1
  O  O17  1  0.00000000  0.12337157  0.50651374  1
  O  O18  1  0.00000000  0.25162843  0.49348626  1
  O  O19  1  0.00000000  0.38144214  0.47423142  1
  O  O20  1  0.00000000  0.51061191  0.45755237  1
  O  O21  1  0.00000000  0.62420060  0.50319760  1
  O  O22  1  0.00000000  0.75079940  0.49680240  1
  O  O23  1  0.00000000  0.86438809  0.54244763  1
  O  O24  1  0.50000000  0.05887886  0.51587335  1
  O  O25  1  0.50000000  0.18750000  0.50000000  1
  O  O26  1  0.50000000  0.31612114  0.48412665  1
  O  O27  1  0.50000000  0.44439851  0.45800224  1
  O  O28  1  0.50000000  0.56596641  0.48515927  1
  O  O29  1  0.50000000  0.68750000  0.50000000  1
  O  O30  1  0.50000000  0.80903359  0.51484073  1
  O  O31  1  0.50000000  0.93060149  0.54199776  1
  O  O32  1  0.50000000  0.05887886  0.01309575  1
  O  O33  1  0.50000000  0.18750000  0.00000000  1
  O  O34  1  0.50000000  0.31612114  -0.01309575  1
  O  O35  1  0.50000000  0.44439851  -0.01319036  1
  O  O36  1  0.50000000  0.56596641  -0.01289053  1
  O  O37  1  0.50000000  0.80903359  0.01289053  1
  O  O38  1  0.50000000  0.68750000  0.00000000  1
  O  O39  1  0.50000000  0.93060149  0.01319036  1
