# generated using pymatgen
data_La3Mg2(WO6)2
_symmetry_space_group_name_H-M   'P 1'
_cell_length_a   5.64530029
_cell_length_b   5.64530029
_cell_length_c   7.91576368
_cell_angle_alpha   90.00000000
_cell_angle_beta   90.00000000
_cell_angle_gamma   89.99903532
_symmetry_Int_Tables_number   1
_chemical_formula_structural   La3Mg2(WO6)2
_chemical_formula_sum   'La3 Mg2 W2 O12'
_cell_volume   252.27076039
_cell_formula_units_Z   1
loop_
 _symmetry_equiv_pos_site_id
 _symmetry_equiv_pos_as_xyz
  1  'x, y, z'
loop_
 _atom_site_type_symbol
 _atom_site_label
 _atom_site_symmetry_multiplicity
 _atom_site_fract_x
 _atom_site_fract_y
 _atom_site_fract_z
 _atom_site_occupancy
  La  La0  1  0.00000000  -0.00000000  -0.00000000  1
  La  La1  1  0.50000000  0.50000000  -0.00000000  1
  La  La2  1  0.00000000  -0.00000000  0.50000000  1
  Mg  Mg3  1  0.00000000  0.50000000  0.25257556  1
  Mg  Mg4  1  0.50000000  -0.00000000  0.74742444  1
  W  W5  1  0.00000000  0.50000000  0.74323844  1
  W  W6  1  0.50000000  -0.00000000  0.25676156  1
  O  O7  1  0.00000000  0.50000000  0.99539228  1
  O  O8  1  0.50000000  -0.00000000  0.00460772  1
  O  O9  1  0.00000000  0.50000000  0.50613036  1
  O  O10  1  0.50000000  -0.00000000  0.49386964  1
  O  O11  1  0.75710348  0.23529950  0.23523498  1
  O  O12  1  0.24289652  0.76470050  0.23523498  1
  O  O13  1  0.23529950  0.75710348  0.76476502  1
  O  O14  1  0.76470050  0.24289652  0.76476502  1
  O  O15  1  0.24317832  0.23555011  0.23513816  1
  O  O16  1  0.75682168  0.76444989  0.23513816  1
  O  O17  1  0.23555011  0.24317832  0.76486184  1
  O  O18  1  0.76444989  0.75682168  0.76486184  1
