# generated using pymatgen
data_Li2CoP2O7
_symmetry_space_group_name_H-M   'P 1'
_cell_length_a   5.06020406
_cell_length_b   7.00385635
_cell_length_c   8.20080022
_cell_angle_alpha   66.88649011
_cell_angle_beta   88.85633543
_cell_angle_gamma   90.93473395
_symmetry_Int_Tables_number   1
_chemical_formula_structural   Li2CoP2O7
_chemical_formula_sum   'Li4 Co2 P4 O14'
_cell_volume   267.16835809
_cell_formula_units_Z   2
loop_
 _symmetry_equiv_pos_site_id
 _symmetry_equiv_pos_as_xyz
  1  'x, y, z'
loop_
 _atom_site_type_symbol
 _atom_site_label
 _atom_site_symmetry_multiplicity
 _atom_site_fract_x
 _atom_site_fract_y
 _atom_site_fract_z
 _atom_site_occupancy
  Li  Li0  1  0.76262153  0.18710215  0.42953031  1
  Li  Li1  1  0.29182524  0.84776201  0.99527520  1
  Li  Li2  1  0.70817476  0.15223799  0.00472480  1
  Li  Li3  1  0.23737847  0.81289785  0.57046969  1
  Co  Co4  1  0.21967787  0.23862851  0.72166445  1
  Co  Co5  1  0.78032213  0.76137149  0.27833555  1
  P  P6  1  0.71319865  0.54530895  0.69501148  1
  P  P7  1  0.77319920  0.87775241  0.82216560  1
  P  P8  1  0.22680080  0.12224759  0.17783440  1
  P  P9  1  0.28680135  0.45469105  0.30498852  1
  O  O10  1  0.14599899  0.66045829  0.21848299  1
  O  O11  1  0.86652906  0.70508230  0.53457825  1
  O  O12  1  0.92712770  0.07987157  0.21777042  1
  O  O13  1  0.13347094  0.29491770  0.46542175  1
  O  O14  1  0.07287230  0.92012843  0.78222958  1
  O  O15  1  0.41909483  0.52109791  0.66330951  1
  O  O16  1  0.60061462  0.02214380  0.67656849  1
  O  O17  1  0.28577392  0.35982497  0.15254554  1
  O  O18  1  0.58090517  0.47890209  0.33669049  1
  O  O19  1  0.30924226  0.13042501  0.99319438  1
  O  O20  1  0.39938538  0.97785620  0.32343151  1
  O  O21  1  0.69075774  0.86957499  0.00680562  1
  O  O22  1  0.85400101  0.33954171  0.78151701  1
  O  O23  1  0.71422608  0.64017503  0.84745446  1
