# generated using pymatgen
data_Ca3YAl3B4O15
_symmetry_space_group_name_H-M   'P 1'
_cell_length_a   10.52650833
_cell_length_b   10.52771007
_cell_length_c   11.68992378
_cell_angle_alpha   90.00000000
_cell_angle_beta   90.00000000
_cell_angle_gamma   119.99273501
_symmetry_Int_Tables_number   1
_chemical_formula_structural   Ca3YAl3B4O15
_chemical_formula_sum   'Ca12 Y4 Al12 B16 O60'
_cell_volume   1121.99870181
_cell_formula_units_Z   4
loop_
 _symmetry_equiv_pos_site_id
 _symmetry_equiv_pos_as_xyz
  1  'x, y, z'
loop_
 _atom_site_type_symbol
 _atom_site_label
 _atom_site_symmetry_multiplicity
 _atom_site_fract_x
 _atom_site_fract_y
 _atom_site_fract_z
 _atom_site_occupancy
  Ca  Ca0  1  0.12545763  0.82362995  0.62500000  1
  Ca  Ca1  1  0.32700634  0.65892963  0.12500000  1
  Ca  Ca2  1  0.16155131  0.31009143  0.12500000  1
  Ca  Ca3  1  0.16197680  0.30628416  0.62500000  1
  Ca  Ca4  1  0.25075548  0.11851313  0.37563324  1
  Ca  Ca5  1  0.25075548  0.11851313  0.87436676  1
  Ca  Ca6  1  0.67105289  0.85338957  0.12500000  1
  Ca  Ca7  1  0.67464115  0.85895422  0.62500000  1
  Ca  Ca8  1  0.83542984  0.72583758  0.37579732  1
  Ca  Ca9  1  0.83542984  0.72583758  0.87420268  1
  Ca  Ca10  1  0.86428644  0.13695377  0.37450282  1
  Ca  Ca11  1  0.86428644  0.13695377  0.87549718  1
  Y  Y12  1  0.12952284  0.81608550  0.12500000  1
  Y  Y13  1  0.32276302  0.66262680  0.62500000  1
  Y  Y14  1  0.65672342  0.32844483  0.37478932  1
  Y  Y15  1  0.65672342  0.32844483  0.87521068  1
  Al  Al16  1  0.48605394  0.99569363  0.25218044  1
  Al  Al17  1  0.48491252  0.99604223  0.75145902  1
  Al  Al18  1  0.49045089  0.49444213  0.99935898  1
  Al  Al19  1  0.49190195  0.49709707  0.49877647  1
  Al  Al20  1  0.49045089  0.49444213  0.25064102  1
  Al  Al21  1  0.49190195  0.49709707  0.75122353  1
  Al  Al22  1  0.48605394  0.99569363  0.99781956  1
  Al  Al23  1  0.48491252  0.99604223  0.49854098  1
  Al  Al24  1  0.99090181  0.49388273  0.49866991  1
  Al  Al25  1  0.99230752  0.49195265  0.99605970  1
  Al  Al26  1  0.99230752  0.49195265  0.25394030  1
  Al  Al27  1  0.99090181  0.49388273  0.75133009  1
  B  B28  1  0.98727776  0.99365068  0.99910865  1
  B  B29  1  0.21630693  0.76467138  0.37764677  1
  B  B30  1  0.21630693  0.76467138  0.87235323  1
  B  B31  1  0.98727776  0.99365068  0.25089135  1
  B  B32  1  0.98447651  0.99339260  0.49447789  1
  B  B33  1  0.98447651  0.99339260  0.75552211  1
  B  B34  1  0.22447928  0.45374148  0.87434874  1
  B  B35  1  0.22447928  0.45374148  0.37565126  1
  B  B36  1  0.52368038  0.76650871  0.37506980  1
  B  B37  1  0.52368038  0.76650871  0.87493020  1
  B  B38  1  0.44527581  0.21918191  0.12500000  1
  B  B39  1  0.44519906  0.22041464  0.62500000  1
  B  B40  1  0.75921756  0.54039731  0.12500000  1
  B  B41  1  0.76013733  0.54020296  0.62500000  1
  B  B42  1  0.76453772  0.22615821  0.12500000  1
  B  B43  1  0.76617178  0.22550994  0.62500000  1
  O  O44  1  0.16005727  0.69084487  0.27529116  1
  O  O45  1  0.16554680  0.68861684  0.77031070  1
  O  O46  1  0.16554680  0.68861684  0.47968930  1
  O  O47  1  0.16005727  0.69084487  0.97470884  1
  O  O48  1  0.08096919  0.47592265  0.12500000  1
  O  O49  1  0.08448487  0.47493006  0.62500000  1
  O  O50  1  0.07667390  0.42166640  0.87483288  1
  O  O51  1  0.07667390  0.42166640  0.37516712  1
  O  O52  1  0.32566995  0.91374988  0.37645391  1
  O  O53  1  0.32566995  0.91374988  0.87354609  1
  O  O54  1  0.36993732  0.90621263  0.12500000  1
  O  O55  1  0.37282205  0.90356178  0.62500000  1
  O  O56  1  0.29762377  0.47536405  0.47882916  1
  O  O57  1  0.29659555  0.46843761  0.97614397  1
  O  O58  1  0.29659555  0.46843761  0.27385603  1
  O  O59  1  0.29762377  0.47536405  0.77117084  1
  O  O60  1  0.49980300  0.81769563  0.47813050  1
  O  O61  1  0.50461266  0.82223046  0.27347618  1
  O  O62  1  0.50461266  0.82223046  0.97652382  1
  O  O63  1  0.49980300  0.81769563  0.77186950  1
  O  O64  1  0.51573172  0.60733533  0.12500000  1
  O  O65  1  0.51271226  0.61067305  0.62500000  1
  O  O66  1  0.41202180  0.33266074  0.12500000  1
  O  O67  1  0.41418853  0.33575248  0.62500000  1
  O  O68  1  0.56290931  0.65597792  0.37511262  1
  O  O69  1  0.56290931  0.65597792  0.87488738  1
  O  O70  1  0.46811850  0.37787283  0.37564189  1
  O  O71  1  0.46811850  0.37787283  0.87435811  1
  O  O72  1  0.83425466  0.92888591  0.76191227  1
  O  O73  1  0.83777507  0.91922605  0.25834402  1
  O  O74  1  0.83425466  0.92888591  0.48808773  1
  O  O75  1  0.83777507  0.91922605  0.99165598  1
  O  O76  1  0.46139338  0.16492225  0.22940247  1
  O  O77  1  0.46014823  0.16501799  0.72905165  1
  O  O78  1  0.46139338  0.16492225  0.02059753  1
  O  O79  1  0.46014823  0.16501799  0.52094835  1
  O  O80  1  0.68790018  0.52037091  0.22907377  1
  O  O81  1  0.68790018  0.52037091  0.02092623  1
  O  O82  1  0.68862775  0.52434081  0.72878949  1
  O  O83  1  0.68862775  0.52434081  0.52121051  1
  O  O84  1  0.06213826  0.91630822  0.99630817  1
  O  O85  1  0.06213826  0.91630822  0.25369183  1
  O  O86  1  0.04888139  0.90771556  0.48625936  1
  O  O87  1  0.04888139  0.90771556  0.76374064  1
  O  O88  1  0.60641121  0.08798266  0.87436128  1
  O  O89  1  0.60641121  0.08798266  0.37563872  1
  O  O90  1  0.64838173  0.07936579  0.12500000  1
  O  O91  1  0.64875875  0.07973513  0.62500000  1
  O  O92  1  0.90943065  0.58073106  0.12500000  1
  O  O93  1  0.90667539  0.57121656  0.62500000  1
  O  O94  1  0.89651501  0.51905734  0.37561139  1
  O  O95  1  0.89651501  0.51905734  0.87438861  1
  O  O96  1  0.82260950  0.29653547  0.52108219  1
  O  O97  1  0.82029542  0.29725884  0.02097061  1
  O  O98  1  0.82029542  0.29725884  0.22902939  1
  O  O99  1  0.82260950  0.29653547  0.72891781  1
  O  O100  1  0.06995951  0.14354915  0.48956315  1
  O  O101  1  0.06622233  0.14357100  0.99058152  1
  O  O102  1  0.06622233  0.14357100  0.25941848  1
  O  O103  1  0.06995951  0.14354915  0.76043685  1
