# generated using pymatgen
data_Co7(RuO6)2
_symmetry_space_group_name_H-M   'P 1'
_cell_length_a   5.96225655
_cell_length_b   17.91480570
_cell_length_c   15.78039456
_cell_angle_alpha   19.11214178
_cell_angle_beta   53.83074022
_cell_angle_gamma   57.74787830
_symmetry_Int_Tables_number   1
_chemical_formula_structural   Co7(RuO6)2
_chemical_formula_sum   'Co14 Ru4 O24'
_cell_volume   443.67894319
_cell_formula_units_Z   2
loop_
 _symmetry_equiv_pos_site_id
 _symmetry_equiv_pos_as_xyz
  1  'x, y, z'
loop_
 _atom_site_type_symbol
 _atom_site_label
 _atom_site_symmetry_multiplicity
 _atom_site_fract_x
 _atom_site_fract_y
 _atom_site_fract_z
 _atom_site_occupancy
  Co  Co0  1  0.12658677  0.29673543  0.11152740  1
  Co  Co1  1  0.50059341  0.15516478  0.01251009  1
  Co  Co2  1  0.50125412  0.51046010  0.99018385  1
  Co  Co3  1  0.11478591  0.61078861  0.14433288  1
  Co  Co4  1  0.51044630  0.17373712  0.49302872  1
  Co  Co5  1  0.50054747  0.83597738  0.99611945  1
  Co  Co6  1  0.13313677  0.96678279  0.11522939  1
  Co  Co7  1  0.49949994  0.33518153  0.49555724  1
  Co  Co8  1  0.49062987  0.49503986  0.50298525  1
  Co  Co9  1  0.89023942  0.06612886  0.84251885  1
  Co  Co10  1  0.50039552  0.83289034  0.50113608  1
  Co  Co11  1  0.87652250  0.37118485  0.88753898  1
  Co  Co12  1  0.00137248  0.83355010  0.49950544  1
  Co  Co13  1  0.86438427  0.70348582  0.88126975  1
  Ru  Ru14  1  0.47274985  0.00897944  0.50100828  1
  Ru  Ru15  1  0.02525100  0.16420675  0.49437166  1
  Ru  Ru16  1  0.53093675  0.65931249  0.49698528  1
  Ru  Ru17  1  0.97478713  0.50669028  0.50113483  1
  O  O18  1  0.26176154  0.06499627  0.25722317  1
  O  O19  1  0.27049230  0.28520740  0.21277036  1
  O  O20  1  0.71500730  0.06530433  0.28649143  1
  O  O21  1  0.27483703  0.39606168  0.26027826  1
  O  O22  1  0.70924077  0.25457913  0.25553780  1
  O  O23  1  0.29841700  0.10659664  0.71443059  1
  O  O24  1  0.24628616  0.56721011  0.27834326  1
  O  O25  1  0.25364561  0.27448821  0.71341556  1
  O  O26  1  0.73383144  0.38510541  0.28827835  1
  O  O27  1  0.23215255  0.73150304  0.26681160  1
  O  O28  1  0.71171519  0.56840900  0.26505810  1
  O  O29  1  0.75375715  0.10441869  0.71433860  1
  O  O30  1  0.29085363  0.40960716  0.75242542  1
  O  O31  1  0.29368287  0.92263415  0.24047991  1
  O  O32  1  0.74535365  0.74775658  0.24705948  1
  O  O33  1  0.28435732  0.60173064  0.71372916  1
  O  O34  1  0.73733209  0.26415446  0.74862669  1
  O  O35  1  0.72780468  0.91281828  0.25298557  1
  O  O36  1  0.73247709  0.38363629  0.78551559  1
  O  O37  1  0.27016677  0.75066537  0.75237634  1
  O  O38  1  0.73827621  0.60080430  0.74520395  1
  O  O39  1  0.27321000  0.93832436  0.73346479  1
  O  O40  1  0.70686025  0.74577504  0.75729872  1
  O  O41  1  0.75636588  0.95017696  0.71449386  1
