# generated using pymatgen
data_LiMn12O24
_symmetry_space_group_name_H-M   'P 1'
_cell_length_a   11.70950424
_cell_length_b   21.12337362
_cell_length_c   15.51054454
_cell_angle_alpha   19.35490925
_cell_angle_beta   55.44892478
_cell_angle_gamma   46.08897156
_symmetry_Int_Tables_number   1
_chemical_formula_structural   LiMn12O24
_chemical_formula_sum   'Li2 Mn24 O48'
_cell_volume   852.70801716
_cell_formula_units_Z   2
loop_
 _symmetry_equiv_pos_site_id
 _symmetry_equiv_pos_as_xyz
  1  'x, y, z'
loop_
 _atom_site_type_symbol
 _atom_site_label
 _atom_site_symmetry_multiplicity
 _atom_site_fract_x
 _atom_site_fract_y
 _atom_site_fract_z
 _atom_site_occupancy
  Li  Li0  1  0.25001500  0.62521372  0.12479372  1
  Li  Li1  1  0.74998816  0.37478119  0.87521357  1
  Mn  Mn2  1  0.16776939  0.16559764  0.00131275  1
  Mn  Mn3  1  0.25050456  0.00074470  0.49803835  1
  Mn  Mn4  1  0.16650673  0.16821309  0.49806666  1
  Mn  Mn5  1  0.66650755  0.16620039  0.00007545  1
  Mn  Mn6  1  0.08308984  0.33262396  0.50045565  1
  Mn  Mn7  1  0.41691937  0.16500215  0.50190097  1
  Mn  Mn8  1  0.50004063  0.49985186  0.00018629  1
  Mn  Mn9  1  0.74943678  0.99935962  0.50186673  1
  Mn  Mn10  1  0.24941178  0.49930810  0.50192584  1
  Mn  Mn11  1  0.66774756  0.16502207  0.50189383  1
  Mn  Mn12  1  0.33348349  0.83383614  0.99987607  1
  Mn  Mn13  1  0.58414303  0.33256934  0.50114037  1
  Mn  Mn14  1  0.50001945  0.49999527  0.50000669  1
  Mn  Mn15  1  0.08412729  0.83172942  0.50199384  1
  Mn  Mn16  1  0.91585608  0.16829334  0.49798398  1
  Mn  Mn17  1  -0.00001098  0.50001466  -0.00000781  1
  Mn  Mn18  1  0.41588370  0.66742203  0.49885822  1
  Mn  Mn19  1  0.75055425  0.50067099  0.49810254  1
  Mn  Mn20  1  0.33221357  0.83501214  0.49803878  1
  Mn  Mn21  1  0.83220692  0.83443613  0.99864998  1
  Mn  Mn22  1  0.00001616  0.49999967  0.50001767  1
  Mn  Mn23  1  0.58311854  0.83504293  0.49801547  1
  Mn  Mn24  1  0.91692780  0.66736293  0.49953098  1
  Mn  Mn25  1  0.83350008  0.83177585  0.50195024  1
  O  O26  1  0.10304232  0.05845989  0.26473165  1
  O  O27  1  0.01014848  0.24478897  0.26561323  1
  O  O28  1  0.34321537  0.04856391  0.29484689  1
  O  O29  1  0.22942690  0.24495338  0.26534724  1
  O  O30  1  0.10378851  0.08762652  0.73548334  1
  O  O31  1  0.17681721  0.38128665  0.29561452  1
  O  O32  1  0.60378402  0.05859964  0.26449774  1
  O  O33  1  0.06617774  0.58005090  0.25962424  1
  O  O34  1  0.32317660  0.08872846  0.73437769  1
  O  O35  1  0.51053358  0.24328812  0.26756033  1
  O  O36  1  0.01054429  0.71394668  0.29690290  1
  O  O37  1  0.84230969  0.05227835  0.29006733  1
  O  O38  1  0.43383070  0.39176381  0.26853596  1
  O  O39  1  0.22984720  0.27520808  0.73556106  1
  O  O40  1  0.72982642  0.24358606  0.26718613  1
  O  O41  1  0.15679058  0.42179263  0.73479664  1
  O  O42  1  0.34231094  0.57842172  0.26392869  1
  O  O43  1  0.60304771  0.08906335  0.73414313  1
  O  O44  1  0.67668470  0.38131484  0.29565876  1
  O  O45  1  0.27057731  0.72441547  0.26529157  1
  O  O46  1  0.48986171  0.28587913  0.70372920  1
  O  O47  1  0.06274939  0.60887702  0.73475964  1
  O  O48  1  0.82330205  0.08863591  0.73440366  1
  O  O49  1  0.56274450  0.57837076  0.26526608  1
  O  O50  1  0.17669936  0.91136125  0.26559871  1
  O  O51  1  0.43725866  0.42162421  0.73473497  1
  O  O52  1  0.51014846  0.71410618  0.29628671  1
  O  O53  1  0.93725292  0.39110994  0.26525910  1
  O  O54  1  0.72942092  0.27558971  0.73470152  1
  O  O55  1  0.32330797  0.61868875  0.70434457  1
  O  O56  1  0.65769000  0.42157158  0.73607683  1
  O  O57  1  0.39695392  0.91092082  0.26588613  1
  O  O58  1  0.84322164  0.57820147  0.26520540  1
  O  O59  1  0.27013732  0.75644639  0.73278917  1
  O  O60  1  0.77014805  0.72479753  0.26442956  1
  O  O61  1  0.15769309  0.94770779  0.70994882  1
  O  O62  1  0.98946492  0.28601805  0.70313460  1
  O  O63  1  0.56617685  0.60825728  0.73141949  1
  O  O64  1  0.48946813  0.75674933  0.73240531  1
  O  O65  1  0.67681859  0.91126102  0.26564375  1
  O  O66  1  0.93383103  0.41994828  0.74037074  1
  O  O67  1  0.82317885  0.61870756  0.70439834  1
  O  O68  1  0.39621364  0.94138785  0.73551907  1
  O  O69  1  0.89621560  0.91237155  0.26452242  1
  O  O70  1  0.77058226  0.75502030  0.73468192  1
  O  O71  1  0.65677879  0.95144426  0.70515010  1
  O  O72  1  0.98986477  0.75519237  0.73440619  1
  O  O73  1  0.89695961  0.94153697  0.73527211  1
