# generated using pymatgen
data_Na2PH5O6
_symmetry_space_group_name_H-M   'P 1'
_cell_length_a   11.20501980
_cell_length_b   7.19623710
_cell_length_c   15.43184028
_cell_angle_alpha   90.00000000
_cell_angle_beta   90.00000000
_cell_angle_gamma   90.00000000
_symmetry_Int_Tables_number   1
_chemical_formula_structural   Na2PH5O6
_chemical_formula_sum   'Na16 P8 H40 O48'
_cell_volume   1244.33068802
_cell_formula_units_Z   8
loop_
 _symmetry_equiv_pos_site_id
 _symmetry_equiv_pos_as_xyz
  1  'x, y, z'
loop_
 _atom_site_type_symbol
 _atom_site_label
 _atom_site_symmetry_multiplicity
 _atom_site_fract_x
 _atom_site_fract_y
 _atom_site_fract_z
 _atom_site_occupancy
  Na  Na0  1  0.78298819  0.34707856  0.19964136  1
  Na  Na1  1  0.28298819  0.15292144  0.80035864  1
  Na  Na2  1  0.21701181  0.84707856  0.30035864  1
  Na  Na3  1  0.71701181  0.65292144  0.69964136  1
  Na  Na4  1  0.21701181  0.65292144  0.80035864  1
  Na  Na5  1  0.71701181  0.84707856  0.19964136  1
  Na  Na6  1  0.78298819  0.15292144  0.69964136  1
  Na  Na7  1  0.28298819  0.34707856  0.30035864  1
  Na  Na8  1  0.92205975  0.27941139  0.47759247  1
  Na  Na9  1  0.42205975  0.22058861  0.52240753  1
  Na  Na10  1  0.07794025  0.77941139  0.02240753  1
  Na  Na11  1  0.57794025  0.72058861  0.97759247  1
  Na  Na12  1  0.07794025  0.72058861  0.52240753  1
  Na  Na13  1  0.57794025  0.77941139  0.47759247  1
  Na  Na14  1  0.92205975  0.22058861  0.97759247  1
  Na  Na15  1  0.42205975  0.27941139  0.02240753  1
  P  P16  1  0.53209326  0.13954185  0.32833334  1
  P  P17  1  0.03209326  0.36045815  0.67166666  1
  P  P18  1  0.46790674  0.63954185  0.17166666  1
  P  P19  1  0.96790674  0.86045815  0.82833334  1
  P  P20  1  0.46790674  0.86045815  0.67166666  1
  P  P21  1  0.96790674  0.63954185  0.32833334  1
  P  P22  1  0.53209326  0.36045815  0.82833334  1
  P  P23  1  0.03209326  0.13954185  0.17166666  1
  H  H24  1  0.87432208  0.94817146  0.39940633  1
  H  H25  1  0.37432208  0.55182854  0.60059367  1
  H  H26  1  0.12567792  0.44817146  0.10059367  1
  H  H27  1  0.62567792  0.05182854  0.89940633  1
  H  H28  1  0.12567792  0.05182854  0.60059367  1
  H  H29  1  0.62567792  0.44817146  0.39940633  1
  H  H30  1  0.87432208  0.55182854  0.89940633  1
  H  H31  1  0.37432208  0.94817146  0.10059367  1
  H  H32  1  0.75439872  0.06081824  0.37693683  1
  H  H33  1  0.25439872  0.43918176  0.62306317  1
  H  H34  1  0.24560128  0.56081824  0.12306317  1
  H  H35  1  0.74560128  0.93918176  0.87693683  1
  H  H36  1  0.24560128  0.93918176  0.62306317  1
  H  H37  1  0.74560128  0.56081824  0.37693683  1
  H  H38  1  0.75439872  0.43918176  0.87693683  1
  H  H39  1  0.25439872  0.06081824  0.12306317  1
  H  H40  1  0.46414519  0.50158509  0.70989846  1
  H  H41  1  0.96414519  0.99841491  0.29010154  1
  H  H42  1  0.53585481  0.00158509  0.79010154  1
  H  H43  1  0.03585481  0.49841491  0.20989846  1
  H  H44  1  0.53585481  0.49841491  0.29010154  1
  H  H45  1  0.03585481  0.00158509  0.70989846  1
  H  H46  1  0.46414519  0.99841491  0.20989846  1
  H  H47  1  0.96414519  0.50158509  0.79010154  1
  H  H48  1  0.34670400  0.46374773  0.91258123  1
  H  H49  1  0.84670400  0.03625227  0.08741877  1
  H  H50  1  0.65329600  0.96374773  0.58741877  1
  H  H51  1  0.15329600  0.53625227  0.41258123  1
  H  H52  1  0.65329600  0.53625227  0.08741877  1
  H  H53  1  0.15329600  0.96374773  0.91258123  1
  H  H54  1  0.34670400  0.03625227  0.41258123  1
  H  H55  1  0.84670400  0.46374773  0.58741877  1
  H  H56  1  0.23154718  0.45765616  0.97364033  1
  H  H57  1  0.73154718  0.04234384  0.02635967  1
  H  H58  1  0.76845282  0.95765616  0.52635967  1
  H  H59  1  0.26845282  0.54234384  0.47364033  1
  H  H60  1  0.76845282  0.54234384  0.02635967  1
  H  H61  1  0.26845282  0.95765616  0.97364033  1
  H  H62  1  0.23154718  0.04234384  0.47364033  1
  H  H63  1  0.73154718  0.45765616  0.52635967  1
  O  O64  1  0.50540864  0.34388276  0.35590355  1
  O  O65  1  0.00540864  0.15611724  0.64409645  1
  O  O66  1  0.49459136  0.84388276  0.14409645  1
  O  O67  1  0.99459136  0.65611724  0.85590355  1
  O  O68  1  0.49459136  0.65611724  0.64409645  1
  O  O69  1  0.99459136  0.84388276  0.35590355  1
  O  O70  1  0.50540864  0.15611724  0.85590355  1
  O  O71  1  0.00540864  0.34388276  0.14409645  1
  O  O72  1  0.66034239  0.10964845  0.29588840  1
  O  O73  1  0.16034239  0.39035155  0.70411160  1
  O  O74  1  0.33965761  0.60964845  0.20411160  1
  O  O75  1  0.83965761  0.89035155  0.79588840  1
  O  O76  1  0.33965761  0.89035155  0.70411160  1
  O  O77  1  0.83965761  0.60964845  0.29588840  1
  O  O78  1  0.66034239  0.39035155  0.79588840  1
  O  O79  1  0.16034239  0.10964845  0.20411160  1
  O  O80  1  0.49545680  0.01077095  0.40305137  1
  O  O81  1  0.99545680  0.48922905  0.59694863  1
  O  O82  1  0.50454320  0.51077095  0.09694863  1
  O  O83  1  0.00454320  0.98922905  0.90305137  1
  O  O84  1  0.50454320  0.98922905  0.59694863  1
  O  O85  1  0.00454320  0.51077095  0.40305137  1
  O  O86  1  0.49545680  0.48922905  0.90305137  1
  O  O87  1  0.99545680  0.01077095  0.09694863  1
  O  O88  1  0.44006004  0.10677516  0.24974009  1
  O  O89  1  0.94006004  0.39322484  0.75025991  1
  O  O90  1  0.55993996  0.60677516  0.25025991  1
  O  O91  1  0.05993996  0.89322484  0.74974009  1
  O  O92  1  0.55993996  0.89322484  0.75025991  1
  O  O93  1  0.05993996  0.60677516  0.24974009  1
  O  O94  1  0.44006004  0.39322484  0.74974009  1
  O  O95  1  0.94006004  0.10677516  0.25025991  1
  O  O96  1  0.81161574  0.02994304  0.42546516  1
  O  O97  1  0.31161574  0.47005696  0.57453484  1
  O  O98  1  0.18838426  0.52994304  0.07453484  1
  O  O99  1  0.68838426  0.97005696  0.92546516  1
  O  O100  1  0.18838426  0.97005696  0.57453484  1
  O  O101  1  0.68838426  0.52994304  0.42546516  1
  O  O102  1  0.81161574  0.47005696  0.92546516  1
  O  O103  1  0.31161574  0.02994304  0.07453484  1
  O  O104  1  0.76274330  0.08365087  0.08412929  1
  O  O105  1  0.26274330  0.41634913  0.91587071  1
  O  O106  1  0.23725670  0.58365087  0.41587071  1
  O  O107  1  0.73725670  0.91634913  0.58412929  1
  O  O108  1  0.23725670  0.91634913  0.91587071  1
  O  O109  1  0.73725670  0.58365087  0.08412929  1
  O  O110  1  0.76274330  0.41634913  0.58412929  1
  O  O111  1  0.26274330  0.08365087  0.41587071  1
