# generated using pymatgen
data_InCuPO5
_symmetry_space_group_name_H-M   'P 1'
_cell_length_a   6.71456215
_cell_length_b   7.38048406
_cell_length_c   7.93096737
_cell_angle_alpha   90.03267359
_cell_angle_beta   90.02132815
_cell_angle_gamma   89.99266420
_symmetry_Int_Tables_number   1
_chemical_formula_structural   InCuPO5
_chemical_formula_sum   'In4 Cu4 P4 O20'
_cell_volume   393.03262658
_cell_formula_units_Z   4
loop_
 _symmetry_equiv_pos_site_id
 _symmetry_equiv_pos_as_xyz
  1  'x, y, z'
loop_
 _atom_site_type_symbol
 _atom_site_label
 _atom_site_symmetry_multiplicity
 _atom_site_fract_x
 _atom_site_fract_y
 _atom_site_fract_z
 _atom_site_occupancy
  In  In0  1  0.25002675  0.21116514  0.17403314  1
  In  In1  1  0.74997854  0.71111976  0.32610864  1
  In  In2  1  0.74997286  0.78882186  0.82597800  1
  In  In3  1  0.25003583  0.28888492  0.67389961  1
  Cu  Cu4  1  0.99998168  0.99998780  0.49999017  1
  Cu  Cu5  1  0.49999682  0.50001027  0.99999007  1
  Cu  Cu6  1  0.99999471  0.50000012  0.99998133  1
  Cu  Cu7  1  0.50001504  0.99998860  0.49999988  1
  P  P8  1  0.24998635  0.64187534  0.39155490  1
  P  P9  1  0.75002071  0.14181324  0.10819563  1
  P  P10  1  0.75002120  0.35816257  0.60843226  1
  P  P11  1  0.24997483  0.85815000  0.89172847  1
  O  O12  1  0.74999062  0.04842100  0.93647331  1
  O  O13  1  0.06324459  0.76926163  0.37691231  1
  O  O14  1  0.43673034  0.76922367  0.37696476  1
  O  O15  1  0.24995169  0.98920829  0.74067422  1
  O  O16  1  0.56327291  0.23077655  0.62303755  1
  O  O17  1  0.75004701  0.01081057  0.25935056  1
  O  O18  1  0.43673202  0.73075894  0.87685901  1
  O  O19  1  0.56324183  0.26925081  0.12312154  1
  O  O20  1  0.93675697  0.26924733  0.12313759  1
  O  O21  1  0.06325545  0.73077001  0.87685344  1
  O  O22  1  0.75010271  0.87543125  0.57002221  1
  O  O23  1  0.24997338  0.37512659  0.92995117  1
  O  O24  1  0.24989849  0.12452632  0.42998982  1
  O  O25  1  0.74998843  0.45162897  0.43638217  1
  O  O26  1  0.24996817  0.51089868  0.24065531  1
  O  O27  1  0.25001334  0.95159798  0.06359746  1
  O  O28  1  0.24999950  0.54837608  0.56364162  1
  O  O29  1  0.75002874  0.62485066  0.07006502  1
  O  O30  1  0.75002986  0.48911591  0.75933195  1
  O  O31  1  0.93676862  0.23073912  0.62308690  1
