# generated using pymatgen
data_Cd13I28
_symmetry_space_group_name_H-M   'P 1'
_cell_length_a   4.33817613
_cell_length_b   4.33936704
_cell_length_c   102.42968482
_cell_angle_alpha   90.00000000
_cell_angle_beta   90.00079242
_cell_angle_gamma   120.00907739
_symmetry_Int_Tables_number   1
_chemical_formula_structural   Cd13I28
_chemical_formula_sum   'Cd13 I28'
_cell_volume   1669.74558140
_cell_formula_units_Z   1
loop_
 _symmetry_equiv_pos_site_id
 _symmetry_equiv_pos_as_xyz
  1  'x, y, z'
loop_
 _atom_site_type_symbol
 _atom_site_label
 _atom_site_symmetry_multiplicity
 _atom_site_fract_x
 _atom_site_fract_y
 _atom_site_fract_z
 _atom_site_occupancy
  Cd  Cd0  1  0.33339547  0.66669774  0.01788213  1
  Cd  Cd1  1  0.00012718  0.00006359  0.08968670  1
  Cd  Cd2  1  -0.00008758  -0.00004379  0.23169233  1
  Cd  Cd3  1  0.33335910  0.66667955  0.30358590  1
  Cd  Cd4  1  0.00010806  0.00005403  0.37500111  1
  Cd  Cd5  1  0.33331175  0.66665587  0.44637221  1
  Cd  Cd6  1  -0.00007716  -0.00003858  0.51783560  1
  Cd  Cd7  1  0.33338197  0.66669098  0.58930502  1
  Cd  Cd8  1  0.00001431  0.00000715  0.66073688  1
  Cd  Cd9  1  0.33329026  0.66664513  0.73213312  1
  Cd  Cd10  1  0.00006298  0.00003149  0.80357939  1
  Cd  Cd11  1  0.33338989  0.66669495  0.87498348  1
  Cd  Cd12  1  0.33328182  0.66664091  0.94637498  1
  I  I13  1  0.00015903  0.00007951  0.00100679  1
  I  I14  1  0.66673126  0.33336563  0.03470128  1
  I  I15  1  0.33372327  0.66686164  0.07277983  1
  I  I16  1  0.66646557  0.33323278  0.10650983  1
  I  I17  1  0.00068011  0.00034006  0.14909879  1
  I  I18  1  0.66550870  0.33275435  0.17249493  1
  I  I19  1  0.33336611  0.66668306  0.21484007  1
  I  I20  1  0.66636522  0.33318261  0.24857660  1
  I  I21  1  0.00012866  0.00006433  0.28674169  1
  I  I22  1  0.66678480  0.33339240  0.32040592  1
  I  I23  1  0.33347147  0.66673574  0.35815377  1
  I  I24  1  0.66652578  0.33326289  0.39184012  1
  I  I25  1  -0.00004485  -0.00002243  0.42960836  1
  I  I26  1  0.66655184  0.33327592  0.46327193  1
  I  I27  1  0.33334219  0.66667109  0.50102088  1
  I  I28  1  0.66636892  0.33318446  0.53470210  1
  I  I29  1  0.00015792  0.00007896  0.57243906  1
  I  I30  1  0.66669880  0.33334940  0.60610640  1
  I  I31  1  0.33343230  0.66671615  0.64385110  1
  I  I32  1  0.66663070  0.33331535  0.67754043  1
  I  I33  1  -0.00000242  -0.00000121  0.71530970  1
  I  I34  1  0.66653735  0.33326868  0.74899158  1
  I  I35  1  0.33347949  0.66673974  0.78673385  1
  I  I36  1  0.66661314  0.33330657  0.82041699  1
  I  I37  1  0.00008318  0.00004159  0.85822178  1
  I  I38  1  0.66674903  0.33337452  0.89188552  1
  I  I39  1  -0.00001779  -0.00000889  0.92960677  1
  I  I40  1  0.66655218  0.33327609  0.96326505  1
