# generated using pymatgen
data_H22IrC3(N3O4)2
_symmetry_space_group_name_H-M   'P 1'
_cell_length_a   9.70501299
_cell_length_b   10.42605266
_cell_length_c   13.47259468
_cell_angle_alpha   90.00000000
_cell_angle_beta   90.00000000
_cell_angle_gamma   90.00000000
_symmetry_Int_Tables_number   1
_chemical_formula_structural   H22IrC3(N3O4)2
_chemical_formula_sum   'H88 Ir4 C12 N24 O32'
_cell_volume   1363.22417609
_cell_formula_units_Z   4
loop_
 _symmetry_equiv_pos_site_id
 _symmetry_equiv_pos_as_xyz
  1  'x, y, z'
loop_
 _atom_site_type_symbol
 _atom_site_label
 _atom_site_symmetry_multiplicity
 _atom_site_fract_x
 _atom_site_fract_y
 _atom_site_fract_z
 _atom_site_occupancy
  H  H0  1  0.64705247  0.00690152  0.83334978  1
  H  H1  1  0.35294753  0.99309848  0.83334978  1
  H  H2  1  0.14705247  0.49309848  0.66665022  1
  H  H3  1  0.85294753  0.50690152  0.66665022  1
  H  H4  1  0.35294753  0.99309848  0.16665022  1
  H  H5  1  0.64705247  0.00690152  0.16665022  1
  H  H6  1  0.85294753  0.50690152  0.33334978  1
  H  H7  1  0.14705247  0.49309848  0.33334978  1
  H  H8  1  0.59703287  0.85426060  0.85100610  1
  H  H9  1  0.40296713  0.14573940  0.85100610  1
  H  H10  1  0.09703287  0.64573940  0.64899390  1
  H  H11  1  0.90296713  0.35426060  0.64899390  1
  H  H12  1  0.40296713  0.14573940  0.14899390  1
  H  H13  1  0.59703287  0.85426060  0.14899390  1
  H  H14  1  0.90296713  0.35426060  0.35100610  1
  H  H15  1  0.09703287  0.64573940  0.35100610  1
  H  H16  1  0.72843205  0.91407747  0.91544143  1
  H  H17  1  0.27156795  0.08592253  0.91544143  1
  H  H18  1  0.22843205  0.58592253  0.58455857  1
  H  H19  1  0.77156795  0.41407747  0.58455857  1
  H  H20  1  0.27156795  0.08592253  0.08455857  1
  H  H21  1  0.72843205  0.91407747  0.08455857  1
  H  H22  1  0.77156795  0.41407747  0.41544143  1
  H  H23  1  0.22843205  0.58592253  0.41544143  1
  H  H24  1  0.55085694  0.23910609  0.93939139  1
  H  H25  1  0.44914306  0.76089391  0.93939139  1
  H  H26  1  0.05085694  0.26089391  0.56060861  1
  H  H27  1  0.94914306  0.73910609  0.56060861  1
  H  H28  1  0.44914306  0.76089391  0.06060861  1
  H  H29  1  0.55085694  0.23910609  0.06060861  1
  H  H30  1  0.94914306  0.73910609  0.43939139  1
  H  H31  1  0.05085694  0.26089391  0.43939139  1
  H  H32  1  0.68821644  0.18105768  0.00000000  1
  H  H33  1  0.31178356  0.81894232  0.00000000  1
  H  H34  1  0.18821644  0.31894232  0.50000000  1
  H  H35  1  0.81178356  0.68105768  0.50000000  1
  H  H36  1  0.01896551  0.35150795  0.84019423  1
  H  H37  1  0.98103449  0.64849205  0.84019423  1
  H  H38  1  0.51896551  0.14849205  0.65980577  1
  H  H39  1  0.48103449  0.85150795  0.65980577  1
  H  H40  1  0.98103449  0.64849205  0.15980577  1
  H  H41  1  0.01896551  0.35150795  0.15980577  1
  H  H42  1  0.48103449  0.85150795  0.34019423  1
  H  H43  1  0.51896551  0.14849205  0.34019423  1
  H  H44  1  0.91572243  0.27841023  0.92208148  1
  H  H45  1  0.08427757  0.72158977  0.92208148  1
  H  H46  1  0.41572243  0.22158977  0.57791852  1
  H  H47  1  0.58427757  0.77841023  0.57791852  1
  H  H48  1  0.08427757  0.72158977  0.07791852  1
  H  H49  1  0.91572243  0.27841023  0.07791852  1
  H  H50  1  0.58427757  0.77841023  0.42208148  1
  H  H51  1  0.41572243  0.22158977  0.42208148  1
  H  H52  1  0.85330763  0.39575127  0.85277474  1
  H  H53  1  0.14669237  0.60424873  0.85277474  1
  H  H54  1  0.35330763  0.10424873  0.64722526  1
  H  H55  1  0.64669237  0.89575127  0.64722526  1
  H  H56  1  0.14669237  0.60424873  0.14722526  1
  H  H57  1  0.85330763  0.39575127  0.14722526  1
  H  H58  1  0.64669237  0.89575127  0.35277474  1
  H  H59  1  0.35330763  0.10424873  0.35277474  1
  H  H60  1  0.74682698  0.57149551  0.93877719  1
  H  H61  1  0.25317302  0.42850449  0.93877719  1
  H  H62  1  0.24682698  0.92850449  0.56122281  1
  H  H63  1  0.75317302  0.07149551  0.56122281  1
  H  H64  1  0.25317302  0.42850449  0.06122281  1
  H  H65  1  0.74682698  0.57149551  0.06122281  1
  H  H66  1  0.75317302  0.07149551  0.43877719  1
  H  H67  1  0.24682698  0.92850449  0.43877719  1
  H  H68  1  0.82400384  0.69059531  0.00000000  1
  H  H69  1  0.17599616  0.30940469  0.00000000  1
  H  H70  1  0.32400384  0.80940469  0.50000000  1
  H  H71  1  0.67599616  0.19059531  0.50000000  1
  H  H72  1  0.76746457  0.14901052  0.73007393  1
  H  H73  1  0.23253543  0.85098948  0.73007393  1
  H  H74  1  0.26746457  0.35098948  0.76992607  1
  H  H75  1  0.73253543  0.64901052  0.76992607  1
  H  H76  1  0.23253543  0.85098948  0.26992607  1
  H  H77  1  0.76746457  0.14901052  0.26992607  1
  H  H78  1  0.73253543  0.64901052  0.23007393  1
  H  H79  1  0.26746457  0.35098948  0.23007393  1
  H  H80  1  0.66096107  0.24171950  0.78449937  1
  H  H81  1  0.33903893  0.75828050  0.78449937  1
  H  H82  1  0.16096107  0.25828050  0.71550063  1
  H  H83  1  0.83903893  0.74171950  0.71550063  1
  H  H84  1  0.33903893  0.75828050  0.21550063  1
  H  H85  1  0.66096107  0.24171950  0.21550063  1
  H  H86  1  0.83903893  0.74171950  0.28449937  1
  H  H87  1  0.16096107  0.25828050  0.28449937  1
  Ir  Ir88  1  0.50000000  0.00000000  0.00000000  1
  Ir  Ir89  1  0.00000000  0.50000000  0.50000000  1
  Ir  Ir90  1  0.00000000  0.50000000  0.00000000  1
  Ir  Ir91  1  0.50000000  0.00000000  0.50000000  1
  C  C92  1  0.99835866  0.07537696  0.00000000  1
  C  C93  1  0.00164134  0.92462304  0.00000000  1
  C  C94  1  0.49835866  0.42462304  0.50000000  1
  C  C95  1  0.50164134  0.57537696  0.50000000  1
  C  C96  1  0.52332400  0.42807850  0.82716924  1
  C  C97  1  0.47667600  0.57192150  0.82716924  1
  C  C98  1  0.02332400  0.07192150  0.67283076  1
  C  C99  1  0.97667600  0.92807850  0.67283076  1
  C  C100  1  0.47667600  0.57192150  0.17283076  1
  C  C101  1  0.52332400  0.42807850  0.17283076  1
  C  C102  1  0.97667600  0.92807850  0.32716924  1
  C  C103  1  0.02332400  0.07192150  0.32716924  1
  N  N104  1  0.63289915  0.93562511  0.88607073  1
  N  N105  1  0.36710085  0.06437489  0.88607073  1
  N  N106  1  0.13289915  0.56437489  0.61392927  1
  N  N107  1  0.86710085  0.43562511  0.61392927  1
  N  N108  1  0.36710085  0.06437489  0.11392927  1
  N  N109  1  0.63289915  0.93562511  0.11392927  1
  N  N110  1  0.86710085  0.43562511  0.38607073  1
  N  N111  1  0.13289915  0.56437489  0.38607073  1
  N  N112  1  0.58236136  0.18654580  0.00000000  1
  N  N113  1  0.41763864  0.81345420  0.00000000  1
  N  N114  1  0.08236136  0.31345420  0.50000000  1
  N  N115  1  0.91763864  0.68654580  0.50000000  1
  N  N116  1  0.93978091  0.36634054  0.89047944  1
  N  N117  1  0.06021909  0.63365946  0.89047944  1
  N  N118  1  0.43978091  0.13365946  0.60952056  1
  N  N119  1  0.56021909  0.86634054  0.60952056  1
  N  N120  1  0.06021909  0.63365946  0.10952056  1
  N  N121  1  0.93978091  0.36634054  0.10952056  1
  N  N122  1  0.56021909  0.86634054  0.39047944  1
  N  N123  1  0.43978091  0.13365946  0.39047944  1
  N  N124  1  0.80618648  0.59241459  0.00000000  1
  N  N125  1  0.19381352  0.40758541  0.00000000  1
  N  N126  1  0.30618648  0.90758541  0.50000000  1
  N  N127  1  0.69381352  0.09241459  0.50000000  1
  O  O128  1  0.88050244  0.12826001  0.00000000  1
  O  O129  1  0.11949756  0.87173999  0.00000000  1
  O  O130  1  0.38050244  0.37173999  0.50000000  1
  O  O131  1  0.61949756  0.62826001  0.50000000  1
  O  O132  1  0.11281792  0.13422748  0.00000000  1
  O  O133  1  0.88718208  0.86577252  0.00000000  1
  O  O134  1  0.61281792  0.36577252  0.50000000  1
  O  O135  1  0.38718208  0.63422748  0.50000000  1
  O  O136  1  0.65212939  0.40580286  0.82472668  1
  O  O137  1  0.34787061  0.59419714  0.82472668  1
  O  O138  1  0.15212939  0.09419714  0.67527332  1
  O  O139  1  0.84787061  0.90580286  0.67527332  1
  O  O140  1  0.34787061  0.59419714  0.17527332  1
  O  O141  1  0.65212939  0.40580286  0.17527332  1
  O  O142  1  0.84787061  0.90580286  0.32472668  1
  O  O143  1  0.15212939  0.09419714  0.32472668  1
  O  O144  1  0.43046574  0.34245617  0.83240477  1
  O  O145  1  0.56953426  0.65754383  0.83240477  1
  O  O146  1  0.93046574  0.15754383  0.66759523  1
  O  O147  1  0.06953426  0.84245617  0.66759523  1
  O  O148  1  0.56953426  0.65754383  0.16759523  1
  O  O149  1  0.43046574  0.34245617  0.16759523  1
  O  O150  1  0.06953426  0.84245617  0.33240477  1
  O  O151  1  0.93046574  0.15754383  0.33240477  1
  O  O152  1  0.67212953  0.15378633  0.75691972  1
  O  O153  1  0.32787047  0.84621367  0.75691972  1
  O  O154  1  0.17212953  0.34621367  0.74308028  1
  O  O155  1  0.82787047  0.65378633  0.74308028  1
  O  O156  1  0.32787047  0.84621367  0.24308028  1
  O  O157  1  0.67212953  0.15378633  0.24308028  1
  O  O158  1  0.82787047  0.65378633  0.25691972  1
  O  O159  1  0.17212953  0.34621367  0.25691972  1
