# generated using pymatgen
data_Mo(PO3)4
_symmetry_space_group_name_H-M   'P 1'
_cell_length_a   7.41071838
_cell_length_b   8.48657098
_cell_length_c   9.34332995
_cell_angle_alpha   115.02017696
_cell_angle_beta   113.38228010
_cell_angle_gamma   64.10859594
_symmetry_Int_Tables_number   1
_chemical_formula_structural   Mo(PO3)4
_chemical_formula_sum   'Mo2 P8 O24'
_cell_volume   462.51562808
_cell_formula_units_Z   2
loop_
 _symmetry_equiv_pos_site_id
 _symmetry_equiv_pos_as_xyz
  1  'x, y, z'
loop_
 _atom_site_type_symbol
 _atom_site_label
 _atom_site_symmetry_multiplicity
 _atom_site_fract_x
 _atom_site_fract_y
 _atom_site_fract_z
 _atom_site_occupancy
  Mo  Mo0  1  0.14369776  0.24987929  0.25005499  1
  Mo  Mo1  1  0.85630224  0.75012071  0.74994501  1
  P  P2  1  0.56078514  0.87603679  0.13120985  1
  P  P3  1  0.03021723  0.10860114  0.82731013  1
  P  P4  1  0.43921486  0.12396321  0.86879015  1
  P  P5  1  0.30585577  0.62364119  0.36868072  1
  P  P6  1  0.31143454  0.39159388  0.67272730  1
  P  P7  1  0.96978277  0.89139886  0.17268987  1
  P  P8  1  0.69414423  0.37635881  0.63131928  1
  P  P9  1  0.68856546  0.60840612  0.32727270  1
  O  O10  1  0.48225566  0.56239673  0.27813123  1
  O  O11  1  0.85778831  0.20209585  0.69499440  1
  O  O12  1  0.99829664  0.93051217  0.79040648  1
  O  O13  1  0.20758021  0.46989968  0.27614322  1
  O  O14  1  0.14221169  0.79790415  0.30500560  1
  O  O15  1  0.97072110  0.76331408  0.00140162  1
  O  O16  1  0.26768006  0.26324917  0.50150112  1
  O  O17  1  0.40148071  0.02984088  0.22385095  1
  O  O18  1  0.86188787  0.43038191  0.29078637  1
  O  O19  1  0.23352714  0.06262531  0.77842298  1
  O  O20  1  0.79241979  0.53010032  0.72385678  1
  O  O21  1  0.50768889  0.81055989  0.95181567  1
  O  O22  1  0.76647286  0.93737469  0.22157702  1
  O  O23  1  0.49231111  0.18944011  0.04818433  1
  O  O24  1  0.00170336  0.06948783  0.20959352  1
  O  O25  1  0.73231994  0.73675083  0.49849888  1
  O  O26  1  0.36453532  0.29827567  0.80508702  1
  O  O27  1  0.51774434  0.43760327  0.72186877  1
  O  O28  1  0.36698556  0.68921635  0.54807351  1
  O  O29  1  0.13811213  0.56961809  0.70921363  1
  O  O30  1  0.59851929  0.97015912  0.77614905  1
  O  O31  1  0.02927890  0.23668592  0.99859838  1
  O  O32  1  0.63301444  0.31078365  0.45192649  1
  O  O33  1  0.63546468  0.70172433  0.19491298  1
