# generated using pymatgen
data_Mo(PO3)4
_symmetry_space_group_name_H-M   'P 1'
_cell_length_a   7.65523987
_cell_length_b   13.12994323
_cell_length_c   9.37727482
_cell_angle_alpha   90.00000000
_cell_angle_beta   89.92851214
_cell_angle_gamma   90.00000000
_symmetry_Int_Tables_number   1
_chemical_formula_structural   Mo(PO3)4
_chemical_formula_sum   'Mo4 P16 O48'
_cell_volume   942.53602336
_cell_formula_units_Z   4
loop_
 _symmetry_equiv_pos_site_id
 _symmetry_equiv_pos_as_xyz
  1  'x, y, z'
loop_
 _atom_site_type_symbol
 _atom_site_label
 _atom_site_symmetry_multiplicity
 _atom_site_fract_x
 _atom_site_fract_y
 _atom_site_fract_z
 _atom_site_occupancy
  Mo  Mo0  1  0.91039239  0.22629129  0.01517539  1
  Mo  Mo1  1  0.08960761  0.77370871  0.98482461  1
  Mo  Mo2  1  0.41039239  0.27370871  0.51517539  1
  Mo  Mo3  1  0.58960761  0.72629129  0.48482461  1
  P  P4  1  0.70885624  0.13438244  0.73024415  1
  P  P5  1  0.70063720  0.57949318  0.22496817  1
  P  P6  1  0.79936280  0.07949318  0.27503183  1
  P  P7  1  0.79114376  0.63438244  0.76975585  1
  P  P8  1  0.20063720  0.92050682  0.72496817  1
  P  P9  1  0.41023272  0.64269951  0.78092273  1
  P  P10  1  0.91111695  0.41217723  0.74283731  1
  P  P11  1  0.29114376  0.86561756  0.26975585  1
  P  P12  1  0.08888305  0.58782277  0.25716269  1
  P  P13  1  0.58976728  0.35730049  0.21907727  1
  P  P14  1  0.20885624  0.36561756  0.23024415  1
  P  P15  1  0.41111695  0.08782277  0.24283731  1
  P  P16  1  0.08976728  0.14269951  0.71907727  1
  P  P17  1  0.91023272  0.85730049  0.28092273  1
  P  P18  1  0.29936280  0.42050682  0.77503183  1
  P  P19  1  0.58888305  0.91217723  0.75716269  1
  O  O20  1  0.80295793  0.15298120  0.39192158  1
  O  O21  1  0.58843547  0.60108235  0.35984496  1
  O  O22  1  0.08843547  0.89891765  0.85984496  1
  O  O23  1  0.13732095  0.03089915  0.66896572  1
  O  O24  1  0.41156453  0.39891765  0.64015504  1
  O  O25  1  0.10583728  0.84511961  0.34007117  1
  O  O26  1  0.17750957  0.48197087  0.20002023  1
  O  O27  1  0.91156453  0.10108235  0.14015504  1
  O  O28  1  0.69704207  0.65298120  0.10807842  1
  O  O29  1  0.19870039  0.21627776  0.63599694  1
  O  O30  1  0.59301328  0.84796646  0.62019908  1
  O  O31  1  0.56994101  0.19449084  0.65418994  1
  O  O32  1  0.86267905  0.96910085  0.33103428  1
  O  O33  1  0.58889364  0.34875519  0.37953212  1
  O  O34  1  0.06994101  0.30550916  0.15418994  1
  O  O35  1  0.40698672  0.15203354  0.37980092  1
  O  O36  1  0.82249043  0.51802913  0.79997977  1
  O  O37  1  0.67750957  0.01802913  0.70002023  1
  O  O38  1  0.36267905  0.53089915  0.83103428  1
  O  O39  1  0.22224329  0.34302210  0.38937459  1
  O  O40  1  0.43005899  0.80550916  0.34581006  1
  O  O41  1  0.93005899  0.69449084  0.84581006  1
  O  O42  1  0.82832652  0.37349011  0.61310217  1
  O  O43  1  0.30129961  0.71627776  0.86400306  1
  O  O44  1  0.69870039  0.28372224  0.13599694  1
  O  O45  1  0.60583728  0.65488039  0.84007117  1
  O  O46  1  0.10856955  0.44927890  0.71456145  1
  O  O47  1  0.72224329  0.15697790  0.88937459  1
  O  O48  1  0.89416272  0.15488039  0.65992883  1
  O  O49  1  0.91110636  0.84875519  0.12046788  1
  O  O50  1  0.17167348  0.62650989  0.38689783  1
  O  O51  1  0.80129961  0.78372224  0.36400306  1
  O  O52  1  0.39143045  0.94927890  0.78543855  1
  O  O53  1  0.41110636  0.65124481  0.62046788  1
  O  O54  1  0.19704207  0.84701880  0.60807842  1
  O  O55  1  0.60856955  0.05072110  0.21456145  1
  O  O56  1  0.67167348  0.87349011  0.88689783  1
  O  O57  1  0.77775671  0.65697790  0.61062541  1
  O  O58  1  0.27775671  0.84302210  0.11062541  1
  O  O59  1  0.89143045  0.55072110  0.28543855  1
  O  O60  1  0.63732095  0.46910085  0.16896572  1
  O  O61  1  0.08889364  0.15124481  0.87953212  1
  O  O62  1  0.32832652  0.12650989  0.11310217  1
  O  O63  1  0.30295793  0.34701880  0.89192158  1
  O  O64  1  0.32249043  0.98197087  0.29997977  1
  O  O65  1  0.90698672  0.34796646  0.87980092  1
  O  O66  1  0.39416272  0.34511961  0.15992883  1
  O  O67  1  0.09301328  0.65203354  0.12019908  1
