# generated using pymatgen
data_CdH16C4S4(N4Cl)2
_symmetry_space_group_name_H-M   'P 1'
_cell_length_a   14.11382077
_cell_length_b   14.11382074
_cell_length_c   9.45011258
_cell_angle_alpha   89.99999868
_cell_angle_beta   90.00000107
_cell_angle_gamma   89.99999631
_symmetry_Int_Tables_number   1
_chemical_formula_structural   CdH16C4S4(N4Cl)2
_chemical_formula_sum   'Cd4 H64 C16 S16 N32 Cl8'
_cell_volume   1882.46182400
_cell_formula_units_Z   4
loop_
 _symmetry_equiv_pos_site_id
 _symmetry_equiv_pos_as_xyz
  1  'x, y, z'
loop_
 _atom_site_type_symbol
 _atom_site_label
 _atom_site_symmetry_multiplicity
 _atom_site_fract_x
 _atom_site_fract_y
 _atom_site_fract_z
 _atom_site_occupancy
  Cd  Cd0  1  0.00000000  0.50000000  0.00000000  1
  Cd  Cd1  1  0.50000000  0.00000000  0.00000000  1
  Cd  Cd2  1  0.00000000  0.00000000  0.50000000  1
  Cd  Cd3  1  0.50000000  0.50000000  0.50000000  1
  H  H4  1  0.00570413  0.20062399  0.22374151  1
  H  H5  1  0.49429585  0.29937601  0.22374154  1
  H  H6  1  0.70062399  0.99429584  0.72374154  1
  H  H7  1  0.79937602  0.50570413  0.72374154  1
  H  H8  1  0.99429587  0.79937601  0.77625849  1
  H  H9  1  0.50570415  0.70062399  0.77625846  1
  H  H10  1  0.29937601  0.00570416  0.27625846  1
  H  H11  1  0.20062398  0.49429587  0.27625846  1
  H  H12  1  0.33292817  0.29670469  0.96622963  1
  H  H13  1  0.16707185  0.20329537  0.96622971  1
  H  H14  1  0.79670470  0.66707181  0.46622973  1
  H  H15  1  0.70329530  0.83292812  0.46622968  1
  H  H16  1  0.66707183  0.70329531  0.03377037  1
  H  H17  1  0.83292815  0.79670463  0.03377029  1
  H  H18  1  0.20329530  0.33292819  0.53377027  1
  H  H19  1  0.29670470  0.16707188  0.53377032  1
  H  H20  1  0.30922160  0.50778235  0.77055609  1
  H  H21  1  0.19077837  0.99221767  0.77055610  1
  H  H22  1  0.00778235  0.69077837  0.27055612  1
  H  H23  1  0.49221767  0.80922161  0.27055610  1
  H  H24  1  0.69077840  0.49221765  0.22944391  1
  H  H25  1  0.80922163  0.00778233  0.22944390  1
  H  H26  1  0.99221765  0.30922163  0.72944388  1
  H  H27  1  0.50778233  0.19077839  0.72944390  1
  H  H28  1  0.19936696  0.53898335  0.84292937  1
  H  H29  1  0.30063305  0.96101664  0.84292929  1
  H  H30  1  0.03898335  0.80063306  0.34292926  1
  H  H31  1  0.46101661  0.69936693  0.34292934  1
  H  H32  1  0.80063304  0.46101665  0.15707063  1
  H  H33  1  0.69936695  0.03898336  0.15707071  1
  H  H34  1  0.96101665  0.19936694  0.65707074  1
  H  H35  1  0.53898339  0.30063307  0.65707066  1
  H  H36  1  0.38884440  0.37938775  0.85385749  1
  H  H37  1  0.11115567  0.12061229  0.85385764  1
  H  H38  1  0.87938768  0.61115559  0.35385751  1
  H  H39  1  0.62061232  0.88884437  0.35385757  1
  H  H40  1  0.61115560  0.62061225  0.14614251  1
  H  H41  1  0.88884433  0.87938771  0.14614236  1
  H  H42  1  0.12061232  0.38884441  0.64614249  1
  H  H43  1  0.37938768  0.11115563  0.64614243  1
  H  H44  1  0.92777113  0.10761783  0.06926109  1
  H  H45  1  0.57222884  0.39238219  0.06926115  1
  H  H46  1  0.60761787  0.07222891  0.56926105  1
  H  H47  1  0.89238218  0.42777116  0.56926111  1
  H  H48  1  0.07222887  0.89238217  0.93073891  1
  H  H49  1  0.42777116  0.60761781  0.93073885  1
  H  H50  1  0.39238213  0.92777109  0.43073895  1
  H  H51  1  0.10761782  0.57222884  0.43073889  1
  H  H52  1  0.99617837  0.32493378  0.21848934  1
  H  H53  1  0.50382160  0.17506620  0.21848931  1
  H  H54  1  0.82493373  0.00382167  0.71848932  1
  H  H55  1  0.67506625  0.49617835  0.71848938  1
  H  H56  1  0.00382163  0.67506622  0.78151066  1
  H  H57  1  0.49617840  0.82493380  0.78151069  1
  H  H58  1  0.17506627  0.99617833  0.28151068  1
  H  H59  1  0.32493375  0.50382165  0.28151062  1
  H  H60  1  0.85389759  0.15715781  0.93908143  1
  H  H61  1  0.64610242  0.34284220  0.93908134  1
  H  H62  1  0.65715781  0.14610239  0.43908138  1
  H  H63  1  0.84284220  0.35389755  0.43908139  1
  H  H64  1  0.14610241  0.84284219  0.06091857  1
  H  H65  1  0.35389758  0.65715780  0.06091866  1
  H  H66  1  0.34284219  0.85389761  0.56091862  1
  H  H67  1  0.15715780  0.64610245  0.56091861  1
  C  C68  1  0.25276614  0.41223658  0.91137507  1
  C  C69  1  0.24723391  0.08776354  0.91137487  1
  C  C70  1  0.91223650  0.74723369  0.41137508  1
  C  C71  1  0.58776357  0.75276623  0.41137505  1
  C  C72  1  0.74723386  0.58776342  0.08862493  1
  C  C73  1  0.75276609  0.91223646  0.08862513  1
  C  C74  1  0.08776350  0.25276631  0.58862492  1
  C  C75  1  0.41223643  0.24723377  0.58862495  1
  C  C76  1  0.92246860  0.25304026  0.06410452  1
  C  C77  1  0.57753137  0.24695965  0.06410446  1
  C  C78  1  0.75304032  0.07753134  0.56410425  1
  C  C79  1  0.74695956  0.42246875  0.56410426  1
  C  C80  1  0.07753140  0.74695974  0.93589548  1
  C  C81  1  0.42246863  0.75304035  0.93589554  1
  C  C82  1  0.24695968  0.92246866  0.43589575  1
  C  C83  1  0.25304044  0.57753125  0.43589574  1
  S  S84  1  0.16036134  0.38176239  0.01970666  1
  S  S85  1  0.33963871  0.11823780  0.01970715  1
  S  S86  1  0.88176252  0.83963863  0.51970695  1
  S  S87  1  0.61823778  0.66036134  0.51970671  1
  S  S88  1  0.83963866  0.61823761  0.98029334  1
  S  S89  1  0.66036129  0.88176220  0.98029285  1
  S  S90  1  0.11823748  0.16036137  0.48029305  1
  S  S91  1  0.38176222  0.33963866  0.48029329  1
  S  S92  1  0.87939927  0.34934845  0.97374988  1
  S  S93  1  0.62060053  0.15065180  0.97375016  1
  S  S94  1  0.84934813  0.12060056  0.47374985  1
  S  S95  1  0.65065181  0.37939969  0.47375014  1
  S  S96  1  0.12060073  0.65065155  0.02625012  1
  S  S97  1  0.37939947  0.84934820  0.02624984  1
  S  S98  1  0.15065187  0.87939944  0.52625015  1
  S  S99  1  0.34934819  0.62060031  0.52624986  1
  N  N100  1  0.32988891  0.35710847  0.90715816  1
  N  N101  1  0.17011112  0.14289148  0.90715809  1
  N  N102  1  0.85710834  0.67011084  0.40715820  1
  N  N103  1  0.64289157  0.82988899  0.40715828  1
  N  N104  1  0.67011109  0.64289153  0.09284184  1
  N  N105  1  0.82988888  0.85710852  0.09284191  1
  N  N106  1  0.14289166  0.32988916  0.59284180  1
  N  N107  1  0.35710843  0.17011101  0.59284172  1
  N  N108  1  0.25138339  0.48982273  0.82935765  1
  N  N109  1  0.24861681  0.01017725  0.82935790  1
  N  N110  1  0.98982264  0.74861679  0.32935753  1
  N  N111  1  0.51017732  0.75138322  0.32935775  1
  N  N112  1  0.74861661  0.51017727  0.17064235  1
  N  N113  1  0.75138319  0.98982275  0.17064210  1
  N  N114  1  0.01017736  0.25138321  0.67064247  1
  N  N115  1  0.48982268  0.24861678  0.67064225  1
  N  N116  1  0.90082336  0.16593907  0.01899889  1
  N  N117  1  0.59917674  0.33406097  0.01899892  1
  N  N118  1  0.66593888  0.09917671  0.51899906  1
  N  N119  1  0.83406103  0.40082320  0.51899909  1
  N  N120  1  0.09917664  0.83406093  0.98100111  1
  N  N121  1  0.40082326  0.66593903  0.98100108  1
  N  N122  1  0.33406112  0.90082329  0.48100094  1
  N  N123  1  0.16593897  0.59917680  0.48100091  1
  N  N124  1  0.97834821  0.26021061  0.17853452  1
  N  N125  1  0.52165148  0.23978943  0.17853460  1
  N  N126  1  0.76021071  0.02165159  0.67853464  1
  N  N127  1  0.73978937  0.47834850  0.67853472  1
  N  N128  1  0.02165179  0.73978939  0.82146548  1
  N  N129  1  0.47834852  0.76021057  0.82146540  1
  N  N130  1  0.23978929  0.97834841  0.32146536  1
  N  N131  1  0.26021063  0.52165150  0.32146528  1
  Cl  Cl132  1  0.00005843  0.48739494  0.28419029  1
  Cl  Cl133  1  0.49994172  0.01260524  0.28419021  1
  Cl  Cl134  1  0.98739476  -0.00005869  0.78419005  1
  Cl  Cl135  1  0.51260516  0.50005849  0.78419011  1
  Cl  Cl136  1  -0.00005843  0.51260506  0.71580971  1
  Cl  Cl137  1  0.50005828  0.98739476  0.71580979  1
  Cl  Cl138  1  0.01260524  0.00005869  0.21580995  1
  Cl  Cl139  1  0.48739484  0.49994151  0.21580989  1
