# generated using pymatgen
data_K4ErP6H6ClO21
_symmetry_space_group_name_H-M   'P 1'
_cell_length_a   10.03226133
_cell_length_b   10.03222907
_cell_length_c   12.27385197
_cell_angle_alpha   90.00000000
_cell_angle_beta   90.00000000
_cell_angle_gamma   120.00026305
_symmetry_Int_Tables_number   1
_chemical_formula_structural   K4ErP6H6ClO21
_chemical_formula_sum   'K8 Er2 P12 H12 Cl2 O42'
_cell_volume   1069.80996370
_cell_formula_units_Z   2
loop_
 _symmetry_equiv_pos_site_id
 _symmetry_equiv_pos_as_xyz
  1  'x, y, z'
loop_
 _atom_site_type_symbol
 _atom_site_label
 _atom_site_symmetry_multiplicity
 _atom_site_fract_x
 _atom_site_fract_y
 _atom_site_fract_z
 _atom_site_occupancy
  K  K0  1  0.72495470  0.67573816  0.25000000  1
  K  K1  1  0.95077224  0.27504882  0.25000000  1
  K  K2  1  0.32426352  0.04921373  0.25000000  1
  K  K3  1  0.27504530  0.32426184  0.75000000  1
  K  K4  1  0.04922776  0.72495118  0.75000000  1
  K  K5  1  0.67573648  0.95078627  0.75000000  1
  K  K6  1  0.00000000  0.00000000  0.50000000  1
  K  K7  1  0.00000000  0.00000000  0.00000000  1
  Er  Er8  1  0.33335915  0.66668652  0.25000000  1
  Er  Er9  1  0.66664085  0.33331348  0.75000000  1
  P  P10  1  0.28314272  0.80139798  0.50822005  1
  P  P11  1  0.51825753  0.71686110  0.50822130  1
  P  P12  1  0.19860558  0.48174561  0.50821757  1
  P  P13  1  0.71685728  0.19860202  0.00822005  1
  P  P14  1  0.48174247  0.28313890  0.00822130  1
  P  P15  1  0.80139442  0.51825439  0.00821757  1
  P  P16  1  0.71685728  0.19860202  0.49177995  1
  P  P17  1  0.48174247  0.28313890  0.49177870  1
  P  P18  1  0.80139442  0.51825439  0.49178243  1
  P  P19  1  0.28314272  0.80139798  0.99177995  1
  P  P20  1  0.51825753  0.71686110  0.99177870  1
  P  P21  1  0.19860558  0.48174561  0.99178243  1
  H  H22  1  0.03342411  0.63814868  0.31454469  1
  H  H23  1  0.60473228  0.96658290  0.31454637  1
  H  H24  1  0.36184959  0.39527152  0.31454550  1
  H  H25  1  0.96657589  0.36185132  0.81454469  1
  H  H26  1  0.39526772  0.03341710  0.81454637  1
  H  H27  1  0.63815041  0.60472848  0.81454550  1
  H  H28  1  0.96657589  0.36185132  0.68545531  1
  H  H29  1  0.39526772  0.03341710  0.68545363  1
  H  H30  1  0.63815041  0.60472848  0.68545450  1
  H  H31  1  0.03342411  0.63814868  0.18545531  1
  H  H32  1  0.60473228  0.96658290  0.18545363  1
  H  H33  1  0.36184959  0.39527152  0.18545450  1
  Cl  Cl34  1  0.00000116  0.00000168  0.25000000  1
  Cl  Cl35  1  0.99999884  0.99999832  0.75000000  1
  O  O36  1  0.28252829  0.80659247  0.38567203  1
  O  O37  1  0.52407031  0.71748222  0.38567261  1
  O  O38  1  0.19341575  0.47593509  0.38567015  1
  O  O39  1  0.71747171  0.19340753  0.88567203  1
  O  O40  1  0.47592969  0.28251778  0.88567261  1
  O  O41  1  0.80658425  0.52406491  0.88567015  1
  O  O42  1  0.71747171  0.19340753  0.61432797  1
  O  O43  1  0.47592969  0.28251778  0.61432739  1
  O  O44  1  0.80658425  0.52406491  0.61432985  1
  O  O45  1  0.28252829  0.80659247  0.11432797  1
  O  O46  1  0.52407031  0.71748222  0.11432739  1
  O  O47  1  0.19341575  0.47593509  0.11432985  1
  O  O48  1  0.24376421  0.90098608  0.57479317  1
  O  O49  1  0.65722454  0.75623869  0.57479455  1
  O  O50  1  0.09901415  0.34277529  0.57479230  1
  O  O51  1  0.75623579  0.09901392  0.07479317  1
  O  O52  1  0.34277546  0.24376131  0.07479455  1
  O  O53  1  0.90098585  0.65722471  0.07479230  1
  O  O54  1  0.75623579  0.09901392  0.42520683  1
  O  O55  1  0.34277546  0.24376131  0.42520545  1
  O  O56  1  0.90098585  0.65722471  0.42520770  1
  O  O57  1  0.24376421  0.90098608  0.92520683  1
  O  O58  1  0.65722454  0.75623869  0.92520545  1
  O  O59  1  0.09901415  0.34277529  0.92520770  1
  O  O60  1  0.17168584  0.62276921  0.54804183  1
  O  O61  1  0.45108477  0.82831587  0.54804367  1
  O  O62  1  0.37723227  0.54891762  0.54804309  1
  O  O63  1  0.82831416  0.37723079  0.04804183  1
  O  O64  1  0.54891523  0.17168413  0.04804367  1
  O  O65  1  0.62276773  0.45108238  0.04804309  1
  O  O66  1  0.82831416  0.37723079  0.45195817  1
  O  O67  1  0.54891523  0.17168413  0.45195633  1
  O  O68  1  0.62276773  0.45108238  0.45195691  1
  O  O69  1  0.17168584  0.62276921  0.95195817  1
  O  O70  1  0.45108477  0.82831587  0.95195633  1
  O  O71  1  0.37723227  0.54891762  0.95195691  1
  O  O72  1  0.05810130  0.59599328  0.25000000  1
  O  O73  1  0.53789804  0.94189745  0.25000000  1
  O  O74  1  0.40400706  0.46210544  0.25000000  1
  O  O75  1  0.94189870  0.40400672  0.75000000  1
  O  O76  1  0.46210196  0.05810255  0.75000000  1
  O  O77  1  0.59599294  0.53789456  0.75000000  1
