# generated using pymatgen
data_LaGaS2O
_symmetry_space_group_name_H-M   'P 1'
_cell_length_a   5.59694557
_cell_length_b   5.81315473
_cell_length_c   11.55035090
_cell_angle_alpha   90.00000000
_cell_angle_beta   90.00000000
_cell_angle_gamma   90.00000000
_symmetry_Int_Tables_number   1
_chemical_formula_structural   LaGaS2O
_chemical_formula_sum   'La4 Ga4 S8 O4'
_cell_volume   375.80118444
_cell_formula_units_Z   4
loop_
 _symmetry_equiv_pos_site_id
 _symmetry_equiv_pos_as_xyz
  1  'x, y, z'
loop_
 _atom_site_type_symbol
 _atom_site_label
 _atom_site_symmetry_multiplicity
 _atom_site_fract_x
 _atom_site_fract_y
 _atom_site_fract_z
 _atom_site_occupancy
  O  O0  1  0.50000000  0.37351768  0.25000000  1
  O  O1  1  0.00000000  0.62648232  0.75000000  1
  O  O2  1  0.50000000  0.62648232  0.75000000  1
  O  O3  1  0.00000000  0.37351768  0.25000000  1
  S  S4  1  0.25000000  0.90325582  0.34682219  1
  S  S5  1  0.75000000  0.09674418  0.65317781  1
  S  S6  1  0.75000000  0.90325582  0.15317781  1
  S  S7  1  0.25000000  0.09674418  0.84682219  1
  S  S8  1  0.25000000  0.65807051  0.01114177  1
  S  S9  1  0.75000000  0.34192949  0.98885823  1
  S  S10  1  0.75000000  0.65807051  0.48885823  1
  S  S11  1  0.25000000  0.34192949  0.51114177  1
  Ga  Ga12  1  0.25000000  0.47970914  0.83667944  1
  Ga  Ga13  1  0.75000000  0.52029086  0.16332056  1
  Ga  Ga14  1  0.75000000  0.47970914  0.66332056  1
  Ga  Ga15  1  0.25000000  0.52029086  0.33667944  1
  La  La16  1  0.25000000  0.84931179  0.60806095  1
  La  La17  1  0.75000000  0.15068821  0.39193905  1
  La  La18  1  0.75000000  0.84931179  0.89193905  1
  La  La19  1  0.25000000  0.15068821  0.10806095  1
