# generated using pymatgen
data_KP(HO2)2
_symmetry_space_group_name_H-M   'P 1'
_cell_length_a   7.55230956
_cell_length_b   7.36768888
_cell_length_c   7.54348045
_cell_angle_alpha   90.00000000
_cell_angle_beta   86.14455662
_cell_angle_gamma   90.00000000
_symmetry_Int_Tables_number   1
_chemical_formula_structural   KP(HO2)2
_chemical_formula_sum   'K4 P4 H8 O16'
_cell_volume   418.79245755
_cell_formula_units_Z   4
loop_
 _symmetry_equiv_pos_site_id
 _symmetry_equiv_pos_as_xyz
  1  'x, y, z'
loop_
 _atom_site_type_symbol
 _atom_site_label
 _atom_site_symmetry_multiplicity
 _atom_site_fract_x
 _atom_site_fract_y
 _atom_site_fract_z
 _atom_site_occupancy
  K  K0  1  0.25000000  0.96726416  0.25000000  1
  K  K1  1  0.25000000  0.66190773  0.75000000  1
  K  K2  1  0.75000000  0.33809227  0.25000000  1
  K  K3  1  0.75000000  0.03273584  0.75000000  1
  P  P4  1  0.25000000  0.42577740  0.25000000  1
  P  P5  1  0.25000000  0.10709381  0.75000000  1
  P  P6  1  0.75000000  0.89290619  0.25000000  1
  P  P7  1  0.75000000  0.57422260  0.75000000  1
  H  H8  1  0.05478410  0.62808046  0.17932932  1
  H  H9  1  0.10495066  0.27728959  0.56082635  1
  H  H10  1  0.39504934  0.27728959  0.93917365  1
  H  H11  1  0.44521590  0.62808046  0.32067068  1
  H  H12  1  0.55478410  0.37191954  0.67932932  1
  H  H13  1  0.60495066  0.72271041  0.06082635  1
  H  H14  1  0.89504934  0.72271041  0.43917365  1
  H  H15  1  0.94521590  0.37191954  0.82067068  1
  O  O16  1  0.11026133  0.32005531  0.36032246  1
  O  O17  1  0.15524634  0.55916358  0.11605789  1
  O  O18  1  0.09379102  0.24788638  0.69494710  1
  O  O19  1  0.18389566  0.00382545  0.91189455  1
  O  O20  1  0.34475366  0.55916358  0.38394211  1
  O  O21  1  0.38973867  0.32005531  0.13967754  1
  O  O22  1  0.31610434  0.00382545  0.58810545  1
  O  O23  1  0.40620898  0.24788638  0.80505290  1
  O  O24  1  0.59379102  0.75211362  0.19494710  1
  O  O25  1  0.68389566  0.99617455  0.41189455  1
  O  O26  1  0.61026133  0.67994469  0.86032246  1
  O  O27  1  0.65524634  0.44083642  0.61605789  1
  O  O28  1  0.81610434  0.99617455  0.08810545  1
  O  O29  1  0.90620898  0.75211362  0.30505290  1
  O  O30  1  0.84475366  0.44083642  0.88394211  1
  O  O31  1  0.88973867  0.67994469  0.63967754  1
