# generated using pymatgen
data_Li3Mo4P9O32
_symmetry_space_group_name_H-M   'P 1'
_cell_length_a   14.02332591
_cell_length_b   14.02332591
_cell_length_c   6.47322766
_cell_angle_alpha   90.00000000
_cell_angle_beta   90.00000000
_cell_angle_gamma   90.00000000
_symmetry_Int_Tables_number   1
_chemical_formula_structural   Li3Mo4P9O32
_chemical_formula_sum   'Li6 Mo8 P18 O64'
_cell_volume   1272.98397335
_cell_formula_units_Z   2
loop_
 _symmetry_equiv_pos_site_id
 _symmetry_equiv_pos_as_xyz
  1  'x, y, z'
loop_
 _atom_site_type_symbol
 _atom_site_label
 _atom_site_symmetry_multiplicity
 _atom_site_fract_x
 _atom_site_fract_y
 _atom_site_fract_z
 _atom_site_occupancy
  Li  Li0  1  0.50000000  0.50000000  0.50000000  1
  Li  Li1  1  0.00000000  0.50000000  0.13667923  1
  Li  Li2  1  0.50000000  0.00000000  0.86332077  1
  Li  Li3  1  0.00000000  0.50000000  0.63667923  1
  Li  Li4  1  0.50000000  0.00000000  0.36332077  1
  Li  Li5  1  0.00000000  0.00000000  0.00000000  1
  Mo  Mo6  1  0.12119945  0.19669096  0.62292175  1
  Mo  Mo7  1  0.37880055  0.69669096  0.87707825  1
  Mo  Mo8  1  0.62119945  0.30330904  0.87707825  1
  Mo  Mo9  1  0.69669096  0.62119945  0.12292175  1
  Mo  Mo10  1  0.30330904  0.37880055  0.12292175  1
  Mo  Mo11  1  0.19669096  0.87880055  0.37707825  1
  Mo  Mo12  1  0.87880055  0.80330904  0.62292175  1
  Mo  Mo13  1  0.80330904  0.12119945  0.37707825  1
  P  P14  1  0.39892663  0.74745819  0.36909658  1
  P  P15  1  0.56033792  0.80775075  0.11290213  1
  P  P16  1  0.93966208  0.30775075  0.38709787  1
  P  P17  1  0.75254181  0.10107337  0.86909658  1
  P  P18  1  0.24745819  0.89892663  0.86909658  1
  P  P19  1  0.89892663  0.75254181  0.13090342  1
  P  P20  1  0.10107337  0.24745819  0.13090342  1
  P  P21  1  0.25254181  0.39892663  0.63090342  1
  P  P22  1  0.80775075  0.43966208  0.88709787  1
  P  P23  1  0.60107337  0.25254181  0.36909658  1
  P  P24  1  0.69224925  0.93966208  0.61290213  1
  P  P25  1  0.30775075  0.06033792  0.61290213  1
  P  P26  1  0.50000000  0.50000000  0.00000000  1
  P  P27  1  0.00000000  0.00000000  0.50000000  1
  P  P28  1  0.43966208  0.19224925  0.11290213  1
  P  P29  1  0.06033792  0.69224925  0.38709787  1
  P  P30  1  0.19224925  0.56033792  0.88709787  1
  P  P31  1  0.74745819  0.60107337  0.63090342  1
  O  O32  1  0.84182726  0.66108066  0.10768609  1
  O  O33  1  0.66108066  0.15817274  0.89231391  1
  O  O34  1  0.91429374  0.44339077  0.89792637  1
  O  O35  1  0.75430935  0.49078221  0.06394416  1
  O  O36  1  0.25430935  0.00921779  0.43605584  1
  O  O37  1  0.24569065  0.50921779  0.06394416  1
  O  O38  1  0.68329905  0.63378767  0.80933456  1
  O  O39  1  0.00758078  0.72474001  0.17199448  1
  O  O40  1  0.26230440  0.16092452  0.64038211  1
  O  O41  1  0.83891934  0.65817274  0.60768609  1
  O  O42  1  0.34182726  0.83891934  0.39231391  1
  O  O43  1  0.55660923  0.91429374  0.10207363  1
  O  O44  1  0.23769560  0.66092452  0.85961789  1
  O  O45  1  0.05660923  0.58570626  0.39792637  1
  O  O46  1  0.94089174  0.06364275  0.35131861  1
  O  O47  1  0.00921779  0.74569065  0.56394416  1
  O  O48  1  0.06364275  0.05910826  0.64868139  1
  O  O49  1  0.13378767  0.18329905  0.30933456  1
  O  O50  1  0.76230440  0.33907548  0.85961789  1
  O  O51  1  0.40284180  0.68728340  0.56760123  1
  O  O52  1  0.31670095  0.36621233  0.80933456  1
  O  O53  1  0.49078221  0.24569065  0.93605584  1
  O  O54  1  0.94339077  0.41429374  0.39792637  1
  O  O55  1  0.15817274  0.33891934  0.10768609  1
  O  O56  1  0.33907548  0.23769560  0.14038211  1
  O  O57  1  0.66092452  0.76230440  0.14038211  1
  O  O58  1  0.27525999  0.00758078  0.82800552  1
  O  O59  1  0.43635725  0.55910826  0.85131861  1
  O  O60  1  0.90284180  0.81271660  0.93239877  1
  O  O61  1  0.44339077  0.08570626  0.10207363  1
  O  O62  1  0.31271660  0.40284180  0.43239877  1
  O  O63  1  0.56364275  0.44089174  0.85131861  1
  O  O64  1  0.65817274  0.16108066  0.39231391  1
  O  O65  1  0.44089174  0.43635725  0.14868139  1
  O  O66  1  0.86621233  0.81670095  0.30933456  1
  O  O67  1  0.18329905  0.86621233  0.69066544  1
  O  O68  1  0.81670095  0.13378767  0.69066544  1
  O  O69  1  0.08570626  0.55660923  0.89792637  1
  O  O70  1  0.58570626  0.94339077  0.60207363  1
  O  O71  1  0.16092452  0.73769560  0.35961789  1
  O  O72  1  0.16108066  0.34182726  0.60768609  1
  O  O73  1  0.49241922  0.22474001  0.32800552  1
  O  O74  1  0.50921779  0.75430935  0.93605584  1
  O  O75  1  0.05910826  0.93635725  0.35131861  1
  O  O76  1  0.36621233  0.68329905  0.19066544  1
  O  O77  1  0.77525999  0.49241922  0.67199448  1
  O  O78  1  0.09715820  0.18728340  0.93239877  1
  O  O79  1  0.93635725  0.94089174  0.64868139  1
  O  O80  1  0.63378767  0.31670095  0.19066544  1
  O  O81  1  0.99241922  0.27525999  0.17199448  1
  O  O82  1  0.55910826  0.56364275  0.14868139  1
  O  O83  1  0.74569065  0.99078221  0.43605584  1
  O  O84  1  0.68728340  0.59715820  0.43239877  1
  O  O85  1  0.22474001  0.50758078  0.67199448  1
  O  O86  1  0.72474001  0.99241922  0.82800552  1
  O  O87  1  0.50758078  0.77525999  0.32800552  1
  O  O88  1  0.81271660  0.09715820  0.06760123  1
  O  O89  1  0.33891934  0.84182726  0.89231391  1
  O  O90  1  0.83907548  0.26230440  0.35961789  1
  O  O91  1  0.18728340  0.90284180  0.06760123  1
  O  O92  1  0.41429374  0.05660923  0.60207363  1
  O  O93  1  0.73769560  0.83907548  0.64038211  1
  O  O94  1  0.59715820  0.31271660  0.56760123  1
  O  O95  1  0.99078221  0.25430935  0.56394416  1
