# generated using pymatgen
data_LiNiPO4
_symmetry_space_group_name_H-M   'P 1'
_cell_length_a   9.93612111
_cell_length_b   9.96403458
_cell_length_c   17.23979088
_cell_angle_alpha   106.68640429
_cell_angle_beta   106.84598546
_cell_angle_gamma   60.06222301
_symmetry_Int_Tables_number   1
_chemical_formula_structural   LiNiPO4
_chemical_formula_sum   'Li16 Ni16 P16 O64'
_cell_volume   1394.53968390
_cell_formula_units_Z   16
loop_
 _symmetry_equiv_pos_site_id
 _symmetry_equiv_pos_as_xyz
  1  'x, y, z'
loop_
 _atom_site_type_symbol
 _atom_site_label
 _atom_site_symmetry_multiplicity
 _atom_site_fract_x
 _atom_site_fract_y
 _atom_site_fract_z
 _atom_site_occupancy
  Li  Li0  1  0.23742555  0.32126341  0.93736380  1
  Li  Li1  1  0.24173796  0.81905896  0.93747568  1
  Li  Li2  1  0.00059859  0.55280890  0.68636080  1
  Li  Li3  1  0.63791811  0.48836174  0.18626672  1
  Li  Li4  1  0.37581913  0.82214018  0.43763695  1
  Li  Li5  1  0.87928356  0.32016589  0.43809312  1
  Li  Li6  1  0.81903350  0.87805306  0.43806526  1
  Li  Li7  1  0.63126233  0.99615358  0.18579868  1
  Li  Li8  1  0.06149026  0.98980652  0.68638640  1
  Li  Li9  1  0.49949776  0.06087389  0.68561215  1
  Li  Li10  1  0.12495680  0.56198774  0.18686701  1
  Li  Li11  1  0.31687644  0.37814224  0.43595699  1
  Li  Li12  1  0.13149832  0.05098224  0.18594420  1
  Li  Li13  1  0.74156556  0.87714068  0.93533489  1
  Li  Li14  1  0.55709715  0.49684946  0.68467132  1
  Li  Li15  1  0.73825450  0.37810147  0.93672222  1
  Ni  Ni16  1  0.12464300  0.67681447  0.56043725  1
  Ni  Ni17  1  0.17804185  0.12194258  0.56162937  1
  Ni  Ni18  1  0.76348541  0.67293270  0.06061103  1
  Ni  Ni19  1  0.49666308  0.94629443  0.31476145  1
  Ni  Ni20  1  0.67872442  0.62149907  0.56026460  1
  Ni  Ni21  1  0.26135342  0.62139306  0.06149944  1
  Ni  Ni22  1  0.99563078  0.45325362  0.31562722  1
  Ni  Ni23  1  0.75717122  0.17636532  0.05936254  1
  Ni  Ni24  1  0.44863549  0.49707832  0.31585280  1
  Ni  Ni25  1  0.86565332  0.95321471  0.81474188  1
  Ni  Ni26  1  0.62221931  0.17381563  0.56064173  1
  Ni  Ni27  1  0.36630671  0.50073298  0.81379162  1
  Ni  Ni28  1  0.94706846  0.00089804  0.31472737  1
  Ni  Ni29  1  0.87136469  0.44919660  0.81583689  1
  Ni  Ni30  1  0.36902413  0.99828802  0.81559948  1
  Ni  Ni31  1  0.26061867  0.12081038  0.06104671  1
  P  P32  1  0.43942025  0.31604836  0.12617808  1
  P  P33  1  0.94196424  0.36685930  0.12540132  1
  P  P34  1  0.93814168  0.87127445  0.12362891  1
  P  P35  1  0.55892483  0.18432962  0.87025123  1
  P  P36  1  0.18328538  0.12794175  0.37267203  1
  P  P37  1  0.06186230  0.12721146  0.87278509  1
  P  P38  1  0.37096057  0.81694241  0.62647279  1
  P  P39  1  0.62808169  0.18112606  0.37229509  1
  P  P40  1  0.81457859  0.86788168  0.62528518  1
  P  P41  1  0.56216192  0.68090695  0.87108743  1
  P  P42  1  0.68360959  0.62548652  0.37300789  1
  P  P43  1  0.12591182  0.68453960  0.37138068  1
  P  P44  1  0.31152251  0.37171592  0.62388950  1
  P  P45  1  0.06277638  0.62921425  0.87275507  1
  P  P46  1  0.86950197  0.31405351  0.62612327  1
  P  P47  1  0.44355544  0.81249376  0.12604182  1
  O  O48  1  0.91077243  0.42001396  0.70487684  1
  O  O49  1  0.41444439  0.42286543  0.70098516  1
  O  O50  1  0.48609781  0.34702300  0.38370733  1
  O  O51  1  0.33109900  0.39251185  0.04893850  1
  O  O52  1  0.23297803  0.79689986  0.63797338  1
  O  O53  1  0.72511926  0.30095944  0.63441207  1
  O  O54  1  0.82542776  0.82658262  0.04910143  1
  O  O55  1  0.85356529  0.49166170  0.38944400  1
  O  O56  1  0.61077383  0.79787734  0.13639854  1
  O  O57  1  0.58358541  0.57200852  0.29533979  1
  O  O58  1  0.45605301  0.64631447  0.11349248  1
  O  O59  1  0.32525188  0.89302193  0.54912705  1
  O  O60  1  0.51502329  0.65194367  0.61584939  1
  O  O61  1  0.63904068  0.56896094  0.79588358  1
  O  O62  1  0.67193855  0.10482393  0.94535389  1
  O  O63  1  0.07883726  0.58056995  0.29374545  1
  O  O64  1  0.80480158  0.72360264  0.63568118  1
  O  O65  1  0.37300543  0.91924890  0.20401474  1
  O  O66  1  0.17480836  0.16898714  0.94793450  1
  O  O67  1  0.39388349  0.32469003  0.54900542  1
  O  O68  1  0.91596253  0.91527726  0.70476068  1
  O  O69  1  0.04361265  0.99125837  0.88772539  1
  O  O70  1  0.69066477  0.77022446  0.36072210  1
  O  O71  1  0.76965367  0.19470925  0.36042593  1
  O  O72  1  0.39297613  0.19538623  0.85908009  1
  O  O73  1  0.58613324  0.07060625  0.29647942  1
  O  O74  1  0.29974810  0.23073939  0.63768901  1
  O  O75  1  0.63239182  0.07941991  0.79278815  1
  O  O76  1  0.55049583  0.84630484  0.88217285  1
  O  O77  1  0.13543600  0.57900378  0.79435539  1
  O  O78  1  0.95397249  0.00815733  0.10783071  1
  O  O79  1  0.89834197  0.77355921  0.85989984  1
  O  O80  1  0.87417194  0.41403541  0.20513115  1
  O  O81  1  0.40948468  0.93012975  0.70152610  1
  O  O82  1  0.01014443  0.14762977  0.61361289  1
  O  O83  1  0.32956131  0.89298355  0.05082789  1
  O  O84  1  0.98752929  0.85252874  0.38527362  1
  O  O85  1  0.10494530  0.16888929  0.44775480  1
  O  O86  1  0.54477341  0.35146185  0.88390159  1
  O  O87  1  0.60133826  0.66782288  0.44698005  1
  O  O88  1  0.27071945  0.69363732  0.36014028  1
  O  O89  1  0.95943096  0.50310029  0.10989000  1
  O  O90  1  0.35286319  0.99223125  0.38845561  1
  O  O91  1  0.60880717  0.29722194  0.13784763  1
  O  O92  1  0.89762417  0.27185842  0.86044507  1
  O  O93  1  0.83071517  0.39489111  0.55156014  1
  O  O94  1  0.13818783  0.07646137  0.79567629  1
  O  O95  1  0.67022059  0.60639198  0.94847752  1
  O  O96  1  0.67167360  0.10598065  0.44927320  1
  O  O97  1  0.17684469  0.66924014  0.94767616  1
  O  O98  1  0.64551864  0.00362425  0.60929731  1
  O  O99  1  0.10595532  0.22174471  0.13513892  1
  O  O100  1  0.36272572  0.42802780  0.20143889  1
  O  O101  1  0.82286321  0.32965056  0.05196610  1
  O  O102  1  0.86479145  0.92091009  0.20158675  1
  O  O103  1  0.89778126  0.82880977  0.55180385  1
  O  O104  1  0.10444435  0.72888156  0.13575222  1
  O  O105  1  0.16701450  0.60494474  0.44630682  1
  O  O106  1  0.14325510  0.50836804  0.60795074  1
  O  O107  1  0.45078316  0.15046385  0.11451756  1
  O  O108  1  0.39472403  0.69497741  0.85889898  1
  O  O109  1  0.04516674  0.49349069  0.88848899  1
  O  O110  1  0.18958815  0.27237806  0.35916510  1
  O  O111  1  0.08244029  0.07599567  0.29460158  1
