# generated using pymatgen
data_LiCoP2O7
_symmetry_space_group_name_H-M   'P 1'
_cell_length_a   7.20202974
_cell_length_b   7.88939446
_cell_length_c   9.51543166
_cell_angle_alpha   90.00000000
_cell_angle_beta   110.55712966
_cell_angle_gamma   90.00000000
_symmetry_Int_Tables_number   1
_chemical_formula_structural   LiCoP2O7
_chemical_formula_sum   'Li4 Co4 P8 O28'
_cell_volume   506.23544512
_cell_formula_units_Z   4
loop_
 _symmetry_equiv_pos_site_id
 _symmetry_equiv_pos_as_xyz
  1  'x, y, z'
loop_
 _atom_site_type_symbol
 _atom_site_label
 _atom_site_symmetry_multiplicity
 _atom_site_fract_x
 _atom_site_fract_y
 _atom_site_fract_z
 _atom_site_occupancy
  Li  Li0  1  0.30133881  0.02160364  0.78558167  1
  Li  Li1  1  0.30133881  0.47839636  0.28558167  1
  Li  Li2  1  0.69866119  0.97839636  0.21441833  1
  Li  Li3  1  0.69866119  0.52160364  0.71441833  1
  Co  Co4  1  0.26249915  0.00766838  0.24855529  1
  Co  Co5  1  0.73750085  0.50766838  0.25144471  1
  Co  Co6  1  0.73750085  0.99233162  0.75144471  1
  Co  Co7  1  0.26249915  0.49233162  0.74855529  1
  P  P8  1  0.66964497  0.28956419  0.95286772  1
  P  P9  1  0.33035503  0.71043581  0.04713228  1
  P  P10  1  0.91777063  0.76003732  0.04497974  1
  P  P11  1  0.91777063  0.73996268  0.54497974  1
  P  P12  1  0.33035503  0.78956419  0.54713228  1
  P  P13  1  0.08222937  0.23996268  0.95502026  1
  P  P14  1  0.08222937  0.26003732  0.45502026  1
  P  P15  1  0.66964497  0.21043581  0.45286772  1
  O  O16  1  0.38151291  0.89307889  0.10456686  1
  O  O17  1  0.31152388  0.79931959  0.38217272  1
  O  O18  1  0.81065079  0.78855294  0.87576130  1
  O  O19  1  0.81065079  0.71144706  0.37576130  1
  O  O20  1  0.68847612  0.20068041  0.61782728  1
  O  O21  1  0.20024087  0.13576478  0.40036646  1
  O  O22  1  0.12041882  0.65990037  0.06337198  1
  O  O23  1  0.54256408  0.07651924  0.34548388  1
  O  O24  1  0.87958118  0.15990037  0.43662802  1
  O  O25  1  0.45743592  0.57651924  0.15451612  1
  O  O26  1  0.38151291  0.60692111  0.60456686  1
  O  O27  1  0.18934921  0.28855294  0.62423870  1
  O  O28  1  0.87958118  0.34009963  0.93662802  1
  O  O29  1  0.79975913  0.86423522  0.59963354  1
  O  O30  1  0.68847612  0.29931959  0.11782728  1
  O  O31  1  0.97212376  0.57808450  0.64049350  1
  O  O32  1  0.61848709  0.10692111  0.89543314  1
  O  O33  1  0.02787624  0.07808450  0.85950650  1
  O  O34  1  0.31152388  0.70068041  0.88217272  1
  O  O35  1  0.12041882  0.84009963  0.56337198  1
  O  O36  1  0.79975913  0.63576478  0.09963354  1
  O  O37  1  0.61848709  0.39307889  0.39543314  1
  O  O38  1  0.45743592  0.92348076  0.65451612  1
  O  O39  1  0.54256408  0.42348076  0.84548388  1
  O  O40  1  0.02787624  0.42191550  0.35950550  1
  O  O41  1  0.97212376  0.92191550  0.14049350  1
  O  O42  1  0.18934921  0.21144606  0.12423870  1
  O  O43  1  0.20024087  0.36423522  0.90036646  1
