# generated using pymatgen
data_Li6Fe5(P2O7)4
_symmetry_space_group_name_H-M   'P 1'
_cell_length_a   13.19485754
_cell_length_b   9.12298911
_cell_length_c   10.52983579
_cell_angle_alpha   66.86033189
_cell_angle_beta   88.17507623
_cell_angle_gamma   72.89029561
_symmetry_Int_Tables_number   1
_chemical_formula_structural   Li6Fe5(P2O7)4
_chemical_formula_sum   'Li12 Fe10 P16 O56'
_cell_volume   1108.91448322
_cell_formula_units_Z   2
loop_
 _symmetry_equiv_pos_site_id
 _symmetry_equiv_pos_as_xyz
  1  'x, y, z'
loop_
 _atom_site_type_symbol
 _atom_site_label
 _atom_site_symmetry_multiplicity
 _atom_site_fract_x
 _atom_site_fract_y
 _atom_site_fract_z
 _atom_site_occupancy
  Li  Li0  1  0.02712648  0.81876331  0.01031249  1
  Li  Li1  1  0.81043680  0.92263874  0.12544890  1
  Li  Li2  1  0.42553843  0.11369017  0.40691929  1
  Li  Li3  1  0.47287352  0.18123669  0.98968751  1
  Li  Li4  1  0.07446157  0.88630983  0.59308071  1
  Li  Li5  1  0.75000000  0.50000000  0.50000000  1
  Li  Li6  1  0.29764301  0.90140124  0.13336384  1
  Li  Li7  1  0.91877165  0.12444856  0.41445367  1
  Li  Li8  1  0.58122835  0.87555144  0.58554633  1
  Li  Li9  1  0.20235699  0.09859876  0.86663616  1
  Li  Li10  1  0.68956320  0.07736126  0.87455110  1
  Li  Li11  1  0.25000000  0.50000000  0.50000000  1
  Fe  Fe12  1  0.81677689  0.51527542  0.75492506  1
  Fe  Fe13  1  0.14306265  0.09820219  0.29059911  1
  Fe  Fe14  1  0.86172073  0.89878179  0.71349851  1
  Fe  Fe15  1  0.63827927  0.10121821  0.28650149  1
  Fe  Fe16  1  0.50955775  0.80405973  0.99298296  1
  Fe  Fe17  1  0.31754285  0.50487614  0.75697692  1
  Fe  Fe18  1  0.35693735  0.90179781  0.70940089  1
  Fe  Fe19  1  0.68322311  0.48472458  0.24507494  1
  Fe  Fe20  1  0.99044225  0.19594027  0.00701704  1
  Fe  Fe21  1  0.18245715  0.49512386  0.24302308  1
  P  P22  1  0.27878255  0.71291789  0.96077488  1
  P  P23  1  0.43387240  0.45685291  0.19030156  1
  P  P24  1  0.14954413  0.20264417  0.55548217  1
  P  P25  1  0.06612760  0.54314709  0.80969844  1
  P  P26  1  0.35045587  0.79735583  0.44451783  1
  P  P27  1  0.72135873  0.28739481  0.03598726  1
  P  P28  1  0.77864127  0.71260519  0.96401274  1
  P  P29  1  0.46020727  0.17959293  0.69537681  1
  P  P30  1  0.96063816  0.19231628  0.69991164  1
  P  P31  1  0.65248091  0.19269483  0.55868275  1
  P  P32  1  0.22121745  0.28708211  0.03922512  1
  P  P33  1  0.55809638  0.55893929  0.80790165  1
  P  P34  1  0.53936184  0.80768372  0.30008836  1
  P  P35  1  0.03979273  0.82040707  0.30462319  1
  P  P36  1  0.84751909  0.80730517  0.44131725  1
  P  P37  1  0.94190362  0.44106071  0.19209835  1
  O  O38  1  0.69135017  0.33478866  0.46097691  1
  O  O39  1  0.98837092  0.92493272  0.15137149  1
  O  O40  1  0.01455658  0.09843148  0.85142222  1
  O  O41  1  0.72707774  0.27902823  0.18530039  1
  O  O42  1  0.86877106  0.91785994  0.50900854  1
  O  O43  1  0.51162908  0.07506728  0.84862851  1
  O  O44  1  0.48887914  0.27279053  0.21558796  1
  O  O45  1  0.62829011  0.45586865  0.95728411  1
  O  O46  1  0.45010262  0.06552049  0.62395068  1
  O  O47  1  0.95893954  0.72228554  0.39176547  1
  O  O48  1  0.85532220  0.32753292  0.68316396  1
  O  O49  1  0.48126807  0.46531531  0.80540030  1
  O  O50  1  0.86343659  0.41866910  0.30305925  1
  O  O51  1  0.67730378  0.69748866  0.03646509  1
  O  O52  1  0.46088362  0.70920887  0.39543409  1
  O  O53  1  0.77490249  0.91286494  0.30506926  1
  O  O54  1  0.51259828  0.55801094  0.17147164  1
  O  O55  1  0.19206022  0.34007175  0.45834565  1
  O  O56  1  0.26851347  0.72600200  0.81079643  1
  O  O57  1  0.72509751  0.08713506  0.69493074  1
  O  O58  1  0.77292226  0.72097177  0.81469961  1
  O  O59  1  0.87170989  0.54413135  0.04271589  1
  O  O60  1  0.32283581  0.85453147  0.96331784  1
  O  O61  1  0.64467780  0.67246708  0.31683604  1
  O  O62  1  0.13084688  0.46291263  0.96387210  1
  O  O63  1  0.15118379  0.52526470  0.71105022  1
  O  O64  1  0.80864983  0.66521134  0.53902309  1
  O  O65  1  0.35660402  0.31616619  0.68086063  1
  O  O66  1  0.01873193  0.53468469  0.19459970  1
  O  O67  1  0.03911638  0.29079113  0.60456591  1
  O  O68  1  0.54106046  0.27771446  0.60823453  1
  O  O69  1  0.81262813  0.85957852  0.96572894  1
  O  O70  1  0.68737187  0.14042148  0.03427106  1
  O  O71  1  0.34881621  0.47473530  0.28894978  1
  O  O72  1  0.63656341  0.58133090  0.69694075  1
  O  O73  1  0.63122894  0.08214006  0.49099146  1
  O  O74  1  0.27806383  0.90833382  0.30830658  1
  O  O75  1  0.36915312  0.53708737  0.03612790  1
  O  O76  1  0.23148653  0.27399800  0.18920357  1
  O  O77  1  0.37417613  0.90602733  0.51253083  1
  O  O78  1  0.48544342  0.90156852  0.14857778  1
  O  O79  1  0.99761152  0.26994105  0.18079229  1
  O  O80  1  0.17975071  0.71095672  0.03797327  1
  O  O81  1  0.12582387  0.09397267  0.48746917  1
  O  O82  1  0.82269622  0.30251134  0.96353491  1
  O  O83  1  0.01112086  0.72720947  0.78441204  1
  O  O84  1  0.50238848  0.73005895  0.81920771  1
  O  O85  1  0.54879374  0.92953345  0.36323635  1
  O  O86  1  0.95120626  0.07046655  0.63676365  1
  O  O87  1  0.98740172  0.44198906  0.82852836  1
  O  O88  1  0.22193617  0.09166618  0.69169342  1
  O  O89  1  0.32024929  0.28904328  0.96202673  1
  O  O90  1  0.30793978  0.65992825  0.54165435  1
  O  O91  1  0.17716419  0.14546853  0.03668216  1
  O  O92  1  0.14339598  0.68383381  0.31913937  1
  O  O93  1  0.04989738  0.93447951  0.37604932  1
