# generated using pymatgen
data_LiMnP2O7
_symmetry_space_group_name_H-M   'P 1'
_cell_length_a   7.18604250
_cell_length_b   8.10594442
_cell_length_c   9.59251150
_cell_angle_alpha   90.00000000
_cell_angle_beta   112.08211930
_cell_angle_gamma   90.00000000
_symmetry_Int_Tables_number   1
_chemical_formula_structural   LiMnP2O7
_chemical_formula_sum   'Li4 Mn4 P8 O28'
_cell_volume   517.77322118
_cell_formula_units_Z   4
loop_
 _symmetry_equiv_pos_site_id
 _symmetry_equiv_pos_as_xyz
  1  'x, y, z'
loop_
 _atom_site_type_symbol
 _atom_site_label
 _atom_site_symmetry_multiplicity
 _atom_site_fract_x
 _atom_site_fract_y
 _atom_site_fract_z
 _atom_site_occupancy
  Li  Li0  1  0.31879071  0.47397080  0.29073918  1
  Li  Li1  1  0.68120929  0.52602920  0.70926082  1
  Li  Li2  1  0.31879071  0.02602920  0.79073918  1
  Li  Li3  1  0.68120929  0.97397080  0.20926082  1
  Mn  Mn4  1  0.74574907  0.50550426  0.24901976  1
  Mn  Mn5  1  0.74574907  0.99449574  0.74901976  1
  Mn  Mn6  1  0.25425093  0.00550426  0.25098024  1
  Mn  Mn7  1  0.25425093  0.49449574  0.75098024  1
  P  P8  1  0.66375284  0.20837981  0.45419094  1
  P  P9  1  0.08306181  0.26419427  0.46086034  1
  P  P10  1  0.33624716  0.79162019  0.54580906  1
  P  P11  1  0.33624716  0.70837981  0.04580906  1
  P  P12  1  0.08306181  0.23580573  0.96086034  1
  P  P13  1  0.91693819  0.73580573  0.53913966  1
  P  P14  1  0.91693819  0.76419427  0.03913966  1
  P  P15  1  0.66375284  0.29162019  0.95419094  1
  O  O16  1  0.60295208  0.11443095  0.90357194  1
  O  O17  1  0.54237951  0.07428352  0.34501492  1
  O  O18  1  0.97146459  0.57724430  0.63603099  1
  O  O19  1  0.68795154  0.30950148  0.12024616  1
  O  O20  1  0.31204846  0.69049852  0.87975384  1
  O  O21  1  0.54237951  0.42571648  0.84501492  1
  O  O22  1  0.12177742  0.83039044  0.55817968  1
  O  O23  1  0.79898678  0.64179095  0.08894486  1
  O  O24  1  0.79898678  0.85820905  0.58894486  1
  O  O25  1  0.31204846  0.80950148  0.37975384  1
  O  O26  1  0.19472880  0.29618251  0.63082401  1
  O  O27  1  0.39704792  0.88556905  0.09642806  1
  O  O28  1  0.45762049  0.92571648  0.65498508  1
  O  O29  1  0.87822258  0.33039044  0.94182032  1
  O  O30  1  0.60295208  0.38556905  0.40357194  1
  O  O31  1  0.97146459  0.92275570  0.13603099  1
  O  O32  1  0.12177742  0.66960956  0.05817968  1
  O  O33  1  0.02853541  0.07724430  0.86396901  1
  O  O34  1  0.68795154  0.19049852  0.62024616  1
  O  O35  1  0.20101322  0.35820905  0.91105514  1
  O  O36  1  0.87822258  0.16960956  0.44182032  1
  O  O37  1  0.20101322  0.14179095  0.41105514  1
  O  O38  1  0.02853541  0.42275570  0.36396901  1
  O  O39  1  0.39704792  0.61443095  0.59642806  1
  O  O40  1  0.19472880  0.20381749  0.13082401  1
  O  O41  1  0.80527120  0.70381749  0.36917599  1
  O  O42  1  0.45762049  0.57428352  0.15498508  1
  O  O43  1  0.80527120  0.79618251  0.86917599  1
