# generated using pymatgen
data_Li2Co(PO3)5
_symmetry_space_group_name_H-M   'P 1'
_cell_length_a   5.14277439
_cell_length_b   13.29276265
_cell_length_c   8.88770036
_cell_angle_alpha   90.00000000
_cell_angle_beta   101.87346296
_cell_angle_gamma   90.00000000
_symmetry_Int_Tables_number   1
_chemical_formula_structural   Li2Co(PO3)5
_chemical_formula_sum   'Li4 Co2 P10 O30'
_cell_volume   594.57861410
_cell_formula_units_Z   2
loop_
 _symmetry_equiv_pos_site_id
 _symmetry_equiv_pos_as_xyz
  1  'x, y, z'
loop_
 _atom_site_type_symbol
 _atom_site_label
 _atom_site_symmetry_multiplicity
 _atom_site_fract_x
 _atom_site_fract_y
 _atom_site_fract_z
 _atom_site_occupancy
  Li  Li0  1  0.94201995  0.88372455  0.90904001  1
  Li  Li1  1  0.05798005  0.38372455  0.09095999  1
  Li  Li2  1  0.94201995  0.61627545  0.90904001  1
  Li  Li3  1  0.05798005  0.11627545  0.09095999  1
  Co  Co4  1  0.50000000  0.00000000  0.50000000  1
  Co  Co5  1  0.50000000  0.50000000  0.50000000  1
  P  P6  1  0.54464904  0.25000000  0.01355401  1
  P  P7  1  0.65820558  0.57477910  0.18504157  1
  P  P8  1  0.34179442  0.07477910  0.81495843  1
  P  P9  1  0.65820558  0.92522090  0.18504157  1
  P  P10  1  0.00015013  0.63945952  0.48198211  1
  P  P11  1  0.45535096  0.75000000  0.98644599  1
  P  P12  1  -0.00015013  0.13945952  0.51801789  1
  P  P13  1  0.34179442  0.42522090  0.81495843  1
  P  P14  1  -0.00015013  0.36054048  0.51801789  1
  P  P15  1  0.00015013  0.86054048  0.48198211  1
  O  O16  1  0.51193040  0.99384796  0.27506840  1
  O  O17  1  0.29546881  0.87505009  0.49497061  1
  O  O18  1  0.18894504  0.03033722  0.92446819  1
  O  O19  1  0.14583694  0.07127057  0.42746554  1
  O  O20  1  0.81105496  0.53033722  0.07553181  1
  O  O21  1  0.19208077  0.75000000  0.87791591  1
  O  O22  1  0.14583694  0.42872943  0.42746554  1
  O  O23  1  0.86036799  0.64495636  0.30543130  1
  O  O24  1  0.48806960  0.00615204  0.72493160  1
  O  O25  1  0.29546881  0.62494991  0.49497061  1
  O  O26  1  0.81105496  0.96966278  0.07553181  1
  O  O27  1  0.55469912  0.15618001  0.89582661  1
  O  O28  1  0.13963201  0.14495636  0.69456870  1
  O  O29  1  0.85416306  0.92872943  0.57253446  1
  O  O30  1  0.86036799  0.85504364  0.30543130  1
  O  O31  1  0.70453119  0.37505009  0.50502939  1
  O  O32  1  0.04668871  0.25000000  0.46065392  1
  O  O33  1  0.18894504  0.46966278  0.92446819  1
  O  O34  1  0.51193040  0.50615204  0.27506840  1
  O  O35  1  0.95331129  0.75000000  0.53934608  1
  O  O36  1  0.70453119  0.12494991  0.50502939  1
  O  O37  1  0.80791923  0.25000000  0.12208509  1
  O  O38  1  0.13963201  0.35504364  0.69456870  1
  O  O39  1  0.71402935  0.75000000  0.93416179  1
  O  O40  1  0.44530088  0.65618001  0.10417339  1
  O  O41  1  0.85416306  0.57127057  0.57253446  1
  O  O42  1  0.28597065  0.25000000  0.06583821  1
  O  O43  1  0.48806960  0.49384796  0.72493160  1
  O  O44  1  0.55469912  0.34381999  0.89582661  1
  O  O45  1  0.44530088  0.84381999  0.10417339  1
