# generated using pymatgen
data_LiMo(PO4)2
_symmetry_space_group_name_H-M   'P 1'
_cell_length_a   11.46979336
_cell_length_b   5.29862344
_cell_length_c   10.89962436
_cell_angle_alpha   90.00000000
_cell_angle_beta   90.00000000
_cell_angle_gamma   90.00000000
_symmetry_Int_Tables_number   1
_chemical_formula_structural   LiMo(PO4)2
_chemical_formula_sum   'Li4 Mo4 P8 O32'
_cell_volume   662.41503466
_cell_formula_units_Z   4
loop_
 _symmetry_equiv_pos_site_id
 _symmetry_equiv_pos_as_xyz
  1  'x, y, z'
loop_
 _atom_site_type_symbol
 _atom_site_label
 _atom_site_symmetry_multiplicity
 _atom_site_fract_x
 _atom_site_fract_y
 _atom_site_fract_z
 _atom_site_occupancy
  Li  Li0  1  0.39375246  0.24570016  0.23354569  1
  Li  Li1  1  0.60624754  0.74570016  0.26645431  1
  Li  Li2  1  0.10624754  0.75429984  0.73354569  1
  Li  Li3  1  0.89375246  0.25429984  0.76645431  1
  Mo  Mo4  1  0.64671929  0.26380390  0.59469864  1
  Mo  Mo5  1  0.35328071  0.76380390  0.90530136  1
  Mo  Mo6  1  0.85328071  0.73619610  0.09469864  1
  Mo  Mo7  1  0.14671929  0.23619610  0.40530136  1
  P  P8  1  0.66863485  0.24000767  0.13967034  1
  P  P9  1  0.95702883  0.74084772  0.40907149  1
  P  P10  1  0.33136515  0.74000767  0.36032966  1
  P  P11  1  0.45702883  0.75915228  0.59092851  1
  P  P12  1  0.83136515  0.75999233  0.63967034  1
  P  P13  1  0.54297117  0.25915228  0.90907149  1
  P  P14  1  0.04297117  0.24084772  0.09092851  1
  P  P15  1  0.16863485  0.25999233  0.86032966  1
  O  O16  1  0.41957152  0.74282648  0.72345588  1
  O  O17  1  0.21140837  0.25615754  0.54605623  1
  O  O18  1  0.33903639  0.75060355  0.50971017  1
  O  O19  1  0.27991426  0.47686978  0.32896967  1
  O  O20  1  0.71140837  0.24384246  0.45394377  1
  O  O21  1  0.58042848  0.24282648  0.77654412  1
  O  O22  1  0.22008574  0.52313022  0.82896967  1
  O  O23  1  0.24638400  0.95535383  0.32740412  1
  O  O24  1  0.55259848  0.28332829  0.19789804  1
  O  O25  1  0.44740152  0.78332829  0.30210196  1
  O  O26  1  0.77991426  0.02313022  0.67103033  1
  O  O27  1  0.51736772  0.00722709  0.55763898  1
  O  O28  1  0.94740152  0.71667171  0.69789804  1
  O  O29  1  0.91957152  0.75717352  0.27654412  1
  O  O30  1  0.16096361  0.24939645  0.00971017  1
  O  O31  1  0.78859163  0.75615754  0.95394377  1
  O  O32  1  0.75361600  0.45535383  0.17259588  1
  O  O33  1  0.02773846  0.96929105  0.45302921  1
  O  O34  1  0.98263228  0.99277291  0.05763898  1
  O  O35  1  0.05259848  0.21667171  0.80210196  1
  O  O36  1  0.66096361  0.25060355  0.99028983  1
  O  O37  1  0.01736772  0.49277291  0.44236102  1
  O  O38  1  0.48263228  0.50722709  0.94236102  1
  O  O39  1  0.52773846  0.53070895  0.54697079  1
  O  O40  1  0.08042848  0.25717352  0.22345588  1
  O  O41  1  0.74638400  0.54464617  0.67259588  1
  O  O42  1  0.83903639  0.74939645  0.49028983  1
  O  O43  1  0.97226154  0.46929105  0.04697079  1
  O  O44  1  0.25361600  0.04464617  0.82740412  1
  O  O45  1  0.47226154  0.03070895  0.95302921  1
  O  O46  1  0.28859163  0.74384246  0.04605623  1
  O  O47  1  0.72008574  0.97686978  0.17103033  1
