# generated using pymatgen
data_Al2CoO4
_symmetry_space_group_name_H-M   'P 1'
_cell_length_a   5.78186122
_cell_length_b   5.78186175
_cell_length_c   34.73154794
_cell_angle_alpha   60.03845164
_cell_angle_beta   60.03844861
_cell_angle_gamma   60.00000038
_symmetry_Int_Tables_number   1
_chemical_formula_structural   Al2CoO4
_chemical_formula_sum   'Al24 Co12 O48'
_cell_volume   821.47937883
_cell_formula_units_Z   12
loop_
 _symmetry_equiv_pos_site_id
 _symmetry_equiv_pos_as_xyz
  1  'x, y, z'
loop_
 _atom_site_type_symbol
 _atom_site_label
 _atom_site_symmetry_multiplicity
 _atom_site_fract_x
 _atom_site_fract_y
 _atom_site_fract_z
 _atom_site_occupancy
  Al  Al0  1  0.24504421  0.24504421  0.04414489  1
  Al  Al1  1  0.11804007  0.62852384  0.10415237  1
  Al  Al2  1  0.62852384  0.11804007  0.10415237  1
  Al  Al3  1  0.24836071  0.24836071  0.20915264  1
  Al  Al4  1  0.62852384  0.62852384  0.10415237  1
  Al  Al5  1  0.12138606  0.62663578  0.27089006  1
  Al  Al6  1  0.62663578  0.12138606  0.27089006  1
  Al  Al7  1  0.62663578  0.62663578  0.27089006  1
  Al  Al8  1  0.12455503  0.62523228  0.43749673  1
  Al  Al9  1  0.62419267  0.62419267  0.35457067  1
  Al  Al10  1  0.62523228  0.12455503  0.43749673  1
  Al  Al11  1  0.62523228  0.62523228  0.43749673  1
  Al  Al12  1  0.12457867  0.62468817  0.60434117  1
  Al  Al13  1  0.62479406  0.62479406  0.52093597  1
  Al  Al14  1  0.62468817  0.12457867  0.60434117  1
  Al  Al15  1  0.62468817  0.62468817  0.60434117  1
  Al  Al16  1  0.12428847  0.62414587  0.77123630  1
  Al  Al17  1  0.62442701  0.62442701  0.68778649  1
  Al  Al18  1  0.62414587  0.12428847  0.77123630  1
  Al  Al19  1  0.62414587  0.62414587  0.77123630  1
  Al  Al20  1  0.12158284  0.62777138  0.93714573  1
  Al  Al21  1  0.62777138  0.12158284  0.93714573  1
  Al  Al22  1  0.62463171  0.62463171  0.85435115  1
  Al  Al23  1  0.62777138  0.62777138  0.93714573  1
  Co  Co24  1  0.00350019  0.00350019  0.99824990  1
  Co  Co25  1  0.62798634  0.62798634  0.01933983  1
  Co  Co26  1  0.00233316  0.00233316  0.16550042  1
  Co  Co27  1  0.62582726  0.62582726  0.18708637  1
  Co  Co28  1  0.99964652  0.99964652  0.50017674  1
  Co  Co29  1  0.00025364  0.00025364  0.33320618  1
  Co  Co30  1  0.25204426  0.25204426  0.37397787  1
  Co  Co31  1  0.25013090  0.25013090  0.54160155  1
  Co  Co32  1  0.99919608  0.99919608  0.66706896  1
  Co  Co33  1  0.24949623  0.24949623  0.70858489  1
  Co  Co34  1  0.24652746  0.24652746  0.87673627  1
  Co  Co35  1  0.00115161  0.00115161  0.83275719  1
  O  O36  1  0.37131176  0.37131176  0.06714483  1
  O  O37  1  0.38029432  0.38029432  0.14318584  1
  O  O38  1  0.37131176  0.85450748  0.06714483  1
  O  O39  1  0.85450748  0.37131176  0.06714483  1
  O  O40  1  0.41360953  0.87300324  0.14006366  1
  O  O41  1  0.36656008  0.36656008  0.23384538  1
  O  O42  1  0.39456472  0.39456472  0.30271764  1
  O  O43  1  0.87300324  0.41360953  0.14006366  1
  O  O44  1  0.86358529  0.86358529  0.06820735  1
  O  O45  1  0.36656008  0.86380956  0.23384538  1
  O  O46  1  0.86380956  0.36656008  0.23384538  1
  O  O47  1  0.87300324  0.87300324  0.14006366  1
  O  O48  1  0.38924687  0.38924687  0.39805016  1
  O  O49  1  0.41910656  0.85825907  0.31072922  1
  O  O50  1  0.39018292  0.39018292  0.47157554  1
  O  O51  1  0.85825907  0.41910656  0.31072922  1
  O  O52  1  0.86107833  0.86107833  0.23612783  1
  O  O53  1  0.38924687  0.83320328  0.39805016  1
  O  O54  1  0.83320328  0.38924687  0.39805016  1
  O  O55  1  0.85825907  0.85825907  0.31072922  1
  O  O56  1  0.41871689  0.86087845  0.47658803  1
  O  O57  1  0.38967663  0.38967663  0.56481088  1
  O  O58  1  0.86087845  0.41871689  0.47658803  1
  O  O59  1  0.86090954  0.86090954  0.40287823  1
  O  O60  1  0.38947385  0.38947385  0.63859607  1
  O  O61  1  0.38967663  0.83178145  0.56481088  1
  O  O62  1  0.86087845  0.86087845  0.47658803  1
  O  O63  1  0.83178145  0.38967663  0.56481088  1
  O  O64  1  0.41833021  0.86054972  0.64342806  1
  O  O65  1  0.38923735  0.38923735  0.73176324  1
  O  O66  1  0.86050863  0.86050863  0.56974569  1
  O  O67  1  0.38793130  0.38793130  0.80603435  1
  O  O68  1  0.86054972  0.41833021  0.64342806  1
  O  O69  1  0.38923735  0.83094787  0.73176324  1
  O  O70  1  0.86054972  0.86054972  0.64342806  1
  O  O71  1  0.83094787  0.38923735  0.73176324  1
  O  O72  1  0.39095631  0.39095631  0.89875700  1
  O  O73  1  0.41898785  0.86031531  0.81006359  1
  O  O74  1  0.86036557  0.86036557  0.73648421  1
  O  O75  1  0.37517686  0.37517686  0.97907857  1
  O  O76  1  0.86031531  0.41898785  0.81006359  1
  O  O77  1  0.39095631  0.82554337  0.89875700  1
  O  O78  1  0.86031531  0.86031531  0.81006359  1
  O  O79  1  0.82554337  0.39095631  0.89875700  1
  O  O80  1  0.41441852  0.87572493  0.97235561  1
  O  O81  1  0.87572493  0.41441852  0.97235561  1
  O  O82  1  0.86355680  0.86355680  0.90155460  1
  O  O83  1  0.87572493  0.87572493  0.97235561  1
