# generated using pymatgen
data_KSi5BO13
_symmetry_space_group_name_H-M   'P 1'
_cell_length_a   4.75361858
_cell_length_b   8.74512970
_cell_length_c   13.49671520
_cell_angle_alpha   90.00000000
_cell_angle_beta   90.00000000
_cell_angle_gamma   90.00000000
_symmetry_Int_Tables_number   1
_chemical_formula_structural   KSi5BO13
_chemical_formula_sum   'K2 Si10 B2 O26'
_cell_volume   561.07209640
_cell_formula_units_Z   2
loop_
 _symmetry_equiv_pos_site_id
 _symmetry_equiv_pos_as_xyz
  1  'x, y, z'
loop_
 _atom_site_type_symbol
 _atom_site_label
 _atom_site_symmetry_multiplicity
 _atom_site_fract_x
 _atom_site_fract_y
 _atom_site_fract_z
 _atom_site_occupancy
  K  K0  1  0.52241291  0.38544020  0.50000000  1
  K  K1  1  0.47758709  0.88544020  -0.00000000  1
  Si  Si2  1  0.42186989  0.41845726  -0.00000000  1
  Si  Si3  1  0.57813011  0.91845726  0.50000000  1
  Si  Si4  1  0.36272518  0.83097045  0.70533809  1
  Si  Si5  1  0.36272518  0.83097045  0.29466191  1
  Si  Si6  1  0.63727482  0.33097045  0.79466191  1
  Si  Si7  1  0.63727482  0.33097045  0.20533809  1
  Si  Si8  1  0.86308463  0.67322200  0.80093011  1
  Si  Si9  1  0.86308463  0.67322200  0.19906989  1
  Si  Si10  1  0.13691537  0.17322200  0.69906989  1
  Si  Si11  1  0.13691537  0.17322200  0.30093011  1
  B  B12  1  0.07647581  0.10027186  0.50000000  1
  B  B13  1  0.92352419  0.60027186  -0.00000000  1
  O  O14  1  0.10285974  0.71091770  0.71742211  1
  O  O15  1  0.10285974  0.71091770  0.28257789  1
  O  O16  1  0.89714026  0.21091770  0.78257789  1
  O  O17  1  0.89714026  0.21091770  0.21742211  1
  O  O18  1  0.50362876  0.81147522  0.59681588  1
  O  O19  1  0.50362876  0.81147522  0.40318412  1
  O  O20  1  0.49637124  0.31147522  0.90318412  1
  O  O21  1  0.49637124  0.31147522  0.09681588  1
  O  O22  1  0.61533902  0.57162001  -0.00000000  1
  O  O23  1  0.38466098  0.07162001  0.50000000  1
  O  O24  1  0.59992269  0.79450392  0.79022110  1
  O  O25  1  0.59992269  0.79450392  0.20977890  1
  O  O26  1  0.40007731  0.29450392  0.70977890  1
  O  O27  1  0.40007731  0.29450392  0.29022110  1
  O  O28  1  0.99264419  0.69444037  0.91148033  1
  O  O29  1  0.99264419  0.69444037  0.08851967  1
  O  O30  1  0.00735581  0.19444037  0.58851967  1
  O  O31  1  0.00735581  0.19444037  0.41148033  1
  O  O32  1  0.74998186  0.50280281  0.77304249  1
  O  O33  1  0.74998186  0.50280281  0.22695751  1
  O  O34  1  0.25001814  0.00280281  0.72695751  1
  O  O35  1  0.25001814  0.00280281  0.27304249  1
  O  O36  1  0.08736785  0.45766435  -0.00000000  1
  O  O37  1  0.91263215  0.95766435  0.50000000  1
  O  O38  1  0.96932725  0.61168139  0.50000000  1
  O  O39  1  0.03067275  0.11168139  -0.00000000  1
