# generated using pymatgen
data_ZnH18Ru2Br7N6
_symmetry_space_group_name_H-M   'P 1'
_cell_length_a   9.25010903
_cell_length_b   10.49522851
_cell_length_c   10.40312378
_cell_angle_alpha   90.00000000
_cell_angle_beta   96.09945226
_cell_angle_gamma   90.00000000
_symmetry_Int_Tables_number   1
_chemical_formula_structural   ZnH18Ru2Br7N6
_chemical_formula_sum   'Zn2 H36 Ru4 Br14 N12'
_cell_volume   1004.23874349
_cell_formula_units_Z   2
loop_
 _symmetry_equiv_pos_site_id
 _symmetry_equiv_pos_as_xyz
  1  'x, y, z'
loop_
 _atom_site_type_symbol
 _atom_site_label
 _atom_site_symmetry_multiplicity
 _atom_site_fract_x
 _atom_site_fract_y
 _atom_site_fract_z
 _atom_site_occupancy
  Zn  Zn0  1  0.73744554  0.75000000  0.50681323  1
  Zn  Zn1  1  0.26255446  0.25000000  0.49318677  1
  H  H2  1  0.41940338  0.13012502  0.14404553  1
  H  H3  1  0.58059662  0.63012502  0.85595447  1
  H  H4  1  0.58059662  0.86987498  0.85595447  1
  H  H5  1  0.41940338  0.36987498  0.14404553  1
  H  H6  1  0.54715651  0.01992223  0.14158002  1
  H  H7  1  0.45284349  0.51992223  0.85841998  1
  H  H8  1  0.45284349  0.98007777  0.85841998  1
  H  H9  1  0.54715651  0.48007777  0.14158002  1
  H  H10  1  0.53572945  0.10600029  0.27344030  1
  H  H11  1  0.46427055  0.60600029  0.72655970  1
  H  H12  1  0.46427055  0.89399971  0.72655970  1
  H  H13  1  0.53572945  0.39399971  0.27344030  1
  H  H14  1  0.80371902  0.17002527  0.34062063  1
  H  H15  1  0.19628098  0.67002527  0.65937937  1
  H  H16  1  0.19628098  0.82997473  0.65937937  1
  H  H17  1  0.80371902  0.32997473  0.34062063  1
  H  H18  1  0.91580427  0.25000000  0.25873823  1
  H  H19  1  0.08419573  0.75000000  0.74126177  1
  H  H20  1  0.06816985  0.25000000  0.77820713  1
  H  H21  1  0.93183015  0.75000000  0.22179287  1
  H  H22  1  0.07963366  0.17109812  0.91582972  1
  H  H23  1  0.92036634  0.67109812  0.08417028  1
  H  H24  1  0.92036634  0.82890188  0.08417028  1
  H  H25  1  0.07963366  0.32890188  0.91582972  1
  H  H26  1  0.90344003  0.08945923  0.69519392  1
  H  H27  1  0.09655997  0.58945923  0.30480608  1
  H  H28  1  0.09655997  0.91054077  0.30480608  1
  H  H29  1  0.90344003  0.41054077  0.69519392  1
  H  H30  1  0.75308679  0.02754870  0.73605150  1
  H  H31  1  0.24691321  0.52754870  0.26394850  1
  H  H32  1  0.24691321  0.97245130  0.26394850  1
  H  H33  1  0.75308679  0.47245130  0.73605150  1
  H  H34  1  0.74363491  0.14637984  0.63347768  1
  H  H35  1  0.25636509  0.64637984  0.36652232  1
  H  H36  1  0.25636509  0.85362016  0.36652232  1
  H  H37  1  0.74363491  0.35362016  0.63347768  1
  Ru  Ru38  1  0.66734799  0.25000000  0.10886418  1
  Ru  Ru39  1  0.33265201  0.75000000  0.89113582  1
  Ru  Ru40  1  0.80571271  0.25000000  0.86729474  1
  Ru  Ru41  1  0.19428729  0.75000000  0.13270526  1
  Br  Br42  1  0.52675831  0.25000000  0.88211007  1
  Br  Br43  1  0.47324169  0.75000000  0.11788993  1
  Br  Br44  1  0.82298941  0.42978140  0.03520507  1
  Br  Br45  1  0.17701059  0.92978140  0.96479493  1
  Br  Br46  1  0.17701059  0.57021860  0.96479493  1
  Br  Br47  1  0.82298941  0.07021860  0.03520507  1
  Br  Br48  1  0.47107545  0.75000000  0.50712957  1
  Br  Br49  1  0.52892455  0.25000000  0.49287043  1
  Br  Br50  1  0.81348290  0.75000000  0.74296724  1
  Br  Br51  1  0.18651710  0.25000000  0.25703276  1
  Br  Br52  1  0.82573689  0.93253161  0.39586286  1
  Br  Br53  1  0.17426311  0.43253161  0.60413714  1
  Br  Br54  1  0.17426311  0.06746839  0.60413714  1
  Br  Br55  1  0.82573689  0.56746839  0.39586286  1
  N  N56  1  0.52655290  0.10956730  0.17414639  1
  N  N57  1  0.47344710  0.60956730  0.82585361  1
  N  N58  1  0.47344710  0.89043270  0.82585361  1
  N  N59  1  0.52655290  0.39043270  0.17414639  1
  N  N60  1  0.81085021  0.25000000  0.28449591  1
  N  N61  1  0.18914979  0.75000000  0.71550409  1
  N  N62  1  0.03412882  0.25000000  0.86931982  1
  N  N63  1  0.96587118  0.75000000  0.13068018  1
  N  N64  1  0.80065417  0.11301700  0.71692508  1
  N  N65  1  0.19934583  0.61301700  0.28307492  1
  N  N66  1  0.19934583  0.88698300  0.28307492  1
  N  N67  1  0.80065417  0.38698300  0.71692508  1
