# generated using pymatgen
data_LiFe5(P2O7)4
_symmetry_space_group_name_H-M   'P 1'
_cell_length_a   12.72604799
_cell_length_b   9.45839921
_cell_length_c   10.72867984
_cell_angle_alpha   64.01503354
_cell_angle_beta   85.26791746
_cell_angle_gamma   73.20092022
_symmetry_Int_Tables_number   1
_chemical_formula_structural   LiFe5(P2O7)4
_chemical_formula_sum   'Li2 Fe10 P16 O56'
_cell_volume   1109.84005274
_cell_formula_units_Z   2
loop_
 _symmetry_equiv_pos_site_id
 _symmetry_equiv_pos_as_xyz
  1  'x, y, z'
loop_
 _atom_site_type_symbol
 _atom_site_label
 _atom_site_symmetry_multiplicity
 _atom_site_fract_x
 _atom_site_fract_y
 _atom_site_fract_z
 _atom_site_occupancy
  Li  Li0  1  0.25000000  0.50000000  0.50000000  1
  Li  Li1  1  0.75000000  0.50000000  0.50000000  1
  Fe  Fe2  1  0.17772730  0.51315650  0.24063020  1
  Fe  Fe3  1  0.87149689  0.91033564  0.71387464  1
  Fe  Fe4  1  0.14148131  0.09700953  0.29796956  1
  Fe  Fe5  1  0.62850311  0.08966436  0.28612536  1
  Fe  Fe6  1  0.99274622  0.17918661  0.01206707  1
  Fe  Fe7  1  0.35851869  0.90299047  0.70203044  1
  Fe  Fe8  1  0.32227270  0.48684350  0.75936980  1
  Fe  Fe9  1  0.50725378  0.82081339  0.98793293  1
  Fe  Fe10  1  0.81590858  0.51527677  0.74893519  1
  Fe  Fe11  1  0.68409142  0.48472323  0.25106481  1
  P  P12  1  0.65332227  0.18871505  0.54455287  1
  P  P13  1  0.04350607  0.83530697  0.29540528  1
  P  P14  1  0.56064896  0.56313806  0.80594255  1
  P  P15  1  0.93935104  0.43686194  0.19405745  1
  P  P16  1  0.15188349  0.20998708  0.54491392  1
  P  P17  1  0.71397350  0.29298138  0.04883852  1
  P  P18  1  0.95784747  0.20138904  0.70832197  1
  P  P19  1  0.20359772  0.30272949  0.03779241  1
  P  P20  1  0.34811651  0.79001292  0.45508608  1
  P  P21  1  0.05961389  0.54839221  0.80701311  1
  P  P22  1  0.54215253  0.79861096  0.29167803  1
  P  P23  1  0.45649393  0.16469303  0.70459472  1
  P  P24  1  0.29640228  0.69727051  0.96220759  1
  P  P25  1  0.44038611  0.45160779  0.19298689  1
  P  P26  1  0.78602650  0.70701862  0.95116148  1
  P  P27  1  0.84667773  0.81128495  0.45544713  1
  O  O28  1  0.50345497  0.04107119  0.85339718  1
  O  O29  1  0.00765227  0.13033914  0.85643367  1
  O  O30  1  0.54370860  0.25515556  0.61399857  1
  O  O31  1  0.34128121  0.47911138  0.27906686  1
  O  O32  1  0.72250244  0.30963105  0.18490714  1
  O  O33  1  0.30408975  0.32142682  0.95202719  1
  O  O34  1  0.19517801  0.35658750  0.45262462  1
  O  O35  1  0.54828998  0.93264515  0.32968833  1
  O  O36  1  0.14036583  0.69053571  0.30173330  1
  O  O37  1  0.76740525  0.92325264  0.33140365  1
  O  O38  1  0.30482199  0.64341250  0.54737538  1
  O  O39  1  0.73259475  0.07674736  0.66859635  1
  O  O40  1  0.62943529  0.10536324  0.46218119  1
  O  O41  1  0.28180638  0.71534045  0.81330408  1
  O  O42  1  0.65599435  0.55400546  0.71097402  1
  O  O43  1  0.87056471  0.89463676  0.53781881  1
  O  O44  1  0.99654503  0.95892881  0.14660282  1
  O  O45  1  0.82232142  0.85880831  0.91511384  1
  O  O46  1  0.46073448  0.70820193  0.40114581  1
  O  O47  1  0.10810545  0.47105772  0.96529772  1
  O  O48  1  0.02720565  0.50326726  0.22023623  1
  O  O49  1  0.97861234  0.44799093  0.81651633  1
  O  O50  1  0.52138766  0.55200907  0.18348367  1
  O  O51  1  0.22204011  0.08055540  0.67470378  1
  O  O52  1  0.51113774  0.73257613  0.80918893  1
  O  O53  1  0.39189455  0.52894228  0.03470228  1
  O  O54  1  0.68005108  0.69229808  0.03454907  1
  O  O55  1  0.19591025  0.67857318  0.04797281  1
  O  O56  1  0.68331780  0.34832959  0.45210279  1
  O  O57  1  0.35963417  0.30946429  0.69826670  1
  O  O58  1  0.43148405  0.07302556  0.62956183  1
  O  O59  1  0.21819362  0.28465955  0.18669592  1
  O  O60  1  0.47279435  0.49673274  0.77976377  1
  O  O61  1  0.98886226  0.26742387  0.19081107  1
  O  O62  1  0.65038618  0.66363280  0.31637282  1
  O  O63  1  0.49234773  0.86966086  0.14356633  1
  O  O64  1  0.88432699  0.54933808  0.03940231  1
  O  O65  1  0.37560529  0.86835961  0.54142253  1
  O  O66  1  0.95171002  0.06735485  0.67031167  1
  O  O67  1  0.49683922  0.27537773  0.22594647  1
  O  O68  1  0.06851595  0.92697444  0.37043817  1
  O  O69  1  0.77749756  0.69036895  0.81509286  1
  O  O70  1  0.84961382  0.33636720  0.68362718  1
  O  O71  1  0.12439471  0.13164039  0.45857747  1
  O  O72  1  0.67767858  0.14119169  0.08488616  1
  O  O73  1  0.84400565  0.44599454  0.28902598  1
  O  O74  1  0.34636541  0.83651200  0.94726036  1
  O  O75  1  0.27795989  0.91944460  0.32529622  1
  O  O76  1  0.15871879  0.52088862  0.72093314  1
  O  O77  1  0.00316078  0.72462227  0.77405353  1
  O  O78  1  0.61567301  0.45066192  0.96059769  1
  O  O79  1  0.15363459  0.16348800  0.05273964  1
  O  O80  1  0.03926552  0.29179807  0.59885419  1
  O  O81  1  0.81994892  0.30770192  0.96545093  1
  O  O82  1  0.95629140  0.74484444  0.38600143  1
  O  O83  1  0.81668220  0.65167041  0.54789721  1
