# generated using pymatgen
data_Na5CaAl5Fe(SiO3)12
_symmetry_space_group_name_H-M   'P 1'
_cell_length_a   15.89259604
_cell_length_b   6.48692739
_cell_length_c   6.48692833
_cell_angle_alpha   84.46287799
_cell_angle_beta   77.32129896
_cell_angle_gamma   77.32129782
_symmetry_Int_Tables_number   1
_chemical_formula_structural   Na5CaAl5Fe(SiO3)12
_chemical_formula_sum   'Na5 Ca1 Al5 Fe1 Si12 O36'
_cell_volume   635.72706430
_cell_formula_units_Z   1
loop_
 _symmetry_equiv_pos_site_id
 _symmetry_equiv_pos_as_xyz
  1  'x, y, z'
loop_
 _atom_site_type_symbol
 _atom_site_label
 _atom_site_symmetry_multiplicity
 _atom_site_fract_x
 _atom_site_fract_y
 _atom_site_fract_z
 _atom_site_occupancy
  Na  Na0  1  0.08331417  0.70000919  0.30127219  1
  Na  Na1  1  0.25129288  0.30161314  0.69614669  1
  Na  Na2  1  0.41666700  0.69724168  0.30275832  1
  Na  Na3  1  0.58204012  0.30385331  0.69838686  1
  Na  Na4  1  0.75001883  0.69872781  0.29999081  1
  Ca  Ca5  1  0.91666700  0.30150970  0.69849030  1
  Al  Al6  1  0.08730006  0.09000964  0.90524862  1
  Al  Al7  1  0.25154261  0.90272952  0.09601893  1
  Al  Al8  1  0.41666700  0.09671024  0.90328977  1
  Al  Al9  1  0.58179039  0.90398107  0.09727048  1
  Al  Al10  1  0.74603294  0.09475139  0.90999036  1
  Fe  Fe11  1  0.91666700  0.89587491  0.10412509  1
  Si  Si12  1  0.09314132  0.19739338  0.37856190  1
  Si  Si13  1  0.07980161  0.61397985  0.80409734  1
  Si  Si14  1  0.25928264  0.38292148  0.19445709  1
  Si  Si15  1  0.24268685  0.80236329  0.61461289  1
  Si  Si16  1  0.42514083  0.19547644  0.38241293  1
  Si  Si17  1  0.40819317  0.61758707  0.80452356  1
  Si  Si18  1  0.59064615  0.38538712  0.19763671  1
  Si  Si19  1  0.57405036  0.80554291  0.61707852  1
  Si  Si20  1  0.75353139  0.19590265  0.38602015  1
  Si  Si21  1  0.74019169  0.62143810  0.80260662  1
  Si  Si22  1  0.92397568  0.37403309  0.19396472  1
  Si  Si23  1  0.90935832  0.80603528  0.62596691  1
  O  O24  1  0.99785526  0.63026841  0.67591023  1
  O  O25  1  0.06683745  0.11044511  0.62199573  1
  O  O26  1  0.12639871  0.03396833  0.18429325  1
  O  O27  1  0.05561162  0.80990174  0.95956682  1
  O  O28  1  0.10456530  0.37271219  0.89558646  1
  O  O29  1  0.16649989  0.34449185  0.35786401  1
  O  O30  1  0.16851152  0.65624829  0.62622037  1
  O  O31  1  0.23681394  0.62325459  0.10119706  1
  O  O32  1  0.29182465  0.18455040  0.03347470  1
  O  O33  1  0.21069516  0.96526094  0.81150119  1
  O  O34  1  0.26593506  0.89996091  0.37584969  1
  O  O35  1  0.33317661  0.35955170  0.34235430  1
  O  O36  1  0.33402699  0.63856199  0.65711246  1
  O  O37  1  0.40200597  0.10174040  0.62292806  1
  O  O38  1  0.45762650  0.03406910  0.18455858  1
  O  O39  1  0.37570750  0.81544142  0.96593091  1
  O  O40  1  0.43132703  0.37707194  0.89825960  1
  O  O41  1  0.49930701  0.34288754  0.36143801  1
  O  O42  1  0.50015639  0.65764571  0.64044830  1
  O  O43  1  0.56739795  0.62415031  0.10003909  1
  O  O44  1  0.62263784  0.18849881  0.03473906  1
  O  O45  1  0.54150835  0.96652529  0.81544960  1
  O  O46  1  0.59652006  0.89880294  0.37674541  1
  O  O47  1  0.66482148  0.37377963  0.34375171  1
  O  O48  1  0.66683311  0.64213600  0.65550815  1
  O  O49  1  0.72876870  0.10441354  0.62728782  1
  O  O50  1  0.77772138  0.04043319  0.19009825  1
  O  O51  1  0.70693429  0.81570675  0.96603167  1
  O  O52  1  0.76649555  0.37800427  0.88955489  1
  O  O53  1  0.83547774  0.32408977  0.36973159  1
  O  O54  1  0.83462640  0.65677471  0.64033300  1
  O  O55  1  0.89353172  0.60331944  0.09222410  1
  O  O56  1  0.96404840  0.19268856  0.01987091  1
  O  O57  1  0.86928560  0.98012909  0.80731144  1
  O  O58  1  0.93980128  0.90777590  0.39668056  1
  O  O59  1  0.99870760  0.35966700  0.34322529  1
