# generated using pymatgen
data_NiH24C2S2(N3O7)2
_symmetry_space_group_name_H-M   'P 1'
_cell_length_a   10.06196770
_cell_length_b   7.65575702
_cell_length_c   12.05139632
_cell_angle_alpha   90.00000000
_cell_angle_beta   97.05001865
_cell_angle_gamma   90.00000000
_symmetry_Int_Tables_number   1
_chemical_formula_structural   NiH24C2S2(N3O7)2
_chemical_formula_sum   'Ni2 H48 C4 S4 N12 O28'
_cell_volume   921.32407285
_cell_formula_units_Z   2
loop_
 _symmetry_equiv_pos_site_id
 _symmetry_equiv_pos_as_xyz
  1  'x, y, z'
loop_
 _atom_site_type_symbol
 _atom_site_label
 _atom_site_symmetry_multiplicity
 _atom_site_fract_x
 _atom_site_fract_y
 _atom_site_fract_z
 _atom_site_occupancy
  Ni  Ni0  1  0.50000000  0.50000000  0.50000000  1
  Ni  Ni1  1  0.50000000  0.00000000  0.00000000  1
  H  H2  1  0.60583480  0.19386007  0.46156102  1
  H  H3  1  0.39416520  0.69386007  0.03843898  1
  H  H4  1  0.39416520  0.80613993  0.53843898  1
  H  H5  1  0.60583480  0.30613993  0.96156102  1
  H  H6  1  0.48552011  0.16853789  0.53653178  1
  H  H7  1  0.51447989  0.66853789  0.96346822  1
  H  H8  1  0.51447989  0.83146211  0.46346822  1
  H  H9  1  0.48552011  0.33146211  0.03653178  1
  H  H10  1  0.51628393  0.51209300  0.72764992  1
  H  H11  1  0.48371607  0.01209300  0.77235008  1
  H  H12  1  0.48371607  0.48790700  0.27235008  1
  H  H13  1  0.51628393  0.98790700  0.22764992  1
  H  H14  1  0.25983970  0.37125190  0.48900216  1
  H  H15  1  0.74016030  0.87125190  0.01099784  1
  H  H16  1  0.74016030  0.62874810  0.51099784  1
  H  H17  1  0.25983970  0.12874810  0.98900216  1
  H  H18  1  0.26981168  0.45916224  0.37136386  1
  H  H19  1  0.73018832  0.95916224  0.12863614  1
  H  H20  1  0.73018832  0.54083776  0.62863614  1
  H  H21  1  0.26981168  0.04083776  0.87136386  1
  H  H22  1  0.44044007  0.33827593  0.67947474  1
  H  H23  1  0.55955993  0.83827593  0.82052526  1
  H  H24  1  0.55955993  0.66172407  0.32052526  1
  H  H25  1  0.44044007  0.16172407  0.17947474  1
  H  H26  1  0.12549138  0.28423590  0.77810446  1
  H  H27  1  0.87450862  0.78423590  0.72189554  1
  H  H28  1  0.87450862  0.71576410  0.22189554  1
  H  H29  1  0.12549138  0.21576410  0.27810446  1
  H  H30  1  0.13172206  0.38932864  0.90704106  1
  H  H31  1  0.86827794  0.88932864  0.59295894  1
  H  H32  1  0.86827794  0.61067136  0.09295894  1
  H  H33  1  0.13172206  0.11067136  0.40704106  1
  H  H34  1  0.14826285  0.66982855  0.62226909  1
  H  H35  1  0.85173715  0.16982855  0.87773091  1
  H  H36  1  0.85173715  0.33017145  0.37773091  1
  H  H37  1  0.14826285  0.83017145  0.12226909  1
  H  H38  1  0.12229805  0.44508186  0.61599689  1
  H  H39  1  0.87770195  0.94508186  0.88400311  1
  H  H40  1  0.87770195  0.55491814  0.38400311  1
  H  H41  1  0.12229805  0.05491814  0.11599689  1
  H  H42  1  0.16460381  0.69003584  0.91498313  1
  H  H43  1  0.83539619  0.19003584  0.58501687  1
  H  H44  1  0.83539619  0.30996416  0.08501687  1
  H  H45  1  0.16460381  0.80996416  0.41498313  1
  H  H46  1  0.15175819  0.81620176  0.79160575  1
  H  H47  1  0.84824181  0.31620176  0.70839425  1
  H  H48  1  0.84824181  0.18379824  0.20839425  1
  H  H49  1  0.15175819  0.68379824  0.29160575  1
  C  C50  1  0.12936182  0.55159159  0.77033239  1
  C  C51  1  0.87063818  0.05159159  0.72966761  1
  C  C52  1  0.87063818  0.44840841  0.22966761  1
  C  C53  1  0.12936182  0.94840841  0.27033239  1
  S  S54  1  0.75096162  0.93714312  0.37103286  1
  S  S55  1  0.24903838  0.43714312  0.12896714  1
  S  S56  1  0.24903838  0.06285688  0.62896714  1
  S  S57  1  0.75096162  0.56285688  0.87103286  1
  N  N58  1  0.12303768  0.39808578  0.82185736  1
  N  N59  1  0.87696232  0.89808578  0.67814264  1
  N  N60  1  0.87696232  0.60191422  0.17814264  1
  N  N61  1  0.12303768  0.10191422  0.32185736  1
  N  N62  1  0.11514972  0.55963513  0.65813312  1
  N  N63  1  0.88485028  0.05963513  0.84186688  1
  N  N64  1  0.88485028  0.44036487  0.34186688  1
  N  N65  1  0.11514972  0.94036487  0.15813312  1
  N  N66  1  0.14394493  0.69856869  0.83034428  1
  N  N67  1  0.85605507  0.19856869  0.66965572  1
  N  N68  1  0.85605507  0.30143131  0.16965572  1
  N  N69  1  0.14394493  0.80143131  0.33034428  1
  O  O70  1  0.51549511  0.23493374  0.47396421  1
  O  O71  1  0.48450489  0.73493374  0.02603579  1
  O  O72  1  0.48450489  0.76506626  0.52603579  1
  O  O73  1  0.51549511  0.26506626  0.97396421  1
  O  O74  1  0.45794880  0.46186155  0.66319356  1
  O  O75  1  0.54205120  0.96186155  0.83680644  1
  O  O76  1  0.54205120  0.53813845  0.33680644  1
  O  O77  1  0.45794880  0.03813845  0.16319356  1
  O  O78  1  0.29438253  0.47522801  0.45295208  1
  O  O79  1  0.70561747  0.97522801  0.04704792  1
  O  O80  1  0.70561747  0.52477199  0.54704792  1
  O  O81  1  0.29438253  0.02477199  0.95295208  1
  O  O82  1  0.76256527  0.10809209  0.43097531  1
  O  O83  1  0.23743473  0.60809209  0.06902469  1
  O  O84  1  0.23743473  0.89190791  0.56902469  1
  O  O85  1  0.76256527  0.39190791  0.93097531  1
  O  O86  1  0.81045429  0.95114684  0.26402564  1
  O  O87  1  0.18954571  0.45114684  0.23597436  1
  O  O88  1  0.18954571  0.04885316  0.73597436  1
  O  O89  1  0.81045429  0.54885316  0.76402564  1
  O  O90  1  0.82158650  0.79784355  0.44225547  1
  O  O91  1  0.17841350  0.29784355  0.05774453  1
  O  O92  1  0.17841350  0.20215645  0.55774453  1
  O  O93  1  0.82158650  0.70215645  0.94225547  1
  O  O94  1  0.60497336  0.88955263  0.34519560  1
  O  O95  1  0.39502664  0.38955263  0.15480440  1
  O  O96  1  0.39502664  0.11044737  0.65480440  1
  O  O97  1  0.60497336  0.61044737  0.84519560  1
