# generated using pymatgen
data_KVH4O7
_symmetry_space_group_name_H-M   'P 1'
_cell_length_a   6.57639303
_cell_length_b   7.89607082
_cell_length_c   7.72218446
_cell_angle_alpha   101.13173140
_cell_angle_beta   95.40081858
_cell_angle_gamma   115.99811463
_symmetry_Int_Tables_number   1
_chemical_formula_structural   KVH4O7
_chemical_formula_sum   'K2 V2 H8 O14'
_cell_volume   346.29638567
_cell_formula_units_Z   2
loop_
 _symmetry_equiv_pos_site_id
 _symmetry_equiv_pos_as_xyz
  1  'x, y, z'
loop_
 _atom_site_type_symbol
 _atom_site_label
 _atom_site_symmetry_multiplicity
 _atom_site_fract_x
 _atom_site_fract_y
 _atom_site_fract_z
 _atom_site_occupancy
  K  K0  1  0.00926663  0.98651487  0.00835093  1
  K  K1  1  0.63166115  0.42381021  0.59866556  1
  V  V2  1  0.43323730  0.90178670  0.77852459  1
  V  V3  1  0.25384207  0.54922508  0.95201475  1
  H  H4  1  0.27620153  0.63884265  0.30301310  1
  H  H5  1  0.98403183  0.51358425  0.19621202  1
  H  H6  1  0.70529893  0.05569374  0.49718513  1
  H  H7  1  0.63552448  0.06217519  0.29896898  1
  H  H8  1  0.68559885  0.30548208  0.09355049  1
  H  H9  1  0.68265724  0.51671320  0.13070472  1
  H  H10  1  0.12991614  0.83237020  0.43232354  1
  H  H11  1  0.01879403  0.96404715  0.44471615  1
  O  O12  1  0.42134179  0.94622009  0.02940218  1
  O  O13  1  0.64571337  0.07967054  0.99561692  1
  O  O14  1  0.46385524  0.74165881  0.57248987  1
  O  O15  1  0.67914799  0.92229705  0.65698394  1
  O  O16  1  0.15218753  0.63550105  0.75241318  1
  O  O17  1  0.01976973  0.62448732  0.89633661  1
  O  O18  1  0.55167195  0.65611325  0.89326089  1
  O  O19  1  0.56256683  0.65301168  0.08258035  1
  O  O20  1  0.31296903  0.02322425  0.70276251  1
  O  O21  1  0.14452302  0.31466048  0.87199788  1
  O  O22  1  0.16373826  0.54848203  0.19352080  1
  O  O23  1  0.72795958  0.14472170  0.41769805  1
  O  O24  1  0.74755893  0.43781076  0.17922571  1
  O  O25  1  0.03316659  0.86529569  0.35638117  1
