# generated using pymatgen
data_V2P2H4O11
_symmetry_space_group_name_H-M   'P 1'
_cell_length_a   11.04509404
_cell_length_b   7.49466996
_cell_length_c   11.43068010
_cell_angle_alpha   90.00000000
_cell_angle_beta   119.54949139
_cell_angle_gamma   90.00000000
_symmetry_Int_Tables_number   1
_chemical_formula_structural   V2P2H4O11
_chemical_formula_sum   'V8 P8 H16 O44'
_cell_volume   823.14874462
_cell_formula_units_Z   4
loop_
 _symmetry_equiv_pos_site_id
 _symmetry_equiv_pos_as_xyz
  1  'x, y, z'
loop_
 _atom_site_type_symbol
 _atom_site_label
 _atom_site_symmetry_multiplicity
 _atom_site_fract_x
 _atom_site_fract_y
 _atom_site_fract_z
 _atom_site_occupancy
  V  V0  1  0.24113239  0.56255206  0.87732336  1
  V  V1  1  0.75886761  0.06255206  0.62267664  1
  V  V2  1  0.75886761  0.43744794  0.12267664  1
  V  V3  1  0.24113239  0.93744794  0.37732336  1
  V  V4  1  0.25554575  0.96788132  0.87285069  1
  V  V5  1  0.74445425  0.46788132  0.62714931  1
  V  V6  1  0.74445425  0.03211868  0.12714931  1
  V  V7  1  0.25554575  0.53211868  0.37285069  1
  P  P8  1  0.46462131  0.26035374  0.09968193  1
  P  P9  1  0.53537869  0.76035374  0.40031807  1
  P  P10  1  0.53537869  0.73964626  0.90031807  1
  P  P11  1  0.46462131  0.23964626  0.59968193  1
  P  P12  1  0.02635577  0.26299982  0.88170735  1
  P  P13  1  0.97364423  0.76299982  0.61829265  1
  P  P14  1  0.97364423  0.73700018  0.11829265  1
  P  P15  1  0.02635577  0.23700018  0.38170735  1
  H  H16  1  0.32843738  0.75608924  0.09048776  1
  H  H17  1  0.67156262  0.25608924  0.40951224  1
  H  H18  1  0.67156262  0.24391076  0.90951224  1
  H  H19  1  0.32843738  0.74391076  0.59048776  1
  H  H20  1  0.10325529  0.75849741  0.01132684  1
  H  H21  1  0.89674471  0.25849741  0.48867316  1
  H  H22  1  0.89674471  0.24150259  0.98867316  1
  H  H23  1  0.10325529  0.74150259  0.51132684  1
  H  H24  1  0.12402378  0.10582529  0.14467726  1
  H  H25  1  0.87597622  0.60582529  0.35532274  1
  H  H26  1  0.87597622  0.89417471  0.85532274  1
  H  H27  1  0.12402378  0.39417471  0.64467726  1
  H  H28  1  0.41106936  0.33788845  0.25585067  1
  H  H29  1  0.58893064  0.83788845  0.24414933  1
  H  H30  1  0.58893064  0.66211155  0.74414933  1
  H  H31  1  0.41106936  0.16211155  0.75585067  1
  O  O32  1  0.24142955  0.75442335  0.00270879  1
  O  O33  1  0.75857045  0.25442335  0.49729121  1
  O  O34  1  0.75857045  0.24557665  0.99729121  1
  O  O35  1  0.24142955  0.74557665  0.50270879  1
  O  O36  1  0.99461060  0.22305712  0.99952562  1
  O  O37  1  0.00538940  0.72305712  0.50047438  1
  O  O38  1  0.00538940  0.77694288  0.00047438  1
  O  O39  1  0.99461060  0.27694288  0.49952562  1
  O  O40  1  0.49186808  0.28354578  0.24768812  1
  O  O41  1  0.50813192  0.78354578  0.25231188  1
  O  O42  1  0.50813192  0.71645422  0.75231188  1
  O  O43  1  0.49186808  0.21645422  0.74768812  1
  O  O44  1  0.20030320  0.44728903  0.72877865  1
  O  O45  1  0.79969680  0.94728903  0.77122135  1
  O  O46  1  0.79969680  0.55271097  0.27122135  1
  O  O47  1  0.20030320  0.05271097  0.22877865  1
  O  O48  1  0.28802299  0.07172629  0.76364164  1
  O  O49  1  0.71197701  0.57172629  0.73635836  1
  O  O50  1  0.71197701  0.92827371  0.23635836  1
  O  O51  1  0.28802299  0.42827371  0.26364164  1
  O  O52  1  0.38642263  0.42404866  0.01651660  1
  O  O53  1  0.61357737  0.92404866  0.48348340  1
  O  O54  1  0.61357737  0.57595134  0.98348340  1
  O  O55  1  0.38642263  0.07595134  0.51651660  1
  O  O56  1  0.10093586  0.44234042  0.90738983  1
  O  O57  1  0.89906414  0.94234042  0.59261017  1
  O  O58  1  0.89906414  0.55765958  0.09261017  1
  O  O59  1  0.10093586  0.05765958  0.40738983  1
  O  O60  1  0.39219733  0.08304407  0.04267250  1
  O  O61  1  0.60780267  0.58304407  0.45732750  1
  O  O62  1  0.60780267  0.91695593  0.95732750  1
  O  O63  1  0.39219733  0.41695593  0.54267250  1
  O  O64  1  0.10665230  0.10188105  0.87661151  1
  O  O65  1  0.89334770  0.60188105  0.62338849  1
  O  O66  1  0.89334770  0.89811895  0.12338849  1
  O  O67  1  0.10665230  0.39811895  0.37661151  1
  O  O68  1  0.61298502  0.25539826  0.11397790  1
  O  O69  1  0.38701498  0.75539826  0.38602210  1
  O  O70  1  0.38701498  0.74460174  0.88602210  1
  O  O71  1  0.61298502  0.24460174  0.61397790  1
  O  O72  1  0.88597429  0.27435743  0.74578421  1
  O  O73  1  0.11402571  0.77435743  0.75421579  1
  O  O74  1  0.11402571  0.72564257  0.25421579  1
  O  O75  1  0.88597429  0.22564257  0.24578421  1
