# generated using pymatgen
data_K4TeP4(HO2)10
_symmetry_space_group_name_H-M   'P 1'
_cell_length_a   7.62406662
_cell_length_b   7.62406662
_cell_length_c   17.46807460
_cell_angle_alpha   84.22615921
_cell_angle_beta   95.77384079
_cell_angle_gamma   80.47886654
_symmetry_Int_Tables_number   1
_chemical_formula_structural   K4TeP4(HO2)10
_chemical_formula_sum   'K8 Te2 P8 H20 O40'
_cell_volume   989.15146732
_cell_formula_units_Z   2
loop_
 _symmetry_equiv_pos_site_id
 _symmetry_equiv_pos_as_xyz
  1  'x, y, z'
loop_
 _atom_site_type_symbol
 _atom_site_label
 _atom_site_symmetry_multiplicity
 _atom_site_fract_x
 _atom_site_fract_y
 _atom_site_fract_z
 _atom_site_occupancy
  K  K0  1  0.07643925  0.07643925  0.25000000  1
  K  K1  1  0.92356075  0.92356075  0.75000000  1
  K  K2  1  0.20878555  0.54662338  0.93128655  1
  K  K3  1  0.54662338  0.20878555  0.56871345  1
  K  K4  1  0.79121445  0.45337662  0.06871345  1
  K  K5  1  0.45337662  0.79121445  0.43128655  1
  K  K6  1  0.28974520  0.28974520  0.75000000  1
  K  K7  1  0.71025480  0.71025480  0.25000000  1
  Te  Te8  1  0.00000000  0.00000000  0.50000000  1
  Te  Te9  1  0.00000000  0.00000000  0.00000000  1
  P  P10  1  0.63475150  0.65250970  0.63551022  1
  P  P11  1  0.65250970  0.63475150  0.86448978  1
  P  P12  1  0.36524850  0.34749030  0.36448978  1
  P  P13  1  0.34749030  0.36524850  0.13551022  1
  P  P14  1  0.76595521  0.36028441  0.76317459  1
  P  P15  1  0.36028441  0.76595521  0.73682541  1
  P  P16  1  0.23404479  0.63971559  0.23682541  1
  P  P17  1  0.63971559  0.23404479  0.26317459  1
  H  H18  1  0.18485974  0.13453553  0.09243878  1
  H  H19  1  0.13453553  0.18485974  0.40756122  1
  H  H20  1  0.81514026  0.86546447  0.90756122  1
  H  H21  1  0.86546447  0.81514026  0.59243878  1
  H  H22  1  0.97155446  0.25870567  0.90109135  1
  H  H23  1  0.25870567  0.97155446  0.59890865  1
  H  H24  1  0.02844554  0.74129433  0.09890865  1
  H  H25  1  0.74129433  0.02844554  0.40109135  1
  H  H26  1  0.26755438  0.97830682  0.92924124  1
  H  H27  1  0.97830682  0.26755438  0.57075876  1
  H  H28  1  0.73244562  0.02169318  0.07075876  1
  H  H29  1  0.02169318  0.73244562  0.42924124  1
  H  H30  1  0.55405988  0.10359698  0.92491676  1
  H  H31  1  0.10359698  0.55405988  0.57508324  1
  H  H32  1  0.44594012  0.89640302  0.07508324  1
  H  H33  1  0.89640302  0.44594012  0.42491676  1
  H  H34  1  0.42712248  0.19937361  0.97673430  1
  H  H35  1  0.19937361  0.42712248  0.52326570  1
  H  H36  1  0.57287752  0.80062639  0.02326570  1
  H  H37  1  0.80062639  0.57287752  0.47673430  1
  O  O38  1  0.20339312  0.01007456  0.07513218  1
  O  O39  1  0.01007456  0.20339312  0.42486782  1
  O  O40  1  0.79660688  0.98992544  0.92486782  1
  O  O41  1  0.98992544  0.79660688  0.57513218  1
  O  O42  1  0.99094306  0.25102759  0.95935318  1
  O  O43  1  0.25102759  0.99094306  0.54064682  1
  O  O44  1  0.00905694  0.74897241  0.04064682  1
  O  O45  1  0.74897241  0.00905694  0.45935318  1
  O  O46  1  0.16348333  0.91485530  0.92566571  1
  O  O47  1  0.91485530  0.16348333  0.57433429  1
  O  O48  1  0.83651667  0.08514470  0.07433429  1
  O  O49  1  0.08514470  0.83651667  0.42566571  1
  O  O50  1  0.46523779  0.21888159  0.20424622  1
  O  O51  1  0.21888159  0.46523779  0.29575378  1
  O  O52  1  0.53476221  0.78111841  0.79575378  1
  O  O53  1  0.78111841  0.53476221  0.70424622  1
  O  O54  1  0.35133745  0.55216769  0.17209192  1
  O  O55  1  0.55216769  0.35133745  0.32790808  1
  O  O56  1  0.64866255  0.44783231  0.82790808  1
  O  O57  1  0.44783231  0.64866255  0.67209192  1
  O  O58  1  0.43998054  0.37228482  0.06416827  1
  O  O59  1  0.37228482  0.43998054  0.43583173  1
  O  O60  1  0.56001946  0.62771518  0.93583173  1
  O  O61  1  0.62771518  0.56001946  0.56416827  1
  O  O62  1  0.16179927  0.31918356  0.13060676  1
  O  O63  1  0.31918356  0.16179927  0.36939324  1
  O  O64  1  0.83820073  0.68081644  0.86939324  1
  O  O65  1  0.68081644  0.83820073  0.63060676  1
  O  O66  1  0.95312310  0.28477272  0.80090819  1
  O  O67  1  0.28477272  0.95312310  0.69909181  1
  O  O68  1  0.04687690  0.71522728  0.19909181  1
  O  O69  1  0.71522728  0.04687690  0.30090819  1
  O  O70  1  0.24117822  0.65582953  0.77519352  1
  O  O71  1  0.65582953  0.24117822  0.72480648  1
  O  O72  1  0.75882178  0.34417047  0.22480648  1
  O  O73  1  0.34417047  0.75882178  0.27519352  1
  O  O74  1  0.42469396  0.14529136  0.92800321  1
  O  O75  1  0.14529136  0.42469396  0.57199679  1
  O  O76  1  0.57530604  0.85470864  0.07199679  1
  O  O77  1  0.85470864  0.57530604  0.42800321  1
