# generated using pymatgen
data_Na2LiP3H8O13
_symmetry_space_group_name_H-M   'P 1'
_cell_length_a   6.97850488
_cell_length_b   9.46257993
_cell_length_c   9.99527997
_cell_angle_alpha   94.91305713
_cell_angle_beta   104.25883205
_cell_angle_gamma   107.92012398
_symmetry_Int_Tables_number   1
_chemical_formula_structural   Na2LiP3H8O13
_chemical_formula_sum   'Na4 Li2 P6 H16 O26'
_cell_volume   599.26858745
_cell_formula_units_Z   2
loop_
 _symmetry_equiv_pos_site_id
 _symmetry_equiv_pos_as_xyz
  1  'x, y, z'
loop_
 _atom_site_type_symbol
 _atom_site_label
 _atom_site_symmetry_multiplicity
 _atom_site_fract_x
 _atom_site_fract_y
 _atom_site_fract_z
 _atom_site_occupancy
  Na  Na0  1  0.56881194  0.94670304  0.84994709  1
  Na  Na1  1  0.43118806  0.05329696  0.15005291  1
  Na  Na2  1  0.18997782  0.65968503  0.96493877  1
  Na  Na3  1  0.81002218  0.34031497  0.03506123  1
  Li  Li4  1  0.63628596  0.74830267  0.61072018  1
  Li  Li5  1  0.36371404  0.25169733  0.38927982  1
  P  P6  1  0.26708891  0.29613898  0.96464632  1
  P  P7  1  0.73291109  0.70386102  0.03535368  1
  P  P8  1  0.17716218  0.22073906  0.66075790  1
  P  P9  1  0.82283782  0.77926094  0.33924210  1
  P  P10  1  0.07723762  0.98080094  0.82116952  1
  P  P11  1  0.92276238  0.01919906  0.17883048  1
  H  H12  1  0.27197582  0.79725872  0.54541740  1
  H  H13  1  0.72802418  0.20274128  0.45458260  1
  H  H14  1  0.28093833  0.69356398  0.65657679  1
  H  H15  1  0.71906167  0.30643602  0.34342321  1
  H  H16  1  0.57029856  0.21170877  0.71516016  1
  H  H17  1  0.42970144  0.78829123  0.28483984  1
  H  H18  1  0.79558455  0.20669761  0.74423344  1
  H  H19  1  0.20441545  0.79330239  0.25576656  1
  H  H20  1  0.51519024  0.45881734  0.63339319  1
  H  H21  1  0.48480976  0.54118266  0.36660681  1
  H  H22  1  0.65695615  0.56609933  0.77489861  1
  H  H23  1  0.34304385  0.43390067  0.22510139  1
  H  H24  1  0.92258632  0.57699595  0.68037712  1
  H  H25  1  0.07741368  0.42300405  0.31962288  1
  H  H26  1  0.02687458  0.45482304  0.67729624  1
  H  H27  1  0.97312542  0.54517696  0.32270376  1
  O  O28  1  0.30382992  0.32794336  0.81272897  1
  O  O29  1  0.69617008  0.67205664  0.18727103  1
  O  O30  1  0.07986523  0.13108078  0.91585831  1
  O  O31  1  0.92013477  0.86891922  0.08414169  1
  O  O32  1  0.82613959  0.59494084  0.98245475  1
  O  O33  1  0.17386041  0.40505916  0.01754525  1
  O  O34  1  0.53643342  0.71776299  0.94524721  1
  O  O35  1  0.46356658  0.28223701  0.05475279  1
  O  O36  1  0.16144358  0.05345566  0.69388803  1
  O  O37  1  0.83855642  0.94654434  0.30611197  1
  O  O38  1  0.32842318  0.25899781  0.57417773  1
  O  O39  1  0.67157682  0.74100219  0.42582227  1
  O  O40  1  0.96303220  0.23582575  0.61343603  1
  O  O41  1  0.03696780  0.76417425  0.38656397  1
  O  O42  1  0.85071004  0.88457316  0.76468976  1
  O  O43  1  0.14928996  0.11542684  0.23531024  1
  O  O44  1  0.23723467  0.91899161  0.89868876  1
  O  O45  1  0.76276533  0.08100839  0.10131124  1
  O  O46  1  0.37262990  0.77628946  0.62263613  1
  O  O47  1  0.62737010  0.22371054  0.37736387  1
  O  O48  1  0.67990953  0.19370178  0.78706759  1
  O  O49  1  0.32009047  0.80629822  0.21293241  1
  O  O50  1  0.63282849  0.55475880  0.67265956  1
  O  O51  1  0.36717151  0.44524120  0.32734044  1
  O  O52  1  0.06053895  0.56321755  0.70890359  1
  O  O53  1  0.93946105  0.43678245  0.29109641  1
