# generated using pymatgen
data_TlCuHCO4
_symmetry_space_group_name_H-M   'P 1'
_cell_length_a   11.15238617
_cell_length_b   11.15238655
_cell_length_c   6.10082358
_cell_angle_alpha   90.00000000
_cell_angle_beta   90.00000000
_cell_angle_gamma   119.99999889
_symmetry_Int_Tables_number   1
_chemical_formula_structural   TlCuHCO4
_chemical_formula_sum   'Tl6 Cu6 H6 C6 O24'
_cell_volume   657.13517719
_cell_formula_units_Z   6
loop_
 _symmetry_equiv_pos_site_id
 _symmetry_equiv_pos_as_xyz
  1  'x, y, z'
loop_
 _atom_site_type_symbol
 _atom_site_label
 _atom_site_symmetry_multiplicity
 _atom_site_fract_x
 _atom_site_fract_y
 _atom_site_fract_z
 _atom_site_occupancy
  Tl  Tl0  1  0.86479472  0.71700455  0.25000000  1
  Tl  Tl1  1  0.85220983  0.13520528  0.25000000  1
  Tl  Tl2  1  0.28299545  0.14779017  0.25000000  1
  Tl  Tl3  1  0.13520528  0.28299545  0.75000000  1
  Tl  Tl4  1  0.14779017  0.86479472  0.75000000  1
  Tl  Tl5  1  0.71700455  0.85220983  0.75000000  1
  Cu  Cu6  1  0.50000000  0.50000000  0.50000000  1
  Cu  Cu7  1  0.00000000  0.50000000  0.50000000  1
  Cu  Cu8  1  0.50000000  0.00000000  0.50000000  1
  Cu  Cu9  1  0.50000000  0.50000000  0.00000000  1
  Cu  Cu10  1  0.00000000  0.50000000  0.00000000  1
  Cu  Cu11  1  0.50000000  0.00000000  0.00000000  1
  H  H12  1  0.80480442  0.41334040  0.25000000  1
  H  H13  1  0.60853598  0.19519558  0.25000000  1
  H  H14  1  0.58665960  0.39146402  0.25000000  1
  H  H15  1  0.19519558  0.58665960  0.75000000  1
  H  H16  1  0.39146402  0.80480442  0.75000000  1
  H  H17  1  0.41334040  0.60853598  0.75000000  1
  C  C18  1  0.19383975  0.76268881  0.25000000  1
  C  C19  1  0.56884906  0.80616025  0.25000000  1
  C  C20  1  0.23731119  0.43115094  0.25000000  1
  C  C21  1  0.80616025  0.23731119  0.75000000  1
  C  C22  1  0.43115094  0.19383975  0.75000000  1
  C  C23  1  0.76268881  0.56884906  0.75000000  1
  O  O24  1  0.89314887  0.49949063  0.25000000  1
  O  O25  1  0.60634176  0.10685113  0.25000000  1
  O  O26  1  0.50050937  0.39365824  0.25000000  1
  O  O27  1  0.10685113  0.50050937  0.75000000  1
  O  O28  1  0.39365824  0.89314887  0.75000000  1
  O  O29  1  0.49949063  0.60634176  0.75000000  1
  O  O30  1  0.14691741  0.69760524  0.43690464  1
  O  O31  1  0.55068783  0.85308259  0.43690464  1
  O  O32  1  0.30239476  0.44931217  0.43690464  1
  O  O33  1  0.85308259  0.30239476  0.93690464  1
  O  O34  1  0.44931217  0.14691741  0.93690464  1
  O  O35  1  0.69760524  0.55068783  0.93690464  1
  O  O36  1  0.85308259  0.30239476  0.56309536  1
  O  O37  1  0.44931217  0.14691741  0.56309536  1
  O  O38  1  0.69760524  0.55068783  0.56309536  1
  O  O39  1  0.14691741  0.69760524  0.06309536  1
  O  O40  1  0.55068783  0.85308259  0.06309536  1
  O  O41  1  0.30239476  0.44931217  0.06309536  1
  O  O42  1  0.28380257  0.89163749  0.25000000  1
  O  O43  1  0.60783493  0.71619743  0.25000000  1
  O  O44  1  0.10836251  0.39216507  0.25000000  1
  O  O45  1  0.71619743  0.10836251  0.75000000  1
  O  O46  1  0.39216507  0.28380257  0.75000000  1
  O  O47  1  0.89163749  0.60783493  0.75000000  1
