# generated using pymatgen
data_CaH8(BrO6)2
_symmetry_space_group_name_H-M   'P 1'
_cell_length_a   5.69437398
_cell_length_b   9.70292731
_cell_length_c   14.58555994
_cell_angle_alpha   72.82723088
_cell_angle_beta   81.56108793
_cell_angle_gamma   100.46946908
_symmetry_Int_Tables_number   1
_chemical_formula_structural   CaH8(BrO6)2
_chemical_formula_sum   'Ca2 H16 Br4 O24'
_cell_volume   739.71166410
_cell_formula_units_Z   2
loop_
 _symmetry_equiv_pos_site_id
 _symmetry_equiv_pos_as_xyz
  1  'x, y, z'
loop_
 _atom_site_type_symbol
 _atom_site_label
 _atom_site_symmetry_multiplicity
 _atom_site_fract_x
 _atom_site_fract_y
 _atom_site_fract_z
 _atom_site_occupancy
  Ca  Ca0  1  0.06971603  0.75520933  0.18916252  1
  Ca  Ca1  1  0.93028397  0.24479067  0.81083748  1
  H  H2  1  0.65635194  0.96318357  0.79979008  1
  H  H3  1  0.34364806  0.03681643  0.20020992  1
  H  H4  1  0.11945167  0.44617486  0.15477473  1
  H  H5  1  0.88054833  0.55382514  0.84522527  1
  H  H6  1  0.66545747  0.26677171  0.26804692  1
  H  H7  1  0.33454253  0.73322829  0.73195308  1
  H  H8  1  0.10594638  0.71791722  0.54983881  1
  H  H9  1  0.89405362  0.28208278  0.45016119  1
  H  H10  1  0.75695262  0.17370559  0.40166906  1
  H  H11  1  0.24304738  0.82629441  0.59833094  1
  H  H12  1  0.63246801  0.31847634  0.95462573  1
  H  H13  1  0.36753199  0.68152366  0.04537427  1
  H  H14  1  0.91317270  0.69081403  0.75343475  1
  H  H15  1  0.08682730  0.30918597  0.24656525  1
  H  H16  1  0.53888577  0.67624007  0.11975693  1
  H  H17  1  0.46111423  0.32375993  0.88024307  1
  Br  Br18  1  0.80327984  0.85920078  0.96770007  1
  Br  Br19  1  0.19672016  0.14079922  0.03229993  1
  Br  Br20  1  0.74386853  0.82215252  0.62296049  1
  Br  Br21  1  0.25613147  0.17784748  0.37703951  1
  O  O22  1  0.04084988  0.56798479  0.34361163  1
  O  O23  1  0.95915012  0.43201521  0.65638837  1
  O  O24  1  0.77635276  0.52641325  0.53482492  1
  O  O25  1  0.22364724  0.47358675  0.46517508  1
  O  O26  1  0.72004718  0.79300560  0.32053788  1
  O  O27  1  0.27995282  0.20699440  0.67946212  1
  O  O28  1  0.65122383  0.35088510  0.88297081  1
  O  O29  1  0.34877617  0.64911490  0.11702919  1
  O  O30  1  0.79747866  0.73141136  0.09657241  1
  O  O31  1  0.20252134  0.26858864  0.90342759  1
  O  O32  1  0.00624450  0.63756829  0.79770684  1
  O  O33  1  -0.00624450  0.36243171  0.20229316  1
  O  O34  1  0.10406879  0.49735565  0.98266046  1
  O  O35  1  0.89593121  0.50264435  0.01733954  1
  O  O36  1  0.77951185  0.01384924  0.82600871  1
  O  O37  1  0.22048815  0.98615076  0.17399129  1
  O  O38  1  0.13335958  0.82034707  0.55025070  1
  O  O39  1  0.86664042  0.17965293  0.44974930  1
  O  O40  1  0.76133486  0.41842480  0.61449887  1
  O  O41  1  0.23866514  0.58157520  0.38550113  1
  O  O42  1  0.69198469  0.85434269  0.38315580  1
  O  O43  1  0.30801531  0.14565731  0.61684420  1
  O  O44  1  0.41916601  0.82907856  0.68065282  1
  O  O45  1  0.58083399  0.17092144  0.31934718  1
