# generated using pymatgen
data_H7CSN3O4
_symmetry_space_group_name_H-M   'P 1'
_cell_length_a   8.20377458
_cell_length_b   5.11972537
_cell_length_c   14.74761440
_cell_angle_alpha   89.99999867
_cell_angle_beta   90.98111220
_cell_angle_gamma   90.00001083
_symmetry_Int_Tables_number   1
_chemical_formula_structural   H7CSN3O4
_chemical_formula_sum   'H28 C4 S4 N12 O16'
_cell_volume   619.32481649
_cell_formula_units_Z   4
loop_
 _symmetry_equiv_pos_site_id
 _symmetry_equiv_pos_as_xyz
  1  'x, y, z'
loop_
 _atom_site_type_symbol
 _atom_site_label
 _atom_site_symmetry_multiplicity
 _atom_site_fract_x
 _atom_site_fract_y
 _atom_site_fract_z
 _atom_site_occupancy
  H  H0  1  0.80106234  0.83632215  0.20771626  1
  H  H1  1  0.30106256  0.66367720  0.70771622  1
  H  H2  1  0.19893734  0.16367754  0.79228354  1
  H  H3  1  0.69893771  0.33632266  0.29228388  1
  H  H4  1  0.13798884  0.78953443  0.04969593  1
  H  H5  1  0.63798881  0.71046558  0.54969592  1
  H  H6  1  0.86201082  0.21046581  0.95030419  1
  H  H7  1  0.36201146  0.28953474  0.45030412  1
  H  H8  1  0.03066536  0.04546943  0.10371325  1
  H  H9  1  0.53066519  0.45453117  0.60371311  1
  H  H10  1  0.96933488  0.95453079  0.89628703  1
  H  H11  1  0.46933507  0.54546979  0.39628700  1
  H  H12  1  0.38886919  0.34285425  0.19024187  1
  H  H13  1  0.88886910  0.15714577  0.69024182  1
  H  H14  1  0.61113089  0.65714559  0.80975821  1
  H  H15  1  0.11113124  0.84285437  0.30975820  1
  H  H16  1  0.17529855  0.35975737  0.18229854  1
  H  H17  1  0.67529891  0.14024309  0.68229869  1
  H  H18  1  0.82470089  0.64024327  0.81770148  1
  H  H19  1  0.32470126  0.85975692  0.31770142  1
  H  H20  1  0.41406421  0.77291133  0.05700017  1
  H  H21  1  0.91406415  0.72708861  0.55700031  1
  H  H22  1  0.58593570  0.22708878  0.94299987  1
  H  H23  1  0.08593599  0.27291138  0.44299976  1
  H  H24  1  0.52669007  0.99846942  0.12218909  1
  H  H25  1  0.02669011  0.50153073  0.62218903  1
  H  H26  1  0.47330977  0.00153056  0.87781103  1
  H  H27  1  0.97330980  0.49846994  0.37781111  1
  C  C28  1  0.27811909  0.04635690  0.12127906  1
  C  C29  1  0.77811879  0.45364520  0.62127881  1
  C  C30  1  0.72188115  0.95364422  0.87872118  1
  C  C31  1  0.22188218  0.54635566  0.37872095  1
  S  S32  1  0.76683867  0.48805770  0.12580583  1
  S  S33  1  0.26683430  0.01194229  0.62580500  1
  S  S34  1  0.23316526  0.51194282  0.87419562  1
  S  S35  1  0.73316156  0.98805737  0.37419438  1
  N  N36  1  0.13663983  0.95027125  0.09023447  1
  N  N37  1  0.63663900  0.54972853  0.59023487  1
  N  N38  1  0.86336042  0.04972782  0.90976464  1
  N  N39  1  0.36336161  0.45027137  0.40976448  1
  N  N40  1  0.27983435  0.25422327  0.17713307  1
  N  N41  1  0.77983425  0.24577417  0.67713332  1
  N  N42  1  0.72016616  0.74577519  0.82286607  1
  N  N43  1  0.22016590  0.75422667  0.32286628  1
  N  N44  1  0.41720245  0.92617723  0.10090015  1
  N  N45  1  0.91720213  0.57382348  0.60089961  1
  N  N46  1  0.58279733  0.07382409  0.89910059  1
  N  N47  1  0.08279895  0.42617675  0.39910032  1
  O  O48  1  0.71387301  0.45891354  0.03168138  1
  O  O49  1  0.21387015  0.04108632  0.53168342  1
  O  O50  1  0.28612718  0.54108501  0.96831690  1
  O  O51  1  0.78612819  0.95891391  0.46831809  1
  O  O52  1  0.93060696  0.38830618  0.14579687  1
  O  O53  1  0.43060587  0.11169390  0.64579727  1
  O  O54  1  0.06939413  0.61169268  0.85420325  1
  O  O55  1  0.56939260  0.88830679  0.35420355  1
  O  O56  1  0.64333124  0.38490663  0.18984575  1
  O  O57  1  0.14332970  0.11509238  0.68984503  1
  O  O58  1  0.35666943  0.61509410  0.81015450  1
  O  O59  1  0.85666879  0.88490549  0.31015558  1
  O  O60  1  0.76991739  0.79641795  0.14153488  1
  O  O61  1  0.26991623  0.70358100  0.64153521  1
  O  O62  1  0.23008390  0.20358032  0.85846306  1
  O  O63  1  0.73008168  0.29641919  0.35846555  1
