# generated using pymatgen
data_H4NF
_symmetry_space_group_name_H-M   'P 1'
_cell_length_a   7.38361613
_cell_length_b   7.38357176
_cell_length_c   7.38357171
_cell_angle_alpha   70.83973157
_cell_angle_beta   70.83952375
_cell_angle_gamma   70.83952466
_symmetry_Int_Tables_number   1
_chemical_formula_structural   H4NF
_chemical_formula_sum   'H32 N8 F8'
_cell_volume   348.03213703
_cell_formula_units_Z   8
loop_
 _symmetry_equiv_pos_site_id
 _symmetry_equiv_pos_as_xyz
  1  'x, y, z'
loop_
 _atom_site_type_symbol
 _atom_site_label
 _atom_site_symmetry_multiplicity
 _atom_site_fract_x
 _atom_site_fract_y
 _atom_site_fract_z
 _atom_site_occupancy
  H  H0  1  0.80419684  0.80427188  0.80427199  1
  H  H1  1  0.30419684  0.30427199  0.30427188  1
  H  H2  1  0.84468905  0.62484874  0.68227868  1
  H  H3  1  0.62480975  0.68226265  0.84470034  1
  H  H4  1  0.68224594  0.84470254  0.62483545  1
  H  H5  1  0.34468905  0.18227868  0.12484874  1
  H  H6  1  0.18224594  0.12483545  0.34470254  1
  H  H7  1  0.12480975  0.34470034  0.18226265  1
  H  H8  1  0.23975105  0.65657126  0.14657404  1
  H  H9  1  0.65656956  0.14657596  0.23975144  1
  H  H10  1  0.14657338  0.23975145  0.65657289  1
  H  H11  1  0.73975105  0.64657404  0.15657126  1
  H  H12  1  0.64657338  0.15657289  0.73975145  1
  H  H13  1  0.15656956  0.73975144  0.64657596  1
  H  H14  1  0.04325457  0.60713574  0.34023790  1
  H  H15  1  0.60713266  0.34023891  0.04325704  1
  H  H16  1  0.34023649  0.04325428  0.60713478  1
  H  H17  1  0.54325457  0.84023790  0.10713574  1
  H  H18  1  0.84023649  0.10713478  0.54325428  1
  H  H19  1  0.10713266  0.54325704  0.84023891  1
  H  H20  1  0.01151512  0.78812475  0.12216113  1
  H  H21  1  0.78812128  0.12215540  0.01152194  1
  H  H22  1  0.12215739  0.01152206  0.78812277  1
  H  H23  1  0.51151512  0.62216113  0.28812475  1
  H  H24  1  0.62215739  0.28812277  0.51152206  1
  H  H25  1  0.28812128  0.51152194  0.62215540  1
  H  H26  1  0.10160585  0.81966219  0.29609271  1
  H  H27  1  0.81965987  0.29609372  0.10160757  1
  H  H28  1  0.29609181  0.10160575  0.81966354  1
  H  H29  1  0.60160585  0.79609271  0.31966219  1
  H  H30  1  0.79609181  0.31966354  0.60160575  1
  H  H31  1  0.31965987  0.60160757  0.79609372  1
  N  N32  1  0.74115809  0.74119069  0.74119071  1
  N  N33  1  0.24115809  0.24119071  0.24119069  1
  N  N34  1  0.09862282  0.71838910  0.22556329  1
  N  N35  1  0.71838635  0.22556779  0.09862527  1
  N  N36  1  0.22556295  0.09862302  0.71839038  1
  N  N37  1  0.59862282  0.72556329  0.21838910  1
  N  N38  1  0.72556295  0.21839038  0.59862302  1
  N  N39  1  0.21838635  0.59862527  0.72556779  1
  F  F40  1  0.91956379  0.91963879  0.91963809  1
  F  F41  1  0.41956379  0.41963809  0.41963879  1
  F  F42  1  0.96553035  0.44500210  0.56837058  1
  F  F43  1  0.44499269  0.56836738  0.96554472  1
  F  F44  1  0.56837238  0.96553772  0.44499889  1
  F  F45  1  0.46553035  0.06837058  0.94500210  1
  F  F46  1  0.06837238  0.94499889  0.46553772  1
  F  F47  1  0.94499269  0.46554472  0.06836738  1
