# generated using pymatgen
data_Er2CuO4
_symmetry_space_group_name_H-M   'P 1'
_cell_length_a   5.46700230
_cell_length_b   6.48362760
_cell_length_c   5.47078153
_cell_angle_alpha   114.95409162
_cell_angle_beta   90.00000000
_cell_angle_gamma   90.00000000
_symmetry_Int_Tables_number   1
_chemical_formula_structural   Er2CuO4
_chemical_formula_sum   'Er4 Cu2 O8'
_cell_volume   175.81442251
_cell_formula_units_Z   2
loop_
 _symmetry_equiv_pos_site_id
 _symmetry_equiv_pos_as_xyz
  1  'x, y, z'
loop_
 _atom_site_type_symbol
 _atom_site_label
 _atom_site_symmetry_multiplicity
 _atom_site_fract_x
 _atom_site_fract_y
 _atom_site_fract_z
 _atom_site_occupancy
  Er  Er0  1  0.00000000  0.31005048  0.65502574  1
  Er  Er1  1  0.00000000  0.68994952  0.34497426  1
  Er  Er2  1  0.50000000  0.68994952  0.84497426  1
  Er  Er3  1  0.50000000  0.31005048  0.15502574  1
  Cu  Cu4  1  0.00000000  0.00000000  0.00000000  1
  Cu  Cu5  1  0.50000000  0.00000000  0.50000000  1
  O  O6  1  0.19823574  1.00000000  0.30248525  1
  O  O7  1  0.25000000  0.50000000  0.99026317  1
  O  O8  1  0.25000000  0.50000000  0.49026317  1
  O  O9  1  0.30176426  1.00000000  0.80248525  1
  O  O10  1  0.69823574  0.00000000  0.19751475  1
  O  O11  1  0.75000000  0.50000000  0.50973683  1
  O  O12  1  0.75000000  0.50000000  0.00973683  1
  O  O13  1  0.80176426  0.00000000  0.69751475  1
