# generated using pymatgen
data_LiAg5F12
_symmetry_space_group_name_H-M   'P 1'
_cell_length_a   4.96815479
_cell_length_b   4.96815469
_cell_length_c   10.58080943
_cell_angle_alpha   90.00000000
_cell_angle_beta   90.00000000
_cell_angle_gamma   89.63662791
_symmetry_Int_Tables_number   1
_chemical_formula_structural   LiAg5F12
_chemical_formula_sum   'Li1 Ag5 F12'
_cell_volume   261.15622760
_cell_formula_units_Z   1
loop_
 _symmetry_equiv_pos_site_id
 _symmetry_equiv_pos_as_xyz
  1  'x, y, z'
loop_
 _atom_site_type_symbol
 _atom_site_label
 _atom_site_symmetry_multiplicity
 _atom_site_fract_x
 _atom_site_fract_y
 _atom_site_fract_z
 _atom_site_occupancy
  Li  Li0  1  0.00000000  0.00000000  0.00000000  1
  Ag  Ag1  1  0.00000000  0.00000000  0.32530752  1
  Ag  Ag2  1  0.00000000  0.00000000  0.67469248  1
  Ag  Ag3  1  0.50000000  0.50000000  0.15744567  1
  Ag  Ag4  1  0.50000000  0.50000000  0.50000000  1
  Ag  Ag5  1  0.50000000  0.50000000  0.84255433  1
  F  F6  1  0.19470556  0.80529444  0.50000000  1
  F  F7  1  0.20510546  0.79489454  0.16563440  1
  F  F8  1  0.20510546  0.79489454  0.83436560  1
  F  F9  1  0.28876777  0.28876777  0.00000000  1
  F  F10  1  0.30292129  0.30292129  0.33258882  1
  F  F11  1  0.30292129  0.30292129  0.66741118  1
  F  F12  1  0.69707871  0.69707871  0.33258882  1
  F  F13  1  0.69707871  0.69707871  0.66741118  1
  F  F14  1  0.71123223  0.71123223  0.00000000  1
  F  F15  1  0.79489454  0.20510546  0.16563440  1
  F  F16  1  0.79489454  0.20510546  0.83436560  1
  F  F17  1  0.80529444  0.19470556  0.50000000  1
