# generated using pymatgen
data_LiAg2F4
_symmetry_space_group_name_H-M   'P 1'
_cell_length_a   3.30910811
_cell_length_b   5.58109127
_cell_length_c   10.89134451
_cell_angle_alpha   89.66248078
_cell_angle_beta   90.50431400
_cell_angle_gamma   93.08637642
_symmetry_Int_Tables_number   1
_chemical_formula_structural   LiAg2F4
_chemical_formula_sum   'Li2 Ag4 F8'
_cell_volume   200.84358326
_cell_formula_units_Z   2
loop_
 _symmetry_equiv_pos_site_id
 _symmetry_equiv_pos_as_xyz
  1  'x, y, z'
loop_
 _atom_site_type_symbol
 _atom_site_label
 _atom_site_symmetry_multiplicity
 _atom_site_fract_x
 _atom_site_fract_y
 _atom_site_fract_z
 _atom_site_occupancy
  Li  Li0  1  0.87079071  0.20152709  0.25150480  1
  Li  Li1  1  0.12879024  0.79907745  0.74894102  1
  Ag  Ag2  1  0.36864678  0.72951253  0.08044823  1
  Ag  Ag3  1  0.36186309  0.73080201  0.42035848  1
  Ag  Ag4  1  0.63879435  0.26970709  0.58043646  1
  Ag  Ag5  1  0.63177184  0.26994285  0.91948416  1
  F  F6  1  0.99932470  0.99944534  0.00017359  1
  F  F7  1  0.22076917  0.56622169  0.87978238  1
  F  F8  1  0.23285008  0.56912049  0.61917782  1
  F  F9  1  0.37832594  0.98747370  0.25069920  1
  F  F10  1  0.62491809  0.01023067  0.74997373  1
  F  F11  1  0.78010224  0.43341594  0.11995261  1
  F  F12  1  0.76160129  0.43258045  0.37974249  1
  F  F13  1  0.00145248  0.00094369  0.49932502  1
