# generated using pymatgen
data_RbBrO4
_symmetry_space_group_name_H-M   'P 1'
_cell_length_a   8.06547700
_cell_length_b   8.06547700
_cell_length_c   8.06547700
_cell_angle_alpha   137.73973997
_cell_angle_beta   137.73973997
_cell_angle_gamma   61.30183350
_symmetry_Int_Tables_number   1
_chemical_formula_structural   RbBrO4
_chemical_formula_sum   'Rb2 Br2 O8'
_cell_volume   234.62527634
_cell_formula_units_Z   2
loop_
 _symmetry_equiv_pos_site_id
 _symmetry_equiv_pos_as_xyz
  1  'x, y, z'
loop_
 _atom_site_type_symbol
 _atom_site_label
 _atom_site_symmetry_multiplicity
 _atom_site_fract_x
 _atom_site_fract_y
 _atom_site_fract_z
 _atom_site_occupancy
  Rb  Rb0  1  0.00000000  0.00000000  0.00000000  1
  Rb  Rb1  1  0.75000000  0.25000000  0.50000000  1
  Br  Br2  1  0.50000000  0.50000000  0.00000000  1
  Br  Br3  1  0.25000000  0.75000000  0.50000000  1
  O  O4  1  0.53794935  0.89455080  0.79718065  1
  O  O5  1  0.65263085  0.50923130  0.29718065  1
  O  O6  1  0.49076870  0.78794935  0.14339855  1
  O  O7  1  0.10544920  0.90263085  0.64339855  1
  O  O8  1  0.25923130  0.46205065  0.35660145  1
  O  O9  1  0.64455080  0.34736915  0.85660145  1
  O  O10  1  0.21205065  0.35544920  0.70281935  1
  O  O11  1  0.09736915  0.74076870  0.20281935  1
