# generated using pymatgen
data_V2Cu3H6O11
_symmetry_space_group_name_H-M   'P 1'
_cell_length_a   6.22151969
_cell_length_b   6.22151969
_cell_length_c   7.19674877
_cell_angle_alpha   83.98014879
_cell_angle_beta   96.01985121
_cell_angle_gamma   123.29742848
_symmetry_Int_Tables_number   1
_chemical_formula_structural   V2Cu3H6O11
_chemical_formula_sum   'V2 Cu3 H6 O11'
_cell_volume   231.17589420
_cell_formula_units_Z   1
loop_
 _symmetry_equiv_pos_site_id
 _symmetry_equiv_pos_as_xyz
  1  'x, y, z'
loop_
 _atom_site_type_symbol
 _atom_site_label
 _atom_site_symmetry_multiplicity
 _atom_site_fract_x
 _atom_site_fract_y
 _atom_site_fract_z
 _atom_site_occupancy
  V  V0  1  0.50539823  0.49460177  0.74959746  1
  V  V1  1  0.49460177  0.50539823  0.25040254  1
  Cu  Cu2  1  0.00000000  0.00000000  0.00000000  1
  Cu  Cu3  1  0.00000000  0.50000000  0.00000000  1
  Cu  Cu4  1  0.50000000  0.00000000  0.00000000  1
  H  H5  1  0.15043033  0.84956967  0.73948674  1
  H  H6  1  0.84956967  0.15043033  0.26051326  1
  H  H7  1  0.01697304  0.72429696  0.43928498  1
  H  H8  1  0.27570304  0.98302696  0.43928498  1
  H  H9  1  0.98302696  0.27570304  0.56071502  1
  H  H10  1  0.72429696  0.01697304  0.56071502  1
  O  O11  1  0.50000000  0.50000000  0.50000000  1
  O  O12  1  0.15324675  0.84675325  0.88246106  1
  O  O13  1  0.84675325  0.15324675  0.11753894  1
  O  O14  1  0.19354420  0.33449890  0.81060703  1
  O  O15  1  0.66550110  0.80645580  0.81060703  1
  O  O16  1  0.80645580  0.66550110  0.18939297  1
  O  O17  1  0.33449890  0.19354420  0.18939297  1
  O  O18  1  0.33752398  0.66247602  0.14580121  1
  O  O19  1  0.66247602  0.33752398  0.85419879  1
  O  O20  1  0.16995461  0.83004539  0.52141487  1
  O  O21  1  0.83004539  0.16995461  0.47858513  1
