# generated using pymatgen
data_LiSbO2
_symmetry_space_group_name_H-M   'P 1'
_cell_length_a   5.67163541
_cell_length_b   5.67163541
_cell_length_c   5.35659389
_cell_angle_alpha   66.29376507
_cell_angle_beta   113.70623493
_cell_angle_gamma   76.99447022
_symmetry_Int_Tables_number   1
_chemical_formula_structural   LiSbO2
_chemical_formula_sum   'Li2 Sb2 O4'
_cell_volume   128.17174849
_cell_formula_units_Z   2
loop_
 _symmetry_equiv_pos_site_id
 _symmetry_equiv_pos_as_xyz
  1  'x, y, z'
loop_
 _atom_site_type_symbol
 _atom_site_label
 _atom_site_symmetry_multiplicity
 _atom_site_fract_x
 _atom_site_fract_y
 _atom_site_fract_z
 _atom_site_occupancy
  Li  Li0  1  0.45162636  0.45162636  0.75000000  1
  Li  Li1  1  0.54837364  0.54837364  0.25000000  1
  Sb  Sb2  1  0.89555578  0.89555578  0.75000000  1
  Sb  Sb3  1  0.10444422  0.10444422  0.25000000  1
  O  O4  1  0.26665978  0.80582994  0.76077632  1
  O  O5  1  0.19417006  0.73334022  0.26077632  1
  O  O6  1  0.80582994  0.26665978  0.73922368  1
  O  O7  1  0.73334022  0.19417006  0.23922368  1
