# generated using pymatgen
data_CoH12SO10
_symmetry_space_group_name_H-M   'P 1'
_cell_length_a   6.21037274
_cell_length_b   6.21037274
_cell_length_c   24.79430036
_cell_angle_alpha   82.78866829
_cell_angle_beta   97.21133171
_cell_angle_gamma   106.95997124
_symmetry_Int_Tables_number   1
_chemical_formula_structural   CoH12SO10
_chemical_formula_sum   'Co4 H48 S4 O40'
_cell_volume   903.46730897
_cell_formula_units_Z   4
loop_
 _symmetry_equiv_pos_site_id
 _symmetry_equiv_pos_as_xyz
  1  'x, y, z'
loop_
 _atom_site_type_symbol
 _atom_site_label
 _atom_site_symmetry_multiplicity
 _atom_site_fract_x
 _atom_site_fract_y
 _atom_site_fract_z
 _atom_site_occupancy
  Co  Co0  1  0.00000000  0.00000000  0.50000000  1
  Co  Co1  1  0.00000000  0.00000000  0.00000000  1
  Co  Co2  1  0.01631554  0.01631554  0.75000000  1
  Co  Co3  1  0.98368446  0.98368446  0.25000000  1
  H  H4  1  0.97512561  0.65842625  0.57983290  1
  H  H5  1  0.65842625  0.97512561  0.92016710  1
  H  H6  1  0.02487439  0.34157375  0.42016710  1
  H  H7  1  0.34157375  0.02487439  0.07983290  1
  H  H8  1  0.71886876  0.64822017  0.55730958  1
  H  H9  1  0.64822017  0.71886876  0.94269042  1
  H  H10  1  0.28113124  0.35177983  0.44269042  1
  H  H11  1  0.35177983  0.28113124  0.05730958  1
  H  H12  1  0.26998935  0.30687200  0.56675252  1
  H  H13  1  0.30687200  0.26998935  0.93324748  1
  H  H14  1  0.73001065  0.69312800  0.43324748  1
  H  H15  1  0.69312800  0.73001065  0.06675252  1
  H  H16  1  0.32731115  0.07261523  0.58435403  1
  H  H17  1  0.07261523  0.32731115  0.91564597  1
  H  H18  1  0.67268885  0.92738477  0.41564597  1
  H  H19  1  0.92738477  0.67268885  0.08435403  1
  H  H20  1  0.70385948  0.24696269  0.49720125  1
  H  H21  1  0.24696269  0.70385948  0.00279875  1
  H  H22  1  0.29614052  0.75303731  0.50279875  1
  H  H23  1  0.75303731  0.29614052  0.99720125  1
  H  H24  1  0.66954265  0.06825812  0.55150037  1
  H  H25  1  0.06825812  0.66954265  0.94849963  1
  H  H26  1  0.33045735  0.93174188  0.44849963  1
  H  H27  1  0.93174188  0.33045735  0.05150037  1
  H  H28  1  0.68784322  0.05349003  0.80231603  1
  H  H29  1  0.05349003  0.68784322  0.69768397  1
  H  H30  1  0.31215678  0.94650997  0.19768397  1
  H  H31  1  0.94650997  0.31215678  0.30231603  1
  H  H32  1  0.65322738  0.78942034  0.79919100  1
  H  H33  1  0.78942034  0.65322738  0.70080900  1
  H  H34  1  0.34677262  0.21057966  0.20080900  1
  H  H35  1  0.21057966  0.34677262  0.29919100  1
  H  H36  1  0.03739878  0.44825098  0.78075517  1
  H  H37  1  0.44825098  0.03739878  0.71924483  1
  H  H38  1  0.96260122  0.55174902  0.21924483  1
  H  H39  1  0.55174902  0.96260122  0.28075517  1
  H  H40  1  0.11064334  0.28318274  0.82919321  1
  H  H41  1  0.28318274  0.11064334  0.67080679  1
  H  H42  1  0.88935666  0.71681726  0.17080679  1
  H  H43  1  0.71681726  0.88935666  0.32919321  1
  H  H44  1  0.74925605  0.07698573  0.65556535  1
  H  H45  1  0.07698573  0.74925605  0.84443465  1
  H  H46  1  0.25074395  0.92301427  0.34443465  1
  H  H47  1  0.92301427  0.25074395  0.15556535  1
  H  H48  1  0.87294099  0.31473362  0.67921168  1
  H  H49  1  0.31473362  0.87294099  0.82078832  1
  H  H50  1  0.12705901  0.68526638  0.32078832  1
  H  H51  1  0.68526638  0.12705901  0.17921168  1
  S  S52  1  0.42158337  0.69128335  0.62233985  1
  S  S53  1  0.69128335  0.42158337  0.87766015  1
  S  S54  1  0.57841663  0.30871665  0.37766015  1
  S  S55  1  0.30871665  0.57841663  0.12233985  1
  O  O56  1  0.18582487  0.65087596  0.63573054  1
  O  O57  1  0.65087596  0.18582487  0.86426946  1
  O  O58  1  0.81417513  0.34912404  0.36426946  1
  O  O59  1  0.34912404  0.81417513  0.13573054  1
  O  O60  1  0.55407295  0.58871956  0.66598710  1
  O  O61  1  0.58871956  0.55407295  0.83401290  1
  O  O62  1  0.44592705  0.41128044  0.33401290  1
  O  O63  1  0.41128044  0.44592705  0.16598710  1
  O  O64  1  0.42116962  0.59907906  0.56903203  1
  O  O65  1  0.59907906  0.42116962  0.93096797  1
  O  O66  1  0.57883038  0.40092094  0.43096797  1
  O  O67  1  0.40092094  0.57883038  0.06903203  1
  O  O68  1  0.53125917  0.94621300  0.61433689  1
  O  O69  1  0.94621300  0.53125917  0.88566311  1
  O  O70  1  0.46874083  0.05378700  0.38566311  1
  O  O71  1  0.05378700  0.46874083  0.11433689  1
  O  O72  1  0.87397952  0.67993233  0.54653785  1
  O  O73  1  0.67993233  0.87397952  0.95346215  1
  O  O74  1  0.12602048  0.32006767  0.45346215  1
  O  O75  1  0.32006767  0.12602048  0.04653785  1
  O  O76  1  0.20222089  0.14000922  0.57043253  1
  O  O77  1  0.14000922  0.20222089  0.92956747  1
  O  O78  1  0.79777911  0.85999078  0.42956747  1
  O  O79  1  0.85999078  0.79777911  0.07043253  1
  O  O80  1  0.75327767  0.12389723  0.51887792  1
  O  O81  1  0.12389723  0.75327767  0.98112208  1
  O  O82  1  0.24672233  0.87610277  0.48112208  1
  O  O83  1  0.87610277  0.24672233  0.01887792  1
  O  O84  1  0.68482350  0.94136182  0.77682978  1
  O  O85  1  0.94136182  0.68482350  0.72317022  1
  O  O86  1  0.31517650  0.05863818  0.22317022  1
  O  O87  1  0.05863818  0.31517650  0.27682978  1
  O  O88  1  0.09662871  0.31634573  0.78960072  1
  O  O89  1  0.31634573  0.09662871  0.71039928  1
  O  O90  1  0.90337129  0.68365427  0.21039928  1
  O  O91  1  0.68365427  0.90337129  0.28960072  1
  O  O92  1  0.88526410  0.16277371  0.67817757  1
  O  O93  1  0.16277371  0.88526410  0.82182243  1
  O  O94  1  0.11473590  0.83722629  0.32182243  1
  O  O95  1  0.83722629  0.11473590  0.17817757  1
