# generated using pymatgen
data_NbOF3
_symmetry_space_group_name_H-M   'P 1'
_cell_length_a   9.35754294
_cell_length_b   9.35743958
_cell_length_c   3.86005484
_cell_angle_alpha   89.99995115
_cell_angle_beta   89.99998721
_cell_angle_gamma   90.00023953
_symmetry_Int_Tables_number   1
_chemical_formula_structural   NbOF3
_chemical_formula_sum   'Nb4 O4 F12'
_cell_volume   337.99660267
_cell_formula_units_Z   4
loop_
 _symmetry_equiv_pos_site_id
 _symmetry_equiv_pos_as_xyz
  1  'x, y, z'
loop_
 _atom_site_type_symbol
 _atom_site_label
 _atom_site_symmetry_multiplicity
 _atom_site_fract_x
 _atom_site_fract_y
 _atom_site_fract_z
 _atom_site_occupancy
  Nb  Nb0  1  0.13126427  0.36873875  0.25143293  1
  Nb  Nb1  1  0.36873701  0.86873872  0.74856798  1
  Nb  Nb2  1  0.63126586  0.13126305  0.74858687  1
  Nb  Nb3  1  0.86873593  0.63126098  0.25142952  1
  O  O4  1  0.11508295  0.38492032  0.75788891  1
  O  O5  1  0.38491761  0.88491841  0.24210477  1
  O  O6  1  0.61508328  0.11508325  0.24211194  1
  O  O7  1  0.88491525  0.61507883  0.75789489  1
  F  F8  1  0.09465834  0.59466632  0.25902854  1
  F  F9  1  0.10746439  0.16929346  0.25825539  1
  F  F10  1  0.16929718  0.89253652  0.74173991  1
  F  F11  1  0.33070312  0.39253991  0.25825198  1
  F  F12  1  0.39253781  0.66929533  0.74174026  1
  F  F13  1  0.40534030  0.09466553  0.74096639  1
  F  F14  1  0.59466401  0.90533976  0.74097014  1
  F  F15  1  0.60746402  0.33070893  0.74174647  1
  F  F16  1  0.66929657  0.60746243  0.25825413  1
  F  F17  1  0.83070713  0.10746301  0.74174626  1
  F  F18  1  0.89253632  0.83070445  0.25824956  1
  F  F19  1  0.90533965  0.40533304  0.25903116  1
