# generated using pymatgen
data_KTi16O32
_symmetry_space_group_name_H-M   'P 1'
_cell_length_a   10.41570106
_cell_length_b   8.53661746
_cell_length_c   8.53623375
_cell_angle_alpha   74.04573416
_cell_angle_beta   67.94629459
_cell_angle_gamma   102.65423814
_symmetry_Int_Tables_number   1
_chemical_formula_structural   KTi16O32
_chemical_formula_sum   'K1 Ti16 O32'
_cell_volume   630.58794901
_cell_formula_units_Z   1
loop_
 _symmetry_equiv_pos_site_id
 _symmetry_equiv_pos_as_xyz
  1  'x, y, z'
loop_
 _atom_site_type_symbol
 _atom_site_label
 _atom_site_symmetry_multiplicity
 _atom_site_fract_x
 _atom_site_fract_y
 _atom_site_fract_z
 _atom_site_occupancy
  K  K0  1  0.37500000  0.37500000  0.00000000  1
  Ti  Ti1  1  0.87810874  0.35421734  0.18187752  1
  Ti  Ti2  1  0.62881994  0.10439098  0.18134689  1
  Ti  Ti3  1  0.98525197  0.16682330  0.52408972  1
  Ti  Ti4  1  0.51547693  0.33314309  0.47509010  1
  Ti  Ti5  1  0.76474803  0.58317670  0.47591028  1
  Ti  Ti6  1  0.26325530  0.07979203  0.48124454  1
  Ti  Ti7  1  0.87189126  0.39578266  0.81812248  1
  Ti  Ti8  1  0.62453081  0.14303973  0.81597113  1
  Ti  Ti9  1  0.37836480  0.85445510  0.18210779  1
  Ti  Ti10  1  0.12546919  0.60696027  0.18402887  1
  Ti  Ti11  1  0.23452307  0.41685691  0.52490990  1
  Ti  Ti12  1  0.73610891  0.91766615  0.52290883  1
  Ti  Ti13  1  0.48674470  0.67020797  0.51875546  1
  Ti  Ti14  1  0.01389109  0.83233385  0.47709117  1
  Ti  Ti15  1  0.37163520  0.89554490  0.81789221  1
  Ti  Ti16  1  0.12118006  0.64560902  0.81865311  1
  O  O17  1  0.84324731  0.20889113  0.05175246  1
  O  O18  1  0.87304104  0.16853354  0.37608763  1
  O  O19  1  0.90494554  0.52891131  0.29536456  1
  O  O20  1  0.40465103  0.03050374  0.29449042  1
  O  O21  1  0.65517556  0.27898494  0.29575012  1
  O  O22  1  0.84505446  0.22108869  0.70463544  1
  O  O23  1  0.63233845  0.58069233  0.36498454  1
  O  O24  1  0.88207095  0.83043109  0.36550549  1
  O  O25  1  0.38273343  0.33133067  0.36289196  1
  O  O26  1  0.13418378  0.08266615  0.36262117  1
  O  O27  1  0.62540236  0.33115362  0.62601428  1
  O  O28  1  0.37671210  0.08147295  0.62428477  1
  O  O29  1  0.87695896  0.58146646  0.62391237  1
  O  O30  1  0.59349455  0.95866974  0.05167069  1
  O  O31  1  0.34408806  0.70714417  0.05135568  1
  O  O32  1  0.09549455  0.45819100  0.05156300  1
  O  O33  1  0.65450545  0.29180900  0.94843700  1
  O  O34  1  0.40591194  0.04285583  0.94864432  1
  O  O35  1  0.90675269  0.54110887  0.94824754  1
  O  O36  1  0.37328790  0.66852705  0.37571523  1
  O  O37  1  0.12459764  0.41884638  0.37398572  1
  O  O38  1  0.62336897  0.91862862  0.37606763  1
  O  O39  1  0.36726657  0.41866933  0.63710804  1
  O  O40  1  0.86792905  0.91956891  0.63449451  1
  O  O41  1  0.61581622  0.66733385  0.63737883  1
  O  O42  1  0.11766155  0.16930767  0.63501546  1
  O  O43  1  0.15525975  0.77966710  0.29516384  1
  O  O44  1  0.59474025  0.97033290  0.70483616  1
  O  O45  1  0.09482444  0.47101506  0.70424988  1
  O  O46  1  0.34534897  0.71949626  0.70550958  1
  O  O47  1  0.12663103  0.83137138  0.62393237  1
  O  O48  1  0.15650545  0.79133026  0.94832931  1
