# generated using pymatgen
data_Ca3In2O6
_symmetry_space_group_name_H-M   'P 1'
_cell_length_a   11.04978120
_cell_length_b   16.75838883
_cell_length_c   3.26227713
_cell_angle_alpha   89.99350407
_cell_angle_beta   90.00143251
_cell_angle_gamma   89.99576320
_symmetry_Int_Tables_number   1
_chemical_formula_structural   Ca3In2O6
_chemical_formula_sum   'Ca12 In8 O24'
_cell_volume   604.09715159
_cell_formula_units_Z   4
loop_
 _symmetry_equiv_pos_site_id
 _symmetry_equiv_pos_as_xyz
  1  'x, y, z'
loop_
 _atom_site_type_symbol
 _atom_site_label
 _atom_site_symmetry_multiplicity
 _atom_site_fract_x
 _atom_site_fract_y
 _atom_site_fract_z
 _atom_site_occupancy
  Ca  Ca0  1  0.09232788  0.85706619  0.99997936  1
  Ca  Ca1  1  0.11832962  0.64838627  0.49999338  1
  Ca  Ca2  1  0.13524616  0.04677385  0.49998529  1
  Ca  Ca3  1  0.36475131  0.54676896  0.49997381  1
  Ca  Ca4  1  0.38159451  0.14838151  0.49996313  1
  Ca  Ca5  1  0.40763827  0.35707495  0.99998723  1
  Ca  Ca6  1  0.59495876  0.64226501  0.00000368  1
  Ca  Ca7  1  0.61817420  0.85161888  0.49997105  1
  Ca  Ca8  1  0.63171809  0.04587422  0.00000840  1
  Ca  Ca9  1  0.86826882  0.54591983  -0.00001815  1
  Ca  Ca10  1  0.88186398  0.35165523  0.49999011  1
  Ca  Ca11  1  0.90510302  0.14224301  0.99999774  1
  In  In12  1  0.13088333  0.45426320  0.99999826  1
  In  In13  1  0.15433813  0.27290185  0.49998877  1
  In  In14  1  0.34569268  0.77292679  0.49996830  1
  In  In15  1  0.36913827  0.95425745  0.00007326  1
  In  In16  1  0.63752491  0.45782586  0.50006561  1
  In  In17  1  0.65188565  0.23237730  0.49999617  1
  In  In18  1  0.84806865  0.73237848  0.50003028  1
  In  In19  1  0.86246971  0.95779405  0.49997353  1
  O  O20  1  0.99395888  0.99671530  0.00001295  1
  O  O21  1  0.00409302  0.49293385  0.50001103  1
  O  O22  1  0.04455044  0.16910770  0.49996852  1
  O  O23  1  0.04484861  0.33488222  0.00000819  1
  O  O24  1  0.21569221  0.74495933  -0.00000721  1
  O  O25  1  0.24193448  0.90715949  0.50001317  1
  O  O26  1  0.21833716  0.56888529  0.00001787  1
  O  O27  1  0.28167308  0.06888904  0.00005685  1
  O  O28  1  0.25806797  0.40716342  0.49999760  1
  O  O29  1  0.28431089  0.24494665  0.00002995  1
  O  O30  1  0.45510980  0.83488051  0.99996969  1
  O  O31  1  0.45543184  0.66908937  0.49998473  1
  O  O32  1  0.49589418  0.99294394  0.49999346  1
  O  O33  1  0.50604775  0.49670131  0.00001220  1
  O  O34  1  0.54836118  0.33987747  0.50003027  1
  O  O35  1  0.54433828  0.17337855  0.00001125  1
  O  O36  1  0.71672382  0.75446054  0.99997294  1
  O  O37  1  0.72481397  0.58211322  0.50001197  1
  O  O38  1  0.73275657  0.92616767  -0.00001763  1
  O  O39  1  0.76725178  0.42616390  0.99999178  1
  O  O40  1  0.77517686  0.08213267  0.49998408  1
  O  O41  1  0.78328389  0.25443990  0.00001776  1
  O  O42  1  0.95571012  0.67336364  -0.00001248  1
  O  O43  1  0.95165728  0.83989111  0.50001184  1
