# generated using pymatgen
data_HoTiFe11N
_symmetry_space_group_name_H-M   'P 1'
_cell_length_a   4.79287219
_cell_length_b   6.50868442
_cell_length_c   6.50868442
_cell_angle_alpha   97.46291259
_cell_angle_beta   111.60406241
_cell_angle_gamma   68.39593759
_symmetry_Int_Tables_number   1
_chemical_formula_structural   HoTiFe11N
_chemical_formula_sum   'Ho1 Ti1 Fe11 N1'
_cell_volume   175.51152275
_cell_formula_units_Z   1
loop_
 _symmetry_equiv_pos_site_id
 _symmetry_equiv_pos_as_xyz
  1  'x, y, z'
loop_
 _atom_site_type_symbol
 _atom_site_label
 _atom_site_symmetry_multiplicity
 _atom_site_fract_x
 _atom_site_fract_y
 _atom_site_fract_z
 _atom_site_occupancy
  Ho  Ho0  1  0.00618033  0.99381967  0.00618033  1
  Ti  Ti1  1  0.63505867  0.36494133  0.63505867  1
  Fe  Fe2  1  0.50003401  0.99759690  0.49891490  1
  Fe  Fe3  1  0.00128399  0.99759690  0.49891490  1
  Fe  Fe4  1  0.50003401  0.50108510  0.00240310  1
  Fe  Fe5  1  0.00128399  0.50108510  0.00240310  1
  Fe  Fe6  1  0.72566822  0.77433178  0.22566822  1
  Fe  Fe7  1  0.27746722  0.22253278  0.77746722  1
  Fe  Fe8  1  0.49761589  0.78011238  0.77534417  1
  Fe  Fe9  1  0.49761589  0.22465583  0.21988762  1
  Fe  Fe10  1  0.35683332  0.64316668  0.35683332  1
  Fe  Fe11  1  0.99990269  0.35884891  0.35865429  1
  Fe  Fe12  1  0.99990269  0.64134571  0.64115109  1
  N  N13  1  0.50111908  0.99888092  0.00111908  1
