# generated using pymatgen
data_Li2Ti3O6
_symmetry_space_group_name_H-M   'P 1'
_cell_length_a   9.02649071
_cell_length_b   5.18007108
_cell_length_c   5.18007108
_cell_angle_alpha   113.13183295
_cell_angle_beta   79.92982131
_cell_angle_gamma   79.92981844
_symmetry_Int_Tables_number   1
_chemical_formula_structural   Li2Ti3O6
_chemical_formula_sum   'Li4 Ti6 O12'
_cell_volume   211.22246370
_cell_formula_units_Z   2
loop_
 _symmetry_equiv_pos_site_id
 _symmetry_equiv_pos_as_xyz
  1  'x, y, z'
loop_
 _atom_site_type_symbol
 _atom_site_label
 _atom_site_symmetry_multiplicity
 _atom_site_fract_x
 _atom_site_fract_y
 _atom_site_fract_z
 _atom_site_occupancy
  Li  Li0  1  0.00497284  0.24766147  0.74735328  1
  Li  Li1  1  0.50497284  0.99735328  0.99766147  1
  Li  Li2  1  0.32832906  0.58599539  0.08558176  1
  Li  Li3  1  0.82832906  0.33558176  0.33599539  1
  Ti  Ti4  1  0.16669036  0.16741228  0.16593907  1
  Ti  Ti5  1  0.99676551  0.75065634  0.25236624  1
  Ti  Ti6  1  0.33659431  0.08094057  0.58270775  1
  Ti  Ti7  1  0.49676551  0.50236624  0.50065634  1
  Ti  Ti8  1  0.66669036  0.41593907  0.91741228  1
  Ti  Ti9  1  0.83659431  0.83270775  0.83094057  1
  O  O10  1  0.99542328  0.50579524  0.48686833  1
  O  O11  1  0.99548936  0.99811448  0.01840093  1
  O  O12  1  0.16666937  0.40342460  0.92994580  1
  O  O13  1  0.33785942  0.31497006  0.33516050  1
  O  O14  1  0.16666029  0.93082880  0.40260043  1
  O  O15  1  0.49548936  0.26840093  0.74811448  1
  O  O16  1  0.66666937  0.17994580  0.15342460  1
  O  O17  1  0.33787921  0.84645154  0.82749215  1
  O  O18  1  0.49542328  0.73686833  0.25579524  1
  O  O19  1  0.83787921  0.07749215  0.59645154  1
  O  O20  1  0.66666029  0.65260043  0.68082880  1
  O  O21  1  0.83785942  0.58516050  0.06497006  1
