# generated using pymatgen
data_LaHoO3
_symmetry_space_group_name_H-M   'P 1'
_cell_length_a   6.07552416
_cell_length_b   8.57596929
_cell_length_c   5.88351861
_cell_angle_alpha   90.00000000
_cell_angle_beta   90.00000000
_cell_angle_gamma   90.00000000
_symmetry_Int_Tables_number   1
_chemical_formula_structural   LaHoO3
_chemical_formula_sum   'La4 Ho4 O12'
_cell_volume   306.55196259
_cell_formula_units_Z   4
loop_
 _symmetry_equiv_pos_site_id
 _symmetry_equiv_pos_as_xyz
  1  'x, y, z'
loop_
 _atom_site_type_symbol
 _atom_site_label
 _atom_site_symmetry_multiplicity
 _atom_site_fract_x
 _atom_site_fract_y
 _atom_site_fract_z
 _atom_site_occupancy
  La  La0  1  0.04669067  0.25000000  0.98167422  1
  La  La1  1  0.45330933  0.75000000  0.48167422  1
  La  La2  1  0.54669067  0.25000000  0.51832578  1
  La  La3  1  0.95330933  0.75000000  0.01832578  1
  Ho  Ho4  1  0.00000000  0.00000000  0.50000000  1
  Ho  Ho5  1  0.00000000  0.50000000  0.50000000  1
  Ho  Ho6  1  0.50000000  0.00000000  0.00000000  1
  Ho  Ho7  1  0.50000000  0.50000000  0.00000000  1
  O  O8  1  0.05655294  0.75000000  0.63139735  1
  O  O9  1  0.19789533  0.57153021  0.19670125  1
  O  O10  1  0.19789533  0.92846979  0.19670125  1
  O  O11  1  0.30210467  0.42846979  0.69670125  1
  O  O12  1  0.30210467  0.07153021  0.69670125  1
  O  O13  1  0.44344706  0.25000000  0.13139735  1
  O  O14  1  0.55655294  0.75000000  0.86860265  1
  O  O15  1  0.69789533  0.92846979  0.30329875  1
  O  O16  1  0.69789533  0.57153021  0.30329875  1
  O  O17  1  0.80210467  0.07153021  0.80329875  1
  O  O18  1  0.80210467  0.42846979  0.80329875  1
  O  O19  1  0.94344706  0.25000000  0.36860265  1
