# generated using pymatgen
data_Y11Ta5O28
_symmetry_space_group_name_H-M   'P 1'
_cell_length_a   10.53476212
_cell_length_b   7.46711105
_cell_length_c   7.45168482
_cell_angle_alpha   90.00000000
_cell_angle_beta   90.00000000
_cell_angle_gamma   90.43796608
_symmetry_Int_Tables_number   1
_chemical_formula_structural   Y11Ta5O28
_chemical_formula_sum   'Y11 Ta5 O28'
_cell_volume   586.16398747
_cell_formula_units_Z   1
loop_
 _symmetry_equiv_pos_site_id
 _symmetry_equiv_pos_as_xyz
  1  'x, y, z'
loop_
 _atom_site_type_symbol
 _atom_site_label
 _atom_site_symmetry_multiplicity
 _atom_site_fract_x
 _atom_site_fract_y
 _atom_site_fract_z
 _atom_site_occupancy
  Y  Y0  1  0.00342787  0.47797349  0.24255295  1
  Y  Y1  1  0.00342787  0.47797349  0.75744705  1
  Y  Y2  1  0.26960588  0.26689210  0.00000000  1
  Y  Y3  1  0.23788079  0.23505380  0.50000000  1
  Y  Y4  1  0.26755293  0.73289349  0.00000000  1
  Y  Y5  1  0.24290131  0.75148627  0.50000000  1
  Y  Y6  1  0.49683146  0.00384208  0.75207985  1
  Y  Y7  1  0.49683146  0.00384208  0.24792015  1
  Y  Y8  1  0.75628080  0.76353448  0.00000000  1
  Y  Y9  1  0.75492393  0.23844984  0.00000000  1
  Y  Y10  1  0.73474269  0.26436228  0.50000000  1
  Ta  Ta11  1  0.99668003  0.99816396  0.25144715  1
  Ta  Ta12  1  0.99668003  0.99816396  0.74855285  1
  Ta  Ta13  1  0.48660783  0.49526435  0.72481120  1
  Ta  Ta14  1  0.48660783  0.49526435  0.27518880  1
  Ta  Ta15  1  0.72647934  0.72990970  0.50000000  1
  O  O16  1  0.12024347  0.19712197  0.21533739  1
  O  O17  1  0.12024347  0.19712197  0.78466261  1
  O  O18  1  0.11378919  0.79797430  0.21930169  1
  O  O19  1  0.11378919  0.79797430  0.78069831  1
  O  O20  1  0.13439209  0.49756118  0.00000000  1
  O  O21  1  0.12128781  0.49358951  0.50000000  1
  O  O22  1  0.36707759  0.00008003  0.00000000  1
  O  O23  1  0.36391819  0.99800047  0.50000000  1
  O  O24  1  0.37906960  0.71401859  0.73270564  1
  O  O25  1  0.37906960  0.71401859  0.26729436  1
  O  O26  1  0.37206012  0.28407468  0.26913807  1
  O  O27  1  0.37206012  0.28407468  0.73086193  1
  O  O28  1  0.43065870  0.50114970  0.00000000  1
  O  O29  1  0.59585248  0.51031697  0.50000000  1
  O  O30  1  0.63597868  0.69765351  0.24671944  1
  O  O31  1  0.63597868  0.69765351  0.75328056  1
  O  O32  1  0.61726800  0.29330394  0.23140179  1
  O  O33  1  0.61726800  0.29330394  0.76859821  1
  O  O34  1  0.63198058  0.99534815  0.00000000  1
  O  O35  1  0.63907401  0.97567823  0.50000000  1
  O  O36  1  0.86618776  0.50695644  0.00000000  1
  O  O37  1  0.84735065  0.52705855  0.50000000  1
  O  O38  1  0.87800272  0.21525182  0.27527934  1
  O  O39  1  0.87800272  0.21525182  0.72472066  1
  O  O40  1  0.85574745  0.83561083  0.31674185  1
  O  O41  1  0.85574745  0.83561083  0.68325815  1
  O  O42  1  0.92367560  0.98325985  0.00000000  1
  O  O43  1  0.06456606  0.00791194  0.50000000  1
