# generated using pymatgen
data_Er2B4O9
_symmetry_space_group_name_H-M   'P 1'
_cell_length_a   6.17463102
_cell_length_b   6.42941116
_cell_length_c   7.47202364
_cell_angle_alpha   102.58697624
_cell_angle_beta   97.17074361
_cell_angle_gamma   102.41149507
_symmetry_Int_Tables_number   1
_chemical_formula_structural   Er2B4O9
_chemical_formula_sum   'Er4 B8 O18'
_cell_volume   278.11520047
_cell_formula_units_Z   2
loop_
 _symmetry_equiv_pos_site_id
 _symmetry_equiv_pos_as_xyz
  1  'x, y, z'
loop_
 _atom_site_type_symbol
 _atom_site_label
 _atom_site_symmetry_multiplicity
 _atom_site_fract_x
 _atom_site_fract_y
 _atom_site_fract_z
 _atom_site_occupancy
  Er  Er0  1  0.11281755  0.32291716  0.64014211  1
  Er  Er1  1  0.45008403  0.90932855  0.71219129  1
  Er  Er2  1  0.54991597  0.09067145  0.28780871  1
  Er  Er3  1  0.88718245  0.67708284  0.35985789  1
  B  B4  1  0.00573691  0.85512169  0.80973571  1
  B  B5  1  0.26855371  0.66647958  0.01859831  1
  B  B6  1  0.37362404  0.64342685  0.34951212  1
  B  B7  1  0.33849080  0.31714825  0.07264709  1
  B  B8  1  0.66150920  0.68285175  0.92735291  1
  B  B9  1  0.62637596  0.35657315  0.65048788  1
  B  B10  1  0.73144629  0.33352042  0.98140169  1
  B  B11  1  0.99426309  0.14487831  0.19026429  1
  O  O12  1  0.07035776  0.95670200  0.67421115  1
  O  O13  1  0.13968048  0.71750680  0.85553397  1
  O  O14  1  0.22599699  0.42767019  0.95699096  1
  O  O15  1  0.21876855  0.59518421  0.47869052  1
  O  O16  1  0.23558157  0.73714874  0.21188319  1
  O  O17  1  0.18788011  0.13079254  0.12142850  1
  O  O18  1  0.41954421  0.18157198  0.55379322  1
  O  O19  1  0.49509509  0.20785690  0.97861621  1
  O  O20  1  0.53904405  0.53779388  0.74750299  1
  O  O21  1  0.46095595  0.46220612  0.25249701  1
  O  O22  1  0.50490491  0.79214310  0.02138379  1
  O  O23  1  0.58045579  0.81842802  0.44620678  1
  O  O24  1  0.81211989  0.86920746  0.87857150  1
  O  O25  1  0.76441843  0.26285126  0.78811681  1
  O  O26  1  0.78123145  0.40481579  0.52130948  1
  O  O27  1  0.77400301  0.57232981  0.04300904  1
  O  O28  1  0.86031952  0.28249320  0.14446603  1
  O  O29  1  0.92964224  0.04329800  0.32578885  1
