# generated using pymatgen
data_Li2CuF4
_symmetry_space_group_name_H-M   'P 1'
_cell_length_a   5.65893466
_cell_length_b   5.65893385
_cell_length_c   5.65893411
_cell_angle_alpha   112.19187314
_cell_angle_beta   112.19187332
_cell_angle_gamma   104.15708471
_symmetry_Int_Tables_number   1
_chemical_formula_structural   Li2CuF4
_chemical_formula_sum   'Li4 Cu2 F8'
_cell_volume   138.61365957
_cell_formula_units_Z   2
loop_
 _symmetry_equiv_pos_site_id
 _symmetry_equiv_pos_as_xyz
  1  'x, y, z'
loop_
 _atom_site_type_symbol
 _atom_site_label
 _atom_site_symmetry_multiplicity
 _atom_site_fract_x
 _atom_site_fract_y
 _atom_site_fract_z
 _atom_site_occupancy
  Li  Li0  1  0.00000000  0.50000000  0.50000000  1
  Li  Li1  1  0.50000000  0.50000000  0.50000000  1
  Li  Li2  1  0.50000000  0.50000000  0.00000000  1
  Li  Li3  1  0.50000000  0.00000000  0.00000000  1
  Cu  Cu4  1  0.12500000  0.87500000  0.25000000  1
  Cu  Cu5  1  0.87500000  0.12500000  0.75000000  1
  F  F6  1  0.21455651  0.67267881  0.95812230  1
  F  F7  1  0.32732119  0.78544349  0.54187770  1
  F  F8  1  0.21455651  0.25643421  0.54187770  1
  F  F9  1  0.74356579  0.78544349  0.95812230  1
  F  F10  1  0.25643421  0.21455651  0.04187770  1
  F  F11  1  0.78544349  0.74356579  0.45812230  1
  F  F12  1  0.67267881  0.21455651  0.45812230  1
  F  F13  1  0.78544349  0.32732119  0.04187770  1
