# generated using pymatgen
data_Ba3GeO5
_symmetry_space_group_name_H-M   'P 1'
_cell_length_a   8.07067604
_cell_length_b   8.07067604
_cell_length_c   10.71259803
_cell_angle_alpha   89.93307910
_cell_angle_beta   67.92820712
_cell_angle_gamma   119.97847084
_symmetry_Int_Tables_number   1
_chemical_formula_structural   Ba3GeO5
_chemical_formula_sum   'Ba9 Ge3 O15'
_cell_volume   544.39042983
_cell_formula_units_Z   3
loop_
 _symmetry_equiv_pos_site_id
 _symmetry_equiv_pos_as_xyz
  1  'x, y, z'
loop_
 _atom_site_type_symbol
 _atom_site_label
 _atom_site_symmetry_multiplicity
 _atom_site_fract_x
 _atom_site_fract_y
 _atom_site_fract_z
 _atom_site_occupancy
  Ba  Ba0  1  0.04157727  0.75504139  0.67182076  1
  Ba  Ba1  1  0.43848440  0.71887509  0.32720843  1
  Ba  Ba2  1  0.04337169  0.28633941  0.67028890  1
  Ba  Ba3  1  0.50871693  0.49672851  0.99455456  1
  Ba  Ba4  1  0.95748717  0.71944793  0.32306591  1
  Ba  Ba5  1  0.57313885  0.28660197  0.67182076  1
  Ba  Ba6  1  0.95391648  0.23430717  0.32720843  1
  Ba  Ba7  1  0.51112369  0.01048682  0.99263075  1
  Ba  Ba8  1  0.99688243  0.49624556  0.99263075  1
  Ge  Ge9  1  -0.00011634  0.99899684  0.00111950  1
  Ge  Ge10  1  0.56415489  0.78027031  0.65557480  1
  Ge  Ge11  1  0.43147047  0.21546626  0.35306326  1
  O  O12  1  0.35281421  0.99496723  0.29043065  1
  O  O13  1  0.24771732  0.62293622  0.12934646  1
  O  O14  1  0.64486676  0.00291868  0.71469639  1
  O  O15  1  0.28238493  0.64043685  0.71469639  1
  O  O16  1  0.87482611  0.94012068  0.18505322  1
  O  O17  1  0.68904215  0.83956209  0.47139576  1
  O  O18  1  0.35169755  0.35713164  0.29117081  1
  O  O19  1  0.64194393  0.63893122  0.71912485  1
  O  O20  1  0.30717784  0.15301791  0.53980425  1
  O  O21  1  0.91778091  0.77496551  0.94364116  1
  O  O22  1  0.28139333  0.13857793  0.94364116  1
  O  O23  1  0.71460211  0.35675614  0.29043065  1
  O  O24  1  0.76713316  0.38259735  0.85026849  1
  O  O25  1  0.00038675  0.50075383  0.49885941  1
  O  O26  1  0.92045701  0.14030145  0.93924154  1
