# generated using pymatgen
data_La2(SiO3)3
_symmetry_space_group_name_H-M   'P 1'
_cell_length_a   6.82134782
_cell_length_b   6.82153230
_cell_length_c   10.19045395
_cell_angle_alpha   89.99989741
_cell_angle_beta   90.00135566
_cell_angle_gamma   120.00002138
_symmetry_Int_Tables_number   1
_chemical_formula_structural   La2(SiO3)3
_chemical_formula_sum   'La4 Si6 O18'
_cell_volume   410.65413823
_cell_formula_units_Z   2
loop_
 _symmetry_equiv_pos_site_id
 _symmetry_equiv_pos_as_xyz
  1  'x, y, z'
loop_
 _atom_site_type_symbol
 _atom_site_label
 _atom_site_symmetry_multiplicity
 _atom_site_fract_x
 _atom_site_fract_y
 _atom_site_fract_z
 _atom_site_occupancy
  La  La0  1  0.33334058  0.66665924  0.96883559  1
  La  La1  1  0.33333624  0.66666920  0.53115801  1
  La  La2  1  0.66666773  0.33333981  0.46883709  1
  La  La3  1  0.66666099  0.33333102  0.03116156  1
  Si  Si4  1  0.22983816  0.95079615  0.25000485  1
  Si  Si5  1  0.04922083  0.27901417  0.25000335  1
  Si  Si6  1  0.27902024  0.22982135  0.75000386  1
  Si  Si7  1  0.72098032  0.77016592  0.24998885  1
  Si  Si8  1  0.95078261  0.72098699  0.74999426  1
  Si  Si9  1  0.77017183  0.04920511  0.74998418  1
  O  O10  1  0.20334480  0.95834410  0.75000038  1
  O  O11  1  0.35867854  0.94852834  0.11623212  1
  O  O12  1  0.35867748  0.94853630  0.38376429  1
  O  O13  1  0.05148068  0.41012807  0.38377037  1
  O  O14  1  0.05147818  0.41014377  0.11623588  1
  O  O15  1  0.04166634  0.24501373  0.75000021  1
  O  O16  1  0.24502119  0.20335906  0.24999797  1
  O  O17  1  0.58987376  0.64133166  0.11624034  1
  O  O18  1  0.58986950  0.64133122  0.38377264  1
  O  O19  1  0.41013660  0.35867242  0.61623084  1
  O  O20  1  0.41013854  0.35866635  0.88376345  1
  O  O21  1  0.75499371  0.79663941  0.75000186  1
  O  O22  1  0.95833845  0.75498433  0.24999908  1
  O  O23  1  0.94853094  0.58987204  0.61623387  1
  O  O24  1  0.94852184  0.58985070  0.88376736  1
  O  O25  1  0.64133392  0.05147100  0.61624401  1
  O  O26  1  0.64132947  0.05147237  0.88377451  1
  O  O27  1  0.79666652  0.04166418  0.24999921  1
