# generated using pymatgen
data_Li2Fe2Si5O13
_symmetry_space_group_name_H-M   'P 1'
_cell_length_a   7.54549302
_cell_length_b   7.67104008
_cell_length_c   9.87278792
_cell_angle_alpha   83.87765627
_cell_angle_beta   68.08125573
_cell_angle_gamma   74.22610240
_symmetry_Int_Tables_number   1
_chemical_formula_structural   Li2Fe2Si5O13
_chemical_formula_sum   'Li4 Fe4 Si10 O26'
_cell_volume   510.17361175
_cell_formula_units_Z   2
loop_
 _symmetry_equiv_pos_site_id
 _symmetry_equiv_pos_as_xyz
  1  'x, y, z'
loop_
 _atom_site_type_symbol
 _atom_site_label
 _atom_site_symmetry_multiplicity
 _atom_site_fract_x
 _atom_site_fract_y
 _atom_site_fract_z
 _atom_site_occupancy
  Li  Li0  1  0.18471591  0.07980669  0.86751213  1
  Li  Li1  1  0.15925431  0.40802968  0.74453475  1
  Li  Li2  1  0.84074569  0.59197032  0.25546525  1
  Li  Li3  1  0.81528409  0.92019331  0.13248787  1
  Fe  Fe4  1  0.02884923  0.15624500  0.60080746  1
  Fe  Fe5  1  0.44090947  0.84031346  0.40090184  1
  Fe  Fe6  1  0.55909053  0.15968654  0.59909816  1
  Fe  Fe7  1  0.97115077  0.84375500  0.39919254  1
  Si  Si8  1  0.14956215  0.22295433  0.26579480  1
  Si  Si9  1  0.21418127  0.69272942  0.04353721  1
  Si  Si10  1  0.30849209  0.45764337  0.40789873  1
  Si  Si11  1  0.26475508  0.76577096  0.72812154  1
  Si  Si12  1  0.62925539  0.70490671  0.04538325  1
  Si  Si13  1  0.37074461  0.29509329  0.95461675  1
  Si  Si14  1  0.73524492  0.23422904  0.27187846  1
  Si  Si15  1  0.69150791  0.54235663  0.59210127  1
  Si  Si16  1  0.78581873  0.30727058  0.95646279  1
  Si  Si17  1  0.85043785  0.77704567  0.73420520  1
  O  O18  1  0.02275105  0.77150177  0.18422444  1
  O  O19  1  0.15885797  0.05494160  0.38050762  1
  O  O20  1  0.29559740  0.16162359  0.09633717  1
  O  O21  1  0.20039209  0.39966515  0.30679703  1
  O  O22  1  0.07399393  0.69265722  0.74057195  1
  O  O23  1  0.41410057  0.68110956  0.06997465  1
  O  O24  1  0.23753437  0.67752995  0.42258989  1
  O  O25  1  0.27772547  0.32434711  0.55011674  1
  O  O26  1  0.54988333  0.41134047  0.30997115  1
  O  O27  1  0.36927342  0.21643946  0.80997372  1
  O  O28  1  0.21126685  0.49556656  0.99457111  1
  O  O29  1  0.30183517  0.93639494  0.61812373  1
  O  O30  1  0.21276006  0.82989706  0.89909038  1
  O  O31  1  0.78723994  0.17010294  0.10090962  1
  O  O32  1  0.69816383  0.06360506  0.38187627  1
  O  O33  1  0.78873315  0.50443344  0.00542889  1
  O  O34  1  0.63072658  0.78356054  0.19002628  1
  O  O35  1  0.45011667  0.58865953  0.69002885  1
  O  O36  1  0.72227453  0.67565289  0.44988326  1
  O  O37  1  0.76246563  0.32247005  0.57741011  1
  O  O38  1  0.58589943  0.31889044  0.93002535  1
  O  O39  1  0.92600607  0.30734278  0.25942805  1
  O  O40  1  0.79960791  0.60033485  0.69320297  1
  O  O41  1  0.70440260  0.83837641  0.90366283  1
  O  O42  1  0.84114203  0.94505840  0.61949338  1
  O  O43  1  0.97724895  0.22849823  0.81577556  1
