# generated using pymatgen
data_Li2AgF4
_symmetry_space_group_name_H-M   'P 1'
_cell_length_a   6.39320166
_cell_length_b   5.99592334
_cell_length_c   11.01630680
_cell_angle_alpha   89.87339206
_cell_angle_beta   142.16897003
_cell_angle_gamma   62.15548204
_symmetry_Int_Tables_number   1
_chemical_formula_structural   Li2AgF4
_chemical_formula_sum   'Li4 Ag2 F8'
_cell_volume   166.99756490
_cell_formula_units_Z   2
loop_
 _symmetry_equiv_pos_site_id
 _symmetry_equiv_pos_as_xyz
  1  'x, y, z'
loop_
 _atom_site_type_symbol
 _atom_site_label
 _atom_site_symmetry_multiplicity
 _atom_site_fract_x
 _atom_site_fract_y
 _atom_site_fract_z
 _atom_site_occupancy
  Li  Li0  1  0.99869421  0.12402256  0.75112319  1
  Li  Li1  1  0.99891707  0.63359681  0.74950110  1
  Li  Li2  1  0.00019727  0.36552892  0.25016679  1
  Li  Li3  1  0.99843892  0.87656147  0.25014784  1
  Ag  Ag4  1  0.99682675  0.49952408  0.49908395  1
  Ag  Ag5  1  0.99667412  0.50226261  0.99885389  1
  F  F6  1  0.62126094  0.56491976  0.66737757  1
  F  F7  1  0.57342266  0.09187911  0.63842236  1
  F  F8  1  0.42374990  0.90824783  0.36136691  1
  F  F9  1  0.62298939  0.81073481  0.16786785  1
  F  F10  1  0.37593498  0.43630423  0.33176812  1
  F  F11  1  0.57357004  0.33282169  0.13807058  1
  F  F12  1  0.42283989  0.66816172  0.86096327  1
  F  F13  1  0.37514486  0.18739340  0.83209258  1
