# generated using pymatgen
data_MnCo3O8
_symmetry_space_group_name_H-M   'P 1'
_cell_length_a   5.62628196
_cell_length_b   5.62639548
_cell_length_c   8.70885524
_cell_angle_alpha   90.01132191
_cell_angle_beta   90.00707903
_cell_angle_gamma   119.99605035
_symmetry_Int_Tables_number   1
_chemical_formula_structural   MnCo3O8
_chemical_formula_sum   'Mn2 Co6 O16'
_cell_volume   238.75952868
_cell_formula_units_Z   2
loop_
 _symmetry_equiv_pos_site_id
 _symmetry_equiv_pos_as_xyz
  1  'x, y, z'
loop_
 _atom_site_type_symbol
 _atom_site_label
 _atom_site_symmetry_multiplicity
 _atom_site_fract_x
 _atom_site_fract_y
 _atom_site_fract_z
 _atom_site_occupancy
  Mn  Mn0  1  0.33332295  0.66667121  0.48537211  1
  Mn  Mn1  1  0.66661919  0.33329793  0.98527585  1
  Co  Co2  1  0.16749409  0.83263999  0.20926605  1
  Co  Co3  1  0.16746579  0.33491209  0.20925551  1
  Co  Co4  1  0.66526175  0.83262025  0.20928826  1
  Co  Co5  1  0.33487936  0.16743923  0.70903362  1
  Co  Co6  1  0.83252974  0.66512898  0.70904008  1
  Co  Co7  1  0.83259694  0.16748804  0.70901140  1
  O  O8  1  0.16399480  0.83588874  0.60501040  1
  O  O9  1  0.03821749  0.51918470  0.33727536  1
  O  O10  1  0.33331952  0.66661889  0.09836435  1
  O  O11  1  0.00018410  0.00018977  0.32044225  1
  O  O12  1  0.00007710  0.00009514  0.82019957  1
  O  O13  1  0.16403580  0.32814845  0.60499809  1
  O  O14  1  0.48094373  0.96171610  0.33723667  1
  O  O15  1  0.48100324  0.51919948  0.33722487  1
  O  O16  1  0.32794855  0.16393856  0.10495094  1
  O  O17  1  0.67161899  0.83581776  0.60510652  1
  O  O18  1  0.51925167  0.48088146  0.83702061  1
  O  O19  1  0.51929609  0.03839966  0.83699670  1
  O  O20  1  0.66654935  0.33327898  0.59800605  1
  O  O21  1  0.83588859  0.67177284  0.10519530  1
  O  O22  1  0.96163705  0.48086073  0.83701646  1
  O  O23  1  0.83586513  0.16401305  0.10513598  1
