# generated using pymatgen
data_Bi3O2F5
_symmetry_space_group_name_H-M   'P 1'
_cell_length_a   13.54419855
_cell_length_b   5.95869574
_cell_length_c   8.42330838
_cell_angle_alpha   90.00000000
_cell_angle_beta   108.31972156
_cell_angle_gamma   90.00000000
_symmetry_Int_Tables_number   1
_chemical_formula_structural   Bi3O2F5
_chemical_formula_sum   'Bi12 O8 F20'
_cell_volume   645.35493850
_cell_formula_units_Z   4
loop_
 _symmetry_equiv_pos_site_id
 _symmetry_equiv_pos_as_xyz
  1  'x, y, z'
loop_
 _atom_site_type_symbol
 _atom_site_label
 _atom_site_symmetry_multiplicity
 _atom_site_fract_x
 _atom_site_fract_y
 _atom_site_fract_z
 _atom_site_occupancy
  Bi  Bi0  1  0.00000000  0.57400093  0.75000000  1
  Bi  Bi1  1  0.00000000  0.42599907  0.25000000  1
  Bi  Bi2  1  0.14330586  0.97482802  0.57547082  1
  Bi  Bi3  1  0.29423980  0.54207465  0.87742675  1
  Bi  Bi4  1  0.14330586  0.02517198  0.07547082  1
  Bi  Bi5  1  0.29423980  0.45792535  0.37742675  1
  Bi  Bi6  1  0.50000000  0.99907697  0.75000000  1
  Bi  Bi7  1  0.50000000  0.00092303  0.25000000  1
  Bi  Bi8  1  0.70576020  0.54207465  0.62257325  1
  Bi  Bi9  1  0.85669414  0.97482802  0.92452918  1
  Bi  Bi10  1  0.70576020  0.45792535  0.12257325  1
  Bi  Bi11  1  0.85669414  0.02517198  0.42452918  1
  O  O12  1  0.00276362  0.78442346  0.96985068  1
  O  O13  1  0.00276362  0.21557654  0.46985068  1
  O  O14  1  0.15803173  0.75625005  0.82145276  1
  O  O15  1  0.15803173  0.24374995  0.32145276  1
  O  O16  1  0.84196827  0.75625005  0.67854724  1
  O  O17  1  0.84196827  0.24374995  0.17854724  1
  O  O18  1  0.99723638  0.78442346  0.53014932  1
  O  O19  1  0.99723638  0.21557654  0.03014932  1
  F  F20  1  0.16328659  0.22926293  0.78860195  1
  F  F21  1  0.16328659  0.77073707  0.28860195  1
  F  F22  1  0.21885525  0.57192693  0.57334810  1
  F  F23  1  0.34707731  0.87497101  0.78536391  1
  F  F24  1  0.21885525  0.42807307  0.07334810  1
  F  F25  1  0.36733767  0.27142477  0.61947416  1
  F  F26  1  0.34707731  0.12502899  0.28536391  1
  F  F27  1  0.36733767  0.72857523  0.11947416  1
  F  F28  1  0.45068685  0.76536725  0.53508405  1
  F  F29  1  0.54931315  0.76536725  0.96491595  1
  F  F30  1  0.45068685  0.23463275  0.03508405  1
  F  F31  1  0.54931315  0.23463275  0.46491595  1
  F  F32  1  0.63266233  0.27142477  0.88052584  1
  F  F33  1  0.65292269  0.87497101  0.71463609  1
  F  F34  1  0.63266233  0.72857523  0.38052584  1
  F  F35  1  0.78114475  0.57192693  0.92665190  1
  F  F36  1  0.65292269  0.12502899  0.21463609  1
  F  F37  1  0.78114475  0.42807307  0.42665190  1
  F  F38  1  0.83671341  0.22926293  0.71139805  1
  F  F39  1  0.83671341  0.77073707  0.21139805  1
