# generated using pymatgen
data_TiCo(PO4)2
_symmetry_space_group_name_H-M   'P 1'
_cell_length_a   9.96578319
_cell_length_b   5.95707335
_cell_length_c   4.92319198
_cell_angle_alpha   90.00000000
_cell_angle_beta   89.53103078
_cell_angle_gamma   90.00000000
_symmetry_Int_Tables_number   1
_chemical_formula_structural   TiCo(PO4)2
_chemical_formula_sum   'Ti2 Co2 P4 O16'
_cell_volume   292.26486249
_cell_formula_units_Z   2
loop_
 _symmetry_equiv_pos_site_id
 _symmetry_equiv_pos_as_xyz
  1  'x, y, z'
loop_
 _atom_site_type_symbol
 _atom_site_label
 _atom_site_symmetry_multiplicity
 _atom_site_fract_x
 _atom_site_fract_y
 _atom_site_fract_z
 _atom_site_occupancy
  Ti  Ti0  1  0.22552259  0.75000000  0.47564035  1
  Ti  Ti1  1  0.77447741  0.25000000  0.52435965  1
  Co  Co2  1  0.27034861  0.25000000  0.96924983  1
  Co  Co3  1  0.72965139  0.75000000  0.03075017  1
  P  P4  1  0.09818653  0.25000000  0.43760767  1
  P  P5  1  0.40086326  0.75000000  0.90034167  1
  P  P6  1  0.59913674  0.25000000  0.09965833  1
  P  P7  1  0.90181347  0.75000000  0.56239233  1
  O  O8  1  0.05228311  0.75000000  0.64710615  1
  O  O9  1  0.10923732  0.25000000  0.74258113  1
  O  O10  1  0.17110404  0.04375086  0.29867420  1
  O  O11  1  0.17110404  0.45624914  0.29867420  1
  O  O12  1  0.32596942  0.55312796  0.74818179  1
  O  O13  1  0.32596942  0.94687204  0.74818179  1
  O  O14  1  0.36299331  0.75000000  0.20574925  1
  O  O15  1  0.44959259  0.25000000  0.14036949  1
  O  O16  1  0.55040741  0.75000000  0.85963051  1
  O  O17  1  0.63700669  0.25000000  0.79425075  1
  O  O18  1  0.67403058  0.05312796  0.25181821  1
  O  O19  1  0.67403058  0.44687204  0.25181821  1
  O  O20  1  0.82889596  0.54375086  0.70132580  1
  O  O21  1  0.82889596  0.95624914  0.70132580  1
  O  O22  1  0.89076268  0.75000000  0.25741887  1
  O  O23  1  0.94771689  0.25000000  0.35289385  1
