# generated using pymatgen
data_Li2CrCo(PO4)2
_symmetry_space_group_name_H-M   'P 1'
_cell_length_a   10.29513338
_cell_length_b   6.15050735
_cell_length_c   4.77670319
_cell_angle_alpha   90.00000000
_cell_angle_beta   88.64767437
_cell_angle_gamma   90.00000000
_symmetry_Int_Tables_number   1
_chemical_formula_structural   Li2CrCo(PO4)2
_chemical_formula_sum   'Li4 Cr2 Co2 P4 O16'
_cell_volume   302.37800442
_cell_formula_units_Z   2
loop_
 _symmetry_equiv_pos_site_id
 _symmetry_equiv_pos_as_xyz
  1  'x, y, z'
loop_
 _atom_site_type_symbol
 _atom_site_label
 _atom_site_symmetry_multiplicity
 _atom_site_fract_x
 _atom_site_fract_y
 _atom_site_fract_z
 _atom_site_occupancy
  Li  Li0  1  0.00000000  0.00000000  0.00000000  1
  Li  Li1  1  0.00000000  0.50000000  0.00000000  1
  Li  Li2  1  0.50000000  0.00000000  0.50000000  1
  Li  Li3  1  0.50000000  0.50000000  0.50000000  1
  Cr  Cr4  1  0.21812451  0.75000000  0.46036077  1
  Cr  Cr5  1  0.78187549  0.25000000  0.53963923  1
  Co  Co6  1  0.28032893  0.25000000  0.97971795  1
  Co  Co7  1  0.71967107  0.75000000  0.02028205  1
  P  P8  1  0.09204155  0.25000000  0.41971882  1
  P  P9  1  0.40471179  0.75000000  0.91592458  1
  P  P10  1  0.59528821  0.25000000  0.08407542  1
  P  P11  1  0.90795845  0.75000000  0.58028118  1
  O  O12  1  0.04863269  0.75000000  0.69751277  1
  O  O13  1  0.09425318  0.25000000  0.74108788  1
  O  O14  1  0.16259686  0.05205181  0.27797179  1
  O  O15  1  0.16259686  0.44794819  0.27797179  1
  O  O16  1  0.33603391  0.54532664  0.78916736  1
  O  O17  1  0.33603391  0.95467336  0.78916736  1
  O  O18  1  0.39855968  0.75000000  0.24080013  1
  O  O19  1  0.45394591  0.25000000  0.20453471  1
  O  O20  1  0.54605409  0.75000000  0.79546529  1
  O  O21  1  0.60144032  0.25000000  0.75919987  1
  O  O22  1  0.66396609  0.04532664  0.21083264  1
  O  O23  1  0.66396609  0.45467336  0.21083264  1
  O  O24  1  0.83740314  0.55205181  0.72202821  1
  O  O25  1  0.83740314  0.94794819  0.72202821  1
  O  O26  1  0.90574682  0.75000000  0.25891212  1
  O  O27  1  0.95136731  0.25000000  0.30248723  1
