# generated using pymatgen
data_Ti5NbO12
_symmetry_space_group_name_H-M   'P 1'
_cell_length_a   7.27697432
_cell_length_b   5.57277546
_cell_length_c   5.57277546
_cell_angle_alpha   73.49858261
_cell_angle_beta   71.21734152
_cell_angle_gamma   71.21734152
_symmetry_Int_Tables_number   1
_chemical_formula_structural   Ti5NbO12
_chemical_formula_sum   'Ti5 Nb1 O12'
_cell_volume   198.42003795
_cell_formula_units_Z   1
loop_
 _symmetry_equiv_pos_site_id
 _symmetry_equiv_pos_as_xyz
  1  'x, y, z'
loop_
 _atom_site_type_symbol
 _atom_site_label
 _atom_site_symmetry_multiplicity
 _atom_site_fract_x
 _atom_site_fract_y
 _atom_site_fract_z
 _atom_site_occupancy
  Ti  Ti0  1  0.83956692  0.66222849  0.66222849  1
  Ti  Ti1  1  0.67080889  0.33780674  0.33780674  1
  Ti  Ti2  1  0.32919111  0.66219326  0.66219326  1
  Ti  Ti3  1  0.16043308  0.33777151  0.33777151  1
  Ti  Ti4  1  0.00000000  0.00000000  0.00000000  1
  Nb  Nb5  1  0.50000000  0.00000000  0.00000000  1
  O  O6  1  0.66929429  0.02829251  0.63232534  1
  O  O7  1  0.33070571  0.36767466  0.97170749  1
  O  O8  1  0.96478215  0.23114033  0.23114033  1
  O  O9  1  0.29500272  0.89799173  0.89799173  1
  O  O10  1  0.62919119  0.56533811  0.56533811  1
  O  O11  1  0.70499728  0.10200827  0.10200827  1
  O  O12  1  0.03521785  0.76885867  0.76885867  1
  O  O13  1  0.37080881  0.43466189  0.43466189  1
  O  O14  1  0.00000000  0.30428781  0.69571219  1
  O  O15  1  0.66929429  0.63232534  0.02829251  1
  O  O16  1  0.33070571  0.97170749  0.36767466  1
  O  O17  1  0.00000000  0.69571219  0.30428781  1
