# generated using pymatgen
data_Al2O3
_symmetry_space_group_name_H-M   'P 1'
_cell_length_a   5.65803662
_cell_length_b   5.65688228
_cell_length_c   23.68041480
_cell_angle_alpha   90.83854824
_cell_angle_beta   90.02449885
_cell_angle_gamma   90.00841491
_symmetry_Int_Tables_number   1
_chemical_formula_structural   Al2O3
_chemical_formula_sum   'Al32 O48'
_cell_volume   757.85416476
_cell_formula_units_Z   16
loop_
 _symmetry_equiv_pos_site_id
 _symmetry_equiv_pos_as_xyz
  1  'x, y, z'
loop_
 _atom_site_type_symbol
 _atom_site_label
 _atom_site_symmetry_multiplicity
 _atom_site_fract_x
 _atom_site_fract_y
 _atom_site_fract_z
 _atom_site_occupancy
  Al  Al0  1  0.00274533  0.51706413  0.25130176  1
  Al  Al1  1  0.98514316  0.99552453  0.00111343  1
  Al  Al2  1  0.01548044  0.25619241  0.12149613  1
  Al  Al3  1  0.01575367  0.74984206  0.12240756  1
  Al  Al4  1  0.00314152  0.98217320  0.33338988  1
  Al  Al5  1  0.01639406  0.24307308  0.46233429  1
  Al  Al6  1  0.01651052  0.74997470  0.46155150  1
  Al  Al7  1  0.99965081  -0.00005722  0.66571914  1
  Al  Al8  1  0.98471256  0.50457346  0.58205500  1
  Al  Al9  1  0.99574847  0.25025103  0.79083292  1
  Al  Al10  1  0.00018396  0.50091110  0.91623792  1
  Al  Al11  1  0.24179353  0.51966349  0.71188989  1
  Al  Al12  1  0.24233103  0.98107222  0.86993909  1
  Al  Al13  1  0.25694992  0.01907592  0.21349385  1
  Al  Al14  1  0.25757254  0.48023216  0.37113415  1
  Al  Al15  1  0.51349413  0.00462490  0.08257003  1
  Al  Al16  1  0.49903536  0.99974183  0.41716453  1
  Al  Al17  1  0.49654686  0.01763542  0.74972622  1
  Al  Al18  1  0.48304339  0.25042496  0.96124848  1
  Al  Al19  1  0.48207261  0.24994712  0.62107730  1
  Al  Al20  1  0.51399615  0.49527856  0.50056569  1
  Al  Al21  1  0.49666929  0.48282400  0.83203201  1
  Al  Al22  1  0.50370358  0.74988877  0.29241937  1
  Al  Al23  1  0.49890316  0.49922423  0.16745180  1
  Al  Al24  1  0.48325672  0.74395596  0.96222021  1
  Al  Al25  1  0.48227441  0.75685556  0.62020511  1
  Al  Al26  1  0.74940556  0.48131058  0.37202936  1
  Al  Al27  1  0.74957122  0.99997000  0.54129814  1
  Al  Al28  1  0.74949697  0.49998837  0.04186165  1
  Al  Al29  1  0.74907287  0.01781078  0.21257940  1
  Al  Al30  1  0.75002942  0.98239327  0.87097677  1
  Al  Al31  1  0.74948276  0.51827302  0.71091142  1
  O  O32  1  0.97941882  0.25245783  0.04446480  1
  O  O33  1  0.98048763  0.74489993  0.04478642  1
  O  O34  1  0.00195273  0.24194820  0.20791025  1
  O  O35  1  0.00185339  0.77776122  0.20484834  1
  O  O36  1  0.97922061  0.24712004  0.53895668  1
  O  O37  1  0.98046042  0.75578747  0.53871052  1
  O  O38  1  0.99570698  0.27101257  0.70902659  1
  O  O39  1  0.99557819  0.73069528  0.70280817  1
  O  O40  1  0.99615002  0.22997930  0.87279303  1
  O  O41  1  0.99608059  0.77017916  0.87917141  1
  O  O42  1  0.00259080  0.25730557  0.37669454  1
  O  O43  1  0.00278024  0.72147928  0.37955729  1
  O  O44  1  0.22693613  0.50270268  0.13106867  1
  O  O45  1  0.25795553  0.99734153  0.95683980  1
  O  O46  1  0.24304122  0.48027308  0.78863091  1
  O  O47  1  0.24272179  0.02039177  0.79331279  1
  O  O48  1  0.24080152  0.49693426  0.45706015  1
  O  O49  1  0.22748499  0.99670255  0.45330088  1
  O  O50  1  0.24103682  0.00295757  0.12675359  1
  O  O51  1  0.25700331  0.51947760  0.29461584  1
  O  O52  1  0.27191401  0.49745407  0.95249384  1
  O  O53  1  0.25787278  0.50318609  0.62562084  1
  O  O54  1  0.27082452  0.00313294  0.62931900  1
  O  O55  1  0.25681608  0.97987969  0.29019270  1
  O  O56  1  0.51850061  0.25547522  0.03863178  1
  O  O57  1  0.50341398  0.26919015  0.38043042  1
  O  O58  1  0.49648300  0.27785241  0.70334033  1
  O  O59  1  0.49712199  0.22230198  0.87872049  1
  O  O60  1  0.51812856  0.24406524  0.54379304  1
  O  O61  1  0.50339151  0.72870402  0.37409025  1
  O  O62  1  0.49650867  0.74283849  0.70630782  1
  O  O63  1  0.50310214  0.23029952  0.20454753  1
  O  O64  1  0.51953653  0.74722482  0.03903256  1
  O  O65  1  0.49716249  0.75796544  0.87564531  1
  O  O66  1  0.51930851  0.75301021  0.54347798  1
  O  O67  1  0.50316337  0.77037060  0.21068611  1
  O  O68  1  0.74889673  0.98000104  0.29011619  1
  O  O69  1  0.72996067  0.00360970  0.62285370  1
  O  O70  1  0.72298312  0.50391808  0.62840429  1
  O  O71  1  0.73150398  0.49693085  0.95968736  1
  O  O72  1  0.74866932  0.51924984  0.29479903  1
  O  O73  1  0.77442883  0.00367667  0.12959073  1
  O  O74  1  0.76902925  0.99617575  0.45976929  1
  O  O75  1  0.77593156  0.49629590  0.45428276  1
  O  O76  1  0.75041018  0.02029268  0.79349633  1
  O  O77  1  0.75027290  0.48057388  0.78846801  1
  O  O78  1  0.72406727  0.99653768  0.95392117  1
  O  O79  1  0.76753172  0.50309859  0.12388248  1
