# generated using pymatgen
data_Li2Cr3Si3O10
_symmetry_space_group_name_H-M   'P 1'
_cell_length_a   4.88346977
_cell_length_b   8.56702736
_cell_length_c   10.36357761
_cell_angle_alpha   93.10993901
_cell_angle_beta   89.96500637
_cell_angle_gamma   73.46762564
_symmetry_Int_Tables_number   1
_chemical_formula_structural   Li2Cr3Si3O10
_chemical_formula_sum   'Li4 Cr6 Si6 O20'
_cell_volume   414.98409368
_cell_formula_units_Z   2
loop_
 _symmetry_equiv_pos_site_id
 _symmetry_equiv_pos_as_xyz
  1  'x, y, z'
loop_
 _atom_site_type_symbol
 _atom_site_label
 _atom_site_symmetry_multiplicity
 _atom_site_fract_x
 _atom_site_fract_y
 _atom_site_fract_z
 _atom_site_occupancy
  Li  Li0  1  0.27052839  0.89110654  0.02659409  1
  Li  Li1  1  0.84471807  0.88814282  0.52439098  1
  Li  Li2  1  0.15866704  0.10819932  0.47197299  1
  Li  Li3  1  0.74093490  0.10736196  0.97245673  1
  Cr  Cr4  1  0.37947121  0.69309540  0.28722937  1
  Cr  Cr5  1  0.92914262  0.69336690  0.78693237  1
  Cr  Cr6  1  0.50086265  0.50030484  0.99900958  1
  Cr  Cr7  1  0.00058962  0.49952791  0.49913155  1
  Cr  Cr8  1  0.07196925  0.30679730  0.21087415  1
  Cr  Cr9  1  0.62295767  0.30706117  0.71090778  1
  Si  Si10  1  0.85060043  0.69450193  0.10009898  1
  Si  Si11  1  0.45671567  0.69502081  0.59958509  1
  Si  Si12  1  0.54436178  0.30473625  0.39821283  1
  Si  Si13  1  0.15254483  0.30575778  0.89807429  1
  Si  Si14  1  0.82021252  0.99926327  0.24927685  1
  Si  Si15  1  0.17944028  0.00062045  0.74948113  1
  O  O16  1  0.04510301  0.90204136  0.35458849  1
  O  O17  1  0.66410636  0.88186921  0.15885609  1
  O  O18  1  0.05025563  0.90399276  0.85501925  1
  O  O19  1  0.45182664  0.88249665  0.65892892  1
  O  O20  1  0.18851167  0.69237008  0.10144862  1
  O  O21  1  0.60719889  0.68030814  0.45623095  1
  O  O22  1  0.12162103  0.69120643  0.60061096  1
  O  O23  1  0.71706463  0.67887931  0.95648139  1
  O  O24  1  0.76291720  0.56289628  0.18613548  1
  O  O25  1  0.67630299  0.56341052  0.68512764  1
  O  O26  1  0.32558401  0.43665110  0.31251361  1
  O  O27  1  0.24017381  0.43742298  0.81206576  1
  O  O28  1  0.28495567  0.32228959  0.04181782  1
  O  O29  1  0.88018195  0.30723397  0.39685134  1
  O  O30  1  0.39510512  0.32053423  0.54183290  1
  O  O31  1  0.81422430  0.30851060  0.89691827  1
  O  O32  1  0.54638223  0.11730959  0.33915572  1
  O  O33  1  0.95151901  0.09556775  0.14429824  1
  O  O34  1  0.33633018  0.11787478  0.83967375  1
  O  O35  1  0.95428873  0.09745604  0.64412701  1
