# generated using pymatgen
data_LiFeSiO4
_symmetry_space_group_name_H-M   'P 1'
_cell_length_a   4.96479452
_cell_length_b   4.96479452
_cell_length_c   6.23548751
_cell_angle_alpha   90.00000000
_cell_angle_beta   90.00000000
_cell_angle_gamma   67.27973567
_symmetry_Int_Tables_number   1
_chemical_formula_structural   LiFeSiO4
_chemical_formula_sum   'Li2 Fe2 Si2 O8'
_cell_volume   141.77282502
_cell_formula_units_Z   2
loop_
 _symmetry_equiv_pos_site_id
 _symmetry_equiv_pos_as_xyz
  1  'x, y, z'
loop_
 _atom_site_type_symbol
 _atom_site_label
 _atom_site_symmetry_multiplicity
 _atom_site_fract_x
 _atom_site_fract_y
 _atom_site_fract_z
 _atom_site_occupancy
  Li  Li0  1  0.17015028  0.17015028  0.25000000  1
  Li  Li1  1  0.82984972  0.82984972  0.75000000  1
  Fe  Fe2  1  0.50000000  0.50000000  0.00000000  1
  Fe  Fe3  1  0.50000000  0.50000000  0.50000000  1
  Si  Si4  1  0.15310951  0.15310951  0.75000000  1
  Si  Si5  1  0.84689049  0.84689049  0.25000000  1
  O  O6  1  0.26620585  0.78680870  0.75000000  1
  O  O7  1  0.21319130  0.73379415  0.25000000  1
  O  O8  1  0.26519511  0.26519511  0.53578664  1
  O  O9  1  0.73480489  0.73480489  0.03578664  1
  O  O10  1  0.26519511  0.26519511  0.96421336  1
  O  O11  1  0.73480489  0.73480489  0.46421336  1
  O  O12  1  0.78680870  0.26620585  0.75000000  1
  O  O13  1  0.73379415  0.21319130  0.25000000  1
