# generated using pymatgen
data_Li3Mn3NiO8
_symmetry_space_group_name_H-M   'P 1'
_cell_length_a   5.88517180
_cell_length_b   5.77509556
_cell_length_c   5.95460170
_cell_angle_alpha   61.02430217
_cell_angle_beta   60.40018962
_cell_angle_gamma   90.25534369
_symmetry_Int_Tables_number   1
_chemical_formula_structural   Li3Mn3NiO8
_chemical_formula_sum   'Li3 Mn3 Ni1 O8'
_cell_volume   145.82586745
_cell_formula_units_Z   1
loop_
 _symmetry_equiv_pos_site_id
 _symmetry_equiv_pos_as_xyz
  1  'x, y, z'
loop_
 _atom_site_type_symbol
 _atom_site_label
 _atom_site_symmetry_multiplicity
 _atom_site_fract_x
 _atom_site_fract_y
 _atom_site_fract_z
 _atom_site_occupancy
  Li  Li0  1  0.50000100  0.00000100  0.99999900  1
  Li  Li1  1  0.49999900  0.50000000  0.00000000  1
  Li  Li2  1  0.50000000  0.49999900  0.50000000  1
  Mn  Mn3  1  0.00000000  0.00000100  0.50000000  1
  Mn  Mn4  1  0.00000000  0.50000000  0.00000100  1
  Mn  Mn5  1  0.00000000  0.49999900  0.50000000  1
  Ni  Ni6  1  0.00000000  0.00000000  0.00000000  1
  O  O7  1  0.21494284  0.24030575  0.04309148  1
  O  O8  1  0.20649605  0.71154959  0.05231845  1
  O  O9  1  0.21867133  0.25156189  0.50472617  1
  O  O10  1  0.23053304  0.75853828  0.47850892  1
  O  O11  1  0.76946796  0.24146072  0.52149208  1
  O  O12  1  0.78132867  0.74843911  0.49527383  1
  O  O13  1  0.79350295  0.28845141  0.94768155  1
  O  O14  1  0.78505716  0.75969425  0.95690752  1
