# generated using pymatgen
data_K8Li9(FeO4)4
_symmetry_space_group_name_H-M   'P 1'
_cell_length_a   5.56758029
_cell_length_b   9.14214305
_cell_length_c   10.49165800
_cell_angle_alpha   91.24626638
_cell_angle_beta   81.31676961
_cell_angle_gamma   90.12126679
_symmetry_Int_Tables_number   1
_chemical_formula_structural   K8Li9(FeO4)4
_chemical_formula_sum   'K8 Li9 Fe4 O16'
_cell_volume   527.77522270
_cell_formula_units_Z   1
loop_
 _symmetry_equiv_pos_site_id
 _symmetry_equiv_pos_as_xyz
  1  'x, y, z'
loop_
 _atom_site_type_symbol
 _atom_site_label
 _atom_site_symmetry_multiplicity
 _atom_site_fract_x
 _atom_site_fract_y
 _atom_site_fract_z
 _atom_site_occupancy
  K  K0  1  0.17222199  0.99814559  0.12354813  1
  K  K1  1  0.10182434  0.28127126  0.62607320  1
  K  K2  1  0.36247901  0.48323070  0.35555671  1
  K  K3  1  0.35584560  0.73170683  0.87703326  1
  K  K4  1  0.64886667  0.26303160  0.12649236  1
  K  K5  1  0.62855248  0.50706983  0.64727483  1
  K  K6  1  0.89276249  0.72866262  0.38038745  1
  K  K7  1  0.83697606  0.99964854  0.85695739  1
  Li  Li8  1  0.07591239  0.24239227  0.29730560  1
  Li  Li9  1  0.16280196  0.01483655  0.43958240  1
  Li  Li10  1  0.27756929  0.50779842  0.07456791  1
  Li  Li11  1  0.41041643  0.74466847  0.19573821  1
  Li  Li12  1  0.41356538  0.03314752  0.69578280  1
  Li  Li13  1  0.59463087  0.97658571  0.29546359  1
  Li  Li14  1  0.58252519  0.25928223  0.80683635  1
  Li  Li15  1  0.72363248  0.49131562  0.92938172  1
  Li  Li16  1  0.92937864  0.75270740  0.69648384  1
  Fe  Fe17  1  0.17510287  0.28486320  0.93941197  1
  Fe  Fe18  1  0.34928859  0.79435430  0.55151522  1
  Fe  Fe19  1  0.67075420  0.19867117  0.44947340  1
  Fe  Fe20  1  0.82404220  0.71574847  0.06206493  1
  O  O21  1  0.14831734  0.30292542  0.12055057  1
  O  O22  1  0.11563539  0.69973638  0.12639076  1
  O  O23  1  0.14918191  0.94707333  0.61978175  1
  O  O24  1  0.19745046  0.62002431  0.58188070  1
  O  O25  1  0.39332114  0.16747697  0.37138283  1
  O  O26  1  0.36708122  0.81898215  0.37595669  1
  O  O27  1  0.33279786  0.10969409  0.87485319  1
  O  O28  1  0.40224358  0.43282380  0.88537436  1
  O  O29  1  0.59679141  0.56848209  0.12152624  1
  O  O30  1  0.66415434  0.89191098  0.12157650  1
  O  O31  1  0.57665150  0.21251801  0.62400344  1
  O  O32  1  0.60088010  0.80521889  0.64402015  1
  O  O33  1  0.84818908  0.36383241  0.42051468  1
  O  O34  1  0.87824973  0.06645025  0.35534798  1
  O  O35  1  0.87805523  0.29676187  0.87868261  1
  O  O36  1  0.86085258  0.69629274  0.88007429  1
