# generated using pymatgen
data_Li5V3P8O29
_symmetry_space_group_name_H-M   'P 1'
_cell_length_a   9.76911157
_cell_length_b   9.78189907
_cell_length_c   14.00008022
_cell_angle_alpha   90.23886392
_cell_angle_beta   90.08952640
_cell_angle_gamma   60.22105394
_symmetry_Int_Tables_number   1
_chemical_formula_structural   Li5V3P8O29
_chemical_formula_sum   'Li10 V6 P16 O58'
_cell_volume   1161.17756435
_cell_formula_units_Z   2
loop_
 _symmetry_equiv_pos_site_id
 _symmetry_equiv_pos_as_xyz
  1  'x, y, z'
loop_
 _atom_site_type_symbol
 _atom_site_label
 _atom_site_symmetry_multiplicity
 _atom_site_fract_x
 _atom_site_fract_y
 _atom_site_fract_z
 _atom_site_occupancy
  Li  Li0  1  0.91341697  0.77335656  0.06032057  1
  Li  Li1  1  0.76374457  0.90741112  0.55805334  1
  Li  Li2  1  0.90021070  0.33737102  0.55784310  1
  Li  Li3  1  0.76769835  0.32777870  0.06319578  1
  Li  Li4  1  0.32552859  0.90339910  0.06066856  1
  Li  Li5  1  0.33691619  0.76751198  0.55750632  1
  Li  Li6  1  0.68052920  0.09046342  0.94123610  1
  Li  Li7  1  0.10151268  0.66445406  0.43872680  1
  Li  Li8  1  0.09290750  0.22280886  0.94147971  1
  Li  Li9  1  0.98306285  0.03926568  0.49133273  1
  V  V10  1  0.56256397  0.43117000  0.25369277  1
  V  V11  1  0.43214523  0.56772495  0.75200339  1
  V  V12  1  0.56613394  0.99891918  0.74556673  1
  V  V13  1  0.43108680  0.00092117  0.25411024  1
  V  V14  1  0.99970716  0.56756693  0.24779447  1
  V  V15  1  0.00013631  0.43226163  0.75079541  1
  P  P16  1  0.91089485  0.76954188  0.84211101  1
  P  P17  1  0.77511417  0.91214853  0.34360041  1
  P  P18  1  0.91067743  0.31504507  0.34150236  1
  P  P19  1  0.66482092  0.66530928  0.12958264  1
  P  P20  1  0.66602860  0.66380492  0.62782070  1
  P  P21  1  0.76663446  0.31879515  0.84465658  1
  P  P22  1  0.69002824  0.22682805  0.65849131  1
  P  P23  1  0.32005740  0.91210632  0.84253397  1
  P  P24  1  0.68164356  0.08692844  0.16028435  1
  P  P25  1  0.31404519  0.77114758  0.34188274  1
  P  P26  1  0.23075048  0.68425342  0.15641774  1
  P  P27  1  0.32894270  0.33677354  0.37229287  1
  P  P28  1  0.33680197  0.32999195  0.87010266  1
  P  P29  1  0.08819796  0.68477285  0.65913469  1
  P  P30  1  0.22302211  0.08472294  0.65857480  1
  P  P31  1  0.08896144  0.22976387  0.15945605  1
  O  O32  1  0.00362812  0.77379621  0.57002347  1
  O  O33  1  0.91996299  0.74260845  0.33554730  1
  O  O34  1  0.76023979  0.99946019  0.06995375  1
  O  O35  1  0.74381514  0.91765140  0.83645789  1
  O  O36  1  0.90092605  0.61842390  0.81938343  1
  O  O37  1  0.81308728  0.67228437  0.16927352  1
  O  O38  1  0.91255816  0.46912181  0.33129396  1
  O  O39  1  0.99713279  0.24503304  0.06998100  1
  O  O40  1  0.91648052  0.33430242  0.84320954  1
  O  O41  1  0.67849193  0.80925856  0.66619350  1
  O  O42  1  0.62107166  0.90946008  0.33186599  1
  O  O43  1  0.81052968  0.50961830  0.66611848  1
  O  O44  1  0.66936422  0.65698858  0.02295608  1
  O  O45  1  0.65436164  0.66614480  0.52128441  1
  O  O46  1  0.66900897  0.51353352  0.17276374  1
  O  O47  1  0.47951373  0.90124345  0.82225761  1
  O  O48  1  0.51323881  0.81385001  0.16880647  1
  O  O49  1  0.74055518  0.34212727  0.33020965  1
  O  O50  1  0.78629124  0.20319453  0.75783176  1
  O  O51  1  0.79475663  0.21645821  0.57752574  1
  O  O52  1  0.74982579  0.24813036  0.93587603  1
  O  O53  1  0.61862438  0.48007479  0.82297239  1
  O  O54  1  0.51062539  0.67505376  0.67228994  1
  O  O55  1  0.66078330  0.25474470  0.15989764  1
  O  O56  1  0.47238331  0.61622813  0.32834523  1
  O  O57  1  0.34177780  0.91251242  0.33648228  1
  O  O58  1  0.79324809  0.00150313  0.25092455  1
  O  O59  1  0.79251258  0.98575004  0.43361083  1
  O  O60  1  0.20893608  0.99398830  0.57653225  1
  O  O61  1  0.66045298  0.08502164  0.65688205  1
  O  O62  1  0.53466908  0.38428627  0.67031077  1
  O  O63  1  0.34044342  0.74449172  0.83444584  1
  O  O64  1  0.48142198  0.33297448  0.32357755  1
  O  O65  1  0.38172327  0.52458082  0.17656940  1
  O  O66  1  0.24144661  0.76973996  0.07287712  1
  O  O67  1  0.23025001  0.77249512  0.43279492  1
  O  O68  1  0.20328891  0.78836297  0.25365225  1
  O  O69  1  0.25763241  0.66278314  0.66108516  1
  O  O70  1  0.48749524  0.18339294  0.82877927  1
  O  O71  1  0.52294795  0.09412889  0.17845079  1
  O  O72  1  0.33743195  0.47728739  0.82010811  1
  O  O73  1  0.34106147  0.33683802  0.97594767  1
  O  O74  1  0.33937202  0.34404600  0.47777595  1
  O  O75  1  0.18616805  0.49201315  0.33284940  1
  O  O76  1  0.38064250  0.08449758  0.66772597  1
  O  O77  1  0.32450735  0.19358026  0.32831720  1
  O  O78  1  0.08421732  0.66211814  0.15600009  1
  O  O79  1  0.00250234  0.79132888  0.75209868  1
  O  O80  1  0.99084449  0.75889801  0.93368006  1
  O  O81  1  0.09338885  0.52736343  0.67143416  1
  O  O82  1  0.18653748  0.32699622  0.83234326  1
  O  O83  1  0.10018746  0.37970240  0.17803534  1
  O  O84  1  0.25428721  0.08234935  0.15833188  1
  O  O85  1  0.24651492  0.99538187  0.93433370  1
  O  O86  1  0.20148429  0.01075942  0.75731897  1
  O  O87  1  0.08255486  0.25661568  0.66073339  1
  O  O88  1  0.98048464  0.22601985  0.43208031  1
  O  O89  1  0.00262817  0.20508952  0.25050943  1
