# generated using pymatgen
data_Na2Ga11O17
_symmetry_space_group_name_H-M   'P 1'
_cell_length_a   5.97368016
_cell_length_b   5.96015682
_cell_length_c   22.98938052
_cell_angle_alpha   90.00201553
_cell_angle_beta   89.99804489
_cell_angle_gamma   119.82337056
_symmetry_Int_Tables_number   1
_chemical_formula_structural   Na2Ga11O17
_chemical_formula_sum   'Na4 Ga22 O34'
_cell_volume   710.11351399
_cell_formula_units_Z   2
loop_
 _symmetry_equiv_pos_site_id
 _symmetry_equiv_pos_as_xyz
  1  'x, y, z'
loop_
 _atom_site_type_symbol
 _atom_site_label
 _atom_site_symmetry_multiplicity
 _atom_site_fract_x
 _atom_site_fract_y
 _atom_site_fract_z
 _atom_site_occupancy
  Na  Na0  1  0.36093200  0.79264058  0.75010440  1
  Na  Na1  1  0.99743476  0.11975930  0.75007872  1
  Na  Na2  1  0.00253338  0.88023103  0.24992267  1
  Na  Na3  1  0.63910906  0.20739162  0.24989960  1
  Ga  Ga4  1  0.16793001  0.83506737  0.89098249  1
  Ga  Ga5  1  0.16797105  0.83513002  0.60903826  1
  Ga  Ga6  1  0.33298740  0.66639395  0.02566512  1
  Ga  Ga7  1  0.32798470  0.66424559  0.17523896  1
  Ga  Ga8  1  0.00000500  0.00000229  0.00000151  1
  Ga  Ga9  1  0.00000113  0.99999832  0.49999960  1
  Ga  Ga10  1  0.32794301  0.66423884  0.32471764  1
  Ga  Ga11  1  0.17060518  0.33766148  0.61006868  1
  Ga  Ga12  1  0.33296153  0.66637644  0.47433483  1
  Ga  Ga13  1  0.17054389  0.33760008  0.88997008  1
  Ga  Ga14  1  0.66659957  0.83327387  0.61057982  1
  Ga  Ga15  1  0.66654627  0.83320571  0.88945729  1
  Ga  Ga16  1  0.33345914  0.16681462  0.11054731  1
  Ga  Ga17  1  0.33344426  0.16673825  0.38941697  1
  Ga  Ga18  1  0.82945578  0.66241891  0.11003796  1
  Ga  Ga19  1  0.82941387  0.66234897  0.38992981  1
  Ga  Ga20  1  0.67204804  0.33575823  0.67527920  1
  Ga  Ga21  1  0.67199010  0.33575277  0.82476089  1
  Ga  Ga22  1  0.66701308  0.33361628  0.97433675  1
  Ga  Ga23  1  0.66704113  0.33362192  0.52566240  1
  Ga  Ga24  1  0.83205794  0.16494056  0.10901508  1
  Ga  Ga25  1  0.83206566  0.16487723  0.39096113  1
  O  O26  1  0.15437203  0.84324004  0.44649019  1
  O  O27  1  0.15436408  0.84324200  0.05349207  1
  O  O28  1  0.01985415  0.51373443  0.65278552  1
  O  O29  1  0.01981878  0.51365265  0.84724486  1
  O  O30  1  0.30347878  0.74982433  0.24997902  1
  O  O31  1  0.99832070  0.99657531  0.15079505  1
  O  O32  1  0.99831493  0.99646187  0.34916030  1
  O  O33  1  0.15587695  0.31069076  0.05407589  1
  O  O34  1  0.00172902  0.00354629  0.65084138  1
  O  O35  1  0.00168440  0.00345423  0.84920725  1
  O  O36  1  0.15583168  0.31062331  0.44591111  1
  O  O37  1  0.33605356  0.66532901  0.55818311  1
  O  O38  1  0.33602699  0.66532198  0.94183237  1
  O  O39  1  0.49020506  0.98592911  0.65116941  1
  O  O40  1  0.49019766  0.98589071  0.84886686  1
  O  O41  1  0.31170343  0.15746271  0.55356010  1
  O  O42  1  0.31170339  0.15744447  0.94645223  1
  O  O43  1  0.49388071  0.50938030  0.65641471  1
  O  O44  1  0.49379790  0.50933919  0.84361402  1
  O  O45  1  0.50621508  0.49068428  0.15639216  1
  O  O46  1  0.50613537  0.49063355  0.34357736  1
  O  O47  1  0.68829993  0.84257717  0.05354952  1
  O  O48  1  0.68830549  0.84252380  0.44643700  1
  O  O49  1  0.50984441  0.01408091  0.34881913  1
  O  O50  1  0.50980374  0.01411912  0.15114051  1
  O  O51  1  0.66394791  0.33466395  0.44181274  1
  O  O52  1  0.84417617  0.68937430  0.55408910  1
  O  O53  1  0.84412490  0.68932723  0.94592456  1
  O  O54  1  0.66395576  0.33469910  0.05816890  1
  O  O55  1  0.69629280  0.25001232  0.75001602  1
  O  O56  1  0.98016592  0.48634684  0.15274808  1
  O  O57  1  0.98014978  0.48626570  0.34721884  1
  O  O58  1  0.84564823  0.15676833  0.55350602  1
  O  O59  1  0.84564436  0.15677446  0.94651143  1
