# generated using pymatgen
data_Li5V3P8O29
_symmetry_space_group_name_H-M   'P 1'
_cell_length_a   9.79707921
_cell_length_b   9.79918323
_cell_length_c   13.96784553
_cell_angle_alpha   90.05681317
_cell_angle_beta   89.95333716
_cell_angle_gamma   59.94625980
_symmetry_Int_Tables_number   1
_chemical_formula_structural   Li5V3P8O29
_chemical_formula_sum   'Li10 V6 P16 O58'
_cell_volume   1160.67440152
_cell_formula_units_Z   2
loop_
 _symmetry_equiv_pos_site_id
 _symmetry_equiv_pos_as_xyz
  1  'x, y, z'
loop_
 _atom_site_type_symbol
 _atom_site_label
 _atom_site_symmetry_multiplicity
 _atom_site_fract_x
 _atom_site_fract_y
 _atom_site_fract_z
 _atom_site_occupancy
  Li  Li0  1  0.09442745  0.22747982  0.93921111  1
  Li  Li1  1  0.22996220  0.08723370  0.44053544  1
  Li  Li2  1  0.09777330  0.67810152  0.44218266  1
  Li  Li3  1  0.22338314  0.67932631  0.94256158  1
  Li  Li4  1  0.68353685  0.08729423  0.94042054  1
  Li  Li5  1  0.32008837  0.90488046  0.06010171  1
  Li  Li6  1  0.67784532  0.22710705  0.43937935  1
  Li  Li7  1  0.76968164  0.32240768  0.06104075  1
  Li  Li8  1  0.90850051  0.32135597  0.56104486  1
  Li  Li9  1  0.77522667  0.90488395  0.56002660  1
  V  V10  1  0.99790026  0.57195929  0.24548991  1
  V  V11  1  0.43259690  0.99882147  0.24901644  1
  V  V12  1  0.42995203  0.57212725  0.74547211  1
  V  V13  1  0.56655304  0.43169146  0.25358780  1
  V  V14  1  0.56850001  0.99868248  0.74918716  1
  V  V15  1  0.00182902  0.43181505  0.75335352  1
  P  P16  1  0.08653803  0.23258129  0.15792216  1
  P  P17  1  0.23177150  0.08828950  0.65759012  1
  P  P18  1  0.08730559  0.67891337  0.65785708  1
  P  P19  1  0.32859753  0.33435097  0.37230394  1
  P  P20  1  0.33695184  0.33478917  0.87236673  1
  P  P21  1  0.23377358  0.67904994  0.15802150  1
  P  P22  1  0.31701038  0.76907124  0.34206428  1
  P  P23  1  0.67995241  0.08848765  0.15761254  1
  P  P24  1  0.32008680  0.91089232  0.84085438  1
  P  P25  1  0.68097126  0.23220425  0.65804784  1
  P  P26  1  0.76549275  0.32094751  0.84250002  1
  P  P27  1  0.66727771  0.66288649  0.12725671  1
  P  P28  1  0.66969487  0.66295550  0.62708027  1
  P  P29  1  0.91364008  0.32104616  0.34261595  1
  P  P30  1  0.76884484  0.91095632  0.34092567  1
  P  P31  1  0.91372412  0.76904737  0.84178025  1
  O  O32  1  0.00385721  0.24364305  0.43232258  1
  O  O33  1  0.08274211  0.25554755  0.66326940  1
  O  O34  1  0.21049953  -0.00000349  0.74946246  1
  O  O35  1  0.23870753  0.99774180  0.93108895  1
  O  O36  1  0.09806771  0.38244200  0.17625816  1
  O  O37  1  0.25137603  0.08347826  0.15665211  1
  O  O38  1  0.18890782  0.32607242  0.83390414  1
  O  O39  1  0.10142799  0.51850909  0.67541711  1
  O  O40  1  0.00697388  0.76052329  0.92667122  1
  O  O41  1  0.08425298  0.66207771  0.16538872  1
  O  O42  1  0.32195034  0.18805464  0.33242071  1
  O  O43  1  0.18161475  0.48762413  0.32841377  1
  O  O44  1  0.38258307  0.09801820  0.67906328  1
  O  O45  1  0.32429802  0.34239700  0.47900829  1
  O  O46  1  0.33311343  0.34418663  0.97901307  1
  O  O47  1  0.51910678  0.09847748  0.17882422  1
  O  O48  1  0.33009111  0.48791154  0.82786533  1
  O  O49  1  0.49020347  0.18750342  0.83318684  1
  O  O50  1  0.25372474  0.66201881  0.66563780  1
  O  O51  1  0.21435270  0.79345984  0.24580630  1
  O  O52  1  0.23885496  0.75841754  0.06747796  1
  O  O53  1  0.23253693  0.76030373  0.42686625  1
  O  O54  1  0.38046449  0.51877452  0.17534496  1
  O  O55  1  0.48505805  0.32617350  0.33370512  1
  O  O56  1  0.66504095  0.08342961  0.65692484  1
  O  O57  1  0.33407948  0.74537571  0.83885685  1
  O  O58  1  0.51965024  0.38259769  0.67626694  1
  O  O59  1  0.24044946  0.00810187  0.56625229  1
  O  O60  1  0.76247028  0.99815003  0.43116327  1
  O  O61  1  0.47929573  0.61805381  0.32369474  1
  O  O62  1  0.66201726  0.25553826  0.16367912  1
  O  O63  1  0.78957757  0.99985856  0.24948748  1
  O  O64  1  0.33802845  0.91642957  0.33974682  1
  O  O65  1  0.51839610  0.66652615  0.67539886  1
  O  O66  1  0.61561005  0.47962158  0.82288337  1
  O  O67  1  0.75353186  0.24363904  0.93241510  1
  O  O68  1  0.75701716  0.24682908  0.56811937  1
  O  O69  1  0.78972640  0.20971273  0.75020350  1
  O  O70  1  0.74919296  0.33521826  0.34345005  1
  O  O71  1  0.51394419  0.81234545  0.16622333  1
  O  O72  1  0.48103061  0.89629869  0.82438405  1
  O  O73  1  0.67553134  0.50993043  0.16728244  1
  O  O74  1  0.66127129  0.66261173  0.52092628  1
  O  O75  1  0.67547252  0.66324173  0.02109017  1
  O  O76  1  0.62228648  0.89682809  0.32431826  1
  O  O77  1  0.81483283  0.50987454  0.66700095  1
  O  O78  1  0.67391688  0.81225295  0.66578830  1
  O  O79  1  0.91541751  0.33572388  0.84295920  1
  O  O80  1  0.00047875  0.21009291  0.25014908  1
  O  O81  1  0.99567888  0.24768518  0.06804712  1
  O  O82  1  0.90410996  0.47985081  0.32280549  1
  O  O83  1  0.81531925  0.66575093  0.17540901  1
  O  O84  1  0.74537031  0.91646478  0.83963537  1
  O  O85  1  0.90268626  0.61816749  0.82351020  1
  O  O86  1  0.75172335  0.00882537  0.06624707  1
  O  O87  1  0.92046675  0.74535284  0.33918493  1
  O  O88  1  0.00353973  0.75823860  0.56730947  1
  O  O89  1  0.99187151  0.79346623  0.74554394  1
