# generated using pymatgen
data_Li5V3P8O29
_symmetry_space_group_name_H-M   'P 1'
_cell_length_a   9.79858220
_cell_length_b   9.78687518
_cell_length_c   13.92665972
_cell_angle_alpha   89.84179085
_cell_angle_beta   89.81343621
_cell_angle_gamma   60.16258254
_symmetry_Int_Tables_number   1
_chemical_formula_structural   Li5V3P8O29
_chemical_formula_sum   'Li10 V6 P16 O58'
_cell_volume   1158.48757084
_cell_formula_units_Z   2
loop_
 _symmetry_equiv_pos_site_id
 _symmetry_equiv_pos_as_xyz
  1  'x, y, z'
loop_
 _atom_site_type_symbol
 _atom_site_label
 _atom_site_symmetry_multiplicity
 _atom_site_fract_x
 _atom_site_fract_y
 _atom_site_fract_z
 _atom_site_occupancy
  Li  Li0  1  0.09298320  0.22921438  0.93903719  1
  Li  Li1  1  0.09492173  0.67749821  0.43977400  1
  Li  Li2  1  0.22564435  0.68037529  0.94023730  1
  Li  Li3  1  0.32003731  0.77505238  0.55828329  1
  Li  Li4  1  0.32549562  0.90491559  0.06092319  1
  Li  Li5  1  0.67652057  0.22883775  0.43952181  1
  Li  Li6  1  0.77180451  0.31885594  0.05928216  1
  Li  Li7  1  0.91120547  0.31736375  0.55985714  1
  Li  Li8  1  0.76988801  0.90545516  0.56100127  1
  Li  Li9  1  0.90198281  0.77504944  0.05867976  1
  V  V10  1  0.99896337  0.56731334  0.25076318  1
  V  V11  1  0.42989310  0.00363758  0.25397083  1
  V  V12  1  0.43654391  0.56485626  0.74985424  1
  V  V13  1  0.56953099  0.43117846  0.24822385  1
  V  V14  1  0.56552504  0.00385591  0.75508443  1
  V  V15  1  0.99995634  0.43114553  0.74784804  1
  P  P16  1  0.08844958  0.23143690  0.15880324  1
  P  P17  1  0.23337629  0.08496266  0.65650417  1
  P  P18  1  0.08802079  0.68194445  0.65719221  1
  P  P19  1  0.33440036  0.33438648  0.37328749  1
  P  P20  1  0.33101585  0.33490710  0.87324681  1
  P  P21  1  0.23198076  0.67994673  0.15808232  1
  P  P22  1  0.32104102  0.76730071  0.34116565  1
  P  P23  1  0.68242438  0.08520857  0.15624166  1
  P  P24  1  0.31641685  0.91359356  0.84297467  1
  P  P25  1  0.68189540  0.22999927  0.65935143  1
  P  P26  1  0.76937119  0.31832306  0.84307537  1
  P  P27  1  0.66572323  0.66948785  0.12716956  1
  P  P28  1  0.66635521  0.66828435  0.62780810  1
  P  P29  1  0.91263944  0.31786654  0.34362589  1
  P  P30  1  0.76792603  0.91396736  0.34237732  1
  P  P31  1  0.91063463  0.76776908  0.84091297  1
  O  O32  1  0.99427568  0.24489836  0.43430372  1
  O  O33  1  0.08615355  0.25185074  0.65769413  1
  O  O34  1  0.20779630  0.00397888  0.75284444  1
  O  O35  1  0.24355910  0.00302643  0.93382694  1
  O  O36  1  0.10130045  0.37904458  0.17555019  1
  O  O37  1  0.25444882  0.08112047  0.16073197  1
  O  O38  1  0.18731058  0.32602111  0.83290857  1
  O  O39  1  0.09801965  0.52100437  0.67628802  1
  O  O40  1  0.99796621  0.76092659  0.93076037  1
  O  O41  1  0.08236540  0.66381234  0.15931521  1
  O  O42  1  0.33239848  0.18520789  0.32589341  1
  O  O43  1  0.18640955  0.48635814  0.33321707  1
  O  O44  1  0.38403188  0.09484705  0.67786581  1
  O  O45  1  0.33499372  0.32923345  0.47981544  1
  O  O46  1  0.33524287  0.33371348  0.97967556  1
  O  O47  1  0.52206638  0.09465690  0.17717655  1
  O  O48  1  0.32988061  0.48635043  0.83099099  1
  O  O49  1  0.48229854  0.18586872  0.82670940  1
  O  O50  1  0.25161447  0.66616043  0.65714003  1
  O  O51  1  0.20943108  0.78958008  0.24998201  1
  O  O52  1  0.24201963  0.75916087  0.06807515  1
  O  O53  1  0.24064565  0.75972369  0.43118271  1
  O  O54  1  0.38076815  0.52001427  0.17581274  1
  O  O55  1  0.48818188  0.32488300  0.33252892  1
  O  O56  1  0.66472992  0.08023097  0.66103400  1
  O  O57  1  0.33420257  0.74873552  0.84327201  1
  O  O58  1  0.52089234  0.37853460  0.67446844  1
  O  O59  1  0.24442001  0.99146453  0.57094127  1
  O  O60  1  0.75381737  0.00191519  0.43341664  1
  O  O61  1  0.47982555  0.61834117  0.32437160  1
  O  O62  1  0.66277683  0.25265009  0.15818754  1
  O  O63  1  0.78819205  0.00399553  0.25238696  1
  O  O64  1  0.34036846  0.91491240  0.33562165  1
  O  O65  1  0.51281649  0.67204185  0.66979858  1
  O  O66  1  0.62264798  0.47966555  0.82348732  1
  O  O67  1  0.76223189  0.24394884  0.93436091  1
  O  O68  1  0.76062686  0.23801843  0.56825862  1
  O  O69  1  0.79134984  0.20844432  0.75042244  1
  O  O70  1  0.74523384  0.33659254  0.33883042  1
  O  O71  1  0.51164037  0.81748098  0.16974667  1
  O  O72  1  0.47854641  0.90297658  0.82382354  1
  O  O73  1  0.67376516  0.51416009  0.16733819  1
  O  O74  1  0.66313167  0.66992952  0.52082696  1
  O  O75  1  0.66162042  0.67154909  0.02014618  1
  O  O76  1  0.61756617  0.90254713  0.32356873  1
  O  O77  1  0.81297916  0.51301881  0.66659684  1
  O  O78  1  0.67011481  0.81652347  0.66979259  1
  O  O79  1  0.92023839  0.33467816  0.83756571  1
  O  O80  1  0.99951511  0.20985629  0.25047115  1
  O  O81  1  0.00185492  0.23870518  0.06832508  1
  O  O82  1  0.90133982  0.47966945  0.32279072  1
  O  O83  1  0.81179088  0.67628199  0.16750245  1
  O  O84  1  0.74374355  0.91487121  0.83540924  1
  O  O85  1  0.90022058  0.61890266  0.82434980  1
  O  O86  1  0.76551947  0.99282761  0.07036226  1
  O  O87  1  0.91604075  0.74860564  0.34224373  1
  O  O88  1  0.99678535  0.75833091  0.56756199  1
  O  O89  1  0.99984604  0.79088379  0.74951586  1
