# generated using pymatgen
data_CaV2O4
_symmetry_space_group_name_H-M   'P 1'
_cell_length_a   6.27713208
_cell_length_b   6.27713158
_cell_length_c   6.30310461
_cell_angle_alpha   59.86302343
_cell_angle_beta   59.86303275
_cell_angle_gamma   59.85082647
_symmetry_Int_Tables_number   1
_chemical_formula_structural   CaV2O4
_chemical_formula_sum   'Ca2 V4 O8'
_cell_volume   175.05309749
_cell_formula_units_Z   2
loop_
 _symmetry_equiv_pos_site_id
 _symmetry_equiv_pos_as_xyz
  1  'x, y, z'
loop_
 _atom_site_type_symbol
 _atom_site_label
 _atom_site_symmetry_multiplicity
 _atom_site_fract_x
 _atom_site_fract_y
 _atom_site_fract_z
 _atom_site_occupancy
  Ca  Ca0  1  0.12500000  0.62500000  0.62500000  1
  Ca  Ca1  1  0.62500000  0.12500000  0.62500000  1
  V  V2  1  0.98997469  0.98997469  0.01002531  1
  V  V3  1  0.26002531  0.26002531  0.23997469  1
  V  V4  1  0.62500000  0.62500000  0.12500000  1
  V  V5  1  0.62500000  0.62500000  0.62500000  1
  O  O6  1  0.39740581  0.39740581  0.34274260  1
  O  O7  1  0.39998511  0.86782877  0.36609256  1
  O  O8  1  0.39740581  0.39740581  0.86244678  1
  O  O9  1  0.86782877  0.39998511  0.36609256  1
  O  O10  1  0.38217023  0.85001489  0.88390744  1
  O  O11  1  0.85001489  0.38217023  0.88390744  1
  O  O12  1  0.85259419  0.85259419  0.38755322  1
  O  O13  1  0.85259419  0.85259419  0.90725740  1
