# generated using pymatgen
data_Li2Ti3Co(PO4)6
_symmetry_space_group_name_H-M   'P 1'
_cell_length_a   8.64736737
_cell_length_b   8.56227478
_cell_length_c   8.56227419
_cell_angle_alpha   59.99999379
_cell_angle_beta   60.32498820
_cell_angle_gamma   60.32498357
_symmetry_Int_Tables_number   1
_chemical_formula_structural   Li2Ti3Co(PO4)6
_chemical_formula_sum   'Li2 Ti3 Co1 P6 O24'
_cell_volume   450.46715691
_cell_formula_units_Z   1
loop_
 _symmetry_equiv_pos_site_id
 _symmetry_equiv_pos_as_xyz
  1  'x, y, z'
loop_
 _atom_site_type_symbol
 _atom_site_label
 _atom_site_symmetry_multiplicity
 _atom_site_fract_x
 _atom_site_fract_y
 _atom_site_fract_z
 _atom_site_occupancy
  Li  Li0  1  0.96949365  0.01016912  0.01016912  1
  Li  Li1  1  0.49968647  0.50010418  0.50010418  1
  Ti  Ti2  1  0.06894806  0.64368431  0.64368431  1
  Ti  Ti3  1  0.42371766  0.85876045  0.85876045  1
  Ti  Ti4  1  0.92814762  0.35728379  0.35728379  1
  Co  Co5  1  0.57206257  0.14264581  0.14264581  1
  P  P6  1  0.25649218  0.25100779  0.53033216  1
  P  P7  1  0.25649218  0.96216787  0.25100779  1
  P  P8  1  0.25649218  0.53033216  0.96216787  1
  P  P9  1  0.74576258  0.45517765  0.04102485  1
  P  P10  1  0.74576258  0.04102485  0.75803492  1
  P  P11  1  0.74576258  0.75803492  0.45517765  1
  O  O12  1  0.07556724  0.12860981  0.29756567  1
  O  O13  1  0.07556724  0.49825728  0.12860981  1
  O  O14  1  0.07556724  0.29756567  0.49825728  1
  O  O15  1  0.25448959  0.08140546  0.72083811  1
  O  O16  1  0.25024633  0.42031079  0.55732579  1
  O  O17  1  0.43621550  0.21484056  0.36257582  1
  O  O18  1  0.25448959  0.94326683  0.08140546  1
  O  O19  1  0.25024633  0.77211709  0.42031079  1
  O  O20  1  0.25024633  0.55732579  0.77211709  1
  O  O21  1  0.57039238  0.62511432  0.00304552  1
  O  O22  1  0.75198867  0.26579012  0.05388827  1
  O  O23  1  0.57039238  0.00304552  0.80144777  1
  O  O24  1  0.43621550  0.98636811  0.21484056  1
  O  O25  1  0.25448959  0.72083811  0.94326683  1
  O  O26  1  0.43621550  0.36257582  0.98636811  1
  O  O27  1  0.74724221  0.43506045  0.23013154  1
  O  O28  1  0.74724221  0.23013154  0.58756580  1
  O  O29  1  0.75198867  0.05388827  0.92833194  1
  O  O30  1  0.57039238  0.80144777  0.62511432  1
  O  O31  1  0.74724221  0.58756580  0.43506045  1
  O  O32  1  0.75198867  0.92833194  0.26579012  1
  O  O33  1  0.92425097  0.70880663  0.49422377  1
  O  O34  1  0.92425097  0.49422377  0.87271863  1
  O  O35  1  0.92425097  0.87271863  0.70880663  1
