# generated using pymatgen
data_Li5V3P8O29
_symmetry_space_group_name_H-M   'P 1'
_cell_length_a   9.79179141
_cell_length_b   9.75761210
_cell_length_c   14.05964684
_cell_angle_alpha   90.23771938
_cell_angle_beta   90.54505672
_cell_angle_gamma   60.36219142
_symmetry_Int_Tables_number   1
_chemical_formula_structural   Li5V3P8O29
_chemical_formula_sum   'Li10 V6 P16 O58'
_cell_volume   1167.52046088
_cell_formula_units_Z   2
loop_
 _symmetry_equiv_pos_site_id
 _symmetry_equiv_pos_as_xyz
  1  'x, y, z'
loop_
 _atom_site_type_symbol
 _atom_site_label
 _atom_site_symmetry_multiplicity
 _atom_site_fract_x
 _atom_site_fract_y
 _atom_site_fract_z
 _atom_site_occupancy
  Li  Li0  1  0.77319490  0.90543828  0.56149425  1
  Li  Li1  1  0.91423567  0.31676726  0.56437290  1
  Li  Li2  1  0.77104266  0.33111827  0.05573148  1
  Li  Li3  1  0.33767511  0.89483178  0.05674863  1
  Li  Li4  1  0.68202748  0.23119507  0.43974307  1
  Li  Li5  1  0.32521795  0.77084599  0.56180435  1
  Li  Li6  1  0.67835170  0.08759648  0.93609282  1
  Li  Li7  1  0.31794642  0.34666413  0.10856811  1
  Li  Li8  1  0.09375021  0.67776146  0.43982931  1
  Li  Li9  1  0.04294955  0.94120364  0.99432479  1
  V  V10  1  0.57067862  0.43442049  0.24940076  1
  V  V11  1  0.42904276  0.56695802  0.75399057  1
  V  V12  1  0.56648408  0.99780430  0.74827325  1
  V  V13  1  0.42785324  0.99936706  0.25259237  1
  V  V14  1  0.99432266  0.57204752  0.24666012  1
  V  V15  1  0.00320155  0.43199016  0.75570384  1
  P  P16  1  0.91610111  0.77915290  0.84154392  1
  P  P17  1  0.76816872  0.91589290  0.33888481  1
  P  P18  1  0.91731017  0.31806856  0.34580053  1
  P  P19  1  0.66246108  0.67228129  0.12819303  1
  P  P20  1  0.66653970  0.66117361  0.63003868  1
  P  P21  1  0.77082250  0.31708942  0.83970541  1
  P  P22  1  0.67767202  0.23321946  0.65682982  1
  P  P23  1  0.31361342  0.91402359  0.84451396  1
  P  P24  1  0.67973597  0.09137263  0.15489564  1
  P  P25  1  0.31975521  0.76652829  0.34377868  1
  P  P26  1  0.22228870  0.68779814  0.16057538  1
  P  P27  1  0.33676507  0.33383552  0.37014554  1
  P  P28  1  0.33951775  0.32919950  0.87236701  1
  P  P29  1  0.08602607  0.68131357  0.65786285  1
  P  P30  1  0.22776904  0.08695878  0.66188387  1
  P  P31  1  0.08558626  0.22179350  0.16110144  1
  O  O32  1  0.00129723  0.75563147  0.56602294  1
  O  O33  1  0.91611814  0.75099823  0.33984145  1
  O  O34  1  0.76255711  0.01287974  0.06548503  1
  O  O35  1  0.74291883  0.91847264  0.83286129  1
  O  O36  1  0.91912273  0.62112862  0.83392275  1
  O  O37  1  0.80402415  0.67990236  0.17203397  1
  O  O38  1  0.90732994  0.47721526  0.31927090  1
  O  O39  1  0.99063998  0.21076435  0.08087718  1
  O  O40  1  0.91189480  0.34538154  0.83719984  1
  O  O41  1  0.67151278  0.81151210  0.66766430  1
  O  O42  1  0.61837917  0.90385607  0.31824544  1
  O  O43  1  0.81516488  0.51121658  0.66972944  1
  O  O44  1  0.64375024  0.68223519  0.02288867  1
  O  O45  1  0.65504640  0.66254132  0.52395614  1
  O  O46  1  0.67189798  0.51667688  0.16738934  1
  O  O47  1  0.46938042  0.91164459  0.83227829  1
  O  O48  1  0.50830375  0.81924315  0.17253779  1
  O  O49  1  0.75129903  0.33434004  0.33674563  1
  O  O50  1  0.79001402  0.21005305  0.74800500  1
  O  O51  1  0.75540361  0.24735993  0.56837435  1
  O  O52  1  0.76957049  0.23219958  0.92855936  1
  O  O53  1  0.61623959  0.47526064  0.82621575  1
  O  O54  1  0.51555586  0.66474578  0.67424719  1
  O  O55  1  0.65609615  0.26206199  0.15966016  1
  O  O56  1  0.47877549  0.61838100  0.32321676  1
  O  O57  1  0.33955332  0.91447869  0.33548878  1
  O  O58  1  0.78703809  0.00565570  0.24835524  1
  O  O59  1  0.75331737  0.00417203  0.42956679  1
  O  O60  1  0.23857075  0.98920113  0.57860588  1
  O  O61  1  0.66326071  0.08262946  0.65574080  1
  O  O62  1  0.51906830  0.38090685  0.67704115  1
  O  O63  1  0.33945362  0.74345071  0.82875330  1
  O  O64  1  0.48955126  0.32864744  0.33032659  1
  O  O65  1  0.37316628  0.52554146  0.16826762  1
  O  O66  1  0.21296569  0.79252323  0.08080912  1
  O  O67  1  0.24771957  0.75659352  0.43514076  1
  O  O68  1  0.20278411  0.78348855  0.25886002  1
  O  O69  1  0.25417562  0.65959809  0.65923752  1
  O  O70  1  0.49388071  0.18533429  0.83619431  1
  O  O71  1  0.51756041  0.10260753  0.16929434  1
  O  O72  1  0.33573663  0.48156935  0.82682587  1
  O  O73  1  0.34385140  0.33888750  0.97860545  1
  O  O74  1  0.34411536  0.32007207  0.47543291  1
  O  O75  1  0.18826280  0.48369238  0.33108406  1
  O  O76  1  0.38038490  0.09648672  0.67966604  1
  O  O77  1  0.33842390  0.18382621  0.32015716  1
  O  O78  1  0.08127128  0.65778381  0.16227034  1
  O  O79  1  0.99533275  0.79750075  0.74374624  1
  O  O80  1  0.99389320  0.80694900  0.92377382  1
  O  O81  1  0.09378425  0.52249918  0.67784536  1
  O  O82  1  0.19553225  0.32505034  0.83046447  1
  O  O83  1  0.10087714  0.37218526  0.16715649  1
  O  O84  1  0.25698967  0.07693841  0.16001996  1
  O  O85  1  0.22999566  0.97636282  0.93664812  1
  O  O86  1  0.20024934  0.01237831  0.75824637  1
  O  O87  1  0.08380988  0.25494121  0.66166295  1
  O  O88  1  0.99183388  0.25415828  0.43924900  1
  O  O89  1  0.01693583  0.20045708  0.26073599  1
