# generated using pymatgen
data_LiMn2F5
_symmetry_space_group_name_H-M   'P 1'
_cell_length_a   4.12051947
_cell_length_b   5.65629423
_cell_length_c   10.49179972
_cell_angle_alpha   90.00000000
_cell_angle_beta   90.00000000
_cell_angle_gamma   111.36094497
_symmetry_Int_Tables_number   1
_chemical_formula_structural   LiMn2F5
_chemical_formula_sum   'Li2 Mn4 F10'
_cell_volume   227.73279153
_cell_formula_units_Z   2
loop_
 _symmetry_equiv_pos_site_id
 _symmetry_equiv_pos_as_xyz
  1  'x, y, z'
loop_
 _atom_site_type_symbol
 _atom_site_label
 _atom_site_symmetry_multiplicity
 _atom_site_fract_x
 _atom_site_fract_y
 _atom_site_fract_z
 _atom_site_occupancy
  Li  Li0  1  0.17664646  0.35329391  0.25000000  1
  Li  Li1  1  0.82335354  0.64670609  0.75000000  1
  Mn  Mn2  1  0.13937449  0.27874997  0.56951843  1
  Mn  Mn3  1  0.13937449  0.27874997  0.93048157  1
  Mn  Mn4  1  0.86062551  0.72125003  0.06951843  1
  Mn  Mn5  1  0.86062551  0.72125003  0.43048157  1
  F  F6  1  0.30990336  0.61980573  0.43265955  1
  F  F7  1  0.05342878  0.10685756  0.11586069  1
  F  F8  1  0.05342878  0.10685756  0.38413931  1
  F  F9  1  0.30990336  0.61980573  0.06734045  1
  F  F10  1  0.23569671  0.47139242  0.75000000  1
  F  F11  1  0.76430329  0.52860758  0.25000000  1
  F  F12  1  0.94657122  0.89314244  0.61586069  1
  F  F13  1  0.69009664  0.38019427  0.56734045  1
  F  F14  1  0.69009664  0.38019427  0.93265955  1
  F  F15  1  0.94657122  0.89314244  0.88413931  1
