# generated using pymatgen
data_Na8Fe5O14
_symmetry_space_group_name_H-M   'P 1'
_cell_length_a   10.57407925
_cell_length_b   8.40779474
_cell_length_c   8.64457601
_cell_angle_alpha   112.83971768
_cell_angle_beta   103.94215387
_cell_angle_gamma   102.39367786
_symmetry_Int_Tables_number   1
_chemical_formula_structural   Na8Fe5O14
_chemical_formula_sum   'Na16 Fe10 O28'
_cell_volume   645.33518321
_cell_formula_units_Z   2
loop_
 _symmetry_equiv_pos_site_id
 _symmetry_equiv_pos_as_xyz
  1  'x, y, z'
loop_
 _atom_site_type_symbol
 _atom_site_label
 _atom_site_symmetry_multiplicity
 _atom_site_fract_x
 _atom_site_fract_y
 _atom_site_fract_z
 _atom_site_occupancy
  Na  Na0  1  0.01613859  0.44742102  0.67282533  1
  Na  Na1  1  0.00000000  0.00000000  0.00000000  1
  Na  Na2  1  0.17347270  0.17711479  0.66404183  1
  Na  Na3  1  0.16565331  0.30364196  0.37354796  1
  Na  Na4  1  0.10747687  0.37285004  0.01230961  1
  Na  Na5  1  0.29472461  0.71212849  0.41830057  1
  Na  Na6  1  0.38199273  0.10906114  0.47659457  1
  Na  Na7  1  0.43519984  0.56246115  0.12664280  1
  Na  Na8  1  0.50000000  0.50000000  0.50000000  1
  Na  Na9  1  0.56480016  0.43753885  0.87335720  1
  Na  Na10  1  0.61800727  0.89093886  0.52340543  1
  Na  Na11  1  0.70527539  0.28787151  0.58169943  1
  Na  Na12  1  0.89252313  0.62714996  0.98769039  1
  Na  Na13  1  0.83434669  0.69635804  0.62645204  1
  Na  Na14  1  0.82652730  0.82288521  0.33595817  1
  Na  Na15  1  0.98386141  0.55257898  0.32717467  1
  Fe  Fe16  1  0.16119974  0.85848650  0.73028209  1
  Fe  Fe17  1  0.21704363  0.78561068  0.07055971  1
  Fe  Fe18  1  0.34873199  0.62773385  0.77592445  1
  Fe  Fe19  1  0.33262197  0.17898654  0.11047123  1
  Fe  Fe20  1  0.47114832  0.03626498  0.82799099  1
  Fe  Fe21  1  0.52885168  0.96373502  0.17200901  1
  Fe  Fe22  1  0.66737803  0.82101346  0.88952877  1
  Fe  Fe23  1  0.65126801  0.37226615  0.22407555  1
  Fe  Fe24  1  0.78295637  0.21438932  0.92944029  1
  Fe  Fe25  1  0.83880026  0.14151350  0.26971791  1
  O  O26  1  0.01255064  0.83005214  0.55845819  1
  O  O27  1  0.06493529  0.75367439  0.85623956  1
  O  O28  1  0.18835540  0.62737620  0.60312001  1
  O  O29  1  0.24108622  0.56356190  0.91186370  1
  O  O30  1  0.11767091  0.68233311  0.17104958  1
  O  O31  1  0.17607787  0.10327815  0.89819676  1
  O  O32  1  0.29758939  0.97627921  0.65150272  1
  O  O33  1  0.34942628  0.92104441  0.95476245  1
  O  O34  1  0.35163849  0.39812608  0.64353142  1
  O  O35  1  0.22701336  0.04125665  0.19800940  1
  O  O36  1  0.30826958  0.39370812  0.23390432  1
  O  O37  1  0.53057553  0.72513821  0.98527318  1
  O  O38  1  0.48539146  0.78097809  0.70561583  1
  O  O39  1  0.40627567  0.84989798  0.25942104  1
  O  O40  1  0.59372433  0.15010202  0.74057896  1
  O  O41  1  0.51460854  0.21902191  0.29438417  1
  O  O42  1  0.46942447  0.27486179  0.01472682  1
  O  O43  1  0.69173042  0.60629188  0.76609568  1
  O  O44  1  0.77298664  0.95874335  0.80199060  1
  O  O45  1  0.64836151  0.60187392  0.35646858  1
  O  O46  1  0.65057372  0.07895559  0.04523755  1
  O  O47  1  0.70241061  0.02372079  0.34849728  1
  O  O48  1  0.82392213  0.89672185  0.10180324  1
  O  O49  1  0.88232909  0.31766689  0.82895042  1
  O  O50  1  0.75891378  0.43643810  0.08813630  1
  O  O51  1  0.81164460  0.37262380  0.39687999  1
  O  O52  1  0.93506471  0.24632561  0.14376044  1
  O  O53  1  0.98744936  0.16994786  0.44154181  1
