# generated using pymatgen
data_Li2TiNiO4
_symmetry_space_group_name_H-M   'P 1'
_cell_length_a   5.97078852
_cell_length_b   5.90677057
_cell_length_c   5.90714300
_cell_angle_alpha   90.79187628
_cell_angle_beta   59.67663875
_cell_angle_gamma   120.31979906
_symmetry_Int_Tables_number   1
_chemical_formula_structural   Li2TiNiO4
_chemical_formula_sum   'Li4 Ti2 Ni2 O8'
_cell_volume   146.88645029
_cell_formula_units_Z   2
loop_
 _symmetry_equiv_pos_site_id
 _symmetry_equiv_pos_as_xyz
  1  'x, y, z'
loop_
 _atom_site_type_symbol
 _atom_site_label
 _atom_site_symmetry_multiplicity
 _atom_site_fract_x
 _atom_site_fract_y
 _atom_site_fract_z
 _atom_site_occupancy
  Li  Li0  1  0.49999536  0.50000032  0.99999960  1
  Li  Li1  1  0.99999681  0.49999638  0.49999585  1
  Li  Li2  1  0.99997763  0.49999354  0.99999585  1
  Li  Li3  1  0.49999306  0.99999076  0.00000335  1
  Ti  Ti4  1  0.50000899  0.50001007  0.49999379  1
  Ti  Ti5  1  0.00000383  0.00000830  0.99999272  1
  Ni  Ni6  1  0.49999666  0.99999837  0.50000478  1
  Ni  Ni7  1  0.00000297  0.00000167  0.49999862  1
  O  O8  1  0.50709182  0.74265441  0.72889286  1
  O  O9  1  0.97811275  0.74713397  0.24769973  1
  O  O10  1  0.52185863  0.74775571  0.24720018  1
  O  O11  1  0.00700480  0.77108135  0.75737149  1
  O  O12  1  0.99298665  0.22891051  0.24262868  1
  O  O13  1  0.47813492  0.25224132  0.75280294  1
  O  O14  1  0.02188131  0.25286152  0.75230111  1
  O  O15  1  0.49290482  0.25734279  0.27111244  1
