# generated using pymatgen
data_Cr4OF11
_symmetry_space_group_name_H-M   'P 1'
_cell_length_a   5.07584883
_cell_length_b   5.34354254
_cell_length_c   16.90306107
_cell_angle_alpha   92.11045451
_cell_angle_beta   98.95202601
_cell_angle_gamma   61.40329213
_symmetry_Int_Tables_number   1
_chemical_formula_structural   Cr4OF11
_chemical_formula_sum   'Cr8 O2 F22'
_cell_volume   397.25621955
_cell_formula_units_Z   2
loop_
 _symmetry_equiv_pos_site_id
 _symmetry_equiv_pos_as_xyz
  1  'x, y, z'
loop_
 _atom_site_type_symbol
 _atom_site_label
 _atom_site_symmetry_multiplicity
 _atom_site_fract_x
 _atom_site_fract_y
 _atom_site_fract_z
 _atom_site_occupancy
  Cr  Cr0  1  0.74495182  0.64337983  0.12883081  1
  Cr  Cr1  1  0.77324817  0.11305754  0.62794939  1
  Cr  Cr2  1  0.47865298  0.76055467  0.74575311  1
  Cr  Cr3  1  0.50978929  0.23146553  0.24637134  1
  Cr  Cr4  1  0.25231902  0.86885315  0.37441020  1
  Cr  Cr5  1  0.24241436  0.38053733  0.87475910  1
  Cr  Cr6  1  0.00582767  0.49541310  0.50091436  1
  Cr  Cr7  1  0.99464829  0.00644902  0.00066205  1
  O  O8  1  0.74904613  0.93689847  0.18775083  1
  O  O9  1  0.18688206  0.90602093  0.65650023  1
  F  F10  1  0.81170898  0.78509431  0.03325956  1
  F  F11  1  0.75571690  0.81230968  0.56320867  1
  F  F12  1  0.75555357  0.32065785  0.06419478  1
  F  F13  1  0.68360541  0.96816584  0.71851218  1
  F  F14  1  0.68941114  0.65449287  0.40736581  1
  F  F15  1  0.68399570  0.46694312  0.21759104  1
  F  F16  1  0.80700218  0.59737879  0.83977420  1
  F  F17  1  0.81292748  0.09104651  0.34245739  1
  F  F18  1  0.81633613  0.28200951  0.53368886  1
  F  F19  1  0.31052535  0.84410413  0.09416774  1
  F  F20  1  0.74660277  0.43783566  0.68807348  1
  F  F21  1  0.26126185  0.55613338  0.31034270  1
  F  F22  1  0.68158325  0.15969767  0.90686170  1
  F  F23  1  0.18445874  0.40680312  0.15672310  1
  F  F24  1  0.18644592  0.71648901  0.46782800  1
  F  F25  1  0.31311870  0.53230218  0.78155084  1
  F  F26  1  0.32608570  0.33696243  0.59332621  1
  F  F27  1  0.31196009  0.03166216  0.28137677  1
  F  F28  1  0.24401365  0.69046575  0.93810501  1
  F  F29  1  0.24869239  0.18359946  0.43725897  1
  F  F30  1  0.24657249  0.06377026  0.81251688  1
  F  F31  1  0.18463981  0.21944776  0.96791469  1
