# generated using pymatgen
data_Li3Mn2(NiO4)2
_symmetry_space_group_name_H-M   'P 1'
_cell_length_a   5.91962532
_cell_length_b   5.85075889
_cell_length_c   5.75933660
_cell_angle_alpha   60.60993446
_cell_angle_beta   60.84074289
_cell_angle_gamma   91.48358777
_symmetry_Int_Tables_number   1
_chemical_formula_structural   Li3Mn2(NiO4)2
_chemical_formula_sum   'Li3 Mn2 Ni2 O8'
_cell_volume   142.26997753
_cell_formula_units_Z   1
loop_
 _symmetry_equiv_pos_site_id
 _symmetry_equiv_pos_as_xyz
  1  'x, y, z'
loop_
 _atom_site_type_symbol
 _atom_site_label
 _atom_site_symmetry_multiplicity
 _atom_site_fract_x
 _atom_site_fract_y
 _atom_site_fract_z
 _atom_site_occupancy
  Li  Li0  1  0.00000000  0.50000000  -0.00000000  1
  Li  Li1  1  0.50000000  -0.00000000  0.50000000  1
  Li  Li2  1  0.50000000  0.50000000  -0.00000000  1
  Mn  Mn3  1  0.00000000  -0.00000000  0.50000000  1
  Mn  Mn4  1  0.00000000  -0.00000000  -0.00000000  1
  Ni  Ni5  1  0.00000000  0.50000000  0.50000000  1
  Ni  Ni6  1  0.50000000  -0.00000000  -0.00000000  1
  O  O7  1  0.21094878  0.75776396  0.49908427  1
  O  O8  1  0.77602585  0.77901226  0.96920110  1
  O  O9  1  0.22789274  0.21667505  0.52534498  1
  O  O10  1  0.21736998  0.75540220  0.02632738  1
  O  O11  1  0.78263002  0.24459780  0.97367262  1
  O  O12  1  0.77210726  0.78332495  0.47465502  1
  O  O13  1  0.22397415  0.22098774  0.03079890  1
  O  O14  1  0.78905122  0.24223604  0.50091573  1
