# generated using pymatgen
data_Li5V3P8O29
_symmetry_space_group_name_H-M   'P 1'
_cell_length_a   9.79074217
_cell_length_b   9.80038661
_cell_length_c   14.10371735
_cell_angle_alpha   90.44155215
_cell_angle_beta   90.62713019
_cell_angle_gamma   60.21795035
_symmetry_Int_Tables_number   1
_chemical_formula_structural   Li5V3P8O29
_chemical_formula_sum   'Li10 V6 P16 O58'
_cell_volume   1174.47876185
_cell_formula_units_Z   2
loop_
 _symmetry_equiv_pos_site_id
 _symmetry_equiv_pos_as_xyz
  1  'x, y, z'
loop_
 _atom_site_type_symbol
 _atom_site_label
 _atom_site_symmetry_multiplicity
 _atom_site_fract_x
 _atom_site_fract_y
 _atom_site_fract_z
 _atom_site_occupancy
  Li  Li0  1  0.90935944  0.32072689  0.56344979  1
  Li  Li1  1  0.68103396  0.67314972  0.88875769  1
  Li  Li2  1  0.76705430  0.32172379  0.05892701  1
  Li  Li3  1  0.32111504  0.91037507  0.06077338  1
  Li  Li4  1  0.68621543  0.22310832  0.44315110  1
  Li  Li5  1  0.31797768  0.77109956  0.56334180  1
  Li  Li6  1  0.66948512  0.09535289  0.93717448  1
  Li  Li7  1  0.08512434  0.68976800  0.43991291  1
  Li  Li8  1  0.22788350  0.09180233  0.44312908  1
  Li  Li9  1  0.03594699  0.93661939  0.99457757  1
  V  V10  1  0.56618686  0.43434747  0.24982515  1
  V  V11  1  0.42717245  0.56395282  0.75313519  1
  V  V12  1  0.56838367  0.99756212  0.74478106  1
  V  V13  1  0.43437589  0.00079265  0.25029804  1
  V  V14  1  0.99627645  0.56841869  0.24138324  1
  V  V15  1  0.00378746  0.43492381  0.75679816  1
  P  P16  1  0.91495467  0.78255365  0.84027897  1
  P  P17  1  0.77444511  0.91308769  0.33571600  1
  P  P18  1  0.91403871  0.32202359  0.34490649  1
  P  P19  1  0.66374385  0.66419767  0.12614811  1
  P  P20  1  0.66298534  0.66152327  0.63121614  1
  P  P21  1  0.77303080  0.31852303  0.84128091  1
  P  P22  1  0.68222148  0.23023590  0.65859154  1
  P  P23  1  0.31822395  0.90789209  0.84283360  1
  P  P24  1  0.68335475  0.08747646  0.15371091  1
  P  P25  1  0.32327616  0.76661172  0.34438758  1
  P  P26  1  0.22295251  0.69218958  0.16134875  1
  P  P27  1  0.32849225  0.33802488  0.36720325  1
  P  P28  1  0.33932018  0.32661891  0.87195459  1
  P  P29  1  0.08358869  0.68280435  0.65634099  1
  P  P30  1  0.22886795  0.08985145  0.66091219  1
  P  P31  1  0.08237117  0.22267494  0.16093588  1
  O  O32  1  0.01288340  0.75640391  0.56379836  1
  O  O33  1  0.91796673  0.74321319  0.33619685  1
  O  O34  1  0.76386351  0.02217165  0.06150867  1
  O  O35  1  0.74510352  0.92287309  0.83877416  1
  O  O36  1  0.90105106  0.63020176  0.83238653  1
  O  O37  1  0.81125146  0.66996997  0.17188554  1
  O  O38  1  0.90410991  0.48021778  0.32062915  1
  O  O39  1  0.99002720  0.21299328  0.07940838  1
  O  O40  1  0.91257920  0.34728637  0.84326544  1
  O  O41  1  0.65795749  0.81267157  0.67678638  1
  O  O42  1  0.62029550  0.90489230  0.31942813  1
  O  O43  1  0.81265530  0.51647313  0.67413099  1
  O  O44  1  0.67358488  0.65958552  0.01994681  1
  O  O45  1  0.65696830  0.66308215  0.52581957  1
  O  O46  1  0.67691207  0.50911766  0.16369648  1
  O  O47  1  0.48053950  0.89690627  0.83421805  1
  O  O48  1  0.51160140  0.81064415  0.16230060  1
  O  O49  1  0.74936362  0.33727221  0.34281054  1
  O  O50  1  0.79354260  0.21247652  0.74899841  1
  O  O51  1  0.75612445  0.24774215  0.56994272  1
  O  O52  1  0.76359744  0.23486934  0.92798249  1
  O  O53  1  0.62069008  0.48214228  0.82802686  1
  O  O54  1  0.51154374  0.66431701  0.67243500  1
  O  O55  1  0.65994366  0.25680476  0.16721938  1
  O  O56  1  0.48357828  0.62053004  0.32072704  1
  O  O57  1  0.33774621  0.91650320  0.34269426  1
  O  O58  1  0.79917322  0.98743536  0.23976808  1
  O  O59  1  0.76837348  0.00678917  0.41991488  1
  O  O60  1  0.24114933  0.99864611  0.57149671  1
  O  O61  1  0.65799679  0.08916798  0.65918965  1
  O  O62  1  0.52425039  0.38240109  0.67950476  1
  O  O63  1  0.34468725  0.73738262  0.83269347  1
  O  O64  1  0.48137453  0.33303928  0.32940127  1
  O  O65  1  0.37952192  0.53910299  0.16718884  1
  O  O66  1  0.20318815  0.80111578  0.08211756  1
  O  O67  1  0.25466412  0.74790366  0.43491593  1
  O  O68  1  0.20328243  0.78756151  0.25973069  1
  O  O69  1  0.25438665  0.66028493  0.66531973  1
  O  O70  1  0.48712998  0.17867844  0.83041191  1
  O  O71  1  0.52727339  0.09116246  0.16924009  1
  O  O72  1  0.33846184  0.47568137  0.82446366  1
  O  O73  1  0.34997460  0.33214660  0.97675159  1
  O  O74  1  0.31867403  0.34968357  0.47268093  1
  O  O75  1  0.18137207  0.48503922  0.31964187  1
  O  O76  1  0.37493565  0.10635589  0.67674209  1
  O  O77  1  0.32639673  0.18648661  0.33040049  1
  O  O78  1  0.08242156  0.65913734  0.16394553  1
  O  O79  1  0.98968045  0.79865171  0.74197626  1
  O  O80  1  0.00750304  0.79078709  0.92176504  1
  O  O81  1  0.09147992  0.52487935  0.67582096  1
  O  O82  1  0.18890916  0.33111807  0.82984095  1
  O  O83  1  0.08251315  0.38167152  0.16987972  1
  O  O84  1  0.25442363  0.08396232  0.16165172  1
  O  O85  1  0.23052697  0.97876324  0.93258010  1
  O  O86  1  0.21271059  0.99708866  0.75148353  1
  O  O87  1  0.07804924  0.25140305  0.66318490  1
  O  O88  1  0.00148119  0.25175378  0.43606282  1
  O  O89  1  0.01170088  0.20299127  0.25986895  1
