# generated using pymatgen
data_Ho(MnGa)6
_symmetry_space_group_name_H-M   'P 1'
_cell_length_a   4.82821904
_cell_length_b   6.71026758
_cell_length_c   6.82489263
_cell_angle_alpha   97.31105875
_cell_angle_beta   110.71509729
_cell_angle_gamma   68.91432169
_symmetry_Int_Tables_number   1
_chemical_formula_structural   Ho(MnGa)6
_chemical_formula_sum   'Ho1 Mn6 Ga6'
_cell_volume   192.97411716
_cell_formula_units_Z   1
loop_
 _symmetry_equiv_pos_site_id
 _symmetry_equiv_pos_as_xyz
  1  'x, y, z'
loop_
 _atom_site_type_symbol
 _atom_site_label
 _atom_site_symmetry_multiplicity
 _atom_site_fract_x
 _atom_site_fract_y
 _atom_site_fract_z
 _atom_site_occupancy
  Ho  Ho0  1  0.00000000  -0.00000000  -0.00000000  1
  Mn  Mn1  1  0.50000000  0.50000000  -0.00000000  1
  Mn  Mn2  1  0.00000000  0.50000000  -0.00000000  1
  Mn  Mn3  1  0.64590547  0.35820583  0.65001678  1
  Mn  Mn4  1  0.35409453  0.64179417  0.34998322  1
  Mn  Mn5  1  0.99588870  0.35820583  0.34998322  1
  Mn  Mn6  1  0.00411130  0.64179417  0.65001678  1
  Ga  Ga7  1  0.73989817  0.75059757  0.23039391  1
  Ga  Ga8  1  0.26010183  0.24940243  0.76960609  1
  Ga  Ga9  1  0.50950426  0.75059757  0.76960609  1
  Ga  Ga10  1  0.49049574  0.24940243  0.23039391  1
  Ga  Ga11  1  0.50000000  -0.00000000  0.50000000  1
  Ga  Ga12  1  0.00000000  -0.00000000  0.50000000  1
