# generated using pymatgen
data_Mn6OF11
_symmetry_space_group_name_H-M   'P 1'
_cell_length_a   4.96472463
_cell_length_b   5.89741289
_cell_length_c   16.21397798
_cell_angle_alpha   90.32838485
_cell_angle_beta   89.33028357
_cell_angle_gamma   89.39696249
_symmetry_Int_Tables_number   1
_chemical_formula_structural   Mn6OF11
_chemical_formula_sum   'Mn12 O2 F22'
_cell_volume   474.66270651
_cell_formula_units_Z   2
loop_
 _symmetry_equiv_pos_site_id
 _symmetry_equiv_pos_as_xyz
  1  'x, y, z'
loop_
 _atom_site_type_symbol
 _atom_site_label
 _atom_site_symmetry_multiplicity
 _atom_site_fract_x
 _atom_site_fract_y
 _atom_site_fract_z
 _atom_site_occupancy
  Mn  Mn0  1  0.99106219  0.16659787  0.42071932  1
  Mn  Mn1  1  0.00893781  0.83340213  0.24594768  1
  Mn  Mn2  1  0.97799347  0.18866567  0.07672234  1
  Mn  Mn3  1  0.01045538  0.17149570  0.75072454  1
  Mn  Mn4  1  0.02200653  0.81133433  0.58994466  1
  Mn  Mn5  1  0.98954462  0.82850430  0.91594246  1
  Mn  Mn6  1  0.49160067  0.35374519  0.58607411  1
  Mn  Mn7  1  0.51291774  0.33600845  0.92109673  1
  Mn  Mn8  1  0.49799324  0.32779464  0.25005508  1
  Mn  Mn9  1  0.50839933  0.64625481  0.08059289  1
  Mn  Mn10  1  0.50200676  0.67220536  0.41661192  1
  Mn  Mn11  1  0.48708226  0.66399155  0.74557027  1
  O  O12  1  0.29338242  0.58743544  0.63694404  1
  O  O13  1  0.70661758  0.41256456  0.02972196  1
  F  F14  1  0.22811156  0.10448249  0.30787156  1
  F  F15  1  0.24028020  0.10802751  0.63796226  1
  F  F16  1  0.21498896  0.11262210  0.97141558  1
  F  F17  1  0.25059641  0.87600799  0.13379313  1
  F  F18  1  0.21645003  0.89051699  0.47454689  1
  F  F19  1  0.22821801  0.89115297  0.80679592  1
  F  F20  1  0.26399761  0.39330937  0.14148767  1
  F  F21  1  0.26983403  0.60738283  0.30752122  1
  F  F22  1  0.27948378  0.38764101  0.47541936  1
  F  F23  1  0.27562035  0.38808000  0.81322984  1
  F  F24  1  0.26717397  0.61955417  0.97715155  1
  F  F25  1  0.72051622  0.61235899  0.19124764  1
  F  F26  1  0.73016597  0.39261717  0.35914578  1
  F  F27  1  0.73600239  0.60669063  0.52517833  1
  F  F28  1  0.72437965  0.61192000  0.85343716  1
  F  F29  1  0.73282603  0.38044583  0.68951445  1
  F  F30  1  0.78354997  0.10948301  0.19212011  1
  F  F31  1  0.74940359  0.12399201  0.53287387  1
  F  F32  1  0.77188844  0.89551751  0.35879544  1
  F  F33  1  0.75971980  0.89197249  0.02870474  1
  F  F34  1  0.77178199  0.10884703  0.85987008  1
  F  F35  1  0.78501104  0.88737790  0.69525042  1
