# generated using pymatgen
data_LiVOF3
_symmetry_space_group_name_H-M   'P 1'
_cell_length_a   5.67475794
_cell_length_b   4.69548448
_cell_length_c   5.45006267
_cell_angle_alpha   93.30029090
_cell_angle_beta   113.37433041
_cell_angle_gamma   88.96350155
_symmetry_Int_Tables_number   1
_chemical_formula_structural   LiVOF3
_chemical_formula_sum   'Li2 V2 O2 F6'
_cell_volume   133.08014849
_cell_formula_units_Z   2
loop_
 _symmetry_equiv_pos_site_id
 _symmetry_equiv_pos_as_xyz
  1  'x, y, z'
loop_
 _atom_site_type_symbol
 _atom_site_label
 _atom_site_symmetry_multiplicity
 _atom_site_fract_x
 _atom_site_fract_y
 _atom_site_fract_z
 _atom_site_occupancy
  Li  Li0  1  0.50000000  0.00000000  0.50000000  1
  Li  Li1  1  0.50000000  0.50000000  0.00000000  1
  V  V2  1  0.00000000  0.50000000  0.50000000  1
  V  V3  1  0.00000000  0.00000000  0.00000000  1
  O  O4  1  0.10639170  0.21930542  0.31494876  1
  O  O5  1  0.89360830  0.78069458  0.68505124  1
  F  F6  1  0.14256561  0.28499646  0.83409010  1
  F  F7  1  0.33332641  0.67536054  0.63590397  1
  F  F8  1  0.32859416  0.81401237  0.13807430  1
  F  F9  1  0.67140584  0.18598763  0.86192570  1
  F  F10  1  0.66667359  0.32463946  0.36409603  1
  F  F11  1  0.85743439  0.71500354  0.16590990  1
