# generated using pymatgen
data_Li3Fe4(BO3)4
_symmetry_space_group_name_H-M   'P 1'
_cell_length_a   5.25285014
_cell_length_b   9.06327819
_cell_length_c   10.22536932
_cell_angle_alpha   90.00000008
_cell_angle_beta   91.23913724
_cell_angle_gamma   90.00000512
_symmetry_Int_Tables_number   1
_chemical_formula_structural   Li3Fe4(BO3)4
_chemical_formula_sum   'Li6 Fe8 B8 O24'
_cell_volume   486.69597025
_cell_formula_units_Z   2
loop_
 _symmetry_equiv_pos_site_id
 _symmetry_equiv_pos_as_xyz
  1  'x, y, z'
loop_
 _atom_site_type_symbol
 _atom_site_label
 _atom_site_symmetry_multiplicity
 _atom_site_fract_x
 _atom_site_fract_y
 _atom_site_fract_z
 _atom_site_occupancy
  Li  Li0  1  0.34203535  0.01680717  0.83429400  1
  Li  Li1  1  0.65660505  0.00790581  0.09456834  1
  Li  Li2  1  0.15660505  0.49209419  0.59456834  1
  Li  Li3  1  0.84203535  0.48319283  0.33429400  1
  Li  Li4  1  0.83674034  0.50495185  0.83627657  1
  Li  Li5  1  0.33674034  0.99504815  0.33627657  1
  Fe  Fe6  1  0.15050400  0.17742392  0.12124178  1
  Fe  Fe7  1  0.83363965  0.15698252  0.37459378  1
  Fe  Fe8  1  0.33363965  0.34301748  0.87459378  1
  Fe  Fe9  1  0.65050400  0.32257608  0.62124178  1
  Fe  Fe10  1  0.34116590  0.65522518  0.36623930  1
  Fe  Fe11  1  0.15987080  0.83786607  0.61684217  1
  Fe  Fe12  1  0.65987080  0.66213393  0.11684217  1
  Fe  Fe13  1  0.84116590  0.84477482  0.86623930  1
  B  B14  1  0.15336455  0.16851246  0.62340556  1
  B  B15  1  0.33442005  0.33126354  0.37472840  1
  B  B16  1  0.83442005  0.16873646  0.87472840  1
  B  B17  1  0.65336455  0.33148754  0.12340556  1
  B  B18  1  0.33389578  0.67109148  0.86798169  1
  B  B19  1  0.66938914  0.66717595  0.62370185  1
  B  B20  1  0.16938914  0.83282405  0.12370185  1
  B  B21  1  0.83389578  0.82890852  0.36798169  1
  O  O22  1  0.27728407  0.03287378  0.64113308  1
  O  O23  1  0.09396224  0.16081911  0.90178113  1
  O  O24  1  0.68654013  0.04170642  0.89218957  1
  O  O25  1  0.22043320  0.19985815  0.33550240  1
  O  O26  1  0.28055156  0.29790061  0.65854795  1
  O  O27  1  0.78055156  0.20209939  0.15854795  1
  O  O28  1  0.91184101  0.17312077  0.57392542  1
  O  O29  1  0.41184101  0.32687923  0.07392542  1
  O  O30  1  0.18654013  0.45829358  0.39218957  1
  O  O31  1  0.59396224  0.33918089  0.40178113  1
  O  O32  1  0.72043320  0.30014185  0.83550240  1
  O  O33  1  0.19238187  0.54712614  0.85912748  1
  O  O34  1  0.77728407  0.46712622  0.14113308  1
  O  O35  1  0.30488519  0.70396780  0.15544469  1
  O  O36  1  0.40973170  0.67761450  0.58601267  1
  O  O37  1  0.78988730  0.53424638  0.63349835  1
  O  O38  1  0.59104586  0.66739425  0.91552282  1
  O  O39  1  0.09104586  0.83260575  0.41552282  1
  O  O40  1  0.23096825  0.80758168  0.82672499  1
  O  O41  1  0.73096825  0.69241832  0.32672499  1
  O  O42  1  0.80488519  0.79603220  0.65544469  1
  O  O43  1  0.28988730  0.96575362  0.13349835  1
  O  O44  1  0.90973170  0.82238550  0.08601267  1
  O  O45  1  0.69238187  0.95287386  0.35912748  1
