# generated using pymatgen
data_Mn6OF11
_symmetry_space_group_name_H-M   'P 1'
_cell_length_a   4.94857118
_cell_length_b   5.90234484
_cell_length_c   16.23636340
_cell_angle_alpha   90.00000000
_cell_angle_beta   89.41591942
_cell_angle_gamma   90.00000000
_symmetry_Int_Tables_number   1
_chemical_formula_structural   Mn6OF11
_chemical_formula_sum   'Mn12 O2 F22'
_cell_volume   474.20987890
_cell_formula_units_Z   2
loop_
 _symmetry_equiv_pos_site_id
 _symmetry_equiv_pos_as_xyz
  1  'x, y, z'
loop_
 _atom_site_type_symbol
 _atom_site_label
 _atom_site_symmetry_multiplicity
 _atom_site_fract_x
 _atom_site_fract_y
 _atom_site_fract_z
 _atom_site_occupancy
  Mn  Mn0  1  0.02600791  0.18479036  0.42115190  1
  Mn  Mn1  1  0.00000000  0.83261729  0.25000000  1
  Mn  Mn2  1  0.97399209  0.18479036  0.07884810  1
  Mn  Mn3  1  0.00000000  0.17112486  0.75000000  1
  Mn  Mn4  1  0.00361953  0.83232177  0.58302415  1
  Mn  Mn5  1  0.99638047  0.83232177  0.91697585  1
  Mn  Mn6  1  0.48351313  0.33344858  0.57714612  1
  Mn  Mn7  1  0.51648687  0.33344858  0.92285388  1
  Mn  Mn8  1  0.50000000  0.32841398  0.25000000  1
  Mn  Mn9  1  0.50483803  0.64519715  0.08159899  1
  Mn  Mn10  1  0.49516197  0.64519715  0.41840101  1
  Mn  Mn11  1  0.50000000  0.66032573  0.75000000  1
  O  O12  1  0.29587387  0.41029077  0.46680798  1
  O  O13  1  0.70412613  0.41029077  0.03319202  1
  F  F14  1  0.22080217  0.10588104  0.30559059  1
  F  F15  1  0.23256109  0.10480389  0.63981489  1
  F  F16  1  0.21124835  0.11710451  0.97319124  1
  F  F17  1  0.24402782  0.87299936  0.13493739  1
  F  F18  1  0.24259274  0.89278857  0.47109355  1
  F  F19  1  0.22646022  0.88963864  0.80635469  1
  F  F20  1  0.25933462  0.39144500  0.14314752  1
  F  F21  1  0.28009680  0.61368921  0.30785218  1
  F  F22  1  0.26306881  0.60390869  0.64233946  1
  F  F23  1  0.27828454  0.38486341  0.81242814  1
  F  F24  1  0.27164064  0.62058712  0.97697413  1
  F  F25  1  0.71990320  0.61368921  0.19214782  1
  F  F26  1  0.74066538  0.39144500  0.35685248  1
  F  F27  1  0.72835936  0.62058712  0.52302587  1
  F  F28  1  0.73693119  0.60390869  0.85766054  1
  F  F29  1  0.72171546  0.38486341  0.68757186  1
  F  F30  1  0.77919783  0.10588104  0.19440941  1
  F  F31  1  0.78875165  0.11710451  0.52680876  1
  F  F32  1  0.75597218  0.87299936  0.36506261  1
  F  F33  1  0.75740726  0.89278857  0.02890645  1
  F  F34  1  0.76743891  0.10480389  0.86018511  1
  F  F35  1  0.77353978  0.88963864  0.69364531  1
