# generated using pymatgen
data_Cr4OF11
_symmetry_space_group_name_H-M   'P 1'
_cell_length_a   5.05377956
_cell_length_b   5.34672636
_cell_length_c   16.91745249
_cell_angle_alpha   91.45074176
_cell_angle_beta   98.61317247
_cell_angle_gamma   61.82044779
_symmetry_Int_Tables_number   1
_chemical_formula_structural   Cr4OF11
_chemical_formula_sum   'Cr8 O2 F22'
_cell_volume   397.86134117
_cell_formula_units_Z   2
loop_
 _symmetry_equiv_pos_site_id
 _symmetry_equiv_pos_as_xyz
  1  'x, y, z'
loop_
 _atom_site_type_symbol
 _atom_site_label
 _atom_site_symmetry_multiplicity
 _atom_site_fract_x
 _atom_site_fract_y
 _atom_site_fract_z
 _atom_site_occupancy
  Cr  Cr0  1  0.74471006  0.61381535  0.12950875  1
  Cr  Cr1  1  0.77544538  0.11126203  0.62804786  1
  Cr  Cr2  1  0.48257169  0.75705574  0.74567129  1
  Cr  Cr3  1  0.51220533  0.25841421  0.24771064  1
  Cr  Cr4  1  0.25638240  0.87425310  0.37480481  1
  Cr  Cr5  1  0.24629549  0.37346048  0.87443014  1
  Cr  Cr6  1  0.00810457  0.49576033  0.50135699  1
  Cr  Cr7  1  0.99734733  0.99499673  0.00040268  1
  O  O8  1  0.69059035  0.46444516  0.21865378  1
  O  O9  1  0.18998771  0.90832366  0.65681021  1
  F  F10  1  0.81006694  0.78210296  0.03575645  1
  F  F11  1  0.74955950  0.93276485  0.18850258  1
  F  F12  1  0.75856855  0.80871008  0.56445666  1
  F  F13  1  0.74964132  0.31388598  0.06169288  1
  F  F14  1  0.68978315  0.96632450  0.71993347  1
  F  F15  1  0.69345776  0.65590372  0.40769250  1
  F  F16  1  0.81100785  0.59019537  0.83929996  1
  F  F17  1  0.81795745  0.08984729  0.34253593  1
  F  F18  1  0.82106673  0.27536066  0.53286284  1
  F  F19  1  0.31248888  0.84469631  0.09452415  1
  F  F20  1  0.74620610  0.43847309  0.68666116  1
  F  F21  1  0.26171923  0.55885949  0.31245456  1
  F  F22  1  0.68553679  0.15107940  0.90648288  1
  F  F23  1  0.18631399  0.40635492  0.15651893  1
  F  F24  1  0.19463241  0.71396844  0.46844438  1
  F  F25  1  0.31545982  0.52672692  0.78055640  1
  F  F26  1  0.32915576  0.33615446  0.59344383  1
  F  F27  1  0.32227228  0.03677024  0.28255389  1
  F  F28  1  0.24691871  0.68224737  0.93819619  1
  F  F29  1  0.24923783  0.18629173  0.43772001  1
  F  F30  1  0.25319542  0.05643021  0.81300733  1
  F  F31  1  0.18510721  0.21352922  0.96763788  1
