# generated using pymatgen
data_Li4Mn2(PO4)3
_symmetry_space_group_name_H-M   'P 1'
_cell_length_a   8.90392758
_cell_length_b   8.75585704
_cell_length_c   12.54854497
_cell_angle_alpha   89.99952628
_cell_angle_beta   89.07225269
_cell_angle_gamma   89.99759827
_symmetry_Int_Tables_number   1
_chemical_formula_structural   Li4Mn2(PO4)3
_chemical_formula_sum   'Li16 Mn8 P12 O48'
_cell_volume   978.17535363
_cell_formula_units_Z   4
loop_
 _symmetry_equiv_pos_site_id
 _symmetry_equiv_pos_as_xyz
  1  'x, y, z'
loop_
 _atom_site_type_symbol
 _atom_site_label
 _atom_site_symmetry_multiplicity
 _atom_site_fract_x
 _atom_site_fract_y
 _atom_site_fract_z
 _atom_site_occupancy
  Li  Li0  1  0.94467279  0.05793961  0.70984140  1
  Li  Li1  1  0.94978594  0.42424693  0.28739747  1
  Li  Li2  1  0.80049701  0.76328178  0.18213916  1
  Li  Li3  1  0.78236734  0.73743561  0.82231222  1
  Li  Li4  1  0.71763999  0.23744676  0.67766468  1
  Li  Li5  1  0.69949282  0.26325914  0.31785093  1
  Li  Li6  1  0.55018064  0.92426032  0.21259662  1
  Li  Li7  1  0.55532396  0.55790480  0.79012517  1
  Li  Li8  1  0.44466983  0.44208852  0.20988538  1
  Li  Li9  1  0.44977912  0.07577345  0.78739257  1
  Li  Li10  1  0.30046052  0.73673397  0.68215289  1
  Li  Li11  1  0.28231499  0.76255146  0.32234016  1
  Li  Li12  1  0.21767733  0.26254216  0.17765662  1
  Li  Li13  1  0.19954219  0.23677421  0.81786601  1
  Li  Li14  1  0.05027238  0.57572896  0.71260862  1
  Li  Li15  1  0.05533324  0.94210376  0.29011712  1
  Mn  Mn16  1  0.75032786  0.05089489  0.89522369  1
  Mn  Mn17  1  0.74970283  0.55088189  0.60480580  1
  Mn  Mn18  1  0.25023006  0.44910937  0.39517669  1
  Mn  Mn19  1  0.24967896  0.94911386  0.10480705  1
  Mn  Mn20  1  0.74820102  0.95257155  0.39548381  1
  Mn  Mn21  1  0.75184650  0.45272242  0.10449915  1
  Mn  Mn22  1  0.24816725  0.54742856  0.89558441  1
  Mn  Mn23  1  0.25184217  0.04718527  0.60453010  1
  P  P24  1  0.94805381  0.24937958  0.49997142  1
  P  P25  1  0.89695369  0.39214032  0.85091221  1
  P  P26  1  0.90004853  0.10574387  0.15117460  1
  P  P27  1  0.60304185  0.89214077  0.64908528  1
  P  P28  1  0.59993357  0.60573178  0.34882251  1
  P  P29  1  0.55197596  0.74942765  0.00001027  1
  P  P30  1  0.44813248  0.25057184  -0.00000871  1
  P  P31  1  0.40005075  0.39428158  0.65117307  1
  P  P32  1  0.39697372  0.10784347  0.35088596  1
  P  P33  1  0.09990365  0.89431164  0.84881971  1
  P  P34  1  0.10301270  0.60784857  0.14914807  1
  P  P35  1  0.05190190  0.75060205  0.50001037  1
  O  O36  1  0.96546160  0.86142523  0.42787889  1
  O  O37  1  0.95046029  0.66238027  0.58239077  1
  O  O38  1  0.92369653  0.90137417  0.83597041  1
  O  O39  1  0.93382829  0.59010894  0.17925502  1
  O  O40  1  0.86476260  0.35673565  0.58204478  1
  O  O41  1  0.84865279  0.22813996  0.80892561  1
  O  O42  1  0.86540721  0.40287542  0.96886290  1
  O  O43  1  0.84848584  0.26423061  0.19479215  1
  O  O44  1  0.82867393  0.17167324  0.43081201  1
  O  O45  1  0.84965189  0.07897552  0.03791484  1
  O  O46  1  0.83885964  0.97602402  0.22559556  1
  O  O47  1  0.81300855  0.51979105  0.78753502  1
  O  O48  1  0.68694472  0.01983052  0.71246295  1
  O  O49  1  0.66116544  0.47603497  0.27438738  1
  O  O50  1  0.65033445  0.57895462  0.46208625  1
  O  O51  1  0.67135680  0.67172918  0.06917701  1
  O  O52  1  0.63461370  0.90285617  0.53114163  1
  O  O53  1  0.65153348  0.76421244  0.30520306  1
  O  O54  1  0.65130503  0.72817061  0.69110292  1
  O  O55  1  0.63528262  0.85680054  0.91795384  1
  O  O56  1  0.57623886  0.40130257  0.66406546  1
  O  O57  1  0.56616289  0.09007406  0.32076791  1
  O  O58  1  0.54962121  0.16231935  0.91762258  1
  O  O59  1  0.53457356  0.36136893  0.07213109  1
  O  O60  1  0.46555541  0.63864407  0.92785228  1
  O  O61  1  0.45052946  0.83762754  0.08238071  1
  O  O62  1  0.43385218  0.90986419  0.67924073  1
  O  O63  1  0.42376811  0.59876041  0.33593327  1
  O  O64  1  0.36485021  0.14321863  0.08204484  1
  O  O65  1  0.34874573  0.27181796  0.30886307  1
  O  O66  1  0.34852701  0.23578667  0.69481052  1
  O  O67  1  0.36531730  0.09712188  0.46884138  1
  O  O68  1  0.32881555  0.32824382  0.93077450  1
  O  O69  1  0.34967498  0.42102253  0.53791443  1
  O  O70  1  0.33882594  0.52400408  0.72560419  1
  O  O71  1  0.31307031  0.98015152  0.28749445  1
  O  O72  1  0.18693513  0.48016872  0.21250049  1
  O  O73  1  0.16110349  0.02402824  0.77438793  1
  O  O74  1  0.15034127  0.92103716  0.96206705  1
  O  O75  1  0.17125152  0.82827814  0.56919260  1
  O  O76  1  0.15138117  0.73583183  0.80516735  1
  O  O77  1  0.13459323  0.59712845  0.03118621  1
  O  O78  1  0.15125594  0.77183463  0.19113056  1
  O  O79  1  0.13518371  0.64326680  0.41794894  1
  O  O80  1  0.06612861  0.40984651  0.82076049  1
  O  O81  1  0.07623388  0.09874519  0.16404480  1
  O  O82  1  0.04945843  0.33760579  0.41759717  1
  O  O83  1  0.03453115  0.13857881  0.57211449  1
