# generated using pymatgen
data_K2CoP4H10O17
_symmetry_space_group_name_H-M   'P 1'
_cell_length_a   13.13207912
_cell_length_b   16.37381910
_cell_length_c   7.49235445
_cell_angle_alpha   90.00000000
_cell_angle_beta   91.80527314
_cell_angle_gamma   90.00000000
_symmetry_Int_Tables_number   1
_chemical_formula_structural   K2CoP4H10O17
_chemical_formula_sum   'K8 Co4 P16 H40 O68'
_cell_volume   1610.22358881
_cell_formula_units_Z   4
loop_
 _symmetry_equiv_pos_site_id
 _symmetry_equiv_pos_as_xyz
  1  'x, y, z'
loop_
 _atom_site_type_symbol
 _atom_site_label
 _atom_site_symmetry_multiplicity
 _atom_site_fract_x
 _atom_site_fract_y
 _atom_site_fract_z
 _atom_site_occupancy
  K  K0  1  0.06854353  0.77515741  0.97857271  1
  K  K1  1  0.06854353  0.72484259  0.47857271  1
  K  K2  1  0.39557683  0.34187472  0.77392296  1
  K  K3  1  0.39557683  0.15812528  0.27392296  1
  K  K4  1  0.60442317  0.84187472  0.72607704  1
  K  K5  1  0.60442317  0.65812528  0.22607704  1
  K  K6  1  0.93145647  0.27515741  0.52142729  1
  K  K7  1  0.93145647  0.22484259  0.02142729  1
  Co  Co8  1  0.00000000  0.50000000  0.50000000  1
  Co  Co9  1  0.00000000  0.00000000  0.00000000  1
  Co  Co10  1  0.50000000  0.50000000  0.50000000  1
  Co  Co11  1  0.50000000  0.00000000  0.00000000  1
  P  P12  1  0.12816997  0.11956327  0.72920549  1
  P  P13  1  0.13341749  0.94306826  0.65160023  1
  P  P14  1  0.12816997  0.38043673  0.22920549  1
  P  P15  1  0.13341749  0.55693174  0.15160023  1
  P  P16  1  0.35512327  0.12283403  0.73892988  1
  P  P17  1  0.35844033  0.94832309  0.64325126  1
  P  P18  1  0.35512327  0.37716597  0.23892988  1
  P  P19  1  0.35844033  0.55167691  0.14325126  1
  P  P20  1  0.64155967  0.44832309  0.85674874  1
  P  P21  1  0.64487673  0.62283403  0.76107012  1
  P  P22  1  0.64155967  0.05167691  0.35674874  1
  P  P23  1  0.64487673  0.87716597  0.26107012  1
  P  P24  1  0.86658251  0.44306826  0.84839977  1
  P  P25  1  0.87183003  0.61956327  0.77079451  1
  P  P26  1  0.86658251  0.05693174  0.34839977  1
  P  P27  1  0.87183003  0.88043673  0.27079451  1
  H  H28  1  0.12741714  0.53824237  0.76970817  1
  H  H29  1  0.12741714  0.96175763  0.26970817  1
  H  H30  1  0.14902243  0.44648935  0.70480817  1
  H  H31  1  0.14902243  0.05351065  0.20480817  1
  H  H32  1  0.16110106  0.33096850  0.88283849  1
  H  H33  1  0.16462572  0.29893636  0.68677885  1
  H  H34  1  0.16110106  0.16903150  0.38283849  1
  H  H35  1  0.16462572  0.20106364  0.18677885  1
  H  H36  1  0.22013311  0.67008406  0.83983771  1
  H  H37  1  0.22013311  0.82991594  0.33983771  1
  H  H38  1  0.28673842  0.71902981  0.70507483  1
  H  H39  1  0.28673842  0.78097019  0.20507483  1
  H  H40  1  0.30147865  0.52373402  0.60276090  1
  H  H41  1  0.30147865  0.97626598  0.10276090  1
  H  H42  1  0.37184326  0.54791958  0.77063646  1
  H  H43  1  0.37184326  0.95208042  0.27063646  1
  H  H44  1  0.39746711  0.77727319  0.51567610  1
  H  H45  1  0.39746711  0.72272681  0.01567610  1
  H  H46  1  0.44900131  0.69290552  0.56807416  1
  H  H47  1  0.44900131  0.80709448  0.06807416  1
  H  H48  1  0.55099869  0.19290552  0.93192584  1
  H  H49  1  0.55099869  0.30709448  0.43192584  1
  H  H50  1  0.60253289  0.27727319  0.98432390  1
  H  H51  1  0.60253289  0.22272681  0.48432390  1
  H  H52  1  0.62815674  0.04791958  0.72936354  1
  H  H53  1  0.62815674  0.45208042  0.22936354  1
  H  H54  1  0.69852135  0.02373402  0.89723910  1
  H  H55  1  0.69852135  0.47626598  0.39723910  1
  H  H56  1  0.71326158  0.21902981  0.79492517  1
  H  H57  1  0.71326158  0.28097019  0.29492517  1
  H  H58  1  0.77986689  0.17008406  0.66016229  1
  H  H59  1  0.77986689  0.32991594  0.16016229  1
  H  H60  1  0.83537428  0.79893636  0.81322115  1
  H  H61  1  0.83889894  0.83096850  0.61716151  1
  H  H62  1  0.83537428  0.70106364  0.31322115  1
  H  H63  1  0.83889894  0.66903150  0.11716151  1
  H  H64  1  0.85097757  0.94648935  0.79519183  1
  H  H65  1  0.85097757  0.55351065  0.29519183  1
  H  H66  1  0.87258286  0.03824237  0.73029183  1
  H  H67  1  0.87258286  0.46175763  0.23029183  1
  O  O68  1  0.05502645  0.10894009  0.87806176  1
  O  O69  1  0.05502645  0.39105991  0.37806176  1
  O  O70  1  0.06628086  0.92361882  0.80521565  1
  O  O71  1  0.06628086  0.57638118  0.30521565  1
  O  O72  1  0.12036266  0.60255074  0.97963635  1
  O  O73  1  0.11623136  0.19249841  0.60903257  1
  O  O74  1  0.12036266  0.89744926  0.47963635  1
  O  O75  1  0.11623136  0.30750159  0.10903257  1
  O  O76  1  0.12590831  0.03953927  0.60116550  1
  O  O77  1  0.13425830  0.50349635  0.66241339  1
  O  O78  1  0.12590831  0.46046073  0.10116550  1
  O  O79  1  0.13425830  0.99650365  0.16241339  1
  O  O80  1  0.18339057  0.34620738  0.76233448  1
  O  O81  1  0.18339057  0.15379262  0.26233448  1
  O  O82  1  0.21701552  0.71456657  0.75220332  1
  O  O83  1  0.21701552  0.78543343  0.25220332  1
  O  O84  1  0.24182733  0.11533874  0.82168722  1
  O  O85  1  0.24921322  0.93429109  0.73328396  1
  O  O86  1  0.24182733  0.38466126  0.32168722  1
  O  O87  1  0.24921322  0.56570891  0.23328396  1
  O  O88  1  0.35709125  0.04570073  0.60030076  1
  O  O89  1  0.36516921  0.59517722  0.96874820  1
  O  O90  1  0.36474614  0.19710121  0.62785324  1
  O  O91  1  0.36997582  0.51649519  0.65565436  1
  O  O92  1  0.35709125  0.45429927  0.10030076  1
  O  O93  1  0.36516921  0.90482278  0.46874820  1
  O  O94  1  0.36474614  0.30289879  0.12785324  1
  O  O95  1  0.36997582  0.98350481  0.15565436  1
  O  O96  1  0.40754070  0.73769507  0.61273461  1
  O  O97  1  0.42859091  0.10761871  0.89524672  1
  O  O98  1  0.40754070  0.76230493  0.11273461  1
  O  O99  1  0.42859091  0.39238129  0.39524672  1
  O  O100  1  0.43697171  0.93069942  0.78919171  1
  O  O101  1  0.43697171  0.56930058  0.28919171  1
  O  O102  1  0.56302829  0.43069942  0.71080829  1
  O  O103  1  0.56302829  0.06930058  0.21080829  1
  O  O104  1  0.57140809  0.60761871  0.60475328  1
  O  O105  1  0.59245930  0.23769507  0.88726539  1
  O  O106  1  0.57140809  0.89238129  0.10475328  1
  O  O107  1  0.59245930  0.26230493  0.38726539  1
  O  O108  1  0.63002418  0.01649519  0.84434564  1
  O  O109  1  0.63525386  0.69710121  0.87214676  1
  O  O110  1  0.63483079  0.09517722  0.53125180  1
  O  O111  1  0.64290875  0.54570073  0.89969924  1
  O  O112  1  0.63002418  0.48350481  0.34434564  1
  O  O113  1  0.63525386  0.80289879  0.37214676  1
  O  O114  1  0.63483079  0.40482278  0.03125180  1
  O  O115  1  0.64290875  0.95429927  0.39969924  1
  O  O116  1  0.75078678  0.43429109  0.76671604  1
  O  O117  1  0.75817267  0.61533874  0.67831278  1
  O  O118  1  0.75078678  0.06570891  0.26671604  1
  O  O119  1  0.75817267  0.88466126  0.17831278  1
  O  O120  1  0.78298448  0.21456657  0.74779668  1
  O  O121  1  0.78298448  0.28543343  0.24779668  1
  O  O122  1  0.81660943  0.84620738  0.73766552  1
  O  O123  1  0.81660943  0.65379262  0.23766552  1
  O  O124  1  0.86574170  0.00349635  0.83758661  1
  O  O125  1  0.87409169  0.53953927  0.89883450  1
  O  O126  1  0.86574170  0.49650365  0.33758661  1
  O  O127  1  0.87409169  0.96046073  0.39883450  1
  O  O128  1  0.88376864  0.69249841  0.89096743  1
  O  O129  1  0.87963734  0.10255074  0.52036365  1
  O  O130  1  0.88376864  0.80750159  0.39096743  1
  O  O131  1  0.87963734  0.39744926  0.02036365  1
  O  O132  1  0.93371914  0.42361882  0.69478435  1
  O  O133  1  0.93371914  0.07638118  0.19478435  1
  O  O134  1  0.94497355  0.60894009  0.62193824  1
  O  O135  1  0.94497355  0.89105991  0.12193824  1
