# generated using pymatgen
data_Na3V2(PO4)3
_symmetry_space_group_name_H-M   'P 1'
_cell_length_a   8.87166411
_cell_length_b   12.69855749
_cell_length_c   9.01309073
_cell_angle_alpha   90.00000000
_cell_angle_beta   90.00000000
_cell_angle_gamma   90.39460743
_symmetry_Int_Tables_number   1
_chemical_formula_structural   Na3V2(PO4)3
_chemical_formula_sum   'Na12 V8 P12 O48'
_cell_volume   1015.36671588
_cell_formula_units_Z   4
loop_
 _symmetry_equiv_pos_site_id
 _symmetry_equiv_pos_as_xyz
  1  'x, y, z'
loop_
 _atom_site_type_symbol
 _atom_site_label
 _atom_site_symmetry_multiplicity
 _atom_site_fract_x
 _atom_site_fract_y
 _atom_site_fract_z
 _atom_site_occupancy
  Na  Na0  1  0.07723371  0.69015058  0.06507377  1
  Na  Na1  1  0.09232485  0.76475285  0.69929649  1
  Na  Na2  1  0.20906474  0.16334908  0.79514762  1
  Na  Na3  1  0.29093526  0.33665092  0.29514762  1
  Na  Na4  1  0.40767515  0.73524715  0.19929649  1
  Na  Na5  1  0.42276629  0.80984942  0.56507377  1
  Na  Na6  1  0.57723371  0.19015058  0.43492623  1
  Na  Na7  1  0.59232485  0.26475285  0.80070351  1
  Na  Na8  1  0.70906474  0.66334908  0.70485238  1
  Na  Na9  1  0.79093526  0.83665092  0.20485238  1
  Na  Na10  1  0.90767515  0.23524715  0.30070351  1
  Na  Na11  1  0.92276629  0.30984942  0.93492623  1
  V  V12  1  0.24712098  0.60153702  0.52148405  1
  V  V13  1  0.25287902  0.89846298  0.02148405  1
  V  V14  1  0.24222957  0.10547952  0.46272129  1
  V  V15  1  0.25777043  0.39452048  0.96272129  1
  V  V16  1  0.74222957  0.60547952  0.03727871  1
  V  V17  1  0.75777043  0.89452048  0.53727871  1
  V  V18  1  0.74712098  0.10153702  0.97851595  1
  V  V19  1  0.75287902  0.39846298  0.47851595  1
  P  P20  1  0.02745573  0.49658098  0.25032111  1
  P  P21  1  0.10790371  0.85451763  0.38015215  1
  P  P22  1  0.11517520  0.14707540  0.10353669  1
  P  P23  1  0.38482480  0.35292460  0.60353669  1
  P  P24  1  0.39209629  0.64548237  0.88015215  1
  P  P25  1  0.47254427  0.00341902  0.75032111  1
  P  P26  1  0.52745573  0.99658098  0.24967889  1
  P  P27  1  0.60790371  0.35451763  0.11984785  1
  P  P28  1  0.61517520  0.64707540  0.39646331  1
  P  P29  1  0.88482480  0.85292460  0.89646331  1
  P  P30  1  0.89209629  0.14548237  0.61984785  1
  P  P31  1  0.97254427  0.50341902  0.74967889  1
  O  O32  1  0.07336989  0.43419469  0.84853345  1
  O  O33  1  0.06051362  0.86387194  0.90515707  1
  O  O34  1  0.06616915  0.58645171  0.66197200  1
  O  O35  1  0.06367237  0.15782246  0.58837081  1
  O  O36  1  0.11694596  0.57405163  0.35107046  1
  O  O37  1  0.13881546  0.83559253  0.21101057  1
  O  O38  1  0.15841890  0.96440395  0.42847234  1
  O  O39  1  0.15746362  0.24544219  0.00809798  1
  O  O40  1  0.15353784  0.17104097  0.26866280  1
  O  O41  1  0.14356068  0.43767919  0.15450323  1
  O  O42  1  0.19452336  0.05194226  0.03725599  1
  O  O43  1  0.19609657  0.77111003  0.47279053  1
  O  O44  1  0.30390343  0.72888997  0.97279053  1
  O  O45  1  0.30547664  0.44805774  0.53725599  1
  O  O46  1  0.35643932  0.06232081  0.65450323  1
  O  O47  1  0.34646216  0.32895903  0.76866280  1
  O  O48  1  0.34158110  0.53559605  0.92847234  1
  O  O49  1  0.36118454  0.66440747  0.71101057  1
  O  O50  1  0.34253638  0.25455781  0.50809798  1
  O  O51  1  0.38305404  0.92594837  0.85107046  1
  O  O52  1  0.43383085  0.91354829  0.16197200  1
  O  O53  1  0.43948638  0.63612806  0.40515707  1
  O  O54  1  0.43632763  0.34217754  0.08837081  1
  O  O55  1  0.42663011  0.06580531  0.34853345  1
  O  O56  1  0.57336989  0.93419469  0.65146655  1
  O  O57  1  0.56367237  0.65782246  0.91162919  1
  O  O58  1  0.56051362  0.36387194  0.59484293  1
  O  O59  1  0.56616915  0.08645171  0.83802800  1
  O  O60  1  0.61694596  0.07405163  0.14892954  1
  O  O61  1  0.65746362  0.74544219  0.49190202  1
  O  O62  1  0.63881546  0.33559253  0.28898943  1
  O  O63  1  0.65841890  0.46440395  0.07152766  1
  O  O64  1  0.65353784  0.67104097  0.23133720  1
  O  O65  1  0.64356068  0.93767919  0.34549677  1
  O  O66  1  0.69452336  0.55194226  0.46274401  1
  O  O67  1  0.69609657  0.27111003  0.02720947  1
  O  O68  1  0.80390343  0.22888997  0.52720947  1
  O  O69  1  0.80547664  0.94805774  0.96274401  1
  O  O70  1  0.85643932  0.56232081  0.84549677  1
  O  O71  1  0.84646216  0.82895903  0.73133720  1
  O  O72  1  0.84253638  0.75455781  0.99190202  1
  O  O73  1  0.84158110  0.03559605  0.57152766  1
  O  O74  1  0.86118454  0.16440747  0.78898943  1
  O  O75  1  0.88305404  0.42594837  0.64892954  1
  O  O76  1  0.93632763  0.84217754  0.41162919  1
  O  O77  1  0.93383085  0.41354829  0.33802800  1
  O  O78  1  0.93948638  0.13612806  0.09484293  1
  O  O79  1  0.92663011  0.56580531  0.15146655  1
