# generated using pymatgen
data_Li3Fe4(BO3)4
_symmetry_space_group_name_H-M   'P 1'
_cell_length_a   5.24167169
_cell_length_b   9.10279148
_cell_length_c   11.39611354
_cell_angle_alpha   67.47200308
_cell_angle_beta   77.29643747
_cell_angle_gamma   90.17553912
_symmetry_Int_Tables_number   1
_chemical_formula_structural   Li3Fe4(BO3)4
_chemical_formula_sum   'Li6 Fe8 B8 O24'
_cell_volume   487.65920758
_cell_formula_units_Z   2
loop_
 _symmetry_equiv_pos_site_id
 _symmetry_equiv_pos_as_xyz
  1  'x, y, z'
loop_
 _atom_site_type_symbol
 _atom_site_label
 _atom_site_symmetry_multiplicity
 _atom_site_fract_x
 _atom_site_fract_y
 _atom_site_fract_z
 _atom_site_occupancy
  Li  Li0  1  0.97098060  0.95975239  0.40628248  1
  Li  Li1  1  0.69852988  0.71770426  0.91226335  1
  Li  Li2  1  0.51073674  0.49054411  0.66694573  1
  Li  Li3  1  0.72987554  0.75084841  0.16982700  1
  Li  Li4  1  0.01923994  0.99410802  0.66414016  1
  Li  Li5  1  0.23207530  0.25582282  0.16023232  1
  Fe  Fe6  1  0.99107466  0.64190563  0.37948094  1
  Fe  Fe7  1  0.73187838  0.07502898  0.87989601  1
  Fe  Fe8  1  0.52141420  0.83944360  0.63269863  1
  Fe  Fe9  1  0.74984058  0.43620709  0.13192676  1
  Fe  Fe10  1  0.22427680  0.54867630  0.88557387  1
  Fe  Fe11  1  0.48034762  0.14900337  0.38452466  1
  Fe  Fe12  1  0.03751681  0.34970583  0.62830292  1
  Fe  Fe13  1  0.25137833  0.94045056  0.12567759  1
  B  B14  1  0.97933037  0.30700239  0.37989951  1
  B  B15  1  0.72833026  0.40010887  0.87513376  1
  B  B16  1  0.52536339  0.18371506  0.63145105  1
  B  B17  1  0.76105591  0.10386185  0.13025521  1
  B  B18  1  0.48136063  0.82434274  0.37130333  1
  B  B19  1  0.23895575  0.89569296  0.87585235  1
  B  B20  1  0.02279139  0.68576045  0.62484825  1
  B  B21  1  0.26619602  0.60453504  0.12591327  1
  O  O22  1  0.97845466  0.91259522  0.86374832  1
  O  O23  1  0.87981875  0.28577162  0.84548350  1
  O  O24  1  0.83171858  0.50480610  0.92005625  1
  O  O25  1  0.91527619  0.82962806  0.61305382  1
  O  O26  1  0.89626906  0.57297068  0.59683274  1
  O  O27  1  0.75560875  0.14529774  0.67786973  1
  O  O28  1  0.74192666  0.31941048  0.34132228  1
  O  O29  1  0.48050966  0.40704606  0.85773995  1
  O  O30  1  0.37775069  0.78206175  0.84269650  1
  O  O31  1  0.57810719  0.93407868  0.41698255  1
  O  O32  1  0.63409852  0.71239118  0.35258291  1
  O  O33  1  0.36254340  0.99360536  0.91861490  1
  O  O34  1  0.66459388  0.00117631  0.07982217  1
  O  O35  1  0.40809257  0.31558560  0.63089302  1
  O  O36  1  0.41794875  0.07873908  0.58515374  1
  O  O37  1  0.58856060  0.20120601  0.17333835  1
  O  O38  1  0.53717763  0.62415175  0.10931970  1
  O  O39  1  0.25911272  0.65713285  0.66254820  1
  O  O40  1  0.23422157  0.84240967  0.34367770  1
  O  O41  1  0.06421352  0.41014201  0.42628652  1
  O  O42  1  0.12508816  0.18203036  0.36805651  1
  O  O43  1  0.15752415  0.48216596  0.10108686  1
  O  O44  1  0.10674267  0.70874259  0.16280270  1
  O  O45  1  0.01423551  0.10477919  0.14103193  1
