# generated using pymatgen
data_LiCuF4
_symmetry_space_group_name_H-M   'P 1'
_cell_length_a   7.37068062
_cell_length_b   4.99912152
_cell_length_c   7.19594319
_cell_angle_alpha   90.00000000
_cell_angle_beta   78.84573134
_cell_angle_gamma   90.00000000
_symmetry_Int_Tables_number   1
_chemical_formula_structural   LiCuF4
_chemical_formula_sum   'Li4 Cu4 F16'
_cell_volume   260.13971436
_cell_formula_units_Z   4
loop_
 _symmetry_equiv_pos_site_id
 _symmetry_equiv_pos_as_xyz
  1  'x, y, z'
loop_
 _atom_site_type_symbol
 _atom_site_label
 _atom_site_symmetry_multiplicity
 _atom_site_fract_x
 _atom_site_fract_y
 _atom_site_fract_z
 _atom_site_occupancy
  Li  Li0  1  0.14611304  0.75593646  0.14959007  1
  Li  Li1  1  0.14611304  0.74406354  0.64959007  1
  Li  Li2  1  0.85388696  0.25593646  0.35040993  1
  Li  Li3  1  0.85388696  0.24406354  0.85040993  1
  Cu  Cu4  1  0.32276412  0.24978095  0.30737183  1
  Cu  Cu5  1  0.32276412  0.25021905  0.80737183  1
  Cu  Cu6  1  0.67723588  0.74978095  0.19262817  1
  Cu  Cu7  1  0.67723588  0.75021905  0.69262817  1
  F  F8  1  0.09717884  0.43096152  0.30569818  1
  F  F9  1  0.09717884  0.06903848  0.80569818  1
  F  F10  1  0.19195686  0.93903859  0.39926476  1
  F  F11  1  0.31549785  0.09747178  0.05799670  1
  F  F12  1  0.19195686  0.56096141  0.89926476  1
  F  F13  1  0.31549785  0.40252822  0.55799670  1
  F  F14  1  0.44091600  0.57916826  0.19352297  1
  F  F15  1  0.44091600  0.92083174  0.69352297  1
  F  F16  1  0.55908400  0.07916826  0.30647703  1
  F  F17  1  0.55908400  0.42083174  0.80647703  1
  F  F18  1  0.68450215  0.59747178  0.44200330  1
  F  F19  1  0.80804314  0.43903859  0.10073524  1
  F  F20  1  0.68450215  0.90252822  0.94200330  1
  F  F21  1  0.80804314  0.06096141  0.60073524  1
  F  F22  1  0.90282116  0.93096152  0.19430182  1
  F  F23  1  0.90282116  0.56903848  0.69430182  1
