# generated using pymatgen
data_LiMn2F7
_symmetry_space_group_name_H-M   'P 1'
_cell_length_a   7.50873512
_cell_length_b   13.25818535
_cell_length_c   5.09576002
_cell_angle_alpha   90.00000000
_cell_angle_beta   90.00000000
_cell_angle_gamma   98.12546977
_symmetry_Int_Tables_number   1
_chemical_formula_structural   LiMn2F7
_chemical_formula_sum   'Li4 Mn8 F28'
_cell_volume   502.20136694
_cell_formula_units_Z   4
loop_
 _symmetry_equiv_pos_site_id
 _symmetry_equiv_pos_as_xyz
  1  'x, y, z'
loop_
 _atom_site_type_symbol
 _atom_site_label
 _atom_site_symmetry_multiplicity
 _atom_site_fract_x
 _atom_site_fract_y
 _atom_site_fract_z
 _atom_site_occupancy
  Li  Li0  1  0.14219043  0.55975851  0.28034399  1
  Li  Li1  1  0.40044018  0.42820088  0.77294078  1
  Li  Li2  1  0.59955982  0.57179912  0.27294078  1
  Li  Li3  1  0.85780957  0.44024149  0.78034399  1
  Mn  Mn4  1  0.02460239  0.10658136  0.77035076  1
  Mn  Mn5  1  0.08130576  0.31748410  0.26143086  1
  Mn  Mn6  1  0.41768912  0.68338827  0.76132918  1
  Mn  Mn7  1  0.47492018  0.89469962  0.26111330  1
  Mn  Mn8  1  0.52507982  0.10530038  0.76111330  1
  Mn  Mn9  1  0.58231088  0.31661173  0.26132918  1
  Mn  Mn10  1  0.91869424  0.68251590  0.76143086  1
  Mn  Mn11  1  0.97539761  0.89341864  0.27035076  1
  F  F12  1  0.01087714  0.79843813  0.95195815  1
  F  F13  1  0.05099930  0.41019772  0.53702253  1
  F  F14  1  0.17605331  0.66538877  0.61227446  1
  F  F15  1  0.21784038  0.88197160  0.37224547  1
  F  F16  1  0.17198616  0.42807412  0.05693420  1
  F  F17  1  0.05803194  0.01323453  0.09054355  1
  F  F18  1  0.11357883  0.22784318  0.95954228  1
  F  F19  1  0.40618998  0.82000061  0.96095386  1
  F  F20  1  0.34722947  0.61671653  0.06962469  1
  F  F21  1  0.26624115  0.09698138  0.66038104  1
  F  F22  1  0.34071038  0.31020319  0.40098167  1
  F  F23  1  0.43796919  0.55053367  0.57024455  1
  F  F24  1  0.50111175  0.75999911  0.46142111  1
  F  F25  1  0.54245313  0.97230532  0.56075759  1
  F  F26  1  0.45754687  0.02769468  0.06075759  1
  F  F27  1  0.49888825  0.24000089  0.96142111  1
  F  F28  1  0.56203081  0.44946633  0.07024455  1
  F  F29  1  0.65928962  0.68979681  0.90098167  1
  F  F30  1  0.73375885  0.90301862  0.16038004  1
  F  F31  1  0.65277053  0.38328347  0.56962469  1
  F  F32  1  0.59381002  0.17999939  0.46095386  1
  F  F33  1  0.88642117  0.77215682  0.45954228  1
  F  F34  1  0.94196806  0.98676547  0.59054355  1
  F  F35  1  0.82801384  0.57192588  0.55693420  1
  F  F36  1  0.78215962  0.11802840  0.87224547  1
  F  F37  1  0.82394669  0.33461123  0.11227446  1
  F  F38  1  0.94900070  0.58980228  0.03702253  1
  F  F39  1  0.98912286  0.20156187  0.45195815  1
