# generated using pymatgen
data_K12Mo4S11Cl4O5
_symmetry_space_group_name_H-M   'P 1'
_cell_length_a   6.35317430
_cell_length_b   12.57893646
_cell_length_c   12.70277064
_cell_angle_alpha   90.01131758
_cell_angle_beta   89.56100830
_cell_angle_gamma   89.45344198
_symmetry_Int_Tables_number   1
_chemical_formula_structural   K12Mo4S11Cl4O5
_chemical_formula_sum   'K12 Mo4 S11 Cl4 O5'
_cell_volume   1015.08083251
_cell_formula_units_Z   1
loop_
 _symmetry_equiv_pos_site_id
 _symmetry_equiv_pos_as_xyz
  1  'x, y, z'
loop_
 _atom_site_type_symbol
 _atom_site_label
 _atom_site_symmetry_multiplicity
 _atom_site_fract_x
 _atom_site_fract_y
 _atom_site_fract_z
 _atom_site_occupancy
  K  K0  1  0.90494982  0.26525795  0.73077031  1
  K  K1  1  0.09719508  0.76498844  0.26701520  1
  K  K2  1  0.90288556  0.76506977  0.76689775  1
  K  K3  1  0.09666238  0.26526705  0.23252388  1
  K  K4  1  0.92056614  0.00218759  0.02042534  1
  K  K5  1  0.07927185  0.50204842  0.97950194  1
  K  K6  1  0.92428957  0.49833570  0.48015443  1
  K  K7  1  0.07850111  0.00155520  0.52079102  1
  K  K8  1  0.46473330  0.01057620  0.79547823  1
  K  K9  1  0.53554865  0.50996871  0.20420304  1
  K  K10  1  0.46526268  0.51031783  0.70391748  1
  K  K11  1  0.53595723  0.01093229  0.29639186  1
  Mo  Mo12  1  0.50223710  0.25749859  0.99446144  1
  Mo  Mo13  1  0.49820410  0.75782359  0.00536838  1
  Mo  Mo14  1  0.50198784  0.75747749  0.50509418  1
  Mo  Mo15  1  0.49645224  0.26223766  0.49856143  1
  S  S16  1  0.40482911  0.27832901  0.82775804  1
  S  S17  1  0.59502502  0.77825312  0.17208227  1
  S  S18  1  0.40415936  0.77823953  0.67239252  1
  S  S19  1  0.58908753  0.27918461  0.32848392  1
  S  S20  1  0.57321589  0.09503883  0.54853068  1
  S  S21  1  0.42076324  0.59428059  0.45209034  1
  S  S22  1  0.58026653  0.59406072  0.95188518  1
  S  S23  1  0.42048825  0.09444834  0.04796437  1
  S  S24  1  0.84937338  0.27475577  0.00386416  1
  S  S25  1  0.15037878  0.77504731  0.99603002  1
  S  S26  1  0.84952434  0.77457244  0.49569816  1
  Cl  Cl27  1  0.97589184  0.01790859  0.76842217  1
  Cl  Cl28  1  0.02459128  0.51743744  0.23190003  1
  Cl  Cl29  1  0.97625149  0.51733711  0.73118619  1
  Cl  Cl30  1  0.02524367  0.01827918  0.26918283  1
  O  O31  1  0.64247779  0.35342582  0.57593415  1
  O  O32  1  0.37214153  0.85241157  0.42524706  1
  O  O33  1  0.62745067  0.85228199  0.92507446  1
  O  O34  1  0.37143789  0.35267469  0.07475793  1
  O  O35  1  0.22169776  0.28491086  0.51265961  1
