# generated using pymatgen
data_Li5Ni2O2F5
_symmetry_space_group_name_H-M   'P 1'
_cell_length_a   2.93009960
_cell_length_b   2.93009960
_cell_length_c   14.62747870
_cell_angle_alpha   95.74823263
_cell_angle_beta   95.74823263
_cell_angle_gamma   90.00000000
_symmetry_Int_Tables_number   1
_chemical_formula_structural   Li5Ni2O2F5
_chemical_formula_sum   'Li5 Ni2 O2 F5'
_cell_volume   124.31780130
_cell_formula_units_Z   1
loop_
 _symmetry_equiv_pos_site_id
 _symmetry_equiv_pos_as_xyz
  1  'x, y, z'
loop_
 _atom_site_type_symbol
 _atom_site_label
 _atom_site_symmetry_multiplicity
 _atom_site_fract_x
 _atom_site_fract_y
 _atom_site_fract_z
 _atom_site_occupancy
  Li  Li0  1  0.14442955  0.14442955  0.28886009  1
  Li  Li1  1  0.71588000  0.71588000  0.43176100  1
  Li  Li2  1  0.28571400  0.28571400  0.57142900  1
  Li  Li3  1  0.85554800  0.85554800  0.71109600  1
  Li  Li4  1  0.42699845  0.42699845  0.85399791  1
  Ni  Ni5  1  0.00004377  0.00004377  0.00008755  1
  Ni  Ni6  1  0.57138423  0.57138423  0.14276945  1
  O  O7  1  0.49856950  0.49856950  0.99713800  1
  O  O8  1  0.07285950  0.07285950  0.14571900  1
  F  F9  1  0.64636801  0.64636801  0.29273702  1
  F  F10  1  0.21554664  0.21554664  0.43109228  1
  F  F11  1  0.78571400  0.78571400  0.57142900  1
  F  F12  1  0.35588236  0.35588236  0.71176472  1
  F  F13  1  0.92505999  0.92505999  0.85012098  1
