# generated using pymatgen
data_Li5V3P8O29
_symmetry_space_group_name_H-M   'P 1'
_cell_length_a   9.77597608
_cell_length_b   9.78511969
_cell_length_c   14.09332387
_cell_angle_alpha   90.20998461
_cell_angle_beta   90.39906553
_cell_angle_gamma   60.39273680
_symmetry_Int_Tables_number   1
_chemical_formula_structural   Li5V3P8O29
_chemical_formula_sum   'Li10 V6 P16 O58'
_cell_volume   1172.10071326
_cell_formula_units_Z   2
loop_
 _symmetry_equiv_pos_site_id
 _symmetry_equiv_pos_as_xyz
  1  'x, y, z'
loop_
 _atom_site_type_symbol
 _atom_site_label
 _atom_site_symmetry_multiplicity
 _atom_site_fract_x
 _atom_site_fract_y
 _atom_site_fract_z
 _atom_site_occupancy
  Li  Li0  1  0.67481142  0.66503009  0.39201387  1
  Li  Li1  1  0.77230488  0.31257930  0.05799925  1
  Li  Li2  1  0.31671361  0.90926279  0.06192788  1
  Li  Li3  1  0.67346064  0.23155808  0.44331821  1
  Li  Li4  1  0.32171889  0.77207014  0.56324940  1
  Li  Li5  1  0.68840824  0.08252684  0.93448176  1
  Li  Li6  1  0.22792437  0.67813763  0.94149196  1
  Li  Li7  1  0.09961596  0.66669104  0.44131813  1
  Li  Li8  1  0.09624339  0.22987445  0.93860097  1
  Li  Li9  1  0.98997014  0.05978660  0.51019562  1
  V  V10  1  0.56593380  0.43105811  0.25176546  1
  V  V11  1  0.43356009  0.56641501  0.75152232  1
  V  V12  1  0.56895922  0.99595760  0.74633125  1
  V  V13  1  0.42923517  0.00683616  0.25217576  1
  V  V14  1  0.99914940  0.56902470  0.24903949  1
  V  V15  1  0.99873030  0.43465621  0.74286980  1
  P  P16  1  0.91590430  0.76886386  0.83787892  1
  P  P17  1  0.77858827  0.91402681  0.33792439  1
  P  P18  1  0.91545858  0.30669336  0.34454090  1
  P  P19  1  0.66337762  0.66433116  0.13091283  1
  P  P20  1  0.66553016  0.66719776  0.62922228  1
  P  P21  1  0.77128536  0.32098407  0.83927427  1
  P  P22  1  0.68380009  0.22874671  0.65812149  1
  P  P23  1  0.32030492  0.91315588  0.84483269  1
  P  P24  1  0.68383134  0.08306426  0.15315452  1
  P  P25  1  0.32037287  0.77253259  0.34075515  1
  P  P26  1  0.23086357  0.67862988  0.15972269  1
  P  P27  1  0.32870094  0.34008189  0.37126743  1
  P  P28  1  0.33185534  0.33146994  0.86868774  1
  P  P29  1  0.08609189  0.68707285  0.65470579  1
  P  P30  1  0.22064278  0.08337549  0.66135312  1
  P  P31  1  0.08287109  0.23312050  0.15897479  1
  O  O32  1  0.01552325  0.76282119  0.56216634  1
  O  O33  1  0.92120064  0.74110523  0.34092691  1
  O  O34  1  0.74448666  0.00795297  0.06023939  1
  O  O35  1  0.74813008  0.91282415  0.83873826  1
  O  O36  1  0.90871781  0.61587796  0.81849346  1
  O  O37  1  0.81220774  0.66041096  0.18285250  1
  O  O38  1  0.90995368  0.46913999  0.33408655  1
  O  O39  1  0.99706123  0.25116928  0.06702598  1
  O  O40  1  0.91959421  0.33926151  0.83987038  1
  O  O41  1  0.67527768  0.80747374  0.67165596  1
  O  O42  1  0.62792381  0.89947283  0.33178507  1
  O  O43  1  0.81275584  0.51421158  0.67318283  1
  O  O44  1  0.67956811  0.64909123  0.02651451  1
  O  O45  1  0.67205298  0.66023164  0.52323582  1
  O  O46  1  0.66449663  0.51404878  0.17407610  1
  O  O47  1  0.47900999  0.90318066  0.82291911  1
  O  O48  1  0.51367608  0.81417282  0.16686026  1
  O  O49  1  0.74339365  0.33922885  0.34362003  1
  O  O50  1  0.79437588  0.21131467  0.74891046  1
  O  O51  1  0.77164185  0.21243846  0.56876539  1
  O  O52  1  0.75861281  0.24305512  0.92815592  1
  O  O53  1  0.62201215  0.48123782  0.82125387  1
  O  O54  1  0.51088706  0.67481548  0.66512727  1
  O  O55  1  0.66586114  0.24861937  0.16132717  1
  O  O56  1  0.48508618  0.62537132  0.32911115  1
  O  O57  1  0.34311087  0.91779882  0.33513619  1
  O  O58  1  0.80155128  0.98024951  0.23788247  1
  O  O59  1  0.78995740  0.01021418  0.41650952  1
  O  O60  1  0.19533961  0.99638777  0.58176191  1
  O  O61  1  0.65253474  0.08936028  0.66982047  1
  O  O62  1  0.52993830  0.38396266  0.67004782  1
  O  O63  1  0.33896220  0.74650155  0.84340062  1
  O  O64  1  0.48261090  0.33655972  0.33035011  1
  O  O65  1  0.37813589  0.51900061  0.17582840  1
  O  O66  1  0.23758471  0.75799255  0.07049901  1
  O  O67  1  0.23784529  0.76832188  0.42912499  1
  O  O68  1  0.21245194  0.79038617  0.24940268  1
  O  O69  1  0.25575225  0.66119652  0.66482500  1
  O  O70  1  0.48346214  0.18427183  0.83163475  1
  O  O71  1  0.52513809  0.09164160  0.18071825  1
  O  O72  1  0.32998527  0.48463185  0.83078791  1
  O  O73  1  0.31677362  0.33624145  0.97404328  1
  O  O74  1  0.32753201  0.35702931  0.47594018  1
  O  O75  1  0.18186798  0.49359750  0.32787331  1
  O  O76  1  0.37947552  0.07761828  0.66607571  1
  O  O77  1  0.32641179  0.19655638  0.32800929  1
  O  O78  1  0.08136038  0.66055811  0.16621844  1
  O  O79  1  0.99137917  0.79687393  0.74178818  1
  O  O80  1  0.01238706  0.75863402  0.92156748  1
  O  O81  1  0.08999570  0.52718054  0.67054918  1
  O  O82  1  0.18383522  0.32991728  0.82150569  1
  O  O83  1  0.09540466  0.38235835  0.18207540  1
  O  O84  1  0.24823140  0.08619832  0.16008556  1
  O  O85  1  0.24810139  0.99957816  0.93556354  1
  O  O86  1  0.20138231  0.00780516  0.75965304  1
  O  O87  1  0.08251393  0.25604146  0.66540944  1
  O  O88  1  0.00647485  0.20548526  0.42507261  1
  O  O89  1  0.98745938  0.21406558  0.24435273  1
