# generated using pymatgen
data_Li5V3P8O29
_symmetry_space_group_name_H-M   'P 1'
_cell_length_a   9.80681661
_cell_length_b   9.80040642
_cell_length_c   13.86957791
_cell_angle_alpha   90.03395912
_cell_angle_beta   90.02080002
_cell_angle_gamma   59.99505798
_symmetry_Int_Tables_number   1
_chemical_formula_structural   Li5V3P8O29
_chemical_formula_sum   'Li10 V6 P16 O58'
_cell_volume   1154.36807884
_cell_formula_units_Z   2
loop_
 _symmetry_equiv_pos_site_id
 _symmetry_equiv_pos_as_xyz
  1  'x, y, z'
loop_
 _atom_site_type_symbol
 _atom_site_label
 _atom_site_symmetry_multiplicity
 _atom_site_fract_x
 _atom_site_fract_y
 _atom_site_fract_z
 _atom_site_occupancy
  Li  Li0  1  0.77155222  0.90328964  0.56064705  1
  Li  Li1  1  0.90407547  0.32545876  0.56111925  1
  Li  Li2  1  0.77318970  0.32299575  0.05869618  1
  Li  Li3  1  0.31831701  0.90972980  0.05930135  1
  Li  Li4  1  0.67676793  0.22706539  0.43915253  1
  Li  Li5  1  0.32327810  0.77291611  0.56088226  1
  Li  Li6  1  0.68163288  0.09032307  0.94069752  1
  Li  Li7  1  0.22682592  0.67694893  0.94127118  1
  Li  Li8  1  0.09589636  0.67457346  0.43888866  1
  Li  Li9  1  0.22846279  0.09669378  0.43932474  1
  V  V10  1  0.56755188  0.43123405  0.25130858  1
  V  V11  1  0.43235437  0.56884559  0.74866726  1
  V  V12  1  0.56721106  0.99839383  0.75192013  1
  V  V13  1  0.43276188  0.00149102  0.24801125  1
  V  V14  1  0.99736264  0.56907525  0.24381374  1
  V  V15  1  0.00257196  0.43093514  0.75621629  1
  P  P16  1  0.91544567  0.77014212  0.84375555  1
  P  P17  1  0.76946769  0.91096356  0.34152322  1
  P  P18  1  0.91413748  0.31936939  0.34307516  1
  P  P19  1  0.66565968  0.66469406  0.12563628  1
  P  P20  1  0.67002065  0.66501213  0.62641127  1
  P  P21  1  0.76827095  0.31980821  0.84176126  1
  P  P22  1  0.68085645  0.23070369  0.65792355  1
  P  P23  1  0.31711757  0.91288170  0.84340167  1
  P  P24  1  0.68275239  0.08715536  0.15655897  1
  P  P25  1  0.31914228  0.76929483  0.34209666  1
  P  P26  1  0.23171357  0.68021408  0.15823326  1
  P  P27  1  0.32998913  0.33495996  0.37361883  1
  P  P28  1  0.33437035  0.33532141  0.87431995  1
  P  P29  1  0.08581507  0.68063679  0.65694732  1
  P  P30  1  0.23051164  0.08898905  0.65844514  1
  P  P31  1  0.08450568  0.22991198  0.15631740  1
  O  O32  1  0.99877848  0.75637529  0.56545088  1
  O  O33  1  0.91913630  0.74463125  0.33916170  1
  O  O34  1  0.75555056  0.00606058  0.06534379  1
  O  O35  1  0.74802977  0.91562355  0.84246657  1
  O  O36  1  0.90548177  0.61763530  0.82403385  1
  O  O37  1  0.81491497  0.66623845  0.17333767  1
  O  O38  1  0.90598677  0.47809251  0.32305534  1
  O  O39  1  0.99040783  0.24284836  0.07034880  1
  O  O40  1  0.91573366  0.33933292  0.83577130  1
  O  O41  1  0.67660213  0.81191512  0.66623806  1
  O  O42  1  0.62085100  0.90050464  0.32506307  1
  O  O43  1  0.81738744  0.51149719  0.66959430  1
  O  O44  1  0.67098121  0.66470689  0.01887908  1
  O  O45  1  0.67237138  0.65972655  0.51879652  1
  O  O46  1  0.67416509  0.51170219  0.16701840  1
  O  O47  1  0.47837027  0.90264818  0.82300229  1
  O  O48  1  0.51386502  0.81347333  0.16608137  1
  O  O49  1  0.74868398  0.33633655  0.34251376  1
  O  O50  1  0.79097869  0.20779428  0.74988766  1
  O  O51  1  0.75909487  0.24072554  0.56737414  1
  O  O52  1  0.76141566  0.23983791  0.93187200  1
  O  O53  1  0.62024319  0.47901855  0.82450310  1
  O  O54  1  0.51376612  0.67366363  0.66589709  1
  O  O55  1  0.66208308  0.25553891  0.16149084  1
  O  O56  1  0.47880127  0.61847306  0.32459352  1
  O  O57  1  0.33715636  0.91741348  0.34064998  1
  O  O58  1  0.79114689  0.00035196  0.24976780  1
  O  O59  1  0.76368707  0.99772079  0.43238980  1
  O  O60  1  0.23628416  0.00228707  0.56758792  1
  O  O61  1  0.66294508  0.08244425  0.65933496  1
  O  O62  1  0.52125116  0.38154854  0.67538574  1
  O  O63  1  0.33796257  0.74445197  0.83849198  1
  O  O64  1  0.48629327  0.32643159  0.33413194  1
  O  O65  1  0.37977298  0.52096647  0.17549794  1
  O  O66  1  0.23858838  0.76014117  0.06814171  1
  O  O67  1  0.24091488  0.75927339  0.43262928  1
  O  O68  1  0.20902555  0.79221663  0.25011583  1
  O  O69  1  0.25135630  0.66363500  0.65749548  1
  O  O70  1  0.48613051  0.18634215  0.83390690  1
  O  O71  1  0.52153966  0.09754941  0.17703900  1
  O  O72  1  0.32582900  0.48825575  0.83299748  1
  O  O73  1  0.32911332  0.33523517  0.98113140  1
  O  O74  1  0.32755460  0.34028180  0.48121391  1
  O  O75  1  0.18266471  0.48847402  0.33040755  1
  O  O76  1  0.37893570  0.09960671  0.67504196  1
  O  O77  1  0.32337443  0.18820734  0.33370939  1
  O  O78  1  0.08431764  0.66064369  0.16424318  1
  O  O79  1  0.99509790  0.79399807  0.74673695  1
  O  O80  1  0.00962471  0.75707360  0.92962676  1
  O  O81  1  0.09398863  0.52190294  0.67692378  1
  O  O82  1  0.18512634  0.33374421  0.82668313  1
  O  O83  1  0.09455735  0.38228968  0.17595331  1
  O  O84  1  0.25213295  0.08442953  0.15753163  1
  O  O85  1  0.24446789  0.99395642  0.93462958  1
  O  O86  1  0.20873701  0.99969175  0.75023571  1
  O  O87  1  0.08082012  0.25538918  0.66083064  1
  O  O88  1  0.00119003  0.24366485  0.43455480  1
  O  O89  1  0.00492587  0.20595778  0.25326105  1
