# generated using pymatgen
data_Mn6OF11
_symmetry_space_group_name_H-M   'P 1'
_cell_length_a   4.95835036
_cell_length_b   5.91164414
_cell_length_c   16.21647654
_cell_angle_alpha   89.39767027
_cell_angle_beta   90.02336923
_cell_angle_gamma   89.95304687
_symmetry_Int_Tables_number   1
_chemical_formula_structural   Mn6OF11
_chemical_formula_sum   'Mn12 O2 F22'
_cell_volume   475.31093967
_cell_formula_units_Z   2
loop_
 _symmetry_equiv_pos_site_id
 _symmetry_equiv_pos_as_xyz
  1  'x, y, z'
loop_
 _atom_site_type_symbol
 _atom_site_label
 _atom_site_symmetry_multiplicity
 _atom_site_fract_x
 _atom_site_fract_y
 _atom_site_fract_z
 _atom_site_occupancy
  Mn  Mn0  1  0.00422549  0.14517219  0.41698330  1
  Mn  Mn1  1  0.00714094  0.83083570  0.24927919  1
  Mn  Mn2  1  0.02983252  0.18971212  0.08998074  1
  Mn  Mn3  1  0.00013425  0.16238648  0.74932932  1
  Mn  Mn4  1  0.01495797  0.83356747  0.57647688  1
  Mn  Mn5  1  0.98858615  0.83183399  0.92201064  1
  Mn  Mn6  1  0.49452004  0.33236179  0.58132695  1
  Mn  Mn7  1  0.49796162  0.33012649  0.91663248  1
  Mn  Mn8  1  0.49867542  0.33472831  0.24921162  1
  Mn  Mn9  1  0.49419303  0.64108906  0.08753638  1
  Mn  Mn10  1  0.47228762  0.68749892  0.42086005  1
  Mn  Mn11  1  0.50129241  0.67078529  0.74833566  1
  O  O12  1  0.20615137  0.91370317  0.46657900  1
  O  O13  1  0.30017943  0.40931103  0.13815070  1
  F  F14  1  0.22161336  0.11345893  0.30731677  1
  F  F15  1  0.23643238  0.10392001  0.64152452  1
  F  F16  1  0.21372755  0.11077443  0.97456240  1
  F  F17  1  0.24175462  0.88968545  0.13841238  1
  F  F18  1  0.22632621  0.88845384  0.80991520  1
  F  F19  1  0.28284175  0.61175330  0.30738868  1
  F  F20  1  0.25421579  0.39406446  0.47030944  1
  F  F21  1  0.26760495  0.60430033  0.63913827  1
  F  F22  1  0.27005083  0.39191102  0.80698919  1
  F  F23  1  0.27888820  0.61145691  0.97745046  1
  F  F24  1  0.73727636  0.39096050  0.02596237  1
  F  F25  1  0.73491410  0.61587223  0.19142449  1
  F  F26  1  0.74228348  0.36531088  0.36157790  1
  F  F27  1  0.71043097  0.61769175  0.52570630  1
  F  F28  1  0.72859412  0.60717234  0.86042719  1
  F  F29  1  0.72478564  0.38876011  0.69287141  1
  F  F30  1  0.78838118  0.11557469  0.19444956  1
  F  F31  1  0.77083446  0.12183465  0.52184875  1
  F  F32  1  0.76631271  0.88529308  0.35736028  1
  F  F33  1  0.74780915  0.86897862  0.03458725  1
  F  F34  1  0.76554722  0.10180728  0.86049341  1
  F  F35  1  0.77923772  0.88785617  0.68759084  1
