# generated using pymatgen
data_LiMnF5
_symmetry_space_group_name_H-M   'P 1'
_cell_length_a   13.10666732
_cell_length_b   5.78697964
_cell_length_c   4.98421972
_cell_angle_alpha   90.00000000
_cell_angle_beta   90.00000000
_cell_angle_gamma   90.00000000
_symmetry_Int_Tables_number   1
_chemical_formula_structural   LiMnF5
_chemical_formula_sum   'Li4 Mn4 F20'
_cell_volume   378.04318170
_cell_formula_units_Z   4
loop_
 _symmetry_equiv_pos_site_id
 _symmetry_equiv_pos_as_xyz
  1  'x, y, z'
loop_
 _atom_site_type_symbol
 _atom_site_label
 _atom_site_symmetry_multiplicity
 _atom_site_fract_x
 _atom_site_fract_y
 _atom_site_fract_z
 _atom_site_occupancy
  Li  Li0  1  0.11081692  0.11601644  0.78030381  1
  Li  Li1  1  0.38918308  0.88398356  0.28030381  1
  Li  Li2  1  0.61081692  0.38398356  0.21969619  1
  Li  Li3  1  0.88918308  0.61601644  0.71969619  1
  Mn  Mn4  1  0.16307427  0.62185307  0.43058639  1
  Mn  Mn5  1  0.33692573  0.37814693  0.93058639  1
  Mn  Mn6  1  0.66307427  0.87814693  0.56941361  1
  Mn  Mn7  1  0.83692573  0.12185307  0.06941361  1
  F  F8  1  0.08718589  0.82684672  0.62108809  1
  F  F9  1  0.07917152  0.64456134  0.15437758  1
  F  F10  1  0.08925574  0.38556902  0.57689281  1
  F  F11  1  0.24467192  0.85365635  0.30579411  1
  F  F12  1  0.24167384  0.39707771  0.23654157  1
  F  F13  1  0.25832616  0.60292229  0.73654157  1
  F  F14  1  0.25532808  0.14634365  0.80579411  1
  F  F15  1  0.41074426  0.61443098  0.07689281  1
  F  F16  1  0.42082848  0.35543866  0.65437758  1
  F  F17  1  0.41281411  0.17315328  0.12108809  1
  F  F18  1  0.58718589  0.67315328  0.37891191  1
  F  F19  1  0.57917152  0.85543866  0.84562242  1
  F  F20  1  0.58925574  0.11443098  0.42310719  1
  F  F21  1  0.74467192  0.64634365  0.69420589  1
  F  F22  1  0.74167384  0.10292229  0.76345843  1
  F  F23  1  0.75832616  0.89707771  0.26345843  1
  F  F24  1  0.75532808  0.35365635  0.19420589  1
  F  F25  1  0.91074426  0.88556902  0.92310719  1
  F  F26  1  0.92082848  0.14456134  0.34562242  1
  F  F27  1  0.91281411  0.32684672  0.87891191  1
