# generated using pymatgen
data_Li2(CoO2)3
_symmetry_space_group_name_H-M   'P 1'
_cell_length_a   4.88765592
_cell_length_b   4.88170218
_cell_length_c   5.05179584
_cell_angle_alpha   99.31815456
_cell_angle_beta   108.87100276
_cell_angle_gamma   59.95964080
_symmetry_Int_Tables_number   1
_chemical_formula_structural   Li2(CoO2)3
_chemical_formula_sum   'Li2 Co3 O6'
_cell_volume   98.73635154
_cell_formula_units_Z   1
loop_
 _symmetry_equiv_pos_site_id
 _symmetry_equiv_pos_as_xyz
  1  'x, y, z'
loop_
 _atom_site_type_symbol
 _atom_site_label
 _atom_site_symmetry_multiplicity
 _atom_site_fract_x
 _atom_site_fract_y
 _atom_site_fract_z
 _atom_site_occupancy
  Li  Li0  1  0.33403203  0.33193694  0.00000000  1
  Li  Li1  1  0.66596797  0.66806306  0.00000000  1
  Co  Co2  1  0.50000000  0.00000000  0.50000000  1
  Co  Co3  1  0.16487857  0.67024286  0.50000000  1
  Co  Co4  1  0.83512143  0.32975714  0.50000000  1
  O  O5  1  0.24218807  0.00000000  0.70933566  1
  O  O6  1  0.09706431  0.34021019  0.29424460  1
  O  O7  1  0.75781193  1.00000000  0.29066434  1
  O  O8  1  0.56272650  0.34021019  0.70575540  1
  O  O9  1  0.43727350  0.65978981  0.29424460  1
  O  O10  1  0.90293569  0.65978981  0.70575540  1
