# generated using pymatgen
data_Li3Cr(BO3)2
_symmetry_space_group_name_H-M   'P 1'
_cell_length_a   6.03959634
_cell_length_b   9.09961039
_cell_length_c   9.43584629
_cell_angle_alpha   115.14716561
_cell_angle_beta   90.00025409
_cell_angle_gamma   89.99999332
_symmetry_Int_Tables_number   1
_chemical_formula_structural   Li3Cr(BO3)2
_chemical_formula_sum   'Li12 Cr4 B8 O24'
_cell_volume   469.42408709
_cell_formula_units_Z   4
loop_
 _symmetry_equiv_pos_site_id
 _symmetry_equiv_pos_as_xyz
  1  'x, y, z'
loop_
 _atom_site_type_symbol
 _atom_site_label
 _atom_site_symmetry_multiplicity
 _atom_site_fract_x
 _atom_site_fract_y
 _atom_site_fract_z
 _atom_site_occupancy
  Li  Li0  1  0.28777419  0.13413402  0.92730311  1
  Li  Li1  1  0.06554322  0.28683420  0.81495414  1
  Li  Li2  1  0.21426537  0.12998373  0.42293482  1
  Li  Li3  1  0.43303628  0.29166367  0.32096460  1
  Li  Li4  1  0.74855482  0.37954583  0.51360037  1
  Li  Li5  1  0.24855339  0.62045605  0.98640774  1
  Li  Li6  1  0.75441961  0.38007197  0.01158895  1
  Li  Li7  1  0.25441541  0.61992468  0.48840167  1
  Li  Li8  1  0.56555018  0.71318161  0.68506187  1
  Li  Li9  1  0.78778270  0.86587267  0.57271275  1
  Li  Li10  1  0.93304814  0.70834613  0.17904256  1
  Li  Li11  1  0.71426549  0.87001922  0.07705704  1
  Cr  Cr12  1  0.96621688  0.23260400  0.21893050  1
  Cr  Cr13  1  0.46618482  0.76748018  0.28108031  1
  Cr  Cr14  1  0.53456469  0.23139402  0.71848074  1
  Cr  Cr15  1  0.03469045  0.76865379  0.78148148  1
  B  B16  1  0.71451668  0.05037184  0.91963839  1
  B  B17  1  0.78835290  0.04887638  0.42027499  1
  B  B18  1  0.33977528  0.45335569  0.68550797  1
  B  B19  1  0.83977519  0.54664577  0.81449361  1
  B  B20  1  0.16074194  0.45440287  0.18550328  1
  B  B21  1  0.66075482  0.54558862  0.31449432  1
  B  B22  1  0.21452833  0.94961487  0.58035507  1
  B  B23  1  0.28836016  0.95111720  0.07972751  1
  O  O24  1  0.60747175  0.17647519  0.90144560  1
  O  O25  1  0.25557342  0.09819706  0.70499138  1
  O  O26  1  0.73116401  0.06726684  0.56841982  1
  O  O27  1  0.89458110  0.17467894  0.40091988  1
  O  O28  1  0.24768376  0.10051375  0.20367723  1
  O  O29  1  0.79091777  0.39919439  0.81295232  1
  O  O30  1  0.77242313  0.06778849  0.06735908  1
  O  O31  1  0.31825908  0.42292535  0.81708962  1
  O  O32  1  0.43337355  0.32213630  0.55690897  1
  O  O33  1  0.71045923  0.39922020  0.31496024  1
  O  O34  1  0.93338845  0.67785347  0.94308288  1
  O  O35  1  0.18155407  0.42520056  0.31785016  1
  O  O36  1  0.06646438  0.32281867  0.05760939  1
  O  O37  1  0.81827309  0.57706832  0.68290891  1
  O  O38  1  0.29094994  0.60079086  0.68704177  1
  O  O39  1  0.56647266  0.67716532  0.44239172  1
  O  O40  1  0.68157170  0.57478306  0.18215875  1
  O  O41  1  0.23117610  0.93273794  0.93158877  1
  O  O42  1  0.21045041  0.60075804  0.18504331  1
  O  O43  1  0.75560815  0.90177950  0.79499404  1
  O  O44  1  0.10749621  0.82351836  0.59855057  1
  O  O45  1  0.27244385  0.93220037  0.43264630  1
  O  O46  1  0.74767253  0.89947327  0.29632343  1
  O  O47  1  0.39458474  0.82531072  0.09907604  1
