# generated using pymatgen
data_Li5V3P8O29
_symmetry_space_group_name_H-M   'P 1'
_cell_length_a   9.79896603
_cell_length_b   9.77400754
_cell_length_c   14.01927632
_cell_angle_alpha   90.12028570
_cell_angle_beta   90.18974145
_cell_angle_gamma   60.14818263
_symmetry_Int_Tables_number   1
_chemical_formula_structural   Li5V3P8O29
_chemical_formula_sum   'Li10 V6 P16 O58'
_cell_volume   1164.53690805
_cell_formula_units_Z   2
loop_
 _symmetry_equiv_pos_site_id
 _symmetry_equiv_pos_as_xyz
  1  'x, y, z'
loop_
 _atom_site_type_symbol
 _atom_site_label
 _atom_site_symmetry_multiplicity
 _atom_site_fract_x
 _atom_site_fract_y
 _atom_site_fract_z
 _atom_site_occupancy
  Li  Li0  1  0.77395824  0.90710020  0.55695744  1
  Li  Li1  1  0.91458308  0.31423836  0.55889828  1
  Li  Li2  1  0.76555586  0.33216775  0.05961847  1
  Li  Li3  1  0.33449501  0.89763686  0.06225225  1
  Li  Li4  1  0.68381624  0.22802445  0.43994170  1
  Li  Li5  1  0.32163968  0.77483165  0.55686839  1
  Li  Li6  1  0.66804540  0.09271161  0.94096123  1
  Li  Li7  1  0.09495633  0.67729677  0.43682729  1
  Li  Li8  1  0.09701361  0.23179526  0.94300536  1
  Li  Li9  1  0.01583126  0.93307848  0.00748353  1
  V  V10  1  0.56442740  0.43991571  0.24833756  1
  V  V11  1  0.42839637  0.56800582  0.75495660  1
  V  V12  1  0.56665921  0.99893098  0.74717949  1
  V  V13  1  0.43251360  0.00423519  0.25194290  1
  V  V14  1  0.99687548  0.56890402  0.24596474  1
  V  V15  1  0.00118780  0.43525938  0.75202863  1
  P  P16  1  0.91420616  0.77721732  0.84155288  1
  P  P17  1  0.76961984  0.91265150  0.33988507  1
  P  P18  1  0.91156047  0.31899833  0.34159958  1
  P  P19  1  0.66359993  0.66956884  0.12902724  1
  P  P20  1  0.66558951  0.66252256  0.63027730  1
  P  P21  1  0.77034586  0.31607026  0.84143092  1
  P  P22  1  0.67904046  0.23399968  0.65730208  1
  P  P23  1  0.31429857  0.91474996  0.84344707  1
  P  P24  1  0.68621683  0.08911918  0.15656370  1
  P  P25  1  0.31604554  0.77271122  0.34379018  1
  P  P26  1  0.22236817  0.69031577  0.16062359  1
  P  P27  1  0.33643750  0.33619961  0.36928096  1
  P  P28  1  0.33766886  0.32997559  0.87235351  1
  P  P29  1  0.08825622  0.68135627  0.65773293  1
  P  P30  1  0.22825424  0.08741657  0.65962116  1
  P  P31  1  0.08537769  0.22596149  0.15765204  1
  O  O32  1  0.00395960  0.75547374  0.56580849  1
  O  O33  1  0.91939832  0.74805562  0.34012431  1
  O  O34  1  0.77627293  0.01638527  0.06668038  1
  O  O35  1  0.74095501  0.91631025  0.83530699  1
  O  O36  1  0.91867488  0.61769412  0.83203014  1
  O  O37  1  0.80513560  0.67651841  0.17214277  1
  O  O38  1  0.90567306  0.47752131  0.32185910  1
  O  O39  1  0.99529292  0.22772578  0.06918412  1
  O  O40  1  0.91559631  0.33850718  0.84237693  1
  O  O41  1  0.67213556  0.81180259  0.66701672  1
  O  O42  1  0.62257564  0.89770021  0.32354762  1
  O  O43  1  0.81354787  0.51231672  0.67238622  1
  O  O44  1  0.65748532  0.65361482  0.02370644  1
  O  O45  1  0.65882238  0.65939187  0.52404498  1
  O  O46  1  0.67258975  0.51242078  0.17343873  1
  O  O47  1  0.47093556  0.91014412  0.83056105  1
  O  O48  1  0.50906559  0.81568296  0.16797254  1
  O  O49  1  0.74129622  0.34243209  0.33686703  1
  O  O50  1  0.79204333  0.20977060  0.74840273  1
  O  O51  1  0.75518557  0.24958115  0.56825859  1
  O  O52  1  0.76439697  0.23227984  0.93004193  1
  O  O53  1  0.61637822  0.47492406  0.82642370  1
  O  O54  1  0.51470520  0.66710674  0.67524445  1
  O  O55  1  0.66012020  0.26110557  0.16303104  1
  O  O56  1  0.47595147  0.62001076  0.32077346  1
  O  O57  1  0.33894190  0.91477875  0.33988656  1
  O  O58  1  0.79268748  0.00246411  0.24944328  1
  O  O59  1  0.75783421  0.00318047  0.42949763  1
  O  O60  1  0.23775055  0.99184433  0.57532435  1
  O  O61  1  0.66455402  0.08353999  0.65579466  1
  O  O62  1  0.52045457  0.38255101  0.67821233  1
  O  O63  1  0.33784443  0.74548758  0.83422471  1
  O  O64  1  0.48716731  0.33399951  0.32302941  1
  O  O65  1  0.38224768  0.53495809  0.17034699  1
  O  O66  1  0.21240306  0.79201490  0.07821842  1
  O  O67  1  0.24947343  0.74844737  0.43414317  1
  O  O68  1  0.20015024  0.78810283  0.25778455  1
  O  O69  1  0.25464037  0.66486618  0.66097677  1
  O  O70  1  0.49082294  0.18734862  0.83168893  1
  O  O71  1  0.53071121  0.08914180  0.16661824  1
  O  O72  1  0.33151054  0.48260691  0.82432190  1
  O  O73  1  0.34122233  0.33733069  0.97821403  1
  O  O74  1  0.35592292  0.32775951  0.47463804  1
  O  O75  1  0.18674936  0.48680927  0.33303655  1
  O  O76  1  0.38071452  0.09587261  0.67785530  1
  O  O77  1  0.33800867  0.18842512  0.32212738  1
  O  O78  1  0.08657475  0.65427841  0.16217357  1
  O  O79  1  0.99316145  0.79703391  0.74408791  1
  O  O80  1  0.99497376  0.79687316  0.92497639  1
  O  O81  1  0.10256510  0.52007179  0.67748609  1
  O  O82  1  0.19073352  0.32262109  0.83361883  1
  O  O83  1  0.09156575  0.37823102  0.17079270  1
  O  O84  1  0.25067191  0.07983493  0.15774921  1
  O  O85  1  0.22843135  0.99262729  0.93454865  1
  O  O86  1  0.20115914  0.01089489  0.75588626  1
  O  O87  1  0.08409299  0.25642771  0.65989405  1
  O  O88  1  0.98820937  0.24480772  0.43342548  1
  O  O89  1  0.99859426  0.20666824  0.25126911  1
