# generated using pymatgen
data_Li2VF4
_symmetry_space_group_name_H-M   'P 1'
_cell_length_a   3.13141494
_cell_length_b   10.02302444
_cell_length_c   5.03246065
_cell_angle_alpha   90.00000000
_cell_angle_beta   90.68834274
_cell_angle_gamma   90.00000000
_symmetry_Int_Tables_number   1
_chemical_formula_structural   Li2VF4
_chemical_formula_sum   'Li4 V2 F8'
_cell_volume   157.93866167
_cell_formula_units_Z   2
loop_
 _symmetry_equiv_pos_site_id
 _symmetry_equiv_pos_as_xyz
  1  'x, y, z'
loop_
 _atom_site_type_symbol
 _atom_site_label
 _atom_site_symmetry_multiplicity
 _atom_site_fract_x
 _atom_site_fract_y
 _atom_site_fract_z
 _atom_site_occupancy
  Li  Li0  1  0.50234680  0.29152330  0.97617306  1
  Li  Li1  1  0.49765320  0.79152330  0.52382694  1
  Li  Li2  1  0.50234680  0.20847670  0.47617306  1
  Li  Li3  1  0.49765320  0.70847670  0.02382694  1
  V  V4  1  0.00000000  0.50000000  0.50000000  1
  V  V5  1  0.00000000  0.00000000  0.00000000  1
  F  F6  1  0.00375460  0.83279996  0.74508608  1
  F  F7  1  0.00375460  0.66720004  0.24508608  1
  F  F8  1  0.49620199  0.09994445  0.79469502  1
  F  F9  1  0.49620199  0.40005555  0.29469502  1
  F  F10  1  0.50379801  0.59994445  0.70530498  1
  F  F11  1  0.50379801  0.90005555  0.20530498  1
  F  F12  1  0.99624540  0.33279996  0.75491392  1
  F  F13  1  0.99624540  0.16720004  0.25491392  1
