# generated using pymatgen
data_Zn3Co9O16
_symmetry_space_group_name_H-M   'P 1'
_cell_length_a   5.78125690
_cell_length_b   5.78125690
_cell_length_c   10.07930938
_cell_angle_alpha   106.66577623
_cell_angle_beta   73.33422377
_cell_angle_gamma   120.00000000
_symmetry_Int_Tables_number   1
_chemical_formula_structural   Zn3Co9O16
_chemical_formula_sum   'Zn3 Co9 O16'
_cell_volume   275.28532271
_cell_formula_units_Z   1
loop_
 _symmetry_equiv_pos_site_id
 _symmetry_equiv_pos_as_xyz
  1  'x, y, z'
loop_
 _atom_site_type_symbol
 _atom_site_label
 _atom_site_symmetry_multiplicity
 _atom_site_fract_x
 _atom_site_fract_y
 _atom_site_fract_z
 _atom_site_occupancy
  Zn  Zn0  1  0.31248036  0.68751964  0.06255791  1
  Zn  Zn1  1  0.62410208  0.37589792  0.12769276  1
  Zn  Zn2  1  0.50066548  0.49933452  0.49800456  1
  Co  Co3  1  0.06097104  0.93902896  0.31616731  1
  Co  Co4  1  0.00055964  0.99944036  0.99832209  1
  Co  Co5  1  0.56189060  0.93902896  0.31616731  1
  Co  Co6  1  0.06097104  0.43810940  0.31616731  1
  Co  Co7  1  0.12462441  0.87537559  0.62612676  1
  Co  Co8  1  0.56448681  0.93794449  0.80896987  1
  Co  Co9  1  0.06205551  0.43551319  0.80896987  1
  Co  Co10  1  0.56448681  0.43551319  0.80896987  1
  Co  Co11  1  0.81251297  0.18748703  0.56246108  1
  O  O12  1  0.41737677  0.58262323  0.20602831  1
  O  O13  1  0.19330955  0.80669045  0.42007036  1
  O  O14  1  0.70887742  0.85011693  0.43236210  1
  O  O15  1  0.14988307  0.29112258  0.43236210  1
  O  O16  1  0.95921815  0.58262323  0.20602831  1
  O  O17  1  0.41737677  0.04078185  0.20602831  1
  O  O18  1  0.70887742  0.29112258  0.43236210  1
  O  O19  1  0.20452341  0.79547659  0.91911962  1
  O  O20  1  0.43117094  0.56882906  0.70648619  1
  O  O21  1  0.93059300  0.06940700  0.20822101  1
  O  O22  1  0.20452341  0.32816544  0.91911962  1
  O  O23  1  0.67183456  0.79547659  0.91911962  1
  O  O24  1  0.47410946  0.08325661  0.69240376  1
  O  O25  1  0.91674339  0.52589054  0.69240376  1
  O  O26  1  0.91674339  0.08325661  0.69240376  1
  O  O27  1  0.69503152  0.30496848  0.91490443  1
