# generated using pymatgen
data_Mn6OF11
_symmetry_space_group_name_H-M   'P 1'
_cell_length_a   4.96419673
_cell_length_b   5.88786593
_cell_length_c   16.21416429
_cell_angle_alpha   90.00000000
_cell_angle_beta   90.00000000
_cell_angle_gamma   90.89403816
_symmetry_Int_Tables_number   1
_chemical_formula_structural   Mn6OF11
_chemical_formula_sum   'Mn12 O2 F22'
_cell_volume   473.85840943
_cell_formula_units_Z   2
loop_
 _symmetry_equiv_pos_site_id
 _symmetry_equiv_pos_as_xyz
  1  'x, y, z'
loop_
 _atom_site_type_symbol
 _atom_site_label
 _atom_site_symmetry_multiplicity
 _atom_site_fract_x
 _atom_site_fract_y
 _atom_site_fract_z
 _atom_site_occupancy
  Mn  Mn0  1  0.99564511  0.17354932  0.41529189  1
  Mn  Mn1  1  0.00848846  0.82930488  0.24948976  1
  Mn  Mn2  1  0.01933553  0.18473591  0.08812324  1
  Mn  Mn3  1  0.01362322  0.16600428  0.74446750  1
  Mn  Mn4  1  0.00996050  0.85497006  0.58535041  1
  Mn  Mn5  1  0.99205887  0.83370839  0.91976899  1
  Mn  Mn6  1  0.48066447  0.31526409  0.58812324  1
  Mn  Mn7  1  0.50435489  0.32645068  0.91529189  1
  Mn  Mn8  1  0.50794113  0.66629161  0.41976899  1
  Mn  Mn9  1  0.48637678  0.33399572  0.24446750  1
  Mn  Mn10  1  0.49003950  0.64502994  0.08535041  1
  Mn  Mn11  1  0.49151154  0.67069512  0.74948976  1
  O  O12  1  0.21009880  0.08792651  0.63478307  1
  O  O13  1  0.28990120  0.41207349  0.13478307  1
  F  F14  1  0.23369165  0.10471754  0.30824750  1
  F  F15  1  0.21919439  0.10975692  0.97414924  1
  F  F16  1  0.24162016  0.89400441  0.13829833  1
  F  F17  1  0.21972963  0.88726037  0.47525572  1
  F  F18  1  0.22978206  0.89281426  0.81027525  1
  F  F19  1  0.27021794  0.60718574  0.31027525  1
  F  F20  1  0.28080561  0.39024308  0.47414924  1
  F  F21  1  0.25837984  0.60599559  0.63829833  1
  F  F22  1  0.26630835  0.39528246  0.80824750  1
  F  F23  1  0.28027037  0.61273963  0.97525572  1
  F  F24  1  0.73618944  0.39270536  0.02457291  1
  F  F25  1  0.72468194  0.39405696  0.35647417  1
  F  F26  1  0.75018513  0.62328295  0.53247243  1
  F  F27  1  0.72961010  0.61927014  0.18871186  1
  F  F28  1  0.72786012  0.60808627  0.85931524  1
  F  F29  1  0.71244454  0.38553589  0.69495347  1
  F  F30  1  0.77213988  0.89191373  0.35931524  1
  F  F31  1  0.77531806  0.10594304  0.85647417  1
  F  F32  1  0.78755546  0.11446411  0.19495347  1
  F  F33  1  0.74981487  0.87671705  0.03247243  1
  F  F34  1  0.76381056  0.10729464  0.52457291  1
  F  F35  1  0.77038990  0.88072986  0.68871186  1
