# generated using pymatgen
data_Na4Ni3O7
_symmetry_space_group_name_H-M   'P 1'
_cell_length_a   7.00620692
_cell_length_b   7.00620647
_cell_length_c   7.00620683
_cell_angle_alpha   69.27078260
_cell_angle_beta   69.27079189
_cell_angle_gamma   69.27078448
_symmetry_Int_Tables_number   1
_chemical_formula_structural   Na4Ni3O7
_chemical_formula_sum   'Na8 Ni6 O14'
_cell_volume   290.36579865
_cell_formula_units_Z   2
loop_
 _symmetry_equiv_pos_site_id
 _symmetry_equiv_pos_as_xyz
  1  'x, y, z'
loop_
 _atom_site_type_symbol
 _atom_site_label
 _atom_site_symmetry_multiplicity
 _atom_site_fract_x
 _atom_site_fract_y
 _atom_site_fract_z
 _atom_site_occupancy
  Na  Na0  1  0.91499614  0.35950865  0.20988256  1
  Na  Na1  1  0.78807965  0.06702556  0.62928214  1
  Na  Na2  1  0.64726044  0.79928986  0.06906335  1
  Na  Na3  1  0.57142900  0.14285700  0.28571400  1
  Na  Na4  1  0.49559656  0.48642414  0.50236565  1
  Na  Na5  1  0.35477735  0.21868944  0.94214686  1
  Na  Na6  1  0.22786086  0.92620635  0.36154644  1
  Na  Na7  1  0.07142900  0.64285700  0.78571400  1
  Ni  Ni8  1  0.86176730  0.71119120  0.42944453  1
  Ni  Ni9  1  0.71515953  0.43319630  0.85404820  1
  Ni  Ni10  1  0.00309480  0.99912647  0.99537570  1
  Ni  Ni11  1  0.28108970  0.57452280  0.14198347  1
  Ni  Ni12  1  0.13976320  0.28658753  0.57605330  1
  Ni  Ni13  1  0.42769747  0.85251870  0.71737980  1
  O  O14  1  0.98968824  0.68891157  0.12189589  1
  O  O15  1  0.91023246  0.99751596  0.29311702  1
  O  O16  1  0.84297652  0.41440552  0.55726252  1
  O  O17  1  0.57883102  0.48166146  0.14037296  1
  O  O18  1  0.56402598  0.80405354  0.43105604  1
  O  O19  1  0.71677004  0.13545498  0.94691054  1
  O  O20  1  0.23262454  0.28819904  0.27831198  1
  O  O21  1  0.29988048  0.87130848  0.01416548  1
  O  O22  1  0.73524711  0.72459776  0.73966043  1
  O  O23  1  0.42608696  0.15026002  0.62451846  1
  O  O24  1  0.40760989  0.56111624  0.83176857  1
  O  O25  1  0.15316976  0.59680343  0.44953311  1
  O  O26  1  0.11748257  0.97903889  0.70397324  1
  O  O27  1  0.02537443  0.30667611  0.86745476  1
