# generated using pymatgen
data_Li5Co2Ni5O12
_symmetry_space_group_name_H-M   'P 1'
_cell_length_a   4.96304502
_cell_length_b   5.02396819
_cell_length_c   9.63792680
_cell_angle_alpha   95.24411000
_cell_angle_beta   79.74808023
_cell_angle_gamma   119.73694849
_symmetry_Int_Tables_number   1
_chemical_formula_structural   Li5Co2Ni5O12
_chemical_formula_sum   'Li5 Co2 Ni5 O12'
_cell_volume   205.33452088
_cell_formula_units_Z   1
loop_
 _symmetry_equiv_pos_site_id
 _symmetry_equiv_pos_as_xyz
  1  'x, y, z'
loop_
 _atom_site_type_symbol
 _atom_site_label
 _atom_site_symmetry_multiplicity
 _atom_site_fract_x
 _atom_site_fract_y
 _atom_site_fract_z
 _atom_site_occupancy
  Li  Li0  1  0.16413011  0.83614488  0.00446401  1
  Li  Li1  1  0.67469382  0.83853803  0.49576292  1
  Li  Li2  1  0.08450133  0.16851366  0.25038227  1
  Li  Li3  1  0.33474265  0.17245278  0.49467306  1
  Li  Li4  1  0.83517576  0.17149878  0.00393722  1
  Co  Co5  1  0.24763185  0.49724652  0.75023108  1
  Co  Co6  1  0.75011633  0.50140892  0.24973038  1
  Ni  Ni7  1  0.00238283  0.49266450  0.49587971  1
  Ni  Ni8  1  0.49297197  0.49281558  0.00345761  1
  Ni  Ni9  1  0.41828384  0.83832341  0.24999957  1
  Ni  Ni10  1  0.91539982  0.83094383  0.75007669  1
  Ni  Ni11  1  0.58513885  0.16691492  0.75028680  1
  O  O12  1  0.04805533  0.81143578  0.36345069  1
  O  O13  1  0.27244335  0.80844042  0.63730247  1
  O  O14  1  0.12904145  0.52908407  0.13767352  1
  O  O15  1  0.76088316  0.81042689  0.13574575  1
  O  O16  1  0.53800031  0.80934160  0.86485522  1
  O  O17  1  0.40082421  0.52733454  0.36353414  1
  O  O18  1  0.61786599  0.50454999  0.63189691  1
  O  O19  1  0.47624147  0.17991247  0.13404813  1
  O  O20  1  0.88882807  0.50400782  0.87130277  1
  O  O21  1  0.20890350  0.18478034  0.86775867  1
  O  O22  1  0.69713269  0.17559305  0.36245028  1
  O  O23  1  0.97543533  0.18527822  0.63110214  1
