# generated using pymatgen
data_Hf3AlMo8
_symmetry_space_group_name_H-M   'P 1'
_cell_length_a   5.33168267
_cell_length_b   5.33168266
_cell_length_c   9.22939984
_cell_angle_alpha   73.21133463
_cell_angle_beta   90.00000000
_cell_angle_gamma   119.99999996
_symmetry_Int_Tables_number   1
_chemical_formula_structural   Hf3AlMo8
_chemical_formula_sum   'Hf3 Al1 Mo8'
_cell_volume   214.20270424
_cell_formula_units_Z   1
loop_
 _symmetry_equiv_pos_site_id
 _symmetry_equiv_pos_as_xyz
  1  'x, y, z'
loop_
 _atom_site_type_symbol
 _atom_site_label
 _atom_site_symmetry_multiplicity
 _atom_site_fract_x
 _atom_site_fract_y
 _atom_site_fract_z
 _atom_site_occupancy
  Hf  Hf0  1  0.37480860  0.74961720  0.87557420  1
  Hf  Hf1  1  0.99917246  0.99834493  0.00248261  1
  Hf  Hf2  1  0.50067838  0.00135677  0.49796485  1
  Al  Al3  1  0.87482200  0.74964400  0.37553401  1
  Mo  Mo4  1  0.43708048  0.37275733  0.19016218  1
  Mo  Mo5  1  0.93794158  0.37763549  0.68442293  1
  Mo  Mo6  1  0.43708048  0.87416096  0.19016218  1
  Mo  Mo7  1  0.93794158  0.87588317  0.68442293  1
  Mo  Mo8  1  0.18697156  0.37394311  0.43908533  1
  Mo  Mo9  1  0.68813211  0.37626422  0.93560367  1
  Mo  Mo10  1  0.93567685  0.37275733  0.19016218  1
  Mo  Mo11  1  0.43969391  0.37763549  0.68442293  1
