# generated using pymatgen
data_NaNi3O4
_symmetry_space_group_name_H-M   'P 1'
_cell_length_a   5.21747665
_cell_length_b   10.00764592
_cell_length_c   3.00809376
_cell_angle_alpha   97.64634598
_cell_angle_beta   90.81727283
_cell_angle_gamma   86.16548867
_symmetry_Int_Tables_number   1
_chemical_formula_structural   NaNi3O4
_chemical_formula_sum   'Na2 Ni6 O8'
_cell_volume   155.31921663
_cell_formula_units_Z   2
loop_
 _symmetry_equiv_pos_site_id
 _symmetry_equiv_pos_as_xyz
  1  'x, y, z'
loop_
 _atom_site_type_symbol
 _atom_site_label
 _atom_site_symmetry_multiplicity
 _atom_site_fract_x
 _atom_site_fract_y
 _atom_site_fract_z
 _atom_site_occupancy
  Na  Na0  1  0.37833393  0.75007336  0.85954218  1
  Na  Na1  1  0.62166607  0.24992664  0.14045782  1
  Ni  Ni2  1  0.00000000  0.00000000  0.00000000  1
  Ni  Ni3  1  0.12431516  0.25062705  0.62960409  1
  Ni  Ni4  1  0.25004249  0.50504863  0.24767673  1
  Ni  Ni5  1  0.50000000  0.00000000  0.50000000  1
  Ni  Ni6  1  0.74995751  0.49495137  0.75232327  1
  Ni  Ni7  1  0.87568484  0.74937295  0.37039591  1
  O  O8  1  0.03898696  0.62077551  0.81120917  1
  O  O9  1  0.16404567  0.89063024  0.41228859  1
  O  O10  1  0.28829561  0.11436446  0.05778770  1
  O  O11  1  0.41294830  0.39232700  0.69630710  1
  O  O12  1  0.58705170  0.60767300  0.30369290  1
  O  O13  1  0.83595433  0.10936976  0.58771141  1
  O  O14  1  0.71170439  0.88563554  0.94221230  1
  O  O15  1  0.96101304  0.37922449  0.18879083  1
