# generated using pymatgen
data_Sb3(WO3)20
_symmetry_space_group_name_H-M   'P 1'
_cell_length_a   12.85763297
_cell_length_b   12.85763297
_cell_length_c   10.79973526
_cell_angle_alpha   65.70007852
_cell_angle_beta   65.70007852
_cell_angle_gamma   107.98098072
_symmetry_Int_Tables_number   1
_chemical_formula_structural   Sb3(WO3)20
_chemical_formula_sum   'Sb3 W20 O60'
_cell_volume   1212.84237781
_cell_formula_units_Z   1
loop_
 _symmetry_equiv_pos_site_id
 _symmetry_equiv_pos_as_xyz
  1  'x, y, z'
loop_
 _atom_site_type_symbol
 _atom_site_label
 _atom_site_symmetry_multiplicity
 _atom_site_fract_x
 _atom_site_fract_y
 _atom_site_fract_z
 _atom_site_occupancy
  Sb  Sb0  1  0.58752697  0.58752697  0.25000000  1
  Sb  Sb1  1  0.42432009  0.42432009  0.72705090  1
  Sb  Sb2  1  0.90137099  0.90137099  0.77294910  1
  W  W3  1  0.40807760  0.08684965  0.25000000  1
  W  W4  1  0.08684965  0.40807760  0.25000000  1
  W  W5  1  0.13390184  0.13390184  0.75043857  1
  W  W6  1  0.36600666  0.36600666  0.25000000  1
  W  W7  1  0.66306623  0.33799182  0.25000000  1
  W  W8  1  0.84357745  0.15495443  0.25000000  1
  W  W9  1  0.41172149  0.09212052  0.75044858  1
  W  W10  1  0.33799182  0.66306623  0.25000000  1
  W  W11  1  0.09212052  0.41172149  0.75044858  1
  W  W12  1  0.15495443  0.84357745  0.25000000  1
  W  W13  1  0.66049906  0.34012041  0.74998833  1
  W  W14  1  0.16048739  0.84010874  0.75001167  1
  W  W15  1  0.84010874  0.16048739  0.75001167  1
  W  W16  1  0.34012041  0.66049906  0.74998833  1
  W  W17  1  0.59316890  0.90711588  0.25000000  1
  W  W18  1  0.90711588  0.59316890  0.25000000  1
  W  W19  1  0.87463547  0.87463547  0.25000000  1
  W  W20  1  0.63434141  0.63434141  0.74956143  1
  W  W21  1  0.91217006  0.59256910  0.74955142  1
  W  W22  1  0.59256910  0.91217006  0.74955142  1
  O  O23  1  0.00190478  0.00190478  0.99811271  1
  O  O24  1  0.21601341  0.53236362  0.00003300  1
  O  O25  1  0.03110400  0.71567180  0.99996044  1
  O  O26  1  0.53236362  0.21601341  0.00003300  1
  O  O27  1  0.71567180  0.03110400  0.99996044  1
  O  O28  1  0.21822711  0.35349921  0.25000000  1
  O  O29  1  0.35349921  0.21822711  0.25000000  1
  O  O30  1  0.55111611  0.20180800  0.25000000  1
  O  O31  1  0.49972678  0.49972678  0.00032082  1
  O  O32  1  0.25004761  0.25004761  0.49967918  1
  O  O33  1  0.20180800  0.55111611  0.25000000  1
  O  O34  1  0.05162160  0.69783971  0.25000000  1
  O  O35  1  0.69783971  0.05162160  0.25000000  1
  O  O36  1  0.28293281  0.14961249  0.74845436  1
  O  O37  1  0.14961249  0.28293281  0.74845436  1
  O  O38  1  0.03087156  0.89749953  0.25000000  1
  O  O39  1  0.41521611  0.53783243  0.25000000  1
  O  O40  1  0.89749953  0.03087156  0.25000000  1
  O  O41  1  0.53783243  0.41521611  0.25000000  1
  O  O42  1  0.53555503  0.21894509  0.49952648  1
  O  O43  1  0.03407990  0.71861078  0.50040963  1
  O  O44  1  0.28448953  0.96901941  0.99959037  1
  O  O45  1  0.78508151  0.46847057  0.00047352  1
  O  O46  1  0.46847057  0.78508151  0.00047352  1
  O  O47  1  0.21894509  0.53555503  0.49952648  1
  O  O48  1  0.96901941  0.28448953  0.99959037  1
  O  O49  1  0.71861078  0.03407990  0.50040963  1
  O  O50  1  0.52561073  0.02561073  0.75000000  1
  O  O51  1  0.77710661  0.27566139  0.25000000  1
  O  O52  1  0.27566139  0.77710661  0.25000000  1
  O  O53  1  0.02561073  0.52561073  0.75000000  1
  O  O54  1  0.75639724  0.49296695  0.25000000  1
  O  O55  1  0.49296695  0.75639724  0.25000000  1
  O  O56  1  0.26198035  0.98874499  0.25000000  1
  O  O57  1  0.00760716  0.74527074  0.75048225  1
  O  O58  1  0.50809040  0.24575299  0.74951775  1
  O  O59  1  0.24575299  0.50809040  0.74951775  1
  O  O60  1  0.74527074  0.00760716  0.75048225  1
  O  O61  1  0.98874499  0.26198035  0.25000000  1
  O  O62  1  0.72240013  0.22240013  0.75000000  1
  O  O63  1  0.47608856  0.97461741  0.25000000  1
  O  O64  1  0.22240013  0.72240013  0.75000000  1
  O  O65  1  0.97461741  0.47608856  0.25000000  1
  O  O66  1  0.78106545  0.46563225  0.50003956  1
  O  O67  1  0.96604642  0.28239662  0.49996700  1
  O  O68  1  0.28239662  0.96604642  0.49996700  1
  O  O69  1  0.46563225  0.78106545  0.50003956  1
  O  O70  1  0.96109861  0.08278856  0.75262115  1
  O  O71  1  0.08278856  0.96109861  0.75262115  1
  O  O72  1  0.58540971  0.46371975  0.74737885  1
  O  O73  1  0.46371975  0.58540971  0.74737885  1
  O  O74  1  0.85057603  0.71794600  0.25000000  1
  O  O75  1  0.71794600  0.85057603  0.25000000  1
  O  O76  1  0.94849733  0.29814729  0.75016934  1
  O  O77  1  0.79831564  0.44866667  0.74983066  1
  O  O78  1  0.44866667  0.79831564  0.74983066  1
  O  O79  1  0.29814729  0.94849733  0.75016934  1
  O  O80  1  0.75001749  0.75001749  0.50188729  1
  O  O81  1  0.78138817  0.64806685  0.75154564  1
  O  O82  1  0.64806685  0.78138817  0.75154564  1
