# generated using pymatgen
data_VF5
_symmetry_space_group_name_H-M   'P 1'
_cell_length_a   7.21359930
_cell_length_b   6.59135823
_cell_length_c   8.70076567
_cell_angle_alpha   90.00000000
_cell_angle_beta   92.97250813
_cell_angle_gamma   90.00000000
_symmetry_Int_Tables_number   1
_chemical_formula_structural   VF5
_chemical_formula_sum   'V4 F20'
_cell_volume   413.14231572
_cell_formula_units_Z   4
loop_
 _symmetry_equiv_pos_site_id
 _symmetry_equiv_pos_as_xyz
  1  'x, y, z'
loop_
 _atom_site_type_symbol
 _atom_site_label
 _atom_site_symmetry_multiplicity
 _atom_site_fract_x
 _atom_site_fract_y
 _atom_site_fract_z
 _atom_site_occupancy
  V  V0  1  0.25389223  0.21933507  0.56795257  1
  V  V1  1  0.25389223  0.28066493  0.06795257  1
  V  V2  1  0.74610777  0.71933507  0.93204743  1
  V  V3  1  0.74610777  0.78066493  0.43204743  1
  F  F4  1  0.97674783  0.76577597  0.88549902  1
  F  F5  1  0.97674783  0.73422403  0.38549902  1
  F  F6  1  0.25364984  0.34800042  0.87409268  1
  F  F7  1  0.25364984  0.15199958  0.37409268  1
  F  F8  1  0.22700626  0.97368353  0.64679137  1
  F  F9  1  0.22700626  0.52631647  0.14679137  1
  F  F10  1  0.28169282  0.48348924  0.54587426  1
  F  F11  1  0.28169282  0.01651076  0.04587426  1
  F  F12  1  0.51537663  0.71241422  0.85551815  1
  F  F13  1  0.51537663  0.78758578  0.35551815  1
  F  F14  1  0.48462337  0.21241422  0.64448185  1
  F  F15  1  0.48462337  0.28758578  0.14448185  1
  F  F16  1  0.71830718  0.98348924  0.95412574  1
  F  F17  1  0.71830718  0.51651076  0.45412574  1
  F  F18  1  0.77299374  0.47368353  0.85320863  1
  F  F19  1  0.77299374  0.02631647  0.35320863  1
  F  F20  1  0.74635016  0.84800042  0.62590732  1
  F  F21  1  0.74635016  0.65199958  0.12590732  1
  F  F22  1  0.02325217  0.26577597  0.61450098  1
  F  F23  1  0.02325217  0.23422403  0.11450098  1
