# generated using pymatgen
data_Ho2Ge2O7
_symmetry_space_group_name_H-M   'P 1'
_cell_length_a   6.80559929
_cell_length_b   6.82756055
_cell_length_c   12.40479474
_cell_angle_alpha   94.87181280
_cell_angle_beta   88.23993122
_cell_angle_gamma   88.12705562
_symmetry_Int_Tables_number   1
_chemical_formula_structural   Ho2Ge2O7
_chemical_formula_sum   'Ho8 Ge8 O28'
_cell_volume   573.68284191
_cell_formula_units_Z   4
loop_
 _symmetry_equiv_pos_site_id
 _symmetry_equiv_pos_as_xyz
  1  'x, y, z'
loop_
 _atom_site_type_symbol
 _atom_site_label
 _atom_site_symmetry_multiplicity
 _atom_site_fract_x
 _atom_site_fract_y
 _atom_site_fract_z
 _atom_site_occupancy
  Ho  Ho0  1  0.05146353  0.66849881  0.88747474  1
  Ho  Ho1  1  0.11350792  0.90787631  0.64293988  1
  Ho  Ho2  1  0.31600788  0.16757792  0.88522964  1
  Ho  Ho3  1  0.37261023  0.78706966  0.36888567  1
  Ho  Ho4  1  0.62738977  0.21293034  0.63111433  1
  Ho  Ho5  1  0.68399212  0.83242208  0.11477036  1
  Ho  Ho6  1  0.88649208  0.09212369  0.35706012  1
  Ho  Ho7  1  0.94853647  0.33150119  0.11252526  1
  Ge  Ge8  1  0.13935196  0.37706578  0.62281546  1
  Ge  Ge9  1  0.16465109  0.85730660  0.11602022  1
  Ge  Ge10  1  0.38663531  0.27454060  0.40141947  1
  Ge  Ge11  1  0.51497618  0.66195706  0.83238872  1
  Ge  Ge12  1  0.48502382  0.33804294  0.16761128  1
  Ge  Ge13  1  0.61336469  0.72545940  0.59858053  1
  Ge  Ge14  1  0.83534891  0.14269340  0.88397978  1
  Ge  Ge15  1  0.86064804  0.62293422  0.37718454  1
  O  O16  1  0.00553667  0.33318638  0.92005526  1
  O  O17  1  0.98860775  0.02447553  0.18486397  1
  O  O18  1  0.04573724  0.78149985  0.42644556  1
  O  O19  1  0.06549534  0.59770382  0.69721452  1
  O  O20  1  0.24496599  0.90665579  0.98565788  1
  O  O21  1  0.22312750  0.08761378  0.37271174  1
  O  O22  1  0.28803915  0.20393097  0.68870158  1
  O  O23  1  0.29780365  0.44221574  0.51391464  1
  O  O24  1  0.28544356  0.28893191  0.08520798  1
  O  O25  1  0.36602644  0.78969896  0.18939790  1
  O  O26  1  0.34194327  0.50320618  0.88082544  1
  O  O27  1  0.38823922  0.86439957  0.78163383  1
  O  O28  1  0.40265903  0.84297009  0.55012188  1
  O  O29  1  0.39914465  0.45448695  0.30454882  1
  O  O30  1  0.60085535  0.54551305  0.69545118  1
  O  O31  1  0.59734097  0.15702991  0.44987812  1
  O  O32  1  0.61176078  0.13560043  0.21836617  1
  O  O33  1  0.65805673  0.49679382  0.11917456  1
  O  O34  1  0.63397356  0.21030104  0.81060210  1
  O  O35  1  0.71455644  0.71106809  0.91479202  1
  O  O36  1  0.70219635  0.55778426  0.48608536  1
  O  O37  1  0.71196085  0.79606903  0.31129842  1
  O  O38  1  0.77687250  0.91238622  0.62728826  1
  O  O39  1  0.75503401  0.09334421  0.01434212  1
  O  O40  1  0.93450466  0.40229618  0.30278548  1
  O  O41  1  0.95426276  0.21850015  0.57355444  1
  O  O42  1  0.01139225  0.97552447  0.81513603  1
  O  O43  1  0.99446333  0.66681362  0.07994474  1
