# generated using pymatgen
data_LiVF5
_symmetry_space_group_name_H-M   'P 1'
_cell_length_a   6.75046635
_cell_length_b   8.74524174
_cell_length_c   6.32268223
_cell_angle_alpha   90.00000000
_cell_angle_beta   85.46093550
_cell_angle_gamma   90.00000000
_symmetry_Int_Tables_number   1
_chemical_formula_structural   LiVF5
_chemical_formula_sum   'Li4 V4 F20'
_cell_volume   372.08545454
_cell_formula_units_Z   4
loop_
 _symmetry_equiv_pos_site_id
 _symmetry_equiv_pos_as_xyz
  1  'x, y, z'
loop_
 _atom_site_type_symbol
 _atom_site_label
 _atom_site_symmetry_multiplicity
 _atom_site_fract_x
 _atom_site_fract_y
 _atom_site_fract_z
 _atom_site_occupancy
  Li  Li0  1  0.78211222  0.89623658  0.74598790  1
  Li  Li1  1  0.71788778  0.39623658  0.75401210  1
  Li  Li2  1  0.28211222  0.60376342  0.24598790  1
  Li  Li3  1  0.21788778  0.10376342  0.25401210  1
  V  V4  1  0.93148130  0.37712096  0.18178146  1
  V  V5  1  0.56851870  0.87712096  0.31821854  1
  V  V6  1  0.43148130  0.12287904  0.68178146  1
  V  V7  1  0.06851870  0.62287904  0.81821854  1
  F  F8  1  0.97887402  0.60404469  0.13603685  1
  F  F9  1  0.95563435  0.16761618  0.18566707  1
  F  F10  1  0.83023369  0.39085949  0.45746138  1
  F  F11  1  0.80048895  0.61853920  0.77108415  1
  F  F12  1  0.81272341  0.88932948  0.41942003  1
  F  F13  1  0.69951105  0.11853920  0.72891585  1
  F  F14  1  0.68727659  0.38932948  0.08057997  1
  F  F15  1  0.66976631  0.89085949  0.04253862  1
  F  F16  1  0.54436565  0.66761618  0.31433293  1
  F  F17  1  0.52112598  0.10404469  0.36396315  1
  F  F18  1  0.47887402  0.89595531  0.63603685  1
  F  F19  1  0.45563435  0.33238382  0.68566707  1
  F  F20  1  0.33023369  0.10914051  0.95746138  1
  F  F21  1  0.31272341  0.61067052  0.91942003  1
  F  F22  1  0.30048895  0.88146080  0.27108415  1
  F  F23  1  0.18727659  0.11067052  0.58057997  1
  F  F24  1  0.19951105  0.38146080  0.22891585  1
  F  F25  1  0.16976631  0.60914051  0.54253862  1
  F  F26  1  0.04436565  0.83238382  0.81433293  1
  F  F27  1  0.02112598  0.39595531  0.86396315  1
