# generated using pymatgen
data_NiH12SO9
_symmetry_space_group_name_H-M   'P 1'
_cell_length_a   5.91889082
_cell_length_b   5.91889025
_cell_length_c   5.91889086
_cell_angle_alpha   95.51618358
_cell_angle_beta   95.51618092
_cell_angle_gamma   95.51617916
_symmetry_Int_Tables_number   1
_chemical_formula_structural   NiH12SO9
_chemical_formula_sum   'Ni1 H12 S1 O9'
_cell_volume   204.27689637
_cell_formula_units_Z   1
loop_
 _symmetry_equiv_pos_site_id
 _symmetry_equiv_pos_as_xyz
  1  'x, y, z'
loop_
 _atom_site_type_symbol
 _atom_site_label
 _atom_site_symmetry_multiplicity
 _atom_site_fract_x
 _atom_site_fract_y
 _atom_site_fract_z
 _atom_site_occupancy
  Ni  Ni0  1  0.00774519  0.00774519  0.00774519  1
  H  H1  1  0.97005777  0.03032973  0.55003568  1
  H  H2  1  0.03032973  0.55003568  0.97005777  1
  H  H3  1  0.06785963  0.40582671  0.28107041  1
  H  H4  1  0.13496440  0.63405096  0.74766543  1
  H  H5  1  0.18704948  0.80398296  0.37673887  1
  H  H6  1  0.28107041  0.06785963  0.40582671  1
  H  H7  1  0.37673887  0.18704948  0.80398296  1
  H  H8  1  0.40582671  0.28107041  0.06785963  1
  H  H9  1  0.63405096  0.74766543  0.13496440  1
  H  H10  1  0.55003568  0.97005777  0.03032973  1
  H  H11  1  0.74766543  0.13496440  0.63405096  1
  H  H12  1  0.80398296  0.37673887  0.18704948  1
  S  S13  1  0.49954476  0.49954476  0.49954476  1
  O  O14  1  0.08438324  0.68616618  0.89644163  1
  O  O15  1  0.14382770  0.95747051  0.34245647  1
  O  O16  1  0.24742561  0.55643222  0.48257347  1
  O  O17  1  0.34245647  0.14382770  0.95747051  1
  O  O18  1  0.48257347  0.24742561  0.55643222  1
  O  O19  1  0.55643222  0.48257347  0.24742561  1
  O  O20  1  0.68616618  0.89644163  0.08438324  1
  O  O21  1  0.89644163  0.08438324  0.68616618  1
  O  O22  1  0.95747051  0.34245647  0.14382770  1
