# generated using pymatgen
data_CuNi9O10
_symmetry_space_group_name_H-M   'P 1'
_cell_length_a   5.95708529
_cell_length_b   5.14769633
_cell_length_c   6.64529922
_cell_angle_alpha   82.38602469
_cell_angle_beta   77.36816571
_cell_angle_gamma   106.02114705
_symmetry_Int_Tables_number   1
_chemical_formula_structural   CuNi9O10
_chemical_formula_sum   'Cu1 Ni9 O10'
_cell_volume   187.04009248
_cell_formula_units_Z   1
loop_
 _symmetry_equiv_pos_site_id
 _symmetry_equiv_pos_as_xyz
  1  'x, y, z'
loop_
 _atom_site_type_symbol
 _atom_site_label
 _atom_site_symmetry_multiplicity
 _atom_site_fract_x
 _atom_site_fract_y
 _atom_site_fract_z
 _atom_site_occupancy
  Cu  Cu0  1  0.90000000  0.20000000  0.60000000  1
  Ni  Ni1  1  0.49952974  0.99913447  0.99926367  1
  Ni  Ni2  1  0.00015845  0.99986329  0.99984346  1
  Ni  Ni3  1  0.79984155  0.40013671  0.20015654  1
  Ni  Ni4  1  0.30047026  0.40086553  0.20073633  1
  Ni  Ni5  1  0.10214785  0.79941161  0.39967165  1
  Ni  Ni6  1  0.40000000  0.20000000  0.60000000  1
  Ni  Ni7  1  0.60282084  0.80256918  0.40047482  1
  Ni  Ni8  1  0.69785215  0.60058839  0.80032835  1
  Ni  Ni9  1  0.19717916  0.59743082  0.79952518  1
  O  O10  1  0.45075332  0.10156170  0.29955705  1
  O  O11  1  0.14851251  0.69935540  0.10106290  1
  O  O12  1  0.94986007  0.09766577  0.29777793  1
  O  O13  1  0.65148749  0.70064460  0.09893710  1
  O  O14  1  0.26735861  0.51327903  0.49426222  1
  O  O15  1  0.75340658  0.49559455  0.50153639  1
  O  O16  1  0.53264139  0.88672097  0.70573778  1
  O  O17  1  0.04659342  0.90440545  0.69846361  1
  O  O18  1  0.34924668  0.29843830  0.90044295  1
  O  O19  1  0.85013993  0.30233423  0.90222207  1
