# generated using pymatgen
data_Li10Ti11Nb6O42
_symmetry_space_group_name_H-M   'P 1'
_cell_length_a   5.17763955
_cell_length_b   5.17763644
_cell_length_c   33.00673628
_cell_angle_alpha   90.00043827
_cell_angle_beta   89.99975991
_cell_angle_gamma   120.00051294
_symmetry_Int_Tables_number   1
_chemical_formula_structural   Li10Ti11Nb6O42
_chemical_formula_sum   'Li10 Ti11 Nb6 O42'
_cell_volume   766.29207679
_cell_formula_units_Z   1
loop_
 _symmetry_equiv_pos_site_id
 _symmetry_equiv_pos_as_xyz
  1  'x, y, z'
loop_
 _atom_site_type_symbol
 _atom_site_label
 _atom_site_symmetry_multiplicity
 _atom_site_fract_x
 _atom_site_fract_y
 _atom_site_fract_z
 _atom_site_occupancy
  Li  Li0  1  0.33332999  0.66667173  0.19301166  1
  Li  Li1  1  0.00000607  0.99999780  0.05548630  1
  Li  Li2  1  0.00000389  -0.00000048  0.55440911  1
  Li  Li3  1  0.99999873  0.00000033  0.74021949  1
  Li  Li4  1  0.00000248  0.00000400  0.94685828  1
  Li  Li5  1  0.33334578  0.66667143  0.87425718  1
  Li  Li6  1  0.33334858  0.66667362  0.69391798  1
  Li  Li7  1  0.66665937  0.33332463  0.80459086  1
  Li  Li8  1  0.66665651  0.33332045  0.62766612  1
  Li  Li9  1  0.66668449  0.33333652  0.12702435  1
  Ti  Ti10  1  0.33333444  0.66666439  0.99012487  1
  Ti  Ti11  1  0.33333305  0.66666003  0.08167444  1
  Ti  Ti12  1  0.33332316  0.66666300  0.49065492  1
  Ti  Ti13  1  0.33332993  0.66665178  0.58186943  1
  Ti  Ti14  1  0.33334889  0.66668727  0.27837066  1
  Ti  Ti15  1  0.33334336  0.66668009  0.36922174  1
  Ti  Ti16  1  0.66666459  0.33333113  0.71523309  1
  Ti  Ti17  1  0.66666871  0.33332661  0.51101234  1
  Ti  Ti18  1  0.66665691  0.33335247  0.42555669  1
  Ti  Ti19  1  0.66666111  0.33333512  0.01047490  1
  Ti  Ti20  1  0.66667688  0.33333866  0.92044919  1
  Nb  Nb21  1  0.00000943  0.99999668  0.64652946  1
  Nb  Nb22  1  0.00000478  -0.00000137  0.14708055  1
  Nb  Nb23  1  0.99999871  0.99999214  0.85567279  1
  Nb  Nb24  1  0.00000505  0.00000811  0.35157501  1
  Nb  Nb25  1  0.33333221  0.66666472  0.78404349  1
  Nb  Nb26  1  0.66666426  0.33334773  0.21842383  1
  O  O27  1  0.03880073  0.71049471  0.10729235  1
  O  O28  1  0.01082315  0.62239469  0.24930391  1
  O  O29  1  0.04144828  0.70176248  0.82150693  1
  O  O30  1  0.02249393  0.63180975  0.53410554  1
  O  O31  1  0.29287936  0.96368402  0.60713843  1
  O  O32  1  0.99656357  0.37797384  0.74911776  1
  O  O33  1  0.28192384  0.92396642  0.32550948  1
  O  O34  1  0.02206119  0.38994638  0.03386124  1
  O  O35  1  0.03630834  0.32919432  0.60714118  1
  O  O36  1  0.07604261  0.35794028  0.32550676  1
  O  O37  1  0.36786945  0.97793693  0.03386058  1
  O  O38  1  0.60932777  0.97751332  0.53410572  1
  O  O39  1  0.29823097  0.33969844  0.82150817  1
  O  O40  1  0.28949262  0.32829553  0.10729325  1
  O  O41  1  0.33844807  0.33149896  0.39187565  1
  O  O42  1  0.36818852  0.39068086  0.53410498  1
  O  O43  1  0.66029450  0.95853215  0.82150977  1
  O  O44  1  0.37759742  0.38843845  0.24930276  1
  O  O45  1  0.33914863  0.29144155  0.67906667  1
  O  O46  1  0.67168781  0.96118218  0.10729424  1
  O  O47  1  0.39128884  0.36963288  0.96483318  1
  O  O48  1  0.61004753  0.63212214  0.03386233  1
  O  O49  1  0.32954347  0.03819105  0.89257317  1
  O  O50  1  0.64206531  0.71808995  0.32550619  1
  O  O51  1  0.62202018  0.61859672  0.74911729  1
  O  O52  1  0.34427371  0.04365600  0.17797469  1
  O  O53  1  0.60463842  0.58235177  0.46406818  1
  O  O54  1  0.67079744  0.70710409  0.60714154  1
  O  O55  1  0.70864270  0.67045483  0.89257325  1
  O  O56  1  0.38141859  0.00345209  0.74911959  1
  O  O57  1  0.69936594  0.65569550  0.17797300  1
  O  O58  1  0.41765151  0.02228076  0.46406774  1
  O  O59  1  0.63037000  0.02164881  0.96483477  1
  O  O60  1  0.95232216  0.66088078  0.67906958  1
  O  O61  1  0.61156793  0.98916735  0.24929950  1
  O  O62  1  0.99305769  0.66154653  0.39187670  1
  O  O63  1  0.97834550  0.60871650  0.96483342  1
  O  O64  1  0.70858304  0.04771263  0.67906769  1
  O  O65  1  0.66850415  0.00693605  0.39187746  1
  O  O66  1  0.97770645  0.39536088  0.46406913  1
  O  O67  1  0.95631300  0.30060134  0.17797401  1
  O  O68  1  0.96181133  0.29136153  0.89257247  1
