# generated using pymatgen
data_LiMn2O3F
_symmetry_space_group_name_H-M   'P 1'
_cell_length_a   5.85779996
_cell_length_b   6.13808613
_cell_length_c   8.75917336
_cell_angle_alpha   90.00000000
_cell_angle_beta   90.00000000
_cell_angle_gamma   89.48763842
_symmetry_Int_Tables_number   1
_chemical_formula_structural   LiMn2O3F
_chemical_formula_sum   'Li4 Mn8 O12 F4'
_cell_volume   314.92944825
_cell_formula_units_Z   4
loop_
 _symmetry_equiv_pos_site_id
 _symmetry_equiv_pos_as_xyz
  1  'x, y, z'
loop_
 _atom_site_type_symbol
 _atom_site_label
 _atom_site_symmetry_multiplicity
 _atom_site_fract_x
 _atom_site_fract_y
 _atom_site_fract_z
 _atom_site_occupancy
  Li  Li0  1  0.97022206  0.99945939  0.02051928  1
  Li  Li1  1  0.47022206  0.99945939  0.22948072  1
  Li  Li2  1  0.52977794  0.50054061  0.52051928  1
  Li  Li3  1  0.02977794  0.50054061  0.72948072  1
  Mn  Mn4  1  0.75277894  0.49943655  0.13280929  1
  Mn  Mn5  1  0.74722106  0.00056345  0.63280929  1
  Mn  Mn6  1  0.25277894  0.49943655  0.11719071  1
  Mn  Mn7  1  0.24722106  0.00056345  0.61719071  1
  Mn  Mn8  1  0.00000000  0.25000000  0.37500000  1
  Mn  Mn9  1  0.50000000  0.25000000  0.87500000  1
  Mn  Mn10  1  0.00000000  0.75000000  0.37500000  1
  Mn  Mn11  1  0.50000000  0.75000000  0.87500000  1
  O  O12  1  0.50602259  0.28523510  0.10031227  1
  O  O13  1  0.00306626  0.71368851  0.14958022  1
  O  O14  1  0.50306626  0.71368851  0.10041978  1
  O  O15  1  0.79933967  0.50191935  0.38308155  1
  O  O16  1  0.99397741  0.21476490  0.60031227  1
  O  O17  1  0.00602259  0.28523510  0.14968773  1
  O  O18  1  0.49397741  0.21476490  0.64968773  1
  O  O19  1  0.20066033  0.99808065  0.36691845  1
  O  O20  1  0.49693374  0.78631149  0.64958022  1
  O  O21  1  0.29933967  0.50191935  0.86691845  1
  O  O22  1  0.70066033  0.99808065  0.88308155  1
  O  O23  1  0.99693374  0.78631149  0.60041978  1
  F  F24  1  0.71973571  0.00348350  0.37071586  1
  F  F25  1  0.28026429  0.49651650  0.37928414  1
  F  F26  1  0.21973571  0.00348350  0.87928414  1
  F  F27  1  0.78026429  0.49651650  0.87071586  1
