# generated using pymatgen
data_Sn2P2O7
_symmetry_space_group_name_H-M   'P 1'
_cell_length_a   7.65419372
_cell_length_b   9.54389221
_cell_length_c   9.66416237
_cell_angle_alpha   90.00000000
_cell_angle_beta   112.59907991
_cell_angle_gamma   90.00000000
_symmetry_Int_Tables_number   1
_chemical_formula_structural   Sn2P2O7
_chemical_formula_sum   'Sn8 P8 O28'
_cell_volume   651.76749635
_cell_formula_units_Z   4
loop_
 _symmetry_equiv_pos_site_id
 _symmetry_equiv_pos_as_xyz
  1  'x, y, z'
loop_
 _atom_site_type_symbol
 _atom_site_label
 _atom_site_symmetry_multiplicity
 _atom_site_fract_x
 _atom_site_fract_y
 _atom_site_fract_z
 _atom_site_occupancy
  Sn  Sn0  1  0.12490777  0.94880087  0.88867612  1
  Sn  Sn1  1  0.11856910  0.55155702  0.87309605  1
  Sn  Sn2  1  0.38143090  0.05155702  0.62690395  1
  Sn  Sn3  1  0.37509223  0.44880087  0.61132388  1
  Sn  Sn4  1  0.62490777  0.55119913  0.38867612  1
  Sn  Sn5  1  0.61856910  0.94844298  0.37309605  1
  Sn  Sn6  1  0.88143090  0.44844298  0.12690395  1
  Sn  Sn7  1  0.87509223  0.05119913  0.11132388  1
  P  P8  1  0.43677180  0.25986994  0.94032999  1
  P  P9  1  0.06322820  0.75986994  0.55967001  1
  P  P10  1  0.69804623  0.75209098  0.80180876  1
  P  P11  1  0.80195377  0.25209098  0.69819124  1
  P  P12  1  0.19804623  0.74790902  0.30180876  1
  P  P13  1  0.30195377  0.24790902  0.19819124  1
  P  P14  1  0.93677180  0.24013006  0.44032999  1
  P  P15  1  0.56322820  0.74013006  0.05967001  1
  O  O16  1  0.35906253  0.74654905  0.94705370  1
  O  O17  1  0.37620941  0.12271002  0.84786215  1
  O  O18  1  0.38915204  0.39454143  0.84208211  1
  O  O19  1  0.11084796  0.89454143  0.65791789  1
  O  O20  1  0.12379059  0.62271002  0.65213785  1
  O  O21  1  0.70313376  0.72331357  0.97118027  1
  O  O22  1  0.14093747  0.24654905  0.55294630  1
  O  O23  1  0.58666341  0.25584012  0.66860958  1
  O  O24  1  0.20313376  0.77668643  0.47118027  1
  O  O25  1  0.60735636  0.89450277  0.75345193  1
  O  O26  1  0.89673319  0.12730928  0.79567823  1
  O  O27  1  0.60326681  0.62730928  0.70432177  1
  O  O28  1  0.89264364  0.39450277  0.74654807  1
  O  O29  1  0.91333659  0.75584012  0.83139042  1
  O  O30  1  0.08666341  0.24415988  0.16860958  1
  O  O31  1  0.10735636  0.60549723  0.25345193  1
  O  O32  1  0.39673319  0.37269072  0.29567823  1
  O  O33  1  0.10326681  0.87269072  0.20432177  1
  O  O34  1  0.39264364  0.10549723  0.24654807  1
  O  O35  1  0.79686624  0.22331357  0.52881973  1
  O  O36  1  0.41333659  0.74415988  0.33139042  1
  O  O37  1  0.85906253  0.75345095  0.44705370  1
  O  O38  1  0.29686624  0.27668643  0.02881973  1
  O  O39  1  0.87620941  0.37728998  0.34786215  1
  O  O40  1  0.88915204  0.10545857  0.34208211  1
  O  O41  1  0.61084796  0.60545857  0.15791789  1
  O  O42  1  0.62379059  0.87728998  0.15213785  1
  O  O43  1  0.64093747  0.25345095  0.05294630  1
