# generated using pymatgen
data_Mn9CdO10
_symmetry_space_group_name_H-M   'P 1'
_cell_length_a   5.56955301
_cell_length_b   8.50715710
_cell_length_c   5.56924750
_cell_angle_alpha   70.89337372
_cell_angle_beta   109.53114349
_cell_angle_gamma   96.28255996
_symmetry_Int_Tables_number   1
_chemical_formula_structural   Mn9CdO10
_chemical_formula_sum   'Mn9 Cd1 O10'
_cell_volume   234.99311192
_cell_formula_units_Z   1
loop_
 _symmetry_equiv_pos_site_id
 _symmetry_equiv_pos_as_xyz
  1  'x, y, z'
loop_
 _atom_site_type_symbol
 _atom_site_label
 _atom_site_symmetry_multiplicity
 _atom_site_fract_x
 _atom_site_fract_y
 _atom_site_fract_z
 _atom_site_occupancy
  Mn  Mn0  1  0.50000000  0.39827972  0.30086014  1
  Mn  Mn1  1  0.00000000  0.00190684  0.99904658  1
  Mn  Mn2  1  0.50000000  0.00199567  0.49900217  1
  Mn  Mn3  1  0.00000000  0.59809316  0.20095342  1
  Mn  Mn4  1  0.00000000  0.20279240  0.39860380  1
  Mn  Mn5  1  0.50000000  0.20172028  0.89913986  1
  Mn  Mn6  1  0.50000000  0.59800433  0.70099783  1
  Mn  Mn7  1  0.00000000  0.39720760  0.80139620  1
  Mn  Mn8  1  0.00000000  0.80000000  0.60000000  1
  Cd  Cd9  1  0.50000000  0.80000000  0.10000000  1
  O  O10  1  0.75689634  0.00867048  0.25249012  1
  O  O11  1  0.74850520  0.40100014  0.05110365  1
  O  O12  1  0.74850520  0.19899986  0.65210379  1
  O  O13  1  0.75689634  0.59132952  0.46115960  1
  O  O14  1  0.25149480  0.19899986  0.14889635  1
  O  O15  1  0.24021366  0.80000000  0.35984477  1
  O  O16  1  0.75978634  0.80000000  0.84015523  1
  O  O17  1  0.24310366  0.00867048  0.73884040  1
  O  O18  1  0.25149480  0.40100014  0.54789621  1
  O  O19  1  0.24310366  0.59132952  0.94750988  1
