# generated using pymatgen
data_InHSeO4
_symmetry_space_group_name_H-M   'P 1'
_cell_length_a   4.93652497
_cell_length_b   6.42661396
_cell_length_c   11.77510407
_cell_angle_alpha   90.00000000
_cell_angle_beta   90.00000000
_cell_angle_gamma   90.00000000
_symmetry_Int_Tables_number   1
_chemical_formula_structural   InHSeO4
_chemical_formula_sum   'In4 H4 Se4 O16'
_cell_volume   373.56682850
_cell_formula_units_Z   4
loop_
 _symmetry_equiv_pos_site_id
 _symmetry_equiv_pos_as_xyz
  1  'x, y, z'
loop_
 _atom_site_type_symbol
 _atom_site_label
 _atom_site_symmetry_multiplicity
 _atom_site_fract_x
 _atom_site_fract_y
 _atom_site_fract_z
 _atom_site_occupancy
  In  In0  1  0.48696074  0.48603752  0.98976474  1
  In  In1  1  0.98696074  0.98603752  0.51023526  1
  In  In2  1  0.51303926  0.98603752  0.01023526  1
  In  In3  1  0.01303926  0.48603752  0.48976474  1
  H  H4  1  0.97981688  0.58350914  0.13162193  1
  H  H5  1  0.02018312  0.08350914  0.86837807  1
  H  H6  1  0.47981688  0.08350914  0.36837807  1
  H  H7  1  0.52018312  0.58350914  0.63162193  1
  Se  Se8  1  0.01798415  0.23663926  0.19473694  1
  Se  Se9  1  0.48201585  0.23663926  0.69473694  1
  Se  Se10  1  0.98201585  0.73663926  0.80526306  1
  Se  Se11  1  0.51798415  0.73663926  0.30526306  1
  O  O12  1  0.22807814  0.23251685  0.07425842  1
  O  O13  1  0.27192186  0.23251685  0.57425842  1
  O  O14  1  0.77192186  0.73251685  0.92574158  1
  O  O15  1  0.72807814  0.73251685  0.42574158  1
  O  O16  1  0.83558272  0.47960268  0.14956770  1
  O  O17  1  0.72200987  0.05846467  0.66530117  1
  O  O18  1  0.16441728  0.97960268  0.85043230  1
  O  O19  1  0.27799013  0.55846467  0.33469883  1
  O  O20  1  0.22200987  0.55846467  0.83469883  1
  O  O21  1  0.33558272  0.97960268  0.35043230  1
  O  O22  1  0.77799013  0.05846467  0.16530117  1
  O  O23  1  0.66441728  0.47960268  0.64956770  1
  O  O24  1  0.33316512  0.72982988  0.08359996  1
  O  O25  1  0.16683488  0.72982988  0.58359996  1
  O  O26  1  0.66683488  0.22982988  0.91640004  1
  O  O27  1  0.83316512  0.22982988  0.41640004  1
