# generated using pymatgen
data_Li5Fe2P2(CO7)2
_symmetry_space_group_name_H-M   'P 1'
_cell_length_a   8.40991185
_cell_length_b   5.07278264
_cell_length_c   6.49593077
_cell_angle_alpha   89.48752882
_cell_angle_beta   89.43161925
_cell_angle_gamma   84.76441533
_symmetry_Int_Tables_number   1
_chemical_formula_structural   Li5Fe2P2(CO7)2
_chemical_formula_sum   'Li5 Fe2 P2 C2 O14'
_cell_volume   275.94838726
_cell_formula_units_Z   1
loop_
 _symmetry_equiv_pos_site_id
 _symmetry_equiv_pos_as_xyz
  1  'x, y, z'
loop_
 _atom_site_type_symbol
 _atom_site_label
 _atom_site_symmetry_multiplicity
 _atom_site_fract_x
 _atom_site_fract_y
 _atom_site_fract_z
 _atom_site_occupancy
  Li  Li0  1  0.10005715  0.77292850  0.24188652  1
  Li  Li1  1  0.28125835  0.24145239  0.45202287  1
  Li  Li2  1  0.73544082  0.74546509  0.49837969  1
  Li  Li3  1  0.73423100  0.74097193  0.99728536  1
  Li  Li4  1  0.90205050  0.23808353  0.75363286  1
  Fe  Fe5  1  0.32985561  0.79647335  0.75951923  1
  Fe  Fe6  1  0.66605108  0.21207658  0.24809451  1
  P  P7  1  0.41434960  0.71511493  0.25814136  1
  P  P8  1  0.58228048  0.26768608  0.74487468  1
  C  C9  1  0.03783324  0.70635982  0.74278600  1
  C  C10  1  0.96197025  0.31112939  0.25778916  1
  O  O11  1  0.07326583  0.95026732  0.75503951  1
  O  O12  1  0.10102637  0.38009118  0.28728641  1
  O  O13  1  0.15802268  0.52785892  0.73191286  1
  O  O14  1  0.31222168  0.78439831  0.06263056  1
  O  O15  1  0.30745988  0.83648796  0.43910708  1
  O  O16  1  0.42213603  0.14394042  0.73119144  1
  O  O17  1  0.44138252  0.41381070  0.29127842  1
  O  O18  1  0.54634031  0.57794037  0.74741606  1
  O  O19  1  0.57734673  0.83281799  0.24711641  1
  O  O20  1  0.69883977  0.18290911  0.56510527  1
  O  O21  1  0.68357291  0.17340725  0.93431062  1
  O  O22  1  0.84071704  0.49621202  0.23863022  1
  O  O23  1  0.89180325  0.64199145  0.74485980  1
  O  O24  1  0.92937394  0.06489543  0.24771510  1
