# generated using pymatgen
data_K3VPCO7
_symmetry_space_group_name_H-M   'P 1'
_cell_length_a   9.74153605
_cell_length_b   6.99236471
_cell_length_c   5.67427142
_cell_angle_alpha   90.00000000
_cell_angle_beta   89.97621436
_cell_angle_gamma   90.00000000
_symmetry_Int_Tables_number   1
_chemical_formula_structural   K3VPCO7
_chemical_formula_sum   'K6 V2 P2 C2 O14'
_cell_volume   386.51075479
_cell_formula_units_Z   2
loop_
 _symmetry_equiv_pos_site_id
 _symmetry_equiv_pos_as_xyz
  1  'x, y, z'
loop_
 _atom_site_type_symbol
 _atom_site_label
 _atom_site_symmetry_multiplicity
 _atom_site_fract_x
 _atom_site_fract_y
 _atom_site_fract_z
 _atom_site_occupancy
  K  K0  1  0.07347771  0.25000000  0.76042510  1
  K  K1  1  0.28348845  0.01221458  0.25647483  1
  K  K2  1  0.28348845  0.48778542  0.25647483  1
  K  K3  1  0.71651155  0.51221458  0.74352517  1
  K  K4  1  0.71651155  0.98778542  0.74352517  1
  K  K5  1  0.92652229  0.75000000  0.23957490  1
  V  V6  1  0.35112447  0.75000000  0.76589576  1
  V  V7  1  0.64887553  0.25000000  0.23410424  1
  P  P8  1  0.41969885  0.25000000  0.72669440  1
  P  P9  1  0.58030115  0.75000000  0.27330560  1
  C  C10  1  0.08349802  0.75000000  0.74166844  1
  C  C11  1  0.91650198  0.25000000  0.25833156  1
  O  O12  1  0.04884998  0.25000000  0.26670420  1
  O  O13  1  0.14927811  0.75000000  0.94291991  1
  O  O14  1  0.15838263  0.75000000  0.54916064  1
  O  O15  1  0.32725751  0.06959937  0.76462985  1
  O  O16  1  0.32725751  0.43040063  0.76462985  1
  O  O17  1  0.47438101  0.25000000  0.46822854  1
  O  O18  1  0.45826367  0.75000000  0.09848916  1
  O  O19  1  0.54173633  0.25000000  0.90151084  1
  O  O20  1  0.52561899  0.75000000  0.53177146  1
  O  O21  1  0.67274249  0.56959937  0.23537015  1
  O  O22  1  0.67274249  0.93040063  0.23537015  1
  O  O23  1  0.84161737  0.25000000  0.45083936  1
  O  O24  1  0.85072189  0.25000000  0.05708009  1
  O  O25  1  0.95115002  0.75000000  0.73329580  1
