# generated using pymatgen
data_Tb2(WO4)3
_symmetry_space_group_name_H-M   'P 1'
_cell_length_a   6.96114502
_cell_length_b   6.95578316
_cell_length_c   11.47165766
_cell_angle_alpha   78.89736223
_cell_angle_beta   100.97450006
_cell_angle_gamma   68.02683260
_symmetry_Int_Tables_number   1
_chemical_formula_structural   Tb2(WO4)3
_chemical_formula_sum   'Tb4 W6 O24'
_cell_volume   483.99595739
_cell_formula_units_Z   2
loop_
 _symmetry_equiv_pos_site_id
 _symmetry_equiv_pos_as_xyz
  1  'x, y, z'
loop_
 _atom_site_type_symbol
 _atom_site_label
 _atom_site_symmetry_multiplicity
 _atom_site_fract_x
 _atom_site_fract_y
 _atom_site_fract_z
 _atom_site_occupancy
  Tb  Tb0  1  0.30484877  0.94771613  0.59367575  1
  Tb  Tb1  1  0.05096805  0.69477696  0.09313105  1
  Tb  Tb2  1  0.94863677  0.30589597  0.90544941  1
  Tb  Tb3  1  0.69358428  0.05160387  0.40603347  1
  W  W4  1  0.49214655  0.79442664  0.95139930  1
  W  W5  1  0.20408367  0.50798997  0.45189206  1
  W  W6  1  0.87894701  0.88498397  0.74901667  1
  W  W7  1  0.11586167  0.11800079  0.24881235  1
  W  W8  1  0.79653432  0.49183474  0.54853634  1
  W  W9  1  0.50728585  0.20264546  0.04774234  1
  O  O10  1  0.34793871  0.79390057  0.80021035  1
  O  O11  1  0.59024211  0.98876223  0.72187813  1
  O  O12  1  0.97325482  0.94679822  0.89274474  1
  O  O13  1  0.33125420  0.60482233  0.56239904  1
  O  O14  1  0.78009381  0.61594898  0.96306252  1
  O  O15  1  0.10222376  0.31981648  0.57419138  1
  O  O16  1  0.19799626  0.65586976  0.29951196  1
  O  O17  1  0.32177210  0.10118556  0.92401999  1
  O  O18  1  0.62026530  0.77967287  0.53927482  1
  O  O19  1  0.60671942  0.32709408  0.93774957  1
  O  O20  1  0.94335428  0.97669912  0.60522328  1
  O  O21  1  0.01170047  0.40715552  0.21964987  1
  O  O22  1  0.98700763  0.59562805  0.77892465  1
  O  O23  1  0.05133971  0.02790813  0.39284650  1
  O  O24  1  0.39311578  0.67055561  0.06258173  1
  O  O25  1  0.38174490  0.22086070  0.46189119  1
  O  O26  1  0.67813708  0.89635639  0.07449777  1
  O  O27  1  0.79893944  0.34475557  0.70022512  1
  O  O28  1  0.89892313  0.67961881  0.42725438  1
  O  O29  1  0.21979596  0.38182881  0.03673218  1
  O  O30  1  0.66873943  0.39762484  0.43709411  1
  O  O31  1  0.02677777  0.05431173  0.10441932  1
  O  O32  1  0.40468699  0.01228216  0.27920520  1
  O  O33  1  0.65365300  0.20079498  0.19919250  1
