# generated using pymatgen
data_Li(CoO2)2
_symmetry_space_group_name_H-M   'P 1'
_cell_length_a   4.86000537
_cell_length_b   5.62396092
_cell_length_c   10.10389631
_cell_angle_alpha   90.00730017
_cell_angle_beta   89.99647235
_cell_angle_gamma   89.99920330
_symmetry_Int_Tables_number   1
_chemical_formula_structural   Li(CoO2)2
_chemical_formula_sum   'Li4 Co8 O16'
_cell_volume   276.16454386
_cell_formula_units_Z   4
loop_
 _symmetry_equiv_pos_site_id
 _symmetry_equiv_pos_as_xyz
  1  'x, y, z'
loop_
 _atom_site_type_symbol
 _atom_site_label
 _atom_site_symmetry_multiplicity
 _atom_site_fract_x
 _atom_site_fract_y
 _atom_site_fract_z
 _atom_site_occupancy
  Li  Li0  1  0.02028332  0.74998621  0.24993673  1
  Li  Li1  1  0.35669946  0.74993335  0.75007186  1
  Li  Li2  1  0.64325315  0.25006717  0.24992614  1
  Li  Li3  1  0.97970483  0.25001425  0.75006301  1
  Co  Co4  1  0.00391166  0.24999945  0.00499595  1
  Co  Co5  1  0.99609396  0.75000024  0.99500754  1
  Co  Co6  1  0.00390858  0.24999810  0.49501161  1
  Co  Co7  1  0.99609681  0.75000208  0.50498594  1
  Co  Co8  1  0.50000203  -0.00000936  0.00000270  1
  Co  Co9  1  0.50000228  -0.00000004  0.49999725  1
  Co  Co10  1  0.50000226  0.50000887  0.00000227  1
  Co  Co11  1  0.50000225  0.50000028  0.49999726  1
  O  O12  1  0.17035978  0.00150680  0.60021643  1
  O  O13  1  0.17038737  0.00145375  0.89979118  1
  O  O14  1  0.17036684  0.49852860  0.60021449  1
  O  O15  1  0.17038498  0.49849653  0.89978906  1
  O  O16  1  0.34607920  0.25002410  0.09946624  1
  O  O17  1  0.34610453  0.24997918  0.40052623  1
  O  O18  1  0.32593046  0.75001882  0.09492198  1
  O  O19  1  0.32595757  0.74998027  0.40506511  1
  O  O20  1  0.67405018  0.25002011  0.59493105  1
  O  O21  1  0.67406845  0.24998028  0.90507837  1
  O  O22  1  0.65389590  0.75002115  0.59946798  1
  O  O23  1  0.65393245  0.74997556  0.90054224  1
  O  O24  1  0.82964539  0.99849586  0.39978118  1
  O  O25  1  0.82963787  0.50146888  0.39978296  1
  O  O26  1  0.82961791  0.99853347  0.10021271  1
  O  O27  1  0.82962049  0.50151604  0.10021452  1
