# generated using pymatgen
data_Li2Cr2(SO4)3
_symmetry_space_group_name_H-M   'P 1'
_cell_length_a   13.23570694
_cell_length_b   8.62601017
_cell_length_c   8.78089597
_cell_angle_alpha   90.00000000
_cell_angle_beta   90.00000000
_cell_angle_gamma   90.00000000
_symmetry_Int_Tables_number   1
_chemical_formula_structural   Li2Cr2(SO4)3
_chemical_formula_sum   'Li8 Cr8 S12 O48'
_cell_volume   1002.52668275
_cell_formula_units_Z   4
loop_
 _symmetry_equiv_pos_site_id
 _symmetry_equiv_pos_as_xyz
  1  'x, y, z'
loop_
 _atom_site_type_symbol
 _atom_site_label
 _atom_site_symmetry_multiplicity
 _atom_site_fract_x
 _atom_site_fract_y
 _atom_site_fract_z
 _atom_site_occupancy
  Li  Li0  1  0.18522635  0.22330441  0.27739055  1
  Li  Li1  1  0.18522635  0.77669559  0.77739055  1
  Li  Li2  1  0.31477365  0.27669559  0.77739055  1
  Li  Li3  1  0.31477365  0.72330441  0.27739055  1
  Li  Li4  1  0.68522635  0.27669559  0.72260945  1
  Li  Li5  1  0.68522635  0.72330441  0.22260945  1
  Li  Li6  1  0.81477365  0.22330441  0.22260945  1
  Li  Li7  1  0.81477365  0.77669559  0.72260945  1
  Cr  Cr8  1  0.10851653  0.24927569  0.96033786  1
  Cr  Cr9  1  0.10851653  0.75072431  0.46033786  1
  Cr  Cr10  1  0.39148347  0.74927569  0.96033786  1
  Cr  Cr11  1  0.39148347  0.25072431  0.46033786  1
  Cr  Cr12  1  0.60851653  0.25072431  0.03966214  1
  Cr  Cr13  1  0.60851653  0.74927569  0.53966214  1
  Cr  Cr14  1  0.89148347  0.24927569  0.53966214  1
  Cr  Cr15  1  0.89148347  0.75072431  0.03966214  1
  S  S16  1  0.00000000  0.45511733  0.25000000  1
  S  S17  1  0.00000000  0.54488267  0.75000000  1
  S  S18  1  0.14495803  0.09919489  0.60705819  1
  S  S19  1  0.14495803  0.90080511  0.10705819  1
  S  S20  1  0.35504197  0.40080511  0.10705819  1
  S  S21  1  0.35504197  0.59919489  0.60705819  1
  S  S22  1  0.50000000  0.04488267  0.75000000  1
  S  S23  1  0.50000000  0.95511733  0.25000000  1
  S  S24  1  0.64495803  0.40080511  0.39294181  1
  S  S25  1  0.64495803  0.59919489  0.89294181  1
  S  S26  1  0.85504197  0.09919489  0.89294181  1
  S  S27  1  0.85504197  0.90080511  0.39294181  1
  O  O28  1  0.03841061  0.13218301  0.58319073  1
  O  O29  1  0.03841061  0.86781699  0.08319073  1
  O  O30  1  0.05457620  0.54770746  0.36318753  1
  O  O31  1  0.05457620  0.45229254  0.86318753  1
  O  O32  1  0.07658713  0.35238893  0.17432245  1
  O  O33  1  0.07658713  0.64761107  0.67432245  1
  O  O34  1  0.16172851  0.07367198  0.11284541  1
  O  O35  1  0.16172851  0.92632802  0.61284541  1
  O  O36  1  0.18107102  0.16504632  0.75681470  1
  O  O37  1  0.18107102  0.83495368  0.25681470  1
  O  O38  1  0.20911883  0.83595436  0.98408740  1
  O  O39  1  0.20911883  0.16404564  0.48408740  1
  O  O40  1  0.29088117  0.33595436  0.98408740  1
  O  O41  1  0.29088117  0.66404564  0.48408740  1
  O  O42  1  0.31892898  0.66504632  0.75681470  1
  O  O43  1  0.31892898  0.33495368  0.25681470  1
  O  O44  1  0.33827149  0.42632802  0.61284541  1
  O  O45  1  0.33827149  0.57367198  0.11284541  1
  O  O46  1  0.42341287  0.14761107  0.67432245  1
  O  O47  1  0.42341287  0.85238893  0.17432245  1
  O  O48  1  0.44542380  0.04770746  0.36318753  1
  O  O49  1  0.44542380  0.95229254  0.86318753  1
  O  O50  1  0.46158939  0.63218301  0.58319073  1
  O  O51  1  0.46158939  0.36781699  0.08319073  1
  O  O52  1  0.53841061  0.36781699  0.41680927  1
  O  O53  1  0.53841061  0.63218301  0.91680927  1
  O  O54  1  0.55457620  0.04770746  0.13681247  1
  O  O55  1  0.55457620  0.95229254  0.63681247  1
  O  O56  1  0.57658713  0.14761107  0.82567755  1
  O  O57  1  0.57658713  0.85238893  0.32567755  1
  O  O58  1  0.66172851  0.42632802  0.88715459  1
  O  O59  1  0.66172851  0.57367198  0.38715459  1
  O  O60  1  0.68107102  0.33495368  0.24318530  1
  O  O61  1  0.68107102  0.66504632  0.74318530  1
  O  O62  1  0.70911883  0.33595436  0.51591260  1
  O  O63  1  0.70911883  0.66404564  0.01591260  1
  O  O64  1  0.79088117  0.16404564  0.01591260  1
  O  O65  1  0.79088117  0.83595436  0.51591260  1
  O  O66  1  0.81892898  0.16504632  0.74318530  1
  O  O67  1  0.81892898  0.83495368  0.24318530  1
  O  O68  1  0.83827149  0.07367198  0.38715459  1
  O  O69  1  0.83827149  0.92632802  0.88715459  1
  O  O70  1  0.92341287  0.35238893  0.32567755  1
  O  O71  1  0.92341287  0.64761107  0.82567755  1
  O  O72  1  0.94542380  0.45229254  0.63681247  1
  O  O73  1  0.94542380  0.54770746  0.13681247  1
  O  O74  1  0.96158939  0.13218301  0.91680927  1
  O  O75  1  0.96158939  0.86781699  0.41680927  1
