# generated using pymatgen
data_Li3VSi4(HO6)2
_symmetry_space_group_name_H-M   'P 1'
_cell_length_a   7.54273358
_cell_length_b   8.25017519
_cell_length_c   9.11571460
_cell_angle_alpha   63.92122158
_cell_angle_beta   85.15364365
_cell_angle_gamma   89.24673395
_symmetry_Int_Tables_number   1
_chemical_formula_structural   Li3VSi4(HO6)2
_chemical_formula_sum   'Li6 V2 Si8 H4 O24'
_cell_volume   507.50405758
_cell_formula_units_Z   2
loop_
 _symmetry_equiv_pos_site_id
 _symmetry_equiv_pos_as_xyz
  1  'x, y, z'
loop_
 _atom_site_type_symbol
 _atom_site_label
 _atom_site_symmetry_multiplicity
 _atom_site_fract_x
 _atom_site_fract_y
 _atom_site_fract_z
 _atom_site_occupancy
  Li  Li0  1  0.16642804  0.73586915  0.10482072  1
  Li  Li1  1  0.31956341  0.87284044  0.39040674  1
  Li  Li2  1  0.34019662  0.36180429  0.86871704  1
  Li  Li3  1  0.65980338  0.63819571  0.13128296  1
  Li  Li4  1  0.68043659  0.12715956  0.60959326  1
  Li  Li5  1  0.83357196  0.26413085  0.89517928  1
  V  V6  1  0.00000000  0.50000000  0.00000000  1
  V  V7  1  0.50000000  0.00000000  0.00000000  1
  Si  Si8  1  0.11067820  0.07725221  0.15630065  1
  Si  Si9  1  0.22721335  0.30193585  0.31803479  1
  Si  Si10  1  0.26936644  0.10896390  0.68847758  1
  Si  Si11  1  0.39998294  0.74137085  0.82077453  1
  Si  Si12  1  0.60001706  0.25862915  0.17922547  1
  Si  Si13  1  0.73063356  0.89103610  0.31152242  1
  Si  Si14  1  0.77278665  0.69806415  0.68196521  1
  Si  Si15  1  0.88932180  0.92274779  0.84369935  1
  H  H16  1  0.11607044  0.60440291  0.62530581  1
  H  H17  1  0.19381412  0.54713563  0.49035565  1
  H  H18  1  0.80618588  0.45286437  0.50964435  1
  H  H19  1  0.88392956  0.39559709  0.37469419  1
  O  O20  1  0.09361360  0.26684800  0.99783279  1
  O  O21  1  0.09982900  0.46598517  0.21898311  1
  O  O22  1  0.08094257  0.03035461  0.79784871  1
  O  O23  1  0.16641725  0.10865066  0.31752798  1
  O  O24  1  0.20068002  0.64232757  0.52660338  1
  O  O25  1  0.22342487  0.26856548  0.50962110  1
  O  O26  1  0.26114559  0.94047132  0.14262964  1
  O  O27  1  0.23219197  0.60345930  0.87188396  1
  O  O28  1  0.36818102  0.94064330  0.66027677  1
  O  O29  1  0.43504487  0.35170580  0.24187175  1
  O  O30  1  0.39666453  0.18249265  0.77971299  1
  O  O31  1  0.54782370  0.22260351  0.02615701  1
  O  O32  1  0.45217630  0.77739649  0.97384299  1
  O  O33  1  0.60333547  0.81750735  0.22028701  1
  O  O34  1  0.56495513  0.64829420  0.75812825  1
  O  O35  1  0.63181898  0.05935670  0.33972323  1
  O  O36  1  0.76780803  0.39654070  0.12811604  1
  O  O37  1  0.73885441  0.05952868  0.85737036  1
  O  O38  1  0.77657513  0.73143452  0.49037890  1
  O  O39  1  0.79931998  0.35767243  0.47339662  1
  O  O40  1  0.83358275  0.89134934  0.68247202  1
  O  O41  1  0.91905743  0.96964539  0.20215129  1
  O  O42  1  0.90017100  0.53401483  0.78101689  1
  O  O43  1  0.90638640  0.73315200  0.00216721  1
