# generated using pymatgen
data_Li4Cr3CoO8
_symmetry_space_group_name_H-M   'P 1'
_cell_length_a   5.11535379
_cell_length_b   5.91431393
_cell_length_c   5.11070481
_cell_angle_alpha   90.00001847
_cell_angle_beta   70.77085017
_cell_angle_gamma   90.00006722
_symmetry_Int_Tables_number   1
_chemical_formula_structural   Li4Cr3CoO8
_chemical_formula_sum   'Li4 Cr3 Co1 O8'
_cell_volume   145.99196420
_cell_formula_units_Z   1
loop_
 _symmetry_equiv_pos_site_id
 _symmetry_equiv_pos_as_xyz
  1  'x, y, z'
loop_
 _atom_site_type_symbol
 _atom_site_label
 _atom_site_symmetry_multiplicity
 _atom_site_fract_x
 _atom_site_fract_y
 _atom_site_fract_z
 _atom_site_occupancy
  Li  Li0  1  0.00000000  0.00355330  0.00000000  1
  Li  Li1  1  1.00000000  0.49644670  0.00000000  1
  Li  Li2  1  0.00000000  0.25000000  0.50000000  1
  Li  Li3  1  0.00000000  0.75000000  0.50000000  1
  Cr  Cr4  1  0.50000000  0.75000000  0.00000000  1
  Cr  Cr5  1  0.50000000  0.99978970  0.49999900  1
  Cr  Cr6  1  0.50000000  0.50021030  0.50000000  1
  Co  Co7  1  0.50000000  0.25000000  0.00000000  1
  O  O8  1  0.27311313  -0.00014341  0.24272948  1
  O  O9  1  0.27311213  0.50014241  0.24272948  1
  O  O10  1  0.72526355  0.25000100  0.25594332  1
  O  O11  1  0.27473545  0.24999900  0.74405668  1
  O  O12  1  0.72586314  0.75000100  0.25909941  1
  O  O13  1  0.72688687  -0.00014241  0.75726952  1
  O  O14  1  0.27413686  0.75000000  0.74090059  1
  O  O15  1  0.72688787  0.50014341  0.75727052  1
