# generated using pymatgen
data_Li2Sn2(SO4)3
_symmetry_space_group_name_H-M   'P 1'
_cell_length_a   13.62643436
_cell_length_b   9.10033169
_cell_length_c   9.67083387
_cell_angle_alpha   90.00000000
_cell_angle_beta   90.00000000
_cell_angle_gamma   90.00000000
_symmetry_Int_Tables_number   1
_chemical_formula_structural   Li2Sn2(SO4)3
_chemical_formula_sum   'Li8 Sn8 S12 O48'
_cell_volume   1199.23245449
_cell_formula_units_Z   4
loop_
 _symmetry_equiv_pos_site_id
 _symmetry_equiv_pos_as_xyz
  1  'x, y, z'
loop_
 _atom_site_type_symbol
 _atom_site_label
 _atom_site_symmetry_multiplicity
 _atom_site_fract_x
 _atom_site_fract_y
 _atom_site_fract_z
 _atom_site_occupancy
  Li  Li0  1  0.18162955  0.21250745  0.27660897  1
  Li  Li1  1  0.18162955  0.78749255  0.77660897  1
  Li  Li2  1  0.31837045  0.28749255  0.77660897  1
  Li  Li3  1  0.31837045  0.71250745  0.27660897  1
  Li  Li4  1  0.68162955  0.28749255  0.72339103  1
  Li  Li5  1  0.68162955  0.71250745  0.22339103  1
  Li  Li6  1  0.81837045  0.21250745  0.22339103  1
  Li  Li7  1  0.81837045  0.78749255  0.72339103  1
  Sn  Sn8  1  0.09988243  0.24993095  0.95004838  1
  Sn  Sn9  1  0.09988243  0.75006905  0.45004838  1
  Sn  Sn10  1  0.40011757  0.74993095  0.95004838  1
  Sn  Sn11  1  0.40011757  0.25006905  0.45004838  1
  Sn  Sn12  1  0.59988243  0.25006905  0.04995162  1
  Sn  Sn13  1  0.59988243  0.74993095  0.54995162  1
  Sn  Sn14  1  0.90011757  0.24993095  0.54995162  1
  Sn  Sn15  1  0.90011757  0.75006905  0.04995162  1
  S  S16  1  0.00000000  0.43828571  0.25000000  1
  S  S17  1  0.00000000  0.56171429  0.75000000  1
  S  S18  1  0.15086012  0.10256860  0.60374616  1
  S  S19  1  0.15086012  0.89743140  0.10374616  1
  S  S20  1  0.34913988  0.39743140  0.10374616  1
  S  S21  1  0.34913988  0.60256860  0.60374616  1
  S  S22  1  0.50000000  0.06171429  0.75000000  1
  S  S23  1  0.50000000  0.93828571  0.25000000  1
  S  S24  1  0.65086012  0.39743140  0.39625384  1
  S  S25  1  0.65086012  0.60256860  0.89625384  1
  S  S26  1  0.84913988  0.10256860  0.89625384  1
  S  S27  1  0.84913988  0.89743140  0.39625384  1
  O  O28  1  0.04239114  0.12919941  0.59701106  1
  O  O29  1  0.04239114  0.87080059  0.09701106  1
  O  O30  1  0.04063496  0.52948663  0.36333580  1
  O  O31  1  0.04063496  0.47051337  0.86333580  1
  O  O32  1  0.07975501  0.34265167  0.19320484  1
  O  O33  1  0.07975501  0.65734833  0.69320484  1
  O  O34  1  0.16663227  0.05701387  0.13019294  1
  O  O35  1  0.16663227  0.94298613  0.63019294  1
  O  O36  1  0.19286175  0.18934215  0.72102364  1
  O  O37  1  0.19286175  0.81065785  0.22102364  1
  O  O38  1  0.19758184  0.85347135  0.97128314  1
  O  O39  1  0.19758184  0.14652865  0.47128314  1
  O  O40  1  0.30241816  0.35347135  0.97128314  1
  O  O41  1  0.30241816  0.64652865  0.47128314  1
  O  O42  1  0.30713825  0.68934215  0.72102364  1
  O  O43  1  0.30713825  0.31065785  0.22102364  1
  O  O44  1  0.33336773  0.44298613  0.63019294  1
  O  O45  1  0.33336773  0.55701387  0.13019294  1
  O  O46  1  0.42024499  0.15734833  0.69320484  1
  O  O47  1  0.42024499  0.84265167  0.19320484  1
  O  O48  1  0.45936504  0.02948663  0.36333580  1
  O  O49  1  0.45936504  0.97051337  0.86333580  1
  O  O50  1  0.45760886  0.62919941  0.59701106  1
  O  O51  1  0.45760886  0.37080059  0.09701106  1
  O  O52  1  0.54239114  0.37080059  0.40298894  1
  O  O53  1  0.54239114  0.62919941  0.90298894  1
  O  O54  1  0.54063496  0.02948663  0.13666420  1
  O  O55  1  0.54063496  0.97051337  0.63666420  1
  O  O56  1  0.57975501  0.15734833  0.80679516  1
  O  O57  1  0.57975501  0.84265167  0.30679516  1
  O  O58  1  0.66663227  0.44298613  0.86980706  1
  O  O59  1  0.66663227  0.55701387  0.36980706  1
  O  O60  1  0.69286175  0.31065785  0.27897636  1
  O  O61  1  0.69286175  0.68934215  0.77897636  1
  O  O62  1  0.69758184  0.35347135  0.52871686  1
  O  O63  1  0.69758184  0.64652865  0.02871686  1
  O  O64  1  0.80241816  0.14652865  0.02871686  1
  O  O65  1  0.80241816  0.85347135  0.52871686  1
  O  O66  1  0.80713825  0.18934215  0.77897636  1
  O  O67  1  0.80713825  0.81065785  0.27897636  1
  O  O68  1  0.83336773  0.05701387  0.36980706  1
  O  O69  1  0.83336773  0.94298613  0.86980706  1
  O  O70  1  0.92024499  0.34265167  0.30679516  1
  O  O71  1  0.92024499  0.65734833  0.80679516  1
  O  O72  1  0.95936504  0.47051337  0.63666420  1
  O  O73  1  0.95936504  0.52948663  0.13666420  1
  O  O74  1  0.95760886  0.12919941  0.90298894  1
  O  O75  1  0.95760886  0.87080059  0.40298894  1
