# generated using pymatgen
data_Cs3NO4
_symmetry_space_group_name_H-M   'P 1'
_cell_length_a   12.16956104
_cell_length_b   8.91961577
_cell_length_c   6.31910527
_cell_angle_alpha   90.00000000
_cell_angle_beta   90.00000000
_cell_angle_gamma   90.00000000
_symmetry_Int_Tables_number   1
_chemical_formula_structural   Cs3NO4
_chemical_formula_sum   'Cs12 N4 O16'
_cell_volume   685.92502916
_cell_formula_units_Z   4
loop_
 _symmetry_equiv_pos_site_id
 _symmetry_equiv_pos_as_xyz
  1  'x, y, z'
loop_
 _atom_site_type_symbol
 _atom_site_label
 _atom_site_symmetry_multiplicity
 _atom_site_fract_x
 _atom_site_fract_y
 _atom_site_fract_z
 _atom_site_occupancy
  Cs  Cs0  1  0.07217261  0.25000000  0.36768747  1
  Cs  Cs1  1  0.14569965  0.00866240  0.82772898  1
  Cs  Cs2  1  0.14569965  0.49133760  0.82772898  1
  Cs  Cs3  1  0.35430035  0.50866240  0.32772898  1
  Cs  Cs4  1  0.35430035  0.99133760  0.32772898  1
  Cs  Cs5  1  0.42782739  0.75000000  0.86768747  1
  Cs  Cs6  1  0.57217261  0.25000000  0.13231253  1
  Cs  Cs7  1  0.64569965  0.00866240  0.67227102  1
  Cs  Cs8  1  0.64569965  0.49133760  0.67227102  1
  Cs  Cs9  1  0.85430035  0.50866240  0.17227102  1
  Cs  Cs10  1  0.85430035  0.99133760  0.17227102  1
  Cs  Cs11  1  0.92782739  0.75000000  0.63231253  1
  N  N12  1  0.11543726  0.75000000  0.21690876  1
  N  N13  1  0.38456274  0.25000000  0.71690876  1
  N  N14  1  0.61543726  0.75000000  0.28309124  1
  N  N15  1  0.88456274  0.25000000  0.78309124  1
  O  O16  1  0.02810791  0.75000000  0.06947511  1
  O  O17  1  0.10870453  0.62041522  0.34269495  1
  O  O18  1  0.10870453  0.87958478  0.34269495  1
  O  O19  1  0.21590682  0.75000000  0.10529058  1
  O  O20  1  0.28409318  0.25000000  0.60529058  1
  O  O21  1  0.39129547  0.12041522  0.84269495  1
  O  O22  1  0.39129547  0.37958478  0.84269495  1
  O  O23  1  0.47189209  0.25000000  0.56947511  1
  O  O24  1  0.52810791  0.75000000  0.43052489  1
  O  O25  1  0.60870453  0.62041522  0.15730505  1
  O  O26  1  0.60870453  0.87958478  0.15730505  1
  O  O27  1  0.71590682  0.75000000  0.39470942  1
  O  O28  1  0.78409318  0.25000000  0.89470942  1
  O  O29  1  0.89129547  0.12041522  0.65730505  1
  O  O30  1  0.89129547  0.37958478  0.65730505  1
  O  O31  1  0.97189209  0.25000000  0.93052489  1
