# generated using pymatgen
data_Li3Ni2SnO6
_symmetry_space_group_name_H-M   'P 1'
_cell_length_a   15.57273435
_cell_length_b   9.92421378
_cell_length_c   9.92421394
_cell_angle_alpha   17.45145516
_cell_angle_beta   16.89051265
_cell_angle_gamma   16.89050883
_symmetry_Int_Tables_number   1
_chemical_formula_structural   Li3Ni2SnO6
_chemical_formula_sum   'Li3 Ni2 Sn1 O6'
_cell_volume   115.31213216
_cell_formula_units_Z   1
loop_
 _symmetry_equiv_pos_site_id
 _symmetry_equiv_pos_as_xyz
  1  'x, y, z'
loop_
 _atom_site_type_symbol
 _atom_site_label
 _atom_site_symmetry_multiplicity
 _atom_site_fract_x
 _atom_site_fract_y
 _atom_site_fract_z
 _atom_site_occupancy
  Li  Li0  1  0.16666700  0.50000000  0.50000000  1
  Li  Li1  1  0.49039380  0.49943456  0.49943456  1
  Li  Li2  1  0.84293920  0.50056644  0.50056644  1
  Ni  Ni3  1  0.98290072  0.01388433  0.01388433  1
  Ni  Ni4  1  0.35043228  0.98611567  0.98611567  1
  Sn  Sn5  1  0.66666700  0.00000000  0.00000000  1
  O  O6  1  0.24179684  0.26302414  0.26302414  1
  O  O7  1  0.57238540  0.26327357  0.26327357  1
  O  O8  1  0.09153616  0.73697586  0.73697586  1
  O  O9  1  0.90288219  0.26182391  0.26182391  1
  O  O10  1  0.43045081  0.73817609  0.73817609  1
  O  O11  1  0.76094760  0.73672643  0.73672643  1
