# generated using pymatgen
data_Li3TiV3O8
_symmetry_space_group_name_H-M   'P 1'
_cell_length_a   10.46151326
_cell_length_b   10.46209825
_cell_length_c   14.80993378
_cell_angle_alpha   19.29787949
_cell_angle_beta   19.29887216
_cell_angle_gamma   33.26582312
_symmetry_Int_Tables_number   1
_chemical_formula_structural   Li3TiV3O8
_chemical_formula_sum   'Li3 Ti1 V3 O8'
_cell_volume   153.29294019
_cell_formula_units_Z   1
loop_
 _symmetry_equiv_pos_site_id
 _symmetry_equiv_pos_as_xyz
  1  'x, y, z'
loop_
 _atom_site_type_symbol
 _atom_site_label
 _atom_site_symmetry_multiplicity
 _atom_site_fract_x
 _atom_site_fract_y
 _atom_site_fract_z
 _atom_site_occupancy
  Li  Li0  1  0.99999894  0.49999823  0.50000175  1
  Li  Li1  1  0.49999935  0.99999899  0.50000096  1
  Li  Li2  1  0.50000120  0.50000127  0.49999801  1
  Ti  Ti3  1  0.00000515  -0.00000042  0.99999724  1
  V  V4  1  0.00001052  0.50002075  0.99998327  1
  V  V5  1  0.49998272  0.99999449  0.00002044  1
  V  V6  1  0.49999927  0.49999054  0.99999833  1
  O  O7  1  0.00004606  0.00006148  0.25787406  1
  O  O8  1  0.99999385  0.52002609  0.24704791  1
  O  O9  1  0.51992260  0.99996238  0.24714771  1
  O  O10  1  0.99995324  0.99993602  0.74212688  1
  O  O11  1  0.48022096  0.48028949  0.28670147  1
  O  O12  1  0.00000458  0.47997262  0.75295369  1
  O  O13  1  0.48008106  0.00003544  0.75285017  1
  O  O14  1  0.51978051  0.51971063  0.71329712  1
