# generated using pymatgen
data_LiNbTe2WO12
_symmetry_space_group_name_H-M   'P 1'
_cell_length_a   5.38150942
_cell_length_b   10.77151873
_cell_length_c   9.45113759
_cell_angle_alpha   28.84872450
_cell_angle_beta   52.36784172
_cell_angle_gamma   57.59285739
_symmetry_Int_Tables_number   1
_chemical_formula_structural   LiNbTe2WO12
_chemical_formula_sum   'Li1 Nb1 Te2 W1 O12'
_cell_volume   209.34162124
_cell_formula_units_Z   1
loop_
 _symmetry_equiv_pos_site_id
 _symmetry_equiv_pos_as_xyz
  1  'x, y, z'
loop_
 _atom_site_type_symbol
 _atom_site_label
 _atom_site_symmetry_multiplicity
 _atom_site_fract_x
 _atom_site_fract_y
 _atom_site_fract_z
 _atom_site_occupancy
  Li  Li0  1  0.76446689  0.00095958  0.75760522  1
  Nb  Nb1  1  0.00863233  0.49618546  0.98991680  1
  Te  Te2  1  0.49524258  0.50219268  0.49251461  1
  Te  Te3  1  0.49839783  0.99614646  0.50069557  1
  W  W4  1  0.98776762  0.00476109  0.99680431  1
  O  O5  1  0.35839981  0.29773501  0.14866382  1
  O  O6  1  0.24215970  0.09779499  0.65326417  1
  O  O7  1  0.13973355  0.30092847  0.75022545  1
  O  O8  1  0.84626999  0.18719448  0.26348284  1
  O  O9  1  0.36399960  0.80679486  0.12843999  1
  O  O10  1  0.73772816  0.38001467  0.37534337  1
  O  O11  1  0.25458774  0.60734568  0.63087182  1
  O  O12  1  0.64233852  0.20120406  0.84666806  1
  O  O13  1  0.13378137  0.81639820  0.73933299  1
  O  O14  1  0.84545212  0.70760148  0.23448714  1
  O  O15  1  0.74719149  0.89316108  0.35136973  1
  O  O16  1  0.64104871  0.70358176  0.84751212  1
