# generated using pymatgen
data_MnP2O7
_symmetry_space_group_name_H-M   'P 1'
_cell_length_a   7.79216891
_cell_length_b   15.77313513
_cell_length_c   7.87178745
_cell_angle_alpha   90.00075721
_cell_angle_beta   90.00029007
_cell_angle_gamma   90.00031915
_symmetry_Int_Tables_number   1
_chemical_formula_structural   MnP2O7
_chemical_formula_sum   'Mn8 P16 O56'
_cell_volume   967.49725402
_cell_formula_units_Z   8
loop_
 _symmetry_equiv_pos_site_id
 _symmetry_equiv_pos_as_xyz
  1  'x, y, z'
loop_
 _atom_site_type_symbol
 _atom_site_label
 _atom_site_symmetry_multiplicity
 _atom_site_fract_x
 _atom_site_fract_y
 _atom_site_fract_z
 _atom_site_occupancy
  Mn  Mn0  1  0.01492744  0.37225950  0.75621864  1
  Mn  Mn1  1  0.02180617  0.12193469  0.25751418  1
  Mn  Mn2  1  0.47819405  0.62192553  0.75752351  1
  Mn  Mn3  1  0.48505377  0.87227602  0.25628933  1
  Mn  Mn4  1  0.51484144  0.12765690  0.75631194  1
  Mn  Mn5  1  0.52168721  0.37812018  0.25747184  1
  Mn  Mn6  1  0.97822451  0.87805457  0.75751640  1
  Mn  Mn7  1  0.98512436  0.62775438  0.25629189  1
  P  P8  1  0.09789119  0.93518128  0.13475920  1
  P  P9  1  0.09600713  0.68906087  0.87359131  1
  P  P10  1  0.11316669  0.17354911  0.87252995  1
  P  P11  1  0.12686994  0.42710677  0.15606267  1
  P  P12  1  0.37311605  0.92712125  0.65610925  1
  P  P13  1  0.38681111  0.67358367  0.37254810  1
  P  P14  1  0.40401007  0.18906343  0.37360950  1
  P  P15  1  0.40210635  0.43516270  0.63476747  1
  P  P16  1  0.59791680  0.56485013  0.13478241  1
  P  P17  1  0.59598136  0.81094065  0.87355783  1
  P  P18  1  0.61317634  0.32641500  0.87254570  1
  P  P19  1  0.62687520  0.07288066  0.15615502  1
  P  P20  1  0.87313221  0.57288535  0.65611874  1
  P  P21  1  0.88681317  0.82644427  0.37252514  1
  P  P22  1  0.90401617  0.31093655  0.37352760  1
  P  P23  1  0.90208512  0.06481974  0.63476643  1
  O  O24  1  0.02470367  0.18362314  0.04533803  1
  O  O25  1  0.02244078  0.50512288  0.20133123  1
  O  O26  1  0.01771572  0.07094386  0.47838358  1
  O  O27  1  0.06062248  0.34913567  0.26972228  1
  O  O28  1  0.02093576  0.09351889  0.78878270  1
  O  O29  1  0.07791709  0.25127788  0.76250666  1
  O  O30  1  0.07288194  0.78452107  0.87811290  1
  O  O31  1  0.14552697  0.02775926  0.16870523  1
  O  O32  1  0.10570294  0.65058358  0.05107615  1
  O  O33  1  0.12377015  0.39894012  0.97020013  1
  O  O34  1  0.18554845  0.93683712  0.70880098  1
  O  O35  1  0.19635820  0.64970062  0.38731428  1
  O  O36  1  0.26182777  0.88199890  0.12943592  1
  O  O37  1  0.24110224  0.16883411  0.27975654  1
  O  O38  1  0.25889666  0.66879286  0.77976849  1
  O  O39  1  0.23817561  0.38198730  0.62941998  1
  O  O40  1  0.30361873  0.14966339  0.88732474  1
  O  O41  1  0.31444654  0.43684113  0.20879228  1
  O  O42  1  0.37627369  0.89899699  0.47022619  1
  O  O43  1  0.39429455  0.15055657  0.55108550  1
  O  O44  1  0.35450039  0.52773673  0.66875390  1
  O  O45  1  0.42721746  0.28451217  0.37817187  1
  O  O46  1  0.42205476  0.75133467  0.26257270  1
  O  O47  1  0.47901138  0.59356153  0.28875791  1
  O  O48  1  0.43941841  0.84913627  0.76971126  1
  O  O49  1  0.48230815  0.57093296  0.97836620  1
  O  O50  1  0.47756257  0.00512806  0.70147704  1
  O  O51  1  0.47528303  0.68363605  0.54534828  1
  O  O52  1  0.52471912  0.31640012  0.04537274  1
  O  O53  1  0.52242009  0.99487600  0.20146800  1
  O  O54  1  0.51772949  0.42910219  0.47838464  1
  O  O55  1  0.56056746  0.15085762  0.26978190  1
  O  O56  1  0.52095785  0.40643181  0.78871594  1
  O  O57  1  0.57786740  0.24863877  0.76265139  1
  O  O58  1  0.57283303  0.71547681  0.87810503  1
  O  O59  1  0.64553306  0.47227655  0.16874676  1
  O  O60  1  0.60568688  0.84945055  0.05103212  1
  O  O61  1  0.62372919  0.10100176  0.97025344  1
  O  O62  1  0.68555485  0.56316128  0.70883010  1
  O  O63  1  0.69634744  0.85030660  0.38722985  1
  O  O64  1  0.76184325  0.61803728  0.12949981  1
  O  O65  1  0.74115963  0.33120217  0.27969664  1
  O  O66  1  0.75886581  0.83118383  0.77972255  1
  O  O67  1  0.73813284  0.11799240  0.62949477  1
  O  O68  1  0.80367612  0.35027544  0.88723791  1
  O  O69  1  0.81446431  0.06316712  0.20885170  1
  O  O70  1  0.87625456  0.60105530  0.47024823  1
  O  O71  1  0.89430207  0.34942999  0.55103483  1
  O  O72  1  0.85448613  0.97224087  0.66867171  1
  O  O73  1  0.92716811  0.21546709  0.37808116  1
  O  O74  1  0.92212524  0.74868894  0.26257689  1
  O  O75  1  0.97904347  0.90647170  0.28875175  1
  O  O76  1  0.93943911  0.65086681  0.76978180  1
  O  O77  1  0.98226059  0.92908469  0.97837664  1
  O  O78  1  0.97760478  0.49487184  0.70137199  1
  O  O79  1  0.97527820  0.81638747  0.54532474  1
