# generated using pymatgen
data_Li7Ti5Mn12O32
_symmetry_space_group_name_H-M   'P 1'
_cell_length_a   6.08711548
_cell_length_b   5.92131737
_cell_length_c   20.11946822
_cell_angle_alpha   99.02997111
_cell_angle_beta   101.23364698
_cell_angle_gamma   60.58346086
_symmetry_Int_Tables_number   1
_chemical_formula_structural   Li7Ti5Mn12O32
_chemical_formula_sum   'Li7 Ti5 Mn12 O32'
_cell_volume   617.98719804
_cell_formula_units_Z   1
loop_
 _symmetry_equiv_pos_site_id
 _symmetry_equiv_pos_as_xyz
  1  'x, y, z'
loop_
 _atom_site_type_symbol
 _atom_site_label
 _atom_site_symmetry_multiplicity
 _atom_site_fract_x
 _atom_site_fract_y
 _atom_site_fract_z
 _atom_site_occupancy
  Li  Li0  1  0.84589319  0.84411090  0.03012197  1
  Li  Li1  1  0.91348876  0.90440464  0.21817323  1
  Li  Li2  1  0.59057766  0.59175388  0.28606188  1
  Li  Li3  1  0.65349449  0.65436265  0.45962979  1
  Li  Li4  1  0.41003176  0.41216759  0.72549257  1
  Li  Li5  1  0.09598891  0.09342102  0.77821023  1
  Li  Li6  1  0.15104888  0.15953604  0.96826573  1
  Ti  Ti7  1  0.39397681  0.87396902  0.12575953  1
  Ti  Ti8  1  0.48803689  0.50204279  0.99757571  1
  Ti  Ti9  1  0.88417145  0.36753563  0.12502764  1
  Ti  Ti10  1  0.33857227  0.34127428  0.53098757  1
  Ti  Ti11  1  0.63607262  0.11970823  0.87384403  1
  Mn  Mn12  1  0.37772553  0.37487972  0.12371044  1
  Mn  Mn13  1  0.24497554  0.25072919  0.25103570  1
  Mn  Mn14  1  0.11840584  0.62871214  0.37129902  1
  Mn  Mn15  1  0.86512073  0.88129863  0.62963283  1
  Mn  Mn16  1  0.11888080  0.12024847  0.37183150  1
  Mn  Mn17  1  0.37902099  0.87276492  0.62903530  1
  Mn  Mn18  1  0.62811943  0.11960719  0.37110156  1
  Mn  Mn19  1  0.87065806  0.38192469  0.62856806  1
  Mn  Mn20  1  0.99812402  0.99748589  0.49477065  1
  Mn  Mn21  1  0.75204740  0.74837150  0.75173713  1
  Mn  Mn22  1  0.62873870  0.62521701  0.87577487  1
  Mn  Mn23  1  0.12675285  0.62281403  0.87437800  1
  O  O24  1  0.66520872  0.68085075  0.06722287  1
  O  O25  1  0.23326068  0.66403518  0.06329451  1
  O  O26  1  0.69289458  0.22233720  0.06196750  1
  O  O27  1  0.41211354  0.97902029  0.31598840  1
  O  O28  1  0.56880183  0.55522509  0.17569371  1
  O  O29  1  0.06321623  0.52605354  0.18546369  1
  O  O30  1  0.18500599  0.19543611  0.07259503  1
  O  O31  1  0.93367184  0.95887314  0.31472000  1
  O  O32  1  0.54081559  0.06735712  0.17801916  1
  O  O33  1  0.09093663  0.06646119  0.17995771  1
  O  O34  1  0.28408857  0.81971430  0.42529990  1
  O  O35  1  0.83267095  0.82430125  0.42961811  1
  O  O36  1  0.96091201  0.42637414  0.32169801  1
  O  O37  1  0.40887368  0.42128339  0.31686205  1
  O  O38  1  0.31143289  0.29819911  0.44001376  1
  O  O39  1  0.18647821  0.69905236  0.55873631  1
  O  O40  1  0.83040662  0.27173458  0.43217251  1
  O  O41  1  0.67563786  0.70568644  0.57838468  1
  O  O42  1  0.02019226  0.60643058  0.69297257  1
  O  O43  1  0.59442517  0.56877561  0.69494071  1
  O  O44  1  0.68482560  0.17697025  0.56563179  1
  O  O45  1  0.16846943  0.19218220  0.55888733  1
  O  O46  1  0.48529232  0.91390833  0.81410823  1
  O  O47  1  0.91723809  0.93045960  0.81900466  1
  O  O48  1  0.78404972  0.82592921  0.92976363  1
  O  O49  1  0.06964693  0.04896053  0.67331748  1
  O  O50  1  0.94097862  0.47122719  0.81339755  1
  O  O51  1  0.56548767  0.03298004  0.69352172  1
  O  O52  1  0.46587832  0.42724405  0.82403563  1
  O  O53  1  0.31165755  0.77971535  0.93943163  1
  O  O54  1  0.33480662  0.32159314  0.93351332  1
  O  O55  1  0.77070071  0.33328969  0.93773491  1
