# generated using pymatgen
data_Li2TiNi2O5
_symmetry_space_group_name_H-M   'P 1'
_cell_length_a   5.18299809
_cell_length_b   7.72001944
_cell_length_c   5.15154443
_cell_angle_alpha   70.50908336
_cell_angle_beta   111.23645984
_cell_angle_gamma   96.94204042
_symmetry_Int_Tables_number   1
_chemical_formula_structural   Li2TiNi2O5
_chemical_formula_sum   'Li4 Ti2 Ni4 O10'
_cell_volume   181.12037001
_cell_formula_units_Z   2
loop_
 _symmetry_equiv_pos_site_id
 _symmetry_equiv_pos_as_xyz
  1  'x, y, z'
loop_
 _atom_site_type_symbol
 _atom_site_label
 _atom_site_symmetry_multiplicity
 _atom_site_fract_x
 _atom_site_fract_y
 _atom_site_fract_z
 _atom_site_occupancy
  Li  Li0  1  0.50004302  0.60303545  0.69849267  1
  Li  Li1  1  0.00000555  0.40349931  0.79825180  1
  Li  Li2  1  0.50001010  0.79497603  0.10251039  1
  Li  Li3  1  0.00000361  0.19957093  0.40020529  1
  Ti  Ti4  1  0.50000105  0.19959346  0.90020313  1
  Ti  Ti5  1  0.00002357  0.59809378  0.20097869  1
  Ni  Ni6  1  0.00003747  0.80000070  0.60004911  1
  Ni  Ni7  1  0.50001057  0.40310566  0.29839724  1
  Ni  Ni8  1  0.49996715  0.99223405  0.50384059  1
  Ni  Ni9  1  0.99997667  0.00198967  0.99895997  1
  O  O10  1  0.76485924  0.79397262  0.85453593  1
  O  O11  1  0.22652381  0.59987850  0.97246272  1
  O  O12  1  0.72839062  0.19701655  0.66596483  1
  O  O13  1  0.77347141  0.59985936  0.42769208  1
  O  O14  1  0.23513318  0.79398475  0.35151909  1
  O  O15  1  0.25855842  0.01082650  0.75347568  1
  O  O16  1  0.25581890  0.40026982  0.54823974  1
  O  O17  1  0.74144067  0.01081749  0.23573306  1
  O  O18  1  0.74417661  0.40025014  0.05150684  1
  O  O19  1  0.27154940  0.19702424  0.13698114  1
