# generated using pymatgen
data_Li3Mn7O16
_symmetry_space_group_name_H-M   'P 1'
_cell_length_a   5.83018560
_cell_length_b   5.83018560
_cell_length_c   10.04642983
_cell_angle_alpha   90.00000000
_cell_angle_beta   73.13234129
_cell_angle_gamma   120.00000000
_symmetry_Int_Tables_number   1
_chemical_formula_structural   Li3Mn7O16
_chemical_formula_sum   'Li3 Mn7 O16'
_cell_volume   278.64442625
_cell_formula_units_Z   1
loop_
 _symmetry_equiv_pos_site_id
 _symmetry_equiv_pos_as_xyz
  1  'x, y, z'
loop_
 _atom_site_type_symbol
 _atom_site_label
 _atom_site_symmetry_multiplicity
 _atom_site_fract_x
 _atom_site_fract_y
 _atom_site_fract_z
 _atom_site_occupancy
  Li  Li0  1  0.87790192  0.18895096  0.43314712  1
  Li  Li1  1  0.12154156  0.31077078  0.06768767  1
  Li  Li2  1  0.87933872  0.68966936  0.93099292  1
  Mn  Mn3  1  0.50001523  0.24493473  0.24490526  1
  Mn  Mn4  1  0.49798434  0.49899167  0.50302399  1
  Mn  Mn5  1  0.50001523  0.75507951  0.24490526  1
  Mn  Mn6  1  0.49902775  0.24596674  0.75500551  1
  Mn  Mn7  1  0.01016002  0.75507951  0.24490526  1
  Mn  Mn8  1  0.49902775  0.75306100  0.75500551  1
  Mn  Mn9  1  0.99193349  0.24596674  0.75500551  1
  O  O10  1  0.71804320  0.10902210  0.14710813  1
  O  O11  1  0.24386977  0.10902210  0.14710813  1
  O  O12  1  0.73934668  0.61967284  0.14098049  1
  O  O13  1  0.73653390  0.11826745  0.64519865  1
  O  O14  1  0.73542655  0.39659220  0.36798225  1
  O  O15  1  0.73542655  0.83883434  0.36798225  1
  O  O16  1  0.29318341  0.39659220  0.36798225  1
  O  O17  1  0.75578044  0.36436112  0.85279925  1
  O  O18  1  0.26544135  0.16456183  0.63367914  1
  O  O19  1  0.70175903  0.60087951  0.63367914  1
  O  O20  1  0.24386977  0.63484767  0.14710813  1
  O  O21  1  0.26544135  0.60087951  0.63367914  1
  O  O22  1  0.25994245  0.37997172  0.86008583  1
  O  O23  1  0.26536851  0.88268376  0.35194773  1
  O  O24  1  0.75578044  0.89142031  0.85279925  1
  O  O25  1  0.28283963  0.89142031  0.85279925  1
