# generated using pymatgen
data_CdCoO3
_symmetry_space_group_name_H-M   'P 1'
_cell_length_a   5.79815725
_cell_length_b   5.79815725
_cell_length_c   5.79815764
_cell_angle_alpha   51.93096788
_cell_angle_beta   51.93096790
_cell_angle_gamma   51.93096457
_symmetry_Int_Tables_number   1
_chemical_formula_structural   CdCoO3
_chemical_formula_sum   'Cd2 Co2 O6'
_cell_volume   111.68017681
_cell_formula_units_Z   2
loop_
 _symmetry_equiv_pos_site_id
 _symmetry_equiv_pos_as_xyz
  1  'x, y, z'
loop_
 _atom_site_type_symbol
 _atom_site_label
 _atom_site_symmetry_multiplicity
 _atom_site_fract_x
 _atom_site_fract_y
 _atom_site_fract_z
 _atom_site_occupancy
  Cd  Cd0  1  0.36703136  0.36703136  0.36703136  1
  Cd  Cd1  1  0.63296864  0.63296864  0.63296864  1
  Co  Co2  1  0.16292665  0.16292665  0.16292665  1
  Co  Co3  1  0.83707335  0.83707335  0.83707335  1
  O  O4  1  0.03248950  0.81650380  0.44137571  1
  O  O5  1  0.55862429  0.96751050  0.18349620  1
  O  O6  1  0.18349620  0.55862429  0.96751050  1
  O  O7  1  0.81650380  0.44137571  0.03248950  1
  O  O8  1  0.44137571  0.03248950  0.81650380  1
  O  O9  1  0.96751050  0.18349620  0.55862429  1
