# generated using pymatgen
data_La2WO6
_symmetry_space_group_name_H-M   'P 1'
_cell_length_a   5.68092433
_cell_length_b   10.34536131
_cell_length_c   10.34536131
_cell_angle_alpha   68.90038053
_cell_angle_beta   75.90151366
_cell_angle_gamma   75.90151366
_symmetry_Int_Tables_number   1
_chemical_formula_structural   La2WO6
_chemical_formula_sum   'La8 W4 O24'
_cell_volume   541.93251568
_cell_formula_units_Z   4
loop_
 _symmetry_equiv_pos_site_id
 _symmetry_equiv_pos_as_xyz
  1  'x, y, z'
loop_
 _atom_site_type_symbol
 _atom_site_label
 _atom_site_symmetry_multiplicity
 _atom_site_fract_x
 _atom_site_fract_y
 _atom_site_fract_z
 _atom_site_occupancy
  La  La0  1  0.61161050  0.05956330  0.28988716  1
  La  La1  1  0.11161050  0.28988716  0.05956330  1
  La  La2  1  0.75000000  0.63096302  0.36903698  1
  La  La3  1  0.75000000  0.11073095  0.88926905  1
  La  La4  1  0.25000000  0.88926905  0.11073095  1
  La  La5  1  0.25000000  0.36903698  0.63096302  1
  La  La6  1  0.88838950  0.71011284  0.94043670  1
  La  La7  1  0.38838950  0.94043670  0.71011284  1
  W  W8  1  0.93598471  0.19966080  0.49618056  1
  W  W9  1  0.43598471  0.49618056  0.19966080  1
  W  W10  1  0.56401529  0.50381944  0.80033920  1
  W  W11  1  0.06401529  0.80033920  0.50381944  1
  O  O12  1  0.92228274  0.10655669  0.07912382  1
  O  O13  1  0.42228274  0.07912382  0.10655669  1
  O  O14  1  0.72261472  0.47261733  0.06672891  1
  O  O15  1  0.85414502  0.21784696  0.32587548  1
  O  O16  1  0.22261472  0.06672891  0.47261733  1
  O  O17  1  0.35414502  0.32587548  0.21784696  1
  O  O18  1  0.63307963  0.17291454  0.61605710  1
  O  O19  1  0.13307963  0.61605710  0.17291454  1
  O  O20  1  0.97674042  0.38205939  0.45726771  1
  O  O21  1  0.57978738  0.67996409  0.16292562  1
  O  O22  1  0.47674042  0.45726771  0.38205939  1
  O  O23  1  0.07978738  0.16292562  0.67996409  1
  O  O24  1  0.92021262  0.83707438  0.32003591  1
  O  O25  1  0.52325958  0.54273229  0.61794061  1
  O  O26  1  0.42021262  0.32003591  0.83707438  1
  O  O27  1  0.02325958  0.61794061  0.54273229  1
  O  O28  1  0.86692037  0.38394290  0.82708546  1
  O  O29  1  0.36692037  0.82708546  0.38394290  1
  O  O30  1  0.64585498  0.67412452  0.78215304  1
  O  O31  1  0.77738528  0.93327109  0.52738267  1
  O  O32  1  0.14585498  0.78215304  0.67412452  1
  O  O33  1  0.27738528  0.52738267  0.93327109  1
  O  O34  1  0.57771726  0.92087618  0.89344331  1
  O  O35  1  0.07771726  0.89344331  0.92087618  1
