# generated using pymatgen
data_LiMn5O8
_symmetry_space_group_name_H-M   'P 1'
_cell_length_a   8.52326151
_cell_length_b   8.52187131
_cell_length_c   8.52508385
_cell_angle_alpha   89.99983458
_cell_angle_beta   89.99517633
_cell_angle_gamma   89.99748142
_symmetry_Int_Tables_number   1
_chemical_formula_structural   LiMn5O8
_chemical_formula_sum   'Li4 Mn20 O32'
_cell_volume   619.21211167
_cell_formula_units_Z   4
loop_
 _symmetry_equiv_pos_site_id
 _symmetry_equiv_pos_as_xyz
  1  'x, y, z'
loop_
 _atom_site_type_symbol
 _atom_site_label
 _atom_site_symmetry_multiplicity
 _atom_site_fract_x
 _atom_site_fract_y
 _atom_site_fract_z
 _atom_site_occupancy
  Li  Li0  1  0.12497562  0.87503730  0.37505593  1
  Li  Li1  1  0.37502980  0.12498393  0.87497504  1
  Li  Li2  1  0.62501178  0.62499877  0.62497592  1
  Li  Li3  1  0.87492946  0.37497809  0.12502850  1
  Mn  Mn4  1  0.00104133  0.00103947  0.00103291  1
  Mn  Mn5  1  0.99898752  0.50104940  0.49896233  1
  Mn  Mn6  1  0.12664212  0.12339443  0.62501060  1
  Mn  Mn7  1  0.12338196  0.62499470  0.12660644  1
  Mn  Mn8  1  0.12499743  0.37340945  0.87662254  1
  Mn  Mn9  1  0.24894105  0.24899933  0.24896558  1
  Mn  Mn10  1  0.25105581  0.75102993  0.74900070  1
  Mn  Mn11  1  0.37661436  0.37500418  0.62665248  1
  Mn  Mn12  1  0.37497547  0.62663448  0.37660575  1
  Mn  Mn13  1  0.37333978  0.87660377  0.12499388  1
  Mn  Mn14  1  0.49898208  0.99893198  0.50102400  1
  Mn  Mn15  1  0.50100975  0.49895890  0.99894423  1
  Mn  Mn16  1  0.62499786  0.12660241  0.12336736  1
  Mn  Mn17  1  0.62660550  0.37661044  0.37500448  1
  Mn  Mn18  1  0.62340746  0.87499078  0.87339957  1
  Mn  Mn19  1  0.74898235  0.25104675  0.75102100  1
  Mn  Mn20  1  0.75105359  0.74896844  0.25101337  1
  Mn  Mn21  1  0.87662422  0.12499758  0.37339331  1
  Mn  Mn22  1  0.87340761  0.62337305  0.87499760  1
  Mn  Mn23  1  0.87500370  0.87337274  0.62338240  1
  O  O24  1  0.12614905  0.39100220  0.10509761  1
  O  O25  1  0.13835147  0.36166312  0.63834953  1
  O  O26  1  0.14483239  0.85899833  0.12386788  1
  O  O27  1  0.10510143  0.12614876  0.39094955  1
  O  O28  1  0.10906433  0.89486706  0.62613017  1
  O  O29  1  0.12387857  0.14489416  0.85905262  1
  O  O30  1  0.14096476  0.62387611  0.35507831  1
  O  O31  1  0.11169383  0.61164739  0.88835417  1
  O  O32  1  0.39091357  0.10509951  0.12612852  1
  O  O33  1  0.38826633  0.38834396  0.38833921  1
  O  O34  1  0.35518006  0.14097138  0.62386952  1
  O  O35  1  0.35899713  0.37612325  0.85513722  1
  O  O36  1  0.36160145  0.63837683  0.13829251  1
  O  O37  1  0.37611555  0.85514077  0.35902174  1
  O  O38  1  0.37384820  0.60903190  0.60513211  1
  O  O39  1  0.39489656  0.87385540  0.89098043  1
  O  O40  1  0.63834936  0.13830331  0.36170860  1
  O  O41  1  0.62387172  0.35513659  0.14091423  1
  O  O42  1  0.60509481  0.37384763  0.60907670  1
  O  O43  1  0.60904356  0.60513985  0.37385369  1
  O  O44  1  0.62616727  0.10904707  0.89485962  1
  O  O45  1  0.64485452  0.64097272  0.87612476  1
  O  O46  1  0.61166571  0.88830857  0.11169553  1
  O  O47  1  0.64098097  0.87612734  0.64487553  1
  O  O48  1  0.85905032  0.12387439  0.14488330  1
  O  O49  1  0.88830531  0.11168475  0.61167520  1
  O  O50  1  0.85519576  0.35901738  0.37612374  1
  O  O51  1  0.89493407  0.62615210  0.10902680  1
  O  O52  1  0.87612021  0.64485183  0.64095641  1
  O  O53  1  0.89097544  0.39488928  0.87385654  1
  O  O54  1  0.87385340  0.89096382  0.39485918  1
  O  O55  1  0.86168527  0.86163293  0.86169319  1
