# generated using pymatgen
data_LiMn2(PO4)2
_symmetry_space_group_name_H-M   'P 1'
_cell_length_a   6.76133796
_cell_length_b   9.13591276
_cell_length_c   9.07084573
_cell_angle_alpha   94.47831334
_cell_angle_beta   63.50619456
_cell_angle_gamma   115.50924893
_symmetry_Int_Tables_number   1
_chemical_formula_structural   LiMn2(PO4)2
_chemical_formula_sum   'Li3 Mn6 P6 O24'
_cell_volume   448.05365654
_cell_formula_units_Z   3
loop_
 _symmetry_equiv_pos_site_id
 _symmetry_equiv_pos_as_xyz
  1  'x, y, z'
loop_
 _atom_site_type_symbol
 _atom_site_label
 _atom_site_symmetry_multiplicity
 _atom_site_fract_x
 _atom_site_fract_y
 _atom_site_fract_z
 _atom_site_occupancy
  Li  Li0  1  0.72744672  0.99339222  0.00967086  1
  Li  Li1  1  0.27255328  0.00660778  0.99032914  1
  Li  Li2  1  0.00000000  0.50000000  0.50000000  1
  Mn  Mn3  1  0.80576112  0.38184555  0.93601164  1
  Mn  Mn4  1  0.73971509  0.71777560  0.71882522  1
  Mn  Mn5  1  0.30246151  0.05966955  0.61852613  1
  Mn  Mn6  1  0.69753849  0.94033045  0.38147387  1
  Mn  Mn7  1  0.26028491  0.28222440  0.28117478  1
  Mn  Mn8  1  0.19423888  0.61815445  0.06398836  1
  P  P9  1  0.83209383  0.11773637  0.66111850  1
  P  P10  1  0.74586143  0.28919334  0.29839371  1
  P  P11  1  0.34397215  0.33449376  0.87594804  1
  P  P12  1  0.65602785  0.66550624  0.12405196  1
  P  P13  1  0.25413857  0.71080666  0.70160629  1
  P  P14  1  0.16790617  0.88226363  0.33888150  1
  O  O15  1  0.70423883  0.15046610  0.84323789  1
  O  O16  1  0.86256111  0.16651474  0.26399437  1
  O  O17  1  0.63173646  0.03418781  0.59729510  1
  O  O18  1  0.95477316  0.45956098  0.27944188  1
  O  O19  1  0.96311270  0.72681797  0.45978858  1
  O  O20  1  0.92184694  0.99082688  0.67474436  1
  O  O21  1  0.59362573  0.69022580  0.98414636  1
  O  O22  1  0.57565586  0.45658497  0.73076070  1
  O  O23  1  0.53763361  0.26473763  0.47717960  1
  O  O24  1  0.86289938  0.60712335  0.05127534  1
  O  O25  1  0.62960173  0.27094117  0.17914480  1
  O  O26  1  0.23530151  0.15504702  0.83138902  1
  O  O27  1  0.76469849  0.84495298  0.16861098  1
  O  O28  1  0.37039827  0.72905883  0.82085520  1
  O  O29  1  0.13710062  0.39287665  0.94872466  1
  O  O30  1  0.46236639  0.73526237  0.52282040  1
  O  O31  1  0.42434414  0.54341503  0.26923930  1
  O  O32  1  0.40637427  0.30977420  0.01585364  1
  O  O33  1  0.07815306  0.00917312  0.32525564  1
  O  O34  1  0.03688730  0.27318203  0.54021142  1
  O  O35  1  0.04522684  0.54043902  0.72055812  1
  O  O36  1  0.36826354  0.96581219  0.40270490  1
  O  O37  1  0.13743889  0.83348526  0.73600563  1
  O  O38  1  0.29576117  0.84953390  0.15676211  1
