# generated using pymatgen
data_Li4CrNi3O8
_symmetry_space_group_name_H-M   'P 1'
_cell_length_a   10.14052722
_cell_length_b   10.14082346
_cell_length_c   14.35385058
_cell_angle_alpha   19.35427199
_cell_angle_beta   19.35434550
_cell_angle_gamma   33.34303274
_symmetry_Int_Tables_number   1
_chemical_formula_structural   Li4CrNi3O8
_chemical_formula_sum   'Li4 Cr1 Ni3 O8'
_cell_volume   140.51925557
_cell_formula_units_Z   1
loop_
 _symmetry_equiv_pos_site_id
 _symmetry_equiv_pos_as_xyz
  1  'x, y, z'
loop_
 _atom_site_type_symbol
 _atom_site_label
 _atom_site_symmetry_multiplicity
 _atom_site_fract_x
 _atom_site_fract_y
 _atom_site_fract_z
 _atom_site_occupancy
  Li  Li0  1  0.00000031  0.99999881  0.49999904  1
  Li  Li1  1  -0.00000199  0.49999640  0.50000484  1
  Li  Li2  1  0.49999920  0.99999909  0.50000110  1
  Li  Li3  1  0.50000017  0.50000145  0.49999950  1
  Cr  Cr4  1  -0.00002049  0.00001137  0.00001274  1
  Ni  Ni5  1  0.00000833  0.50000871  0.99998586  1
  Ni  Ni6  1  0.50000084  0.99999910  0.99999778  1
  Ni  Ni7  1  0.49999923  0.49999265  0.00000188  1
  O  O8  1  0.00058591  0.00064117  0.26467715  1
  O  O9  1  0.00059567  0.52160471  0.24142764  1
  O  O10  1  0.52157460  0.00058714  0.24144994  1
  O  O11  1  0.99941292  0.99936152  0.73531740  1
  O  O12  1  0.47844851  0.47837397  0.28512456  1
  O  O13  1  0.99940890  0.47839917  0.75856740  1
  O  O14  1  0.47844251  0.99941035  0.75854252  1
  O  O15  1  0.52154436  0.52161340  0.71489064  1
