# generated using pymatgen
data_LiCr2O4
_symmetry_space_group_name_H-M   'P 1'
_cell_length_a   5.87300409
_cell_length_b   5.87101294
_cell_length_c   9.51549469
_cell_angle_alpha   89.21783794
_cell_angle_beta   90.39093259
_cell_angle_gamma   119.98878225
_symmetry_Int_Tables_number   1
_chemical_formula_structural   LiCr2O4
_chemical_formula_sum   'Li4 Cr8 O16'
_cell_volume   284.14757625
_cell_formula_units_Z   4
loop_
 _symmetry_equiv_pos_site_id
 _symmetry_equiv_pos_as_xyz
  1  'x, y, z'
loop_
 _atom_site_type_symbol
 _atom_site_label
 _atom_site_symmetry_multiplicity
 _atom_site_fract_x
 _atom_site_fract_y
 _atom_site_fract_z
 _atom_site_occupancy
  Li  Li0  1  0.33188411  0.66787023  0.89615178  1
  Li  Li1  1  0.99991607  0.99838994  0.99639336  1
  Li  Li2  1  0.00008393  0.99847387  0.49639336  1
  Li  Li3  1  0.66811589  0.33598612  0.39615178  1
  Cr  Cr4  1  0.16878441  0.83350063  0.21021716  1
  Cr  Cr5  1  0.33622173  0.66445434  0.48303067  1
  Cr  Cr6  1  0.17113371  0.34206137  0.21489662  1
  Cr  Cr7  1  0.66394684  0.83362040  0.21018622  1
  Cr  Cr8  1  0.33605316  0.16967356  0.71018622  1
  Cr  Cr9  1  0.66377827  0.32823261  0.98303067  1
  Cr  Cr10  1  0.83121559  0.66471621  0.71021716  1
  Cr  Cr11  1  0.82886629  0.17092867  0.71489662  1
  O  O12  1  0.16588023  0.83530144  0.60709612  1
  O  O13  1  0.04220127  0.52840397  0.33843496  1
  O  O14  1  0.33517294  0.67221294  0.10264024  1
  O  O15  1  0.99895700  0.99673581  0.31152394  1
  O  O16  1  0.00104300  0.99777881  0.81152394  1
  O  O17  1  0.17373211  0.32793745  0.60440193  1
  O  O18  1  0.47949240  0.95764473  0.33566632  1
  O  O19  1  0.48766629  0.52870060  0.33816877  1
  O  O20  1  0.32798650  0.15480245  0.10511093  1
  O  O21  1  0.67201350  0.82681595  0.60511093  1
  O  O22  1  0.52050760  0.47815232  0.83566632  1
  O  O23  1  0.51233371  0.04103532  0.83816877  1
  O  O24  1  0.66482706  0.33704000  0.60264024  1
  O  O25  1  0.83411977  0.66942121  0.10709612  1
  O  O26  1  0.95779873  0.48620370  0.83843496  1
  O  O27  1  0.82626789  0.15420534  0.10440193  1
