# generated using pymatgen
data_Y2TeO6
_symmetry_space_group_name_H-M   'P 1'
_cell_length_a   7.71912892
_cell_length_b   5.45305413
_cell_length_c   11.54148476
_cell_angle_alpha   90.00000000
_cell_angle_beta   103.91610615
_cell_angle_gamma   90.00000000
_symmetry_Int_Tables_number   1
_chemical_formula_structural   Y2TeO6
_chemical_formula_sum   'Y8 Te4 O24'
_cell_volume   471.55457010
_cell_formula_units_Z   4
loop_
 _symmetry_equiv_pos_site_id
 _symmetry_equiv_pos_as_xyz
  1  'x, y, z'
loop_
 _atom_site_type_symbol
 _atom_site_label
 _atom_site_symmetry_multiplicity
 _atom_site_fract_x
 _atom_site_fract_y
 _atom_site_fract_z
 _atom_site_occupancy
  Y  Y0  1  0.00000000  0.25949646  0.75000000  1
  Y  Y1  1  0.00000000  0.74050354  0.25000000  1
  Y  Y2  1  0.21137885  0.80614488  0.57719724  1
  Y  Y3  1  0.21137885  0.19385512  0.07719724  1
  Y  Y4  1  0.50000000  0.31328467  0.75000000  1
  Y  Y5  1  0.50000000  0.68671533  0.25000000  1
  Y  Y6  1  0.78862115  0.80614488  0.92280276  1
  Y  Y7  1  0.78862115  0.19385512  0.42280276  1
  Te  Te8  1  0.27405221  0.74593526  0.88541471  1
  Te  Te9  1  0.27405221  0.25406474  0.38541471  1
  Te  Te10  1  0.72594779  0.74593526  0.61458529  1
  Te  Te11  1  0.72594779  0.25406474  0.11458529  1
  O  O12  1  0.05864742  0.94923032  0.89373488  1
  O  O13  1  0.15004436  0.46782589  0.93205052  1
  O  O14  1  0.05864742  0.05076968  0.39373488  1
  O  O15  1  0.20742489  0.54984831  0.73065621  1
  O  O16  1  0.15004436  0.53217411  0.43205052  1
  O  O17  1  0.29355379  0.02064183  0.77456751  1
  O  O18  1  0.20742489  0.45015169  0.23065621  1
  O  O19  1  0.35984769  0.14367096  0.54873058  1
  O  O20  1  0.50761354  0.62650974  0.88613455  1
  O  O21  1  0.29355379  0.97935817  0.27456751  1
  O  O22  1  0.49238646  0.62650974  0.61386545  1
  O  O23  1  0.64015231  0.14367096  0.95126942  1
  O  O24  1  0.35984769  0.85632904  0.04873058  1
  O  O25  1  0.50761354  0.37349026  0.38613455  1
  O  O26  1  0.70644621  0.02064183  0.72543249  1
  O  O27  1  0.49238646  0.37349026  0.11386545  1
  O  O28  1  0.64015231  0.85632904  0.45126942  1
  O  O29  1  0.79257511  0.54984831  0.76934379  1
  O  O30  1  0.70644621  0.97935817  0.22543249  1
  O  O31  1  0.84995564  0.46782589  0.56794948  1
  O  O32  1  0.79257511  0.45015169  0.26934379  1
  O  O33  1  0.94135258  0.94923032  0.60626512  1
  O  O34  1  0.84995564  0.53217411  0.06794948  1
  O  O35  1  0.94135258  0.05076968  0.10626512  1
