# generated using pymatgen
data_Na3SiNiCO7
_symmetry_space_group_name_H-M   'P 1'
_cell_length_a   9.07712957
_cell_length_b   6.46071075
_cell_length_c   5.22291751
_cell_angle_alpha   90.00000000
_cell_angle_beta   87.86978903
_cell_angle_gamma   90.00000000
_symmetry_Int_Tables_number   1
_chemical_formula_structural   Na3SiNiCO7
_chemical_formula_sum   'Na6 Si2 Ni2 C2 O14'
_cell_volume   306.08480435
_cell_formula_units_Z   2
loop_
 _symmetry_equiv_pos_site_id
 _symmetry_equiv_pos_as_xyz
  1  'x, y, z'
loop_
 _atom_site_type_symbol
 _atom_site_label
 _atom_site_symmetry_multiplicity
 _atom_site_fract_x
 _atom_site_fract_y
 _atom_site_fract_z
 _atom_site_occupancy
  Na  Na0  1  0.08732337  0.25000000  0.76850085  1
  Na  Na1  1  0.27192457  0.01189173  0.25249330  1
  Na  Na2  1  0.27192457  0.48810827  0.25249330  1
  Na  Na3  1  0.72807543  0.51189173  0.74750670  1
  Na  Na4  1  0.72807543  0.98810827  0.74750670  1
  Na  Na5  1  0.91267663  0.75000000  0.23149915  1
  Si  Si6  1  0.43025601  0.25000000  0.70562710  1
  Si  Si7  1  0.56974399  0.75000000  0.29437290  1
  Ni  Ni8  1  0.34468912  0.75000000  0.78374527  1
  Ni  Ni9  1  0.65531088  0.25000000  0.21625473  1
  C  C10  1  0.06171513  0.75000000  0.71740162  1
  C  C11  1  0.93828487  0.25000000  0.28259838  1
  O  O12  1  0.08015900  0.25000000  0.26614281  1
  O  O13  1  0.13469845  0.75000000  0.92932699  1
  O  O14  1  0.13433318  0.75000000  0.50153686  1
  O  O15  1  0.31637594  0.05417435  0.76890528  1
  O  O16  1  0.31637594  0.44582565  0.76890528  1
  O  O17  1  0.46612344  0.25000000  0.39101499  1
  O  O18  1  0.42002626  0.75000000  0.14017790  1
  O  O19  1  0.57997374  0.25000000  0.85982210  1
  O  O20  1  0.53387656  0.75000000  0.60898501  1
  O  O21  1  0.68362406  0.55417435  0.23109472  1
  O  O22  1  0.68362406  0.94582565  0.23109472  1
  O  O23  1  0.86566682  0.25000000  0.49846314  1
  O  O24  1  0.86530155  0.25000000  0.07067301  1
  O  O25  1  0.91984100  0.75000000  0.73385719  1
