# generated using pymatgen
data_Li4Ti5Ni3O16
_symmetry_space_group_name_H-M   'P 1'
_cell_length_a   5.90997299
_cell_length_b   5.82464064
_cell_length_c   9.55795031
_cell_angle_alpha   90.22434296
_cell_angle_beta   91.06251536
_cell_angle_gamma   119.65931388
_symmetry_Int_Tables_number   1
_chemical_formula_structural   Li4Ti5Ni3O16
_chemical_formula_sum   'Li4 Ti5 Ni3 O16'
_cell_volume   285.82930661
_cell_formula_units_Z   1
loop_
 _symmetry_equiv_pos_site_id
 _symmetry_equiv_pos_as_xyz
  1  'x, y, z'
loop_
 _atom_site_type_symbol
 _atom_site_label
 _atom_site_symmetry_multiplicity
 _atom_site_fract_x
 _atom_site_fract_y
 _atom_site_fract_z
 _atom_site_occupancy
  Li  Li0  1  0.32124652  0.65961434  0.89622669  1
  Li  Li1  1  0.98048715  0.98806104  0.99187994  1
  Li  Li2  1  0.00099508  0.00138249  0.49434940  1
  Li  Li3  1  0.67722814  0.34006795  0.40160120  1
  Ti  Ti4  1  0.19249502  0.84313089  0.22090302  1
  Ti  Ti5  1  0.33239875  0.66681838  0.50102388  1
  Ti  Ti6  1  0.19190084  0.34945980  0.22094258  1
  Ti  Ti7  1  0.34549225  0.17459117  0.72988078  1
  Ti  Ti8  1  0.67891074  0.33678567  0.99657599  1
  Ni  Ni9  1  0.66220561  0.83075450  0.20881608  1
  Ni  Ni10  1  0.82836740  0.66051207  0.71046958  1
  Ni  Ni11  1  0.82539235  0.16593281  0.71110893  1
  O  O12  1  0.17996572  0.83808456  0.59235802  1
  O  O13  1  0.04208271  0.52115916  0.33709411  1
  O  O14  1  0.31019351  0.65438101  0.10246888  1
  O  O15  1  0.01079129  0.00559683  0.30453071  1
  O  O16  1  0.98880263  0.99522926  0.80165081  1
  O  O17  1  0.18579550  0.34524201  0.59217642  1
  O  O18  1  0.47384054  0.96773014  0.34343977  1
  O  O19  1  0.47415490  0.50876827  0.34362150  1
  O  O20  1  0.33414134  0.16671594  0.09786725  1
  O  O21  1  0.67586675  0.84166268  0.59403676  1
  O  O22  1  0.50095588  0.47342829  0.84230475  1
  O  O23  1  0.49303874  0.02625095  0.84364221  1
  O  O24  1  0.67092926  0.33536771  0.61253251  1
  O  O25  1  0.83778748  0.65965980  0.09008337  1
  O  O26  1  0.94715344  0.46895887  0.83597165  1
  O  O27  1  0.83738046  0.17495239  0.09028118  1
