# generated using pymatgen
data_Na3NiBAsO7
_symmetry_space_group_name_H-M   'P 1'
_cell_length_a   8.99765487
_cell_length_b   6.95765907
_cell_length_c   5.21613176
_cell_angle_alpha   90.00000000
_cell_angle_beta   87.96044336
_cell_angle_gamma   90.00000000
_symmetry_Int_Tables_number   1
_chemical_formula_structural   Na3NiBAsO7
_chemical_formula_sum   'Na6 Ni2 B2 As2 O14'
_cell_volume   326.33662160
_cell_formula_units_Z   2
loop_
 _symmetry_equiv_pos_site_id
 _symmetry_equiv_pos_as_xyz
  1  'x, y, z'
loop_
 _atom_site_type_symbol
 _atom_site_label
 _atom_site_symmetry_multiplicity
 _atom_site_fract_x
 _atom_site_fract_y
 _atom_site_fract_z
 _atom_site_occupancy
  Na  Na0  1  0.08057812  0.25000000  0.76243901  1
  Na  Na1  1  0.25426005  0.00331189  0.25116147  1
  Na  Na2  1  0.25426005  0.49668811  0.25116147  1
  Na  Na3  1  0.74573995  0.50331189  0.74883853  1
  Na  Na4  1  0.74573995  0.99668811  0.74883853  1
  Na  Na5  1  0.91942188  0.75000000  0.23756099  1
  Ni  Ni6  1  0.33279833  0.75000000  0.78643159  1
  Ni  Ni7  1  0.66720167  0.25000000  0.21356841  1
  B  B8  1  0.06748461  0.75000000  0.73002933  1
  B  B9  1  0.93251539  0.25000000  0.26997067  1
  As  As10  1  0.42187281  0.25000000  0.71487066  1
  As  As11  1  0.57812719  0.75000000  0.28512934  1
  O  O12  1  0.08003545  0.25000000  0.30016734  1
  O  O13  1  0.13416576  0.75000000  0.96546260  1
  O  O14  1  0.17387743  0.75000000  0.53122075  1
  O  O15  1  0.30750105  0.05835706  0.78296987  1
  O  O16  1  0.30750105  0.44164294  0.78296987  1
  O  O17  1  0.46931873  0.25000000  0.38982158  1
  O  O18  1  0.41366521  0.75000000  0.13114057  1
  O  O19  1  0.58633479  0.25000000  0.86885943  1
  O  O20  1  0.53068127  0.75000000  0.61017842  1
  O  O21  1  0.69249895  0.55835706  0.21703013  1
  O  O22  1  0.69249895  0.94164294  0.21703013  1
  O  O23  1  0.82612257  0.25000000  0.46877925  1
  O  O24  1  0.86583424  0.25000000  0.03453740  1
  O  O25  1  0.91996455  0.75000000  0.69983266  1
