# generated using pymatgen
data_Na3CrAsCO7
_symmetry_space_group_name_H-M   'P 1'
_cell_length_a   9.33427788
_cell_length_b   6.84938652
_cell_length_c   5.36406494
_cell_angle_alpha   90.00000000
_cell_angle_beta   87.53565475
_cell_angle_gamma   90.00000000
_symmetry_Int_Tables_number   1
_chemical_formula_structural   Na3CrAsCO7
_chemical_formula_sum   'Na6 Cr2 As2 C2 O14'
_cell_volume   342.62937471
_cell_formula_units_Z   2
loop_
 _symmetry_equiv_pos_site_id
 _symmetry_equiv_pos_as_xyz
  1  'x, y, z'
loop_
 _atom_site_type_symbol
 _atom_site_label
 _atom_site_symmetry_multiplicity
 _atom_site_fract_x
 _atom_site_fract_y
 _atom_site_fract_z
 _atom_site_occupancy
  Na  Na0  1  0.08141548  0.25000000  0.77187819  1
  Na  Na1  1  0.25690532  0.00367329  0.24632967  1
  Na  Na2  1  0.25690532  0.49632671  0.24632967  1
  Na  Na3  1  0.74309468  0.50367329  0.75367033  1
  Na  Na4  1  0.74309468  0.99632671  0.75367033  1
  Na  Na5  1  0.91858452  0.75000000  0.22812181  1
  Cr  Cr6  1  0.34507642  0.75000000  0.77192959  1
  Cr  Cr7  1  0.65492358  0.25000000  0.22807041  1
  As  As8  1  0.41964713  0.25000000  0.69061060  1
  As  As9  1  0.58035287  0.75000000  0.30938940  1
  C  C10  1  0.05288748  0.75000000  0.71647002  1
  C  C11  1  0.94711252  0.25000000  0.28352998  1
  O  O12  1  0.08599902  0.25000000  0.25953540  1
  O  O13  1  0.12776797  0.75000000  0.91855490  1
  O  O14  1  0.11835313  0.75000000  0.49903420  1
  O  O15  1  0.31141334  0.05380081  0.77443364  1
  O  O16  1  0.31141334  0.44619919  0.77443364  1
  O  O17  1  0.44209001  0.25000000  0.36737730  1
  O  O18  1  0.41639886  0.75000000  0.18040991  1
  O  O19  1  0.58360114  0.25000000  0.81959009  1
  O  O20  1  0.55790999  0.75000000  0.63262270  1
  O  O21  1  0.68858666  0.55380081  0.22556636  1
  O  O22  1  0.68858666  0.94619919  0.22556636  1
  O  O23  1  0.88164687  0.25000000  0.50096580  1
  O  O24  1  0.87223203  0.25000000  0.08144510  1
  O  O25  1  0.91400098  0.75000000  0.74046460  1
