# generated using pymatgen
data_K2H14Rh2N12O17
_symmetry_space_group_name_H-M   'P 1'
_cell_length_a   7.65209258
_cell_length_b   9.29037988
_cell_length_c   16.97967060
_cell_angle_alpha   90.54856182
_cell_angle_beta   94.35978062
_cell_angle_gamma   107.43106700
_symmetry_Int_Tables_number   1
_chemical_formula_structural   K2H14Rh2N12O17
_chemical_formula_sum   'K4 H28 Rh4 N24 O34'
_cell_volume   1147.67030986
_cell_formula_units_Z   2
loop_
 _symmetry_equiv_pos_site_id
 _symmetry_equiv_pos_as_xyz
  1  'x, y, z'
loop_
 _atom_site_type_symbol
 _atom_site_label
 _atom_site_symmetry_multiplicity
 _atom_site_fract_x
 _atom_site_fract_y
 _atom_site_fract_z
 _atom_site_occupancy
  K  K0  1  0.10001210  0.38734620  0.82679432  1
  K  K1  1  0.89998790  0.61265380  0.17320568  1
  K  K2  1  0.58125166  0.27094889  0.94664840  1
  K  K3  1  0.41874834  0.72905111  0.05335160  1
  H  H4  1  0.13911417  0.84655838  0.86447105  1
  H  H5  1  0.86088583  0.15344162  0.13552895  1
  H  H6  1  0.67441119  0.35966703  0.60364337  1
  H  H7  1  0.32558881  0.64033297  0.39635663  1
  H  H8  1  0.68206702  0.76191796  0.69558492  1
  H  H9  1  0.31793298  0.23808204  0.30441508  1
  H  H10  1  0.98947707  0.59900809  0.61736460  1
  H  H11  1  0.01052293  0.40099191  0.38263540  1
  H  H12  1  0.07602352  0.86499559  0.77024092  1
  H  H13  1  0.92397648  0.13500441  0.22975908  1
  H  H14  1  0.76571271  0.94419204  0.72443439  1
  H  H15  1  0.23428729  0.05580796  0.27556561  1
  H  H16  1  0.68869120  0.22619856  0.66721613  1
  H  H17  1  0.31130880  0.77380144  0.33278387  1
  H  H18  1  0.07925479  0.99957870  0.83644323  1
  H  H19  1  0.92074521  0.00042130  0.16355677  1
  H  H20  1  0.63970056  0.18104763  0.57226763  1
  H  H21  1  0.36029944  0.81895237  0.42773237  1
  H  H22  1  0.06362845  0.59508796  0.53568925  1
  H  H23  1  0.93637155  0.40491204  0.46431075  1
  H  H24  1  0.55313597  0.84442342  0.74301070  1
  H  H25  1  0.44686403  0.15557658  0.25698930  1
  H  H26  1  0.36332167  0.32432488  0.48954050  1
  H  H27  1  0.63667833  0.67567512  0.51045950  1
  H  H28  1  0.15705390  0.19793595  0.49272261  1
  H  H29  1  0.84294610  0.80206405  0.50727739  1
  H  H30  1  0.33984798  0.14079900  0.47887165  1
  H  H31  1  0.66015202  0.85920100  0.52112835  1
  Rh  Rh32  1  0.77730018  0.77380958  0.85046711  1
  Rh  Rh33  1  0.22269982  0.22619042  0.14953289  1
  Rh  Rh34  1  0.33598520  0.20004426  0.63151809  1
  Rh  Rh35  1  0.66401480  0.79995574  0.36848191  1
  N  N36  1  0.37927500  0.43078997  0.64569316  1
  N  N37  1  0.62072500  0.56921003  0.35430684  1
  N  N38  1  0.29513006  0.21888633  0.50767418  1
  N  N39  1  0.70486994  0.78111367  0.49232582  1
  N  N40  1  0.50882964  0.66955741  0.86850205  1
  N  N41  1  0.49117036  0.33044259  0.13149795  1
  N  N42  1  0.05609966  0.15075963  0.63759130  1
  N  N43  1  0.94390034  0.84924037  0.36240870  1
  N  N44  1  0.05225632  0.88542448  0.82742494  1
  N  N45  1  0.94774368  0.11457552  0.17257506  1
  N  N46  1  0.80529778  0.58280720  0.79593258  1
  N  N47  1  0.19470222  0.41719280  0.20406742  1
  N  N48  1  0.30067926  0.97096981  0.61521565  1
  N  N49  1  0.69932074  0.02903019  0.38478435  1
  N  N50  1  0.39800768  0.17640770  0.74959865  1
  N  N51  1  0.60199232  0.82359230  0.25040135  1
  N  N52  1  0.68449179  0.83981241  0.73915145  1
  N  N53  1  0.31550821  0.16018759  0.26084855  1
  N  N54  1  0.87672226  0.71194640  0.95627960  1
  N  N55  1  0.12327774  0.28805360  0.04372040  1
  N  N56  1  0.76056724  0.97302832  0.90139401  1
  N  N57  1  0.23943276  0.02697168  0.09860599  1
  N  N58  1  0.61971709  0.24828045  0.61682086  1
  N  N59  1  0.38028291  0.75171955  0.38317914  1
  O  O60  1  0.33098333  0.22875432  0.80409596  1
  O  O61  1  0.66901667  0.77124568  0.19590404  1
  O  O62  1  0.87989112  0.59883015  0.73222932  1
  O  O63  1  0.12010888  0.40116985  0.26777068  1
  O  O64  1  0.51333189  0.10820549  0.76654171  1
  O  O65  1  0.48666811  0.89179451  0.23345829  1
  O  O66  1  0.49350961  0.51624853  0.60434995  1
  O  O67  1  0.50649039  0.48375147  0.39565005  1
  O  O68  1  0.65753996  0.97190198  0.95518886  1
  O  O69  1  0.34246004  0.02809802  0.04481114  1
  O  O70  1  0.95457490  0.10704335  0.57541654  1
  O  O71  1  0.04542510  0.89295665  0.42458346  1
  O  O72  1  0.76004937  0.45650903  0.82669102  1
  O  O73  1  0.23995063  0.54349097  0.17330898  1
  O  O74  1  0.46404403  0.55325518  0.90838101  1
  O  O75  1  0.53595597  0.44674482  0.09161899  1
  O  O76  1  0.38837064  0.72357230  0.83895702  1
  O  O77  1  0.61162936  0.27642770  0.16104298  1
  O  O78  1  0.18202373  0.87685409  0.65000598  1
  O  O79  1  0.81797627  0.12314591  0.34999402  1
  O  O80  1  0.29824687  0.48350838  0.69384861  1
  O  O81  1  0.70175313  0.51649162  0.30615139  1
  O  O82  1  0.85300339  0.09522557  0.87515575  1
  O  O83  1  0.14699661  0.90477443  0.12484425  1
  O  O84  1  0.02234911  0.67603891  0.95758050  1
  O  O85  1  0.97765089  0.32396109  0.04241950  1
  O  O86  1  0.40160859  0.93050762  0.57077510  1
  O  O87  1  0.59839141  0.06949238  0.42922490  1
  O  O88  1  0.94978304  0.57311365  0.56173591  1
  O  O89  1  0.05021696  0.42688635  0.43826409  1
  O  O90  1  0.79643618  0.71161641  0.01743373  1
  O  O91  1  0.20356382  0.28838359  0.98256627  1
  O  O92  1  0.98642320  0.15868172  0.70138482  1
  O  O93  1  0.01357680  0.84131828  0.29861518  1
