# generated using pymatgen
data_MnNi(PO4)2
_symmetry_space_group_name_H-M   'P 1'
_cell_length_a   8.41702446
_cell_length_b   8.51726226
_cell_length_c   8.51726201
_cell_angle_alpha   59.99999391
_cell_angle_beta   59.60526389
_cell_angle_gamma   59.60526864
_symmetry_Int_Tables_number   1
_chemical_formula_structural   MnNi(PO4)2
_chemical_formula_sum   'Mn3 Ni3 P6 O24'
_cell_volume   429.16717074
_cell_formula_units_Z   3
loop_
 _symmetry_equiv_pos_site_id
 _symmetry_equiv_pos_as_xyz
  1  'x, y, z'
loop_
 _atom_site_type_symbol
 _atom_site_label
 _atom_site_symmetry_multiplicity
 _atom_site_fract_x
 _atom_site_fract_y
 _atom_site_fract_z
 _atom_site_occupancy
  Mn  Mn0  1  0.07499286  0.64166905  0.64166905  1
  Mn  Mn1  1  0.42348006  0.85884031  0.85884031  1
  Mn  Mn2  1  0.92513533  0.35828856  0.35828856  1
  Ni  Ni3  1  0.99150393  0.00283236  0.00283236  1
  Ni  Ni4  1  0.57647927  0.14117324  0.14117324  1
  Ni  Ni5  1  0.49818753  0.50060449  0.50060449  1
  P  P6  1  0.25121981  0.24813779  0.54202162  1
  P  P7  1  0.25121981  0.95862078  0.24813779  1
  P  P8  1  0.25121981  0.54202162  0.95862078  1
  P  P9  1  0.75305199  0.45838848  0.03925175  1
  P  P10  1  0.75305199  0.03925175  0.74930778  1
  P  P11  1  0.75305199  0.74930778  0.45838848  1
  O  O12  1  0.06084526  0.12070202  0.30836087  1
  O  O13  1  0.06084526  0.51009185  0.12070202  1
  O  O14  1  0.06084526  0.30836087  0.51009185  1
  O  O15  1  0.22465716  0.08602406  0.74617057  1
  O  O16  1  0.43856297  0.18826667  0.38881924  1
  O  O17  1  0.26592478  0.41484630  0.56241910  1
  O  O18  1  0.22465716  0.94314821  0.08602406  1
  O  O19  1  0.26592478  0.75680983  0.41484630  1
  O  O20  1  0.56255566  0.62054936  0.00755801  1
  O  O21  1  0.26592478  0.56241910  0.75680983  1
  O  O22  1  0.77873321  0.26039525  0.05650927  1
  O  O23  1  0.56255566  0.00755801  0.80933698  1
  O  O24  1  0.43856297  0.98435112  0.18826667  1
  O  O25  1  0.22465716  0.74617057  0.94314821  1
  O  O26  1  0.72903465  0.45175843  0.23953594  1
  O  O27  1  0.43856297  0.38881924  0.98435112  1
  O  O28  1  0.72903465  0.23953594  0.57967097  1
  O  O29  1  0.77873321  0.05650927  0.90436327  1
  O  O30  1  0.72903465  0.57967097  0.45175843  1
  O  O31  1  0.56255566  0.80933698  0.62054936  1
  O  O32  1  0.77873321  0.90436327  0.26039525  1
  O  O33  1  0.93882152  0.68175253  0.49948761  1
  O  O34  1  0.93882152  0.49948761  0.87993734  1
  O  O35  1  0.93882152  0.87993734  0.68175253  1
