# generated using pymatgen
data_Li4Co3Ni5O16
_symmetry_space_group_name_H-M   'P 1'
_cell_length_a   5.64394101
_cell_length_b   5.64976014
_cell_length_c   9.38625272
_cell_angle_alpha   89.97238157
_cell_angle_beta   90.02955351
_cell_angle_gamma   120.02808869
_symmetry_Int_Tables_number   1
_chemical_formula_structural   Li4Co3Ni5O16
_chemical_formula_sum   'Li4 Co3 Ni5 O16'
_cell_volume   259.12677270
_cell_formula_units_Z   1
loop_
 _symmetry_equiv_pos_site_id
 _symmetry_equiv_pos_as_xyz
  1  'x, y, z'
loop_
 _atom_site_type_symbol
 _atom_site_label
 _atom_site_symmetry_multiplicity
 _atom_site_fract_x
 _atom_site_fract_y
 _atom_site_fract_z
 _atom_site_occupancy
  Li  Li0  1  0.33572844  0.66797095  0.89282783  1
  Li  Li1  1  0.00343147  0.00210890  0.99755629  1
  Li  Li2  1  0.99921491  -0.00004653  0.49785313  1
  Li  Li3  1  0.66574337  0.33254201  0.39423108  1
  Co  Co4  1  0.16734145  0.83042968  0.21400042  1
  Co  Co5  1  0.16738152  0.33659260  0.21408206  1
  Co  Co6  1  0.33663689  0.16841840  0.71377594  1
  Ni  Ni7  1  0.33376060  0.66691456  0.49071482  1
  Ni  Ni8  1  0.66215820  0.83090225  0.21470566  1
  Ni  Ni9  1  0.66791105  0.33404531  0.99039553  1
  Ni  Ni10  1  0.83108193  0.66229574  0.71505640  1
  Ni  Ni11  1  0.83105470  0.16898734  0.71509653  1
  O  O12  1  0.16077435  0.84452392  0.60688559  1
  O  O13  1  0.03461363  0.51709274  0.32628112  1
  O  O14  1  0.33779912  0.66875893  0.11041787  1
  O  O15  1  0.99482331  0.99710165  0.31029996  1
  O  O16  1  0.99493285  0.99743625  0.80894464  1
  O  O17  1  0.16066486  0.31655850  0.60692846  1
  O  O18  1  0.47856647  0.96215495  0.32936868  1
  O  O19  1  0.47855089  0.51596068  0.32945286  1
  O  O20  1  0.31766868  0.15881784  0.10921009  1
  O  O21  1  0.68263224  0.84154157  0.60557118  1
  O  O22  1  0.51542273  0.47930517  0.82822668  1
  O  O23  1  0.51548367  0.03633206  0.82830323  1
  O  O24  1  0.67184595  0.33611456  0.61241514  1
  O  O25  1  0.84560695  0.68513443  0.10639511  1
  O  O26  1  0.96364738  0.48182076  0.83227546  1
  O  O27  1  0.84552139  0.16048479  0.10657023  1
