# generated using pymatgen
data_LiNb7O12
_symmetry_space_group_name_H-M   'P 1'
_cell_length_a   10.87106108
_cell_length_b   9.60351896
_cell_length_c   10.40786574
_cell_angle_alpha   90.00000000
_cell_angle_beta   104.76187277
_cell_angle_gamma   90.00000000
_symmetry_Int_Tables_number   1
_chemical_formula_structural   LiNb7O12
_chemical_formula_sum   'Li4 Nb28 O48'
_cell_volume   1050.72101243
_cell_formula_units_Z   4
loop_
 _symmetry_equiv_pos_site_id
 _symmetry_equiv_pos_as_xyz
  1  'x, y, z'
loop_
 _atom_site_type_symbol
 _atom_site_label
 _atom_site_symmetry_multiplicity
 _atom_site_fract_x
 _atom_site_fract_y
 _atom_site_fract_z
 _atom_site_occupancy
  Li  Li0  1  0.41951054  0.06928218  0.52764360  1
  Li  Li1  1  0.41951054  0.43071782  0.02764360  1
  Li  Li2  1  0.58048946  0.56928218  0.97235640  1
  Li  Li3  1  0.58048946  0.93071782  0.47235640  1
  Nb  Nb4  1  0.00072361  0.89057488  0.65838578  1
  Nb  Nb5  1  0.14545116  0.87040426  0.96225732  1
  Nb  Nb6  1  0.00072361  0.60942512  0.15838578  1
  Nb  Nb7  1  0.14979086  0.36839392  0.61785866  1
  Nb  Nb8  1  0.14545116  0.62959574  0.46225732  1
  Nb  Nb9  1  0.27835921  0.11911790  0.90741344  1
  Nb  Nb10  1  0.28245449  0.62266030  0.74484727  1
  Nb  Nb11  1  0.14979086  0.13160608  0.11785866  1
  Nb  Nb12  1  0.27835921  0.38088210  0.40741344  1
  Nb  Nb13  1  0.28245449  0.87733970  0.24484727  1
  Nb  Nb14  1  0.42172304  0.37737217  0.68963060  1
  Nb  Nb15  1  0.41269155  0.62983738  0.53684594  1
  Nb  Nb16  1  0.58730845  0.12983738  0.96315406  1
  Nb  Nb17  1  0.42172304  0.12262783  0.18963060  1
  Nb  Nb18  1  0.57827696  0.87737217  0.81036940  1
  Nb  Nb19  1  0.41269155  0.87016262  0.03684594  1
  Nb  Nb20  1  0.58730845  0.37016262  0.46315406  1
  Nb  Nb21  1  0.57827696  0.62262783  0.31036940  1
  Nb  Nb22  1  0.71754551  0.12266030  0.75515273  1
  Nb  Nb23  1  0.72164079  0.61911790  0.59258656  1
  Nb  Nb24  1  0.85020914  0.86839392  0.88214134  1
  Nb  Nb25  1  0.71754551  0.37733970  0.25515273  1
  Nb  Nb26  1  0.72164079  0.88088210  0.09258656  1
  Nb  Nb27  1  0.85454884  0.37040426  0.53774268  1
  Nb  Nb28  1  0.85020914  0.63160608  0.38214134  1
  Nb  Nb29  1  0.99927639  0.39057488  0.84161422  1
  Nb  Nb30  1  0.85454884  0.12959574  0.03774268  1
  Nb  Nb31  1  0.99927639  0.10942512  0.34161422  1
  O  O32  1  0.00030198  0.26599881  0.67785947  1
  O  O33  1  0.00000000  0.00000000  0.50000000  1
  O  O34  1  0.00000000  0.50000000  0.50000000  1
  O  O35  1  0.13956715  0.25070314  0.94720221  1
  O  O36  1  0.13807426  0.99469510  0.78537330  1
  O  O37  1  0.00030198  0.23400119  0.17785947  1
  O  O38  1  0.14011068  0.49209004  0.78858714  1
  O  O39  1  0.13546223  0.74839770  0.62572444  1
  O  O40  1  0.00000000  0.00000000  0.00000000  1
  O  O41  1  0.00000000  0.50000000  0.00000000  1
  O  O42  1  0.13956715  0.24929686  0.44720221  1
  O  O43  1  0.27999753  0.74927585  0.91226919  1
  O  O44  1  0.13807426  0.50530490  0.28537330  1
  O  O45  1  0.14011068  0.00790996  0.28858714  1
  O  O46  1  0.13546223  0.75160230  0.12572444  1
  O  O47  1  0.28608517  0.24819187  0.73365851  1
  O  O48  1  0.27999753  0.75072415  0.41226919  1
  O  O49  1  0.42376556  0.49791726  0.85401902  1
  O  O50  1  0.43025055  0.99698953  0.86620148  1
  O  O51  1  0.28608517  0.25180813  0.23365851  1
  O  O52  1  0.42563401  0.74534253  0.70314706  1
  O  O53  1  0.42891429  0.26219712  0.51831166  1
  O  O54  1  0.42376556  0.00208274  0.35401902  1
  O  O55  1  0.43025055  0.50301047  0.36620148  1
  O  O56  1  0.57108571  0.76219712  0.98168834  1
  O  O57  1  0.42563401  0.75465747  0.20314706  1
  O  O58  1  0.57436599  0.24534253  0.79685294  1
  O  O59  1  0.42891429  0.23780288  0.01831166  1
  O  O60  1  0.56974945  0.49698953  0.63379852  1
  O  O61  1  0.57623444  0.99791726  0.64598098  1
  O  O62  1  0.57108571  0.73780288  0.48168834  1
  O  O63  1  0.57436599  0.25465747  0.29685294  1
  O  O64  1  0.71391483  0.74819187  0.76634149  1
  O  O65  1  0.56974945  0.00301047  0.13379852  1
  O  O66  1  0.57623444  0.50208274  0.14598098  1
  O  O67  1  0.72000247  0.24927585  0.58773081  1
  O  O68  1  0.71391483  0.75180813  0.26634149  1
  O  O69  1  0.86453777  0.24839770  0.87427556  1
  O  O70  1  0.85988932  0.99209004  0.71141286  1
  O  O71  1  0.86192574  0.49469510  0.71462670  1
  O  O72  1  0.72000247  0.25072415  0.08773081  1
  O  O73  1  0.86043285  0.75070314  0.55279779  1
  O  O74  1  0.86453777  0.25160230  0.37427556  1
  O  O75  1  0.85988932  0.50790996  0.21141286  1
  O  O76  1  0.99969802  0.76599881  0.82214053  1
  O  O77  1  0.86192574  0.00530490  0.21462670  1
  O  O78  1  0.86043285  0.74929686  0.05279779  1
  O  O79  1  0.99969802  0.73400119  0.32214053  1
