# generated using pymatgen
data_LiNiO2
_symmetry_space_group_name_H-M   'P 1'
_cell_length_a   5.04404410
_cell_length_b   5.06223033
_cell_length_c   7.55069844
_cell_angle_alpha   107.22642686
_cell_angle_beta   104.00352472
_cell_angle_gamma   100.02902649
_symmetry_Int_Tables_number   1
_chemical_formula_structural   LiNiO2
_chemical_formula_sum   'Li5 Ni5 O10'
_cell_volume   172.27920981
_cell_formula_units_Z   5
loop_
 _symmetry_equiv_pos_site_id
 _symmetry_equiv_pos_as_xyz
  1  'x, y, z'
loop_
 _atom_site_type_symbol
 _atom_site_label
 _atom_site_symmetry_multiplicity
 _atom_site_fract_x
 _atom_site_fract_y
 _atom_site_fract_z
 _atom_site_occupancy
  Li  Li0  1  0.20505179  0.91142736  0.40919541  1
  Li  Li1  1  0.38923163  0.28249418  0.78266463  1
  Li  Li2  1  0.50000000  0.50000000  0.50000000  1
  Li  Li3  1  0.61076837  0.71750582  0.21733537  1
  Li  Li4  1  0.79494821  0.08857264  0.59080459  1
  Ni  Ni5  1  0.10009384  0.69587485  0.69639005  1
  Ni  Ni6  1  0.00000000  0.50000000  0.00000000  1
  Ni  Ni7  1  0.69894874  0.89519425  0.89853473  1
  Ni  Ni8  1  0.30105126  0.10480575  0.10146527  1
  Ni  Ni9  1  0.89990616  0.30412515  0.30360995  1
  O  O10  1  0.05843440  0.10729649  0.86198939  1
  O  O11  1  0.32696115  0.71543128  0.94865761  1
  O  O12  1  0.13035929  0.30520378  0.53983717  1
  O  O13  1  0.22646139  0.47590863  0.23036853  1
  O  O14  1  0.44276641  0.88662344  0.66347641  1
  O  O15  1  0.55723359  0.11337656  0.33652359  1
  O  O16  1  0.77353861  0.52409137  0.76963147  1
  O  O17  1  0.86964071  0.69479622  0.46016283  1
  O  O18  1  0.67303885  0.28456872  0.05134239  1
  O  O19  1  0.94156560  0.89270351  0.13801061  1
