# generated using pymatgen
data_TiMn5(PO4)6
_symmetry_space_group_name_H-M   'P 1'
_cell_length_a   8.64101129
_cell_length_b   8.62338711
_cell_length_c   8.62338726
_cell_angle_alpha   59.99999602
_cell_angle_beta   60.06744291
_cell_angle_gamma   60.06744380
_symmetry_Int_Tables_number   1
_chemical_formula_structural   TiMn5(PO4)6
_chemical_formula_sum   'Ti1 Mn5 P6 O24'
_cell_volume   454.82811736
_cell_formula_units_Z   1
loop_
 _symmetry_equiv_pos_site_id
 _symmetry_equiv_pos_as_xyz
  1  'x, y, z'
loop_
 _atom_site_type_symbol
 _atom_site_label
 _atom_site_symmetry_multiplicity
 _atom_site_fract_x
 _atom_site_fract_y
 _atom_site_fract_z
 _atom_site_occupancy
  Ti  Ti0  1  0.56580290  0.14473237  0.14473237  1
  Mn  Mn1  1  0.00136703  0.99954432  0.99954432  1
  Mn  Mn2  1  0.06773615  0.64408795  0.64408795  1
  Mn  Mn3  1  0.50231783  0.49922739  0.49922739  1
  Mn  Mn4  1  0.43460197  0.85513234  0.85513234  1
  Mn  Mn5  1  0.93303442  0.35565519  0.35565519  1
  P  P6  1  0.24873679  0.24935360  0.54418584  1
  P  P7  1  0.24873679  0.95772478  0.24935360  1
  P  P8  1  0.24873679  0.54418584  0.95772478  1
  P  P9  1  0.75072028  0.45916737  0.04137246  1
  P  P10  1  0.75072028  0.04137246  0.74873889  1
  P  P11  1  0.75072028  0.74873889  0.45916737  1
  O  O12  1  0.06659201  0.11545500  0.30395531  1
  O  O13  1  0.06659201  0.51399769  0.11545500  1
  O  O14  1  0.06659201  0.30395531  0.51399769  1
  O  O15  1  0.23834705  0.08309613  0.73717128  1
  O  O16  1  0.42687385  0.18874701  0.38012438  1
  O  O17  1  0.27099890  0.41218523  0.55345033  1
  O  O18  1  0.23834705  0.94138555  0.08309613  1
  O  O19  1  0.27099890  0.76336454  0.41218523  1
  O  O20  1  0.56832230  0.61803125  0.00955060  1
  O  O21  1  0.27099890  0.55345033  0.76336454  1
  O  O22  1  0.75948048  0.26381982  0.06131857  1
  O  O23  1  0.56832230  0.00955060  0.80409585  1
  O  O24  1  0.42687385  0.00425475  0.18874701  1
  O  O25  1  0.23834705  0.73717128  0.94138555  1
  O  O26  1  0.73462747  0.44182835  0.23763692  1
  O  O27  1  0.42687385  0.38012438  0.00425475  1
  O  O28  1  0.73462747  0.23763692  0.58590826  1
  O  O29  1  0.75948048  0.06131857  0.91538113  1
  O  O30  1  0.73462747  0.58590826  0.44182835  1
  O  O31  1  0.56832230  0.80409585  0.61803125  1
  O  O32  1  0.75948048  0.91538113  0.26381982  1
  O  O33  1  0.93367945  0.69331703  0.48842793  1
  O  O34  1  0.93367945  0.48842793  0.88457459  1
  O  O35  1  0.93367945  0.88457459  0.69331703  1
