# generated using pymatgen
data_Li4MnNb(WO6)2
_symmetry_space_group_name_H-M   'P 1'
_cell_length_a   5.45110262
_cell_length_b   11.00685640
_cell_length_c   9.78106255
_cell_angle_alpha   27.90161027
_cell_angle_beta   51.71540365
_cell_angle_gamma   56.56454282
_symmetry_Int_Tables_number   1
_chemical_formula_structural   Li4MnNb(WO6)2
_chemical_formula_sum   'Li4 Mn1 Nb1 W2 O12'
_cell_volume   215.55414619
_cell_formula_units_Z   1
loop_
 _symmetry_equiv_pos_site_id
 _symmetry_equiv_pos_as_xyz
  1  'x, y, z'
loop_
 _atom_site_type_symbol
 _atom_site_label
 _atom_site_symmetry_multiplicity
 _atom_site_fract_x
 _atom_site_fract_y
 _atom_site_fract_z
 _atom_site_occupancy
  Li  Li0  1  0.32373516  0.00278096  0.27008141  1
  Li  Li1  1  0.26443332  0.49518307  0.30645083  1
  Li  Li2  1  0.77720711  0.99806345  0.80116711  1
  Li  Li3  1  0.77654182  0.49945366  0.75260343  1
  Mn  Mn4  1  0.00387745  0.99903824  0.99867507  1
  Nb  Nb5  1  0.99988550  0.49933288  0.01803299  1
  W  W6  1  0.52314673  0.99475414  0.50205980  1
  W  W7  1  0.48403967  0.50708627  0.50612542  1
  O  O8  1  0.37739661  0.30939647  0.11788258  1
  O  O9  1  0.25432735  0.12959926  0.59530055  1
  O  O10  1  0.14589374  0.31288456  0.73088508  1
  O  O11  1  0.88042228  0.18139020  0.24522511  1
  O  O12  1  0.36358477  0.79482711  0.14075868  1
  O  O13  1  0.74115841  0.37788453  0.37148100  1
  O  O14  1  0.23482728  0.62029045  0.62587329  1
  O  O15  1  0.63896852  0.19886799  0.84828084  1
  O  O16  1  0.11558264  0.82266496  0.73542896  1
  O  O17  1  0.85285328  0.69795635  0.23882579  1
  O  O18  1  0.69713366  0.87646531  0.39023116  1
  O  O19  1  0.61618469  0.68208211  0.87582990  1
