# generated using pymatgen
data_Sr3LaI9
_symmetry_space_group_name_H-M   'P 1'
_cell_length_a   8.40495976
_cell_length_b   33.10699701
_cell_length_c   7.80233031
_cell_angle_alpha   90.00000000
_cell_angle_beta   90.00000000
_cell_angle_gamma   91.79229030
_symmetry_Int_Tables_number   1
_chemical_formula_structural   Sr3LaI9
_chemical_formula_sum   'Sr12 La4 I36'
_cell_volume   2170.03751416
_cell_formula_units_Z   4
loop_
 _symmetry_equiv_pos_site_id
 _symmetry_equiv_pos_as_xyz
  1  'x, y, z'
loop_
 _atom_site_type_symbol
 _atom_site_label
 _atom_site_symmetry_multiplicity
 _atom_site_fract_x
 _atom_site_fract_y
 _atom_site_fract_z
 _atom_site_occupancy
  Sr  Sr0  1  0.33160784  0.93276476  0.96704097  1
  Sr  Sr1  1  0.29983962  0.69217492  0.00154825  1
  Sr  Sr2  1  0.33160784  0.43276476  0.03295903  1
  Sr  Sr3  1  0.29983962  0.19217492  0.99845175  1
  Sr  Sr4  1  0.67926758  0.56860987  0.98461146  1
  Sr  Sr5  1  0.71373513  0.80960137  0.98185206  1
  Sr  Sr6  1  0.67926758  0.06860987  0.01538854  1
  Sr  Sr7  1  0.71373513  0.30960137  0.01814794  1
  Sr  Sr8  1  0.78953981  0.69207914  0.52255237  1
  Sr  Sr9  1  0.82807755  0.93177689  0.51677378  1
  Sr  Sr10  1  0.78953981  0.19207914  0.47744763  1
  Sr  Sr11  1  0.82807755  0.43177689  0.48322622  1
  La  La12  1  0.20113613  0.80684811  0.52129958  1
  La  La13  1  0.17700407  0.56768085  0.54659198  1
  La  La14  1  0.20113613  0.30684811  0.47870042  1
  La  La15  1  0.17700407  0.06768085  0.45340802  1
  I  I16  1  0.01458765  0.86961302  0.80142041  1
  I  I17  1  0.00888181  0.75121006  0.82275639  1
  I  I18  1  0.00112970  0.62893511  0.82024257  1
  I  I19  1  0.01458765  0.36961302  0.19857959  1
  I  I20  1  0.00888181  0.25121006  0.17724361  1
  I  I21  1  0.11069281  0.99149766  0.70989678  1
  I  I22  1  0.00112970  0.12893511  0.17975743  1
  I  I23  1  0.15178918  0.89500377  0.32485911  1
  I  I24  1  0.11069281  0.49149766  0.29010322  1
  I  I25  1  0.15696427  0.70589089  0.39116827  1
  I  I26  1  0.15178918  0.39500377  0.67514089  1
  I  I27  1  0.15696427  0.20589089  0.60883173  1
  I  I28  1  0.35700281  0.79593610  0.15272796  1
  I  I29  1  0.35192753  0.59935690  0.19992552  1
  I  I30  1  0.35700281  0.29593610  0.84727204  1
  I  I31  1  0.35192753  0.09935690  0.80007448  1
  I  I32  1  0.41284350  0.50989198  0.75356837  1
  I  I33  1  0.49754365  0.86811204  0.68203938  1
  I  I34  1  0.49436510  0.75088908  0.69417391  1
  I  I35  1  0.48329661  0.62879270  0.70105123  1
  I  I36  1  0.41284350  0.00989198  0.24643163  1
  I  I37  1  0.49754365  0.36811204  0.31796062  1
  I  I38  1  0.49436510  0.25088908  0.30582609  1
  I  I39  1  0.48329661  0.12879270  0.29894877  1
  I  I40  1  0.60856183  0.98939697  0.76225290  1
  I  I41  1  0.60856183  0.48939697  0.23774710  1
  I  I42  1  0.65640484  0.90039362  0.15962589  1
  I  I43  1  0.67082608  0.69926140  0.12316620  1
  I  I44  1  0.65640484  0.40039362  0.84037411  1
  I  I45  1  0.67082608  0.19926140  0.87683380  1
  I  I46  1  0.84561534  0.79725462  0.38400296  1
  I  I47  1  0.86553988  0.59908186  0.34899984  1
  I  I48  1  0.84561534  0.29725462  0.61599704  1
  I  I49  1  0.86553988  0.09908186  0.65100016  1
  I  I50  1  0.92255366  0.50976029  0.75754210  1
  I  I51  1  0.92255366  0.00976029  0.24245790  1
