# generated using pymatgen
data_V4CrCuO12
_symmetry_space_group_name_H-M   'P 1'
_cell_length_a   6.75402133
_cell_length_b   6.75402067
_cell_length_c   5.90867228
_cell_angle_alpha   75.24339718
_cell_angle_beta   104.75660337
_cell_angle_gamma   95.92253286
_symmetry_Int_Tables_number   1
_chemical_formula_structural   V4CrCuO12
_chemical_formula_sum   'V4 Cr1 Cu1 O12'
_cell_volume   251.83605329
_cell_formula_units_Z   1
loop_
 _symmetry_equiv_pos_site_id
 _symmetry_equiv_pos_as_xyz
  1  'x, y, z'
loop_
 _atom_site_type_symbol
 _atom_site_label
 _atom_site_symmetry_multiplicity
 _atom_site_fract_x
 _atom_site_fract_y
 _atom_site_fract_z
 _atom_site_occupancy
  V  V0  1  0.20982208  0.60816211  0.76915444  1
  V  V1  1  0.38601618  0.79947842  0.25406528  1
  V  V2  1  0.60816211  0.20982208  0.73084556  1
  V  V3  1  0.79947842  0.38601618  0.24593472  1
  Cr  Cr4  1  0.08312235  0.08312235  0.75000000  1
  Cu  Cu5  1  0.90645884  0.90645884  0.25000000  1
  O  O6  1  0.03824324  0.80054314  0.67478170  1
  O  O7  1  0.09199924  0.37032585  0.78835585  1
  O  O8  1  0.18833631  0.96934680  0.11342995  1
  O  O9  1  0.36107358  0.65479995  0.55175568  1
  O  O10  1  0.37032585  0.09199924  0.71164415  1
  O  O11  1  0.36770178  0.62858427  0.05664183  1
  O  O12  1  0.65479995  0.36107358  0.94824432  1
  O  O13  1  0.61788665  0.91809721  0.28049412  1
  O  O14  1  0.62858427  0.36770178  0.44335817  1
  O  O15  1  0.80054314  0.03824324  0.82521830  1
  O  O16  1  0.91809721  0.61788665  0.21950588  1
  O  O17  1  0.96934680  0.18833631  0.38657005  1
