# generated using pymatgen
data_Sm2WO6
_symmetry_space_group_name_H-M   'P 1'
_cell_length_a   5.52264216
_cell_length_b   10.08227384
_cell_length_c   10.08227384
_cell_angle_alpha   68.63849742
_cell_angle_beta   75.79597435
_cell_angle_gamma   75.79597435
_symmetry_Int_Tables_number   1
_chemical_formula_structural   Sm2WO6
_chemical_formula_sum   'Sm8 W4 O24'
_cell_volume   499.21507865
_cell_formula_units_Z   4
loop_
 _symmetry_equiv_pos_site_id
 _symmetry_equiv_pos_as_xyz
  1  'x, y, z'
loop_
 _atom_site_type_symbol
 _atom_site_label
 _atom_site_symmetry_multiplicity
 _atom_site_fract_x
 _atom_site_fract_y
 _atom_site_fract_z
 _atom_site_occupancy
  Sm  Sm0  1  0.61552711  0.05761360  0.28760698  1
  Sm  Sm1  1  0.11552711  0.28760698  0.05761360  1
  Sm  Sm2  1  0.75000000  0.63219671  0.36780329  1
  Sm  Sm3  1  0.75000000  0.10736710  0.89263290  1
  Sm  Sm4  1  0.25000000  0.89263290  0.10736710  1
  Sm  Sm5  1  0.25000000  0.36780329  0.63219671  1
  Sm  Sm6  1  0.88447289  0.71239302  0.94238640  1
  Sm  Sm7  1  0.38447289  0.94238640  0.71239302  1
  W  W8  1  0.93488607  0.19992590  0.49515415  1
  W  W9  1  0.43488607  0.49515415  0.19992590  1
  W  W10  1  0.56511393  0.50484585  0.80007410  1
  W  W11  1  0.06511393  0.80007410  0.50484585  1
  O  O12  1  0.92147702  0.10700203  0.07719873  1
  O  O13  1  0.42147702  0.07719873  0.10700203  1
  O  O14  1  0.73238107  0.47254084  0.06395282  1
  O  O15  1  0.85372341  0.21653260  0.32077853  1
  O  O16  1  0.23238107  0.06395282  0.47254084  1
  O  O17  1  0.35372341  0.32077853  0.21653260  1
  O  O18  1  0.62258184  0.17497666  0.61828222  1
  O  O19  1  0.12258184  0.61828222  0.17497666  1
  O  O20  1  0.97765973  0.38614991  0.45617503  1
  O  O21  1  0.57942365  0.68418274  0.16102181  1
  O  O22  1  0.47765973  0.45617503  0.38614991  1
  O  O23  1  0.07942365  0.16102181  0.68418274  1
  O  O24  1  0.92057635  0.83897819  0.31581726  1
  O  O25  1  0.52234027  0.54382497  0.61385009  1
  O  O26  1  0.42057635  0.31581726  0.83897819  1
  O  O27  1  0.02234027  0.61385009  0.54382497  1
  O  O28  1  0.87741816  0.38171778  0.82502334  1
  O  O29  1  0.37741816  0.82502334  0.38171778  1
  O  O30  1  0.64627659  0.67922147  0.78346740  1
  O  O31  1  0.76761893  0.93604718  0.52745916  1
  O  O32  1  0.14627659  0.78346740  0.67922147  1
  O  O33  1  0.26761893  0.52745916  0.93604718  1
  O  O34  1  0.57852298  0.92280027  0.89299797  1
  O  O35  1  0.07852298  0.89299797  0.92280027  1
