# generated using pymatgen
data_NaCoCSO7
_symmetry_space_group_name_H-M   'P 1'
_cell_length_a   8.94552479
_cell_length_b   6.64615348
_cell_length_c   5.16044368
_cell_angle_alpha   90.00000000
_cell_angle_beta   87.93524744
_cell_angle_gamma   90.00000000
_symmetry_Int_Tables_number   1
_chemical_formula_structural   NaCoCSO7
_chemical_formula_sum   'Na2 Co2 C2 S2 O14'
_cell_volume   306.60637012
_cell_formula_units_Z   2
loop_
 _symmetry_equiv_pos_site_id
 _symmetry_equiv_pos_as_xyz
  1  'x, y, z'
loop_
 _atom_site_type_symbol
 _atom_site_label
 _atom_site_symmetry_multiplicity
 _atom_site_fract_x
 _atom_site_fract_y
 _atom_site_fract_z
 _atom_site_occupancy
  Na  Na0  1  0.23152785  0.47947958  0.23432446  1
  Na  Na1  1  0.76847215  0.97947958  0.76567554  1
  Co  Co2  1  0.34446693  0.76416964  0.78279512  1
  Co  Co3  1  0.65553307  0.26416964  0.21720488  1
  C  C4  1  0.08265506  0.74290885  0.72414461  1
  C  C5  1  0.91734494  0.24290885  0.27585539  1
  S  S6  1  0.42758157  0.25428104  0.72324801  1
  S  S7  1  0.57241843  0.75428104  0.27675199  1
  O  O8  1  0.05373928  0.24574263  0.30855392  1
  O  O9  1  0.14675373  0.74656677  0.94969365  1
  O  O10  1  0.18756536  0.73946465  0.53707179  1
  O  O11  1  0.33304964  0.07718022  0.77835252  1
  O  O12  1  0.34128771  0.43531657  0.80371305  1
  O  O13  1  0.42787429  0.74363589  0.13887726  1
  O  O14  1  0.46494914  0.26910317  0.43639725  1
  O  O15  1  0.53505086  0.76910317  0.56360275  1
  O  O16  1  0.57212571  0.24363589  0.86112274  1
  O  O17  1  0.65871229  0.93531657  0.19628695  1
  O  O18  1  0.66695036  0.57718022  0.22164748  1
  O  O19  1  0.81243464  0.23946465  0.46292821  1
  O  O20  1  0.85324627  0.24656677  0.05030635  1
  O  O21  1  0.94626072  0.74574263  0.69144608  1
