# generated using pymatgen
data_Li3Fe(PO4)2
_symmetry_space_group_name_H-M   'P 1'
_cell_length_a   4.76860552
_cell_length_b   5.16913505
_cell_length_c   13.21476960
_cell_angle_alpha   82.93925367
_cell_angle_beta   89.95357776
_cell_angle_gamma   62.52202733
_symmetry_Int_Tables_number   1
_chemical_formula_structural   Li3Fe(PO4)2
_chemical_formula_sum   'Li6 Fe2 P4 O16'
_cell_volume   286.22088069
_cell_formula_units_Z   2
loop_
 _symmetry_equiv_pos_site_id
 _symmetry_equiv_pos_as_xyz
  1  'x, y, z'
loop_
 _atom_site_type_symbol
 _atom_site_label
 _atom_site_symmetry_multiplicity
 _atom_site_fract_x
 _atom_site_fract_y
 _atom_site_fract_z
 _atom_site_occupancy
  Li  Li0  1  0.63436116  0.65874364  0.64903351  1
  Li  Li1  1  0.69879158  0.66758408  0.14783053  1
  Li  Li2  1  0.29690936  0.33783153  0.85422999  1
  Li  Li3  1  0.36753714  0.33126493  0.35328855  1
  Li  Li4  1  0.94503871  0.00255951  0.75065809  1
  Li  Li5  1  0.05092962  0.00239331  0.25050722  1
  Fe  Fe6  1  0.99771604  0.99894904  0.50084598  1
  Fe  Fe7  1  0.99877135  0.00308971  0.00107391  1
  P  P8  1  0.63836624  0.68285853  0.88529666  1
  P  P9  1  0.67971418  0.67923946  0.38517714  1
  P  P10  1  0.31751724  0.31837427  0.61683295  1
  P  P11  1  0.36009846  0.32215120  0.11642147  1
  O  O12  1  0.27398320  0.90322535  0.86857717  1
  O  O13  1  0.82279047  0.90043502  0.36824196  1
  O  O14  1  0.77327328  0.78028363  0.97135709  1
  O  O15  1  0.44618840  0.77494539  0.47041511  1
  O  O16  1  0.81827763  0.67828430  0.78856523  1
  O  O17  1  0.03681150  0.63320986  0.58580406  1
  O  O18  1  0.50434767  0.67705331  0.28713546  1
  O  O19  1  0.32497280  0.63787175  0.08624452  1
  O  O20  1  0.67302277  0.36740244  0.91628200  1
  O  O21  1  0.49464140  0.32330283  0.71393176  1
  O  O22  1  0.96012462  0.36382270  0.41560252  1
  O  O23  1  0.18289581  0.32159023  0.21363529  1
  O  O24  1  0.55007194  0.22064088  0.53130496  1
  O  O25  1  0.22301670  0.22810287  0.03008469  1
  O  O26  1  0.17430045  0.09776397  0.63437933  1
  O  O27  1  0.72449029  0.10143025  0.13303484  1
