# generated using pymatgen
data_Gd2(WO4)3
_symmetry_space_group_name_H-M   'P 1'
_cell_length_a   7.00453911
_cell_length_b   7.00453911
_cell_length_c   11.53711603
_cell_angle_alpha   79.15608705
_cell_angle_beta   100.84391295
_cell_angle_gamma   67.77746233
_symmetry_Int_Tables_number   1
_chemical_formula_structural   Gd2(WO4)3
_chemical_formula_sum   'Gd4 W6 O24'
_cell_volume   493.27774158
_cell_formula_units_Z   2
loop_
 _symmetry_equiv_pos_site_id
 _symmetry_equiv_pos_as_xyz
  1  'x, y, z'
loop_
 _atom_site_type_symbol
 _atom_site_label
 _atom_site_symmetry_multiplicity
 _atom_site_fract_x
 _atom_site_fract_y
 _atom_site_fract_z
 _atom_site_occupancy
  Gd  Gd0  1  0.30656856  0.94799594  0.59471452  1
  Gd  Gd1  1  0.05200406  0.69343144  0.09471452  1
  Gd  Gd2  1  0.94799594  0.30656856  0.90528548  1
  Gd  Gd3  1  0.69343144  0.05200406  0.40528548  1
  W  W4  1  0.49145887  0.79722051  0.95206150  1
  W  W5  1  0.20277949  0.50854113  0.45206150  1
  W  W6  1  0.88187728  0.88187728  0.75000000  1
  W  W7  1  0.11812272  0.11812272  0.25000000  1
  W  W8  1  0.79722051  0.49145887  0.54793850  1
  W  W9  1  0.50854113  0.20277949  0.04793850  1
  O  O10  1  0.35081238  0.79552710  0.80209110  1
  O  O11  1  0.59457751  0.98824869  0.72010024  1
  O  O12  1  0.97350051  0.94746846  0.89169884  1
  O  O13  1  0.32683198  0.60622687  0.56146945  1
  O  O14  1  0.77808850  0.62207673  0.96217564  1
  O  O15  1  0.10180632  0.32426961  0.57630244  1
  O  O16  1  0.20447290  0.64918762  0.30209110  1
  O  O17  1  0.32426961  0.10180632  0.92369756  1
  O  O18  1  0.62207673  0.77808850  0.53782436  1
  O  O19  1  0.60622687  0.32683198  0.93853055  1
  O  O20  1  0.94746846  0.97350051  0.60830116  1
  O  O21  1  0.01175131  0.40542249  0.22010024  1
  O  O22  1  0.98824869  0.59457751  0.77989976  1
  O  O23  1  0.05253154  0.02649949  0.39169884  1
  O  O24  1  0.39377313  0.67316802  0.06146945  1
  O  O25  1  0.37792327  0.22191150  0.46217564  1
  O  O26  1  0.67573039  0.89819368  0.07630244  1
  O  O27  1  0.79552710  0.35081238  0.69790890  1
  O  O28  1  0.89819368  0.67573039  0.42369756  1
  O  O29  1  0.22191150  0.37792327  0.03782436  1
  O  O30  1  0.67316802  0.39377313  0.43853055  1
  O  O31  1  0.02649949  0.05253154  0.10830116  1
  O  O32  1  0.40542249  0.01175131  0.27989976  1
  O  O33  1  0.64918762  0.20447290  0.19790890  1
