# generated using pymatgen
data_Li2CrCuO4
_symmetry_space_group_name_H-M   'P 1'
_cell_length_a   5.89469505
_cell_length_b   5.89469488
_cell_length_c   5.88407442
_cell_angle_alpha   119.93765670
_cell_angle_beta   119.93766367
_cell_angle_gamma   90.17126682
_symmetry_Int_Tables_number   1
_chemical_formula_structural   Li2CrCuO4
_chemical_formula_sum   'Li4 Cr2 Cu2 O8'
_cell_volume   144.62826303
_cell_formula_units_Z   2
loop_
 _symmetry_equiv_pos_site_id
 _symmetry_equiv_pos_as_xyz
  1  'x, y, z'
loop_
 _atom_site_type_symbol
 _atom_site_label
 _atom_site_symmetry_multiplicity
 _atom_site_fract_x
 _atom_site_fract_y
 _atom_site_fract_z
 _atom_site_occupancy
  Li  Li0  1  0.00000000  0.50000000  0.50000000  1
  Li  Li1  1  0.50000000  0.50000000  0.50000000  1
  Li  Li2  1  0.50000000  0.00000000  0.00000000  1
  Li  Li3  1  0.50000000  0.50000000  0.00000000  1
  Cr  Cr4  1  0.00000000  0.50000000  0.00000000  1
  Cr  Cr5  1  0.50000000  0.00000000  0.50000000  1
  Cu  Cu6  1  0.00000000  0.00000000  0.50000000  1
  Cu  Cu7  1  0.00000000  0.00000000  0.00000000  1
  O  O8  1  0.24458381  0.75543691  0.01557783  1
  O  O9  1  0.24796048  0.22720619  0.48758227  1
  O  O10  1  0.24456309  0.75541619  0.48442217  1
  O  O11  1  0.77279381  0.75203952  0.01241773  1
  O  O12  1  0.22720619  0.24796048  0.98758227  1
  O  O13  1  0.75543691  0.24458381  0.51557783  1
  O  O14  1  0.75203952  0.77279381  0.51241773  1
  O  O15  1  0.75541619  0.24456309  0.98442217  1
