# generated using pymatgen
data_Li2Ni3WO8
_symmetry_space_group_name_H-M   'P 1'
_cell_length_a   5.87699818
_cell_length_b   5.87764162
_cell_length_c   9.59689972
_cell_angle_alpha   89.99625735
_cell_angle_beta   90.00187219
_cell_angle_gamma   120.00362830
_symmetry_Int_Tables_number   1
_chemical_formula_structural   Li2Ni3WO8
_chemical_formula_sum   'Li4 Ni6 W2 O16'
_cell_volume   287.08094436
_cell_formula_units_Z   2
loop_
 _symmetry_equiv_pos_site_id
 _symmetry_equiv_pos_as_xyz
  1  'x, y, z'
loop_
 _atom_site_type_symbol
 _atom_site_label
 _atom_site_symmetry_multiplicity
 _atom_site_fract_x
 _atom_site_fract_y
 _atom_site_fract_z
 _atom_site_occupancy
  Li  Li0  1  0.33331752  0.66663364  0.90298956  1
  Li  Li1  1  -0.00000054  0.00003776  0.99001076  1
  Li  Li2  1  0.00000054  0.00003830  0.49001076  1
  Li  Li3  1  0.66668248  0.33331612  0.40298956  1
  Ni  Ni4  1  0.16975116  0.83024077  0.21451401  1
  Ni  Ni5  1  0.16975179  0.33958919  0.21448746  1
  Ni  Ni6  1  0.66042737  0.83027184  0.21449355  1
  Ni  Ni7  1  0.33957263  0.16984447  0.71449355  1
  Ni  Ni8  1  0.83024884  0.66048861  0.71451401  1
  Ni  Ni9  1  0.83024821  0.16983741  0.71448746  1
  W  W10  1  0.33335640  0.66677145  0.48718769  1
  W  W11  1  0.66664360  0.33341505  0.98718769  1
  O  O12  1  0.17028646  0.82990739  0.58825705  1
  O  O13  1  0.03457119  0.51717223  0.35007912  1
  O  O14  1  0.33352037  0.66649932  0.11618824  1
  O  O15  1  0.99983686  0.00018286  0.29899204  1
  O  O16  1  0.00016314  0.00034600  0.79899204  1
  O  O17  1  0.17024851  0.34038320  0.58833529  1
  O  O18  1  0.48285160  0.96545098  0.35006989  1
  O  O19  1  0.48275938  0.51730547  0.35000872  1
  O  O20  1  0.34036075  0.17022378  0.08830562  1
  O  O21  1  0.65963925  0.82986304  0.58830562  1
  O  O22  1  0.51714840  0.48260039  0.85006989  1
  O  O23  1  0.51724062  0.03454609  0.85000872  1
  O  O24  1  0.66647963  0.33297795  0.61618824  1
  O  O25  1  0.82971354  0.65961994  0.08825705  1
  O  O26  1  0.96542881  0.48260205  0.85007912  1
  O  O27  1  0.82975149  0.17013369  0.08833529  1
