# generated using pymatgen
data_Tb2WO6
_symmetry_space_group_name_H-M   'P 1'
_cell_length_a   10.08523275
_cell_length_b   9.93249056
_cell_length_c   10.08495542
_cell_angle_alpha   76.72045053
_cell_angle_beta   112.72307801
_cell_angle_gamma   148.52497031
_symmetry_Int_Tables_number   1
_chemical_formula_structural   Tb2WO6
_chemical_formula_sum   'Tb8 W4 O24'
_cell_volume   475.97673223
_cell_formula_units_Z   4
loop_
 _symmetry_equiv_pos_site_id
 _symmetry_equiv_pos_as_xyz
  1  'x, y, z'
loop_
 _atom_site_type_symbol
 _atom_site_label
 _atom_site_symmetry_multiplicity
 _atom_site_fract_x
 _atom_site_fract_y
 _atom_site_fract_z
 _atom_site_occupancy
  Tb  Tb0  1  0.35592476  0.25001469  0.10591438  1
  Tb  Tb1  1  0.88357316  0.25000756  0.63357002  1
  Tb  Tb2  1  0.90244293  0.95873618  0.28563402  1
  Tb  Tb3  1  0.17308341  0.45871355  0.05629291  1
  Tb  Tb4  1  0.82691744  0.54128731  0.94370683  1
  Tb  Tb5  1  0.09755740  0.04126413  0.71436631  1
  Tb  Tb6  1  0.11642820  0.74999419  0.36642969  1
  Tb  Tb7  1  0.64407553  0.74998552  0.89408580  1
  W  W8  1  0.63352665  0.12795884  0.19968584  1
  W  W9  1  0.57171816  0.37201599  0.50556374  1
  W  W10  1  0.42828053  0.62798080  0.49443542  1
  W  W11  1  0.36647297  0.87204238  0.80031416  1
  O  O12  1  0.99751177  0.10487360  0.07582759  1
  O  O13  1  0.79888062  0.27214422  0.06161094  1
  O  O14  1  0.73911530  0.42640306  0.15995543  1
  O  O15  1  0.86734987  0.32305659  0.38811363  1
  O  O16  1  0.56506569  0.17694921  0.54428117  1
  O  O17  1  0.23353806  0.07357356  0.31271109  1
  O  O18  1  0.52904774  0.60488050  0.10737002  1
  O  O19  1  0.76363176  0.58797194  0.38016500  1
  O  O20  1  0.70781953  0.08800413  0.82433344  1
  O  O21  1  0.82977403  0.61379601  0.68263452  1
  O  O22  1  0.43118910  0.11381619  0.78402831  1
  O  O23  1  0.28946682  0.22786090  0.52672646  1
  O  O24  1  0.71053344  0.77213839  0.47327391  1
  O  O25  1  0.56881300  0.88618638  0.21597081  1
  O  O26  1  0.17022536  0.38620312  0.31736500  1
  O  O27  1  0.29217940  0.91199536  0.17566689  1
  O  O28  1  0.23636863  0.41202766  0.61983469  1
  O  O29  1  0.47095152  0.39511946  0.89263106  1
  O  O30  1  0.76646152  0.92642481  0.68728827  1
  O  O31  1  0.43493465  0.82304997  0.45571856  1
  O  O32  1  0.13264850  0.67694240  0.61188539  1
  O  O33  1  0.26088446  0.57359763  0.84004480  1
  O  O34  1  0.20112265  0.72785986  0.93839039  1
  O  O35  1  0.00248743  0.89512592  0.92417352  1
