# generated using pymatgen
data_K3Li2Nb6(PO8)3
_symmetry_space_group_name_H-M   'P 1'
_cell_length_a   8.52016131
_cell_length_b   8.52016178
_cell_length_c   8.52016170
_cell_angle_alpha   103.22672546
_cell_angle_beta   103.22671933
_cell_angle_gamma   103.22671607
_symmetry_Int_Tables_number   1
_chemical_formula_structural   K3Li2Nb6(PO8)3
_chemical_formula_sum   'K3 Li2 Nb6 P3 O24'
_cell_volume   559.73486026
_cell_formula_units_Z   1
loop_
 _symmetry_equiv_pos_site_id
 _symmetry_equiv_pos_as_xyz
  1  'x, y, z'
loop_
 _atom_site_type_symbol
 _atom_site_label
 _atom_site_symmetry_multiplicity
 _atom_site_fract_x
 _atom_site_fract_y
 _atom_site_fract_z
 _atom_site_occupancy
  K  K0  1  0.31166096  0.59684221  0.91157204  1
  K  K1  1  0.59684221  0.91157204  0.31166096  1
  K  K2  1  0.91157204  0.31166096  0.59684221  1
  Li  Li3  1  0.36626118  0.36626118  0.36626118  1
  Li  Li4  1  0.63370187  0.63370187  0.63370187  1
  Nb  Nb5  1  0.02528806  0.34703206  0.15529636  1
  Nb  Nb6  1  0.15529636  0.02528806  0.34703206  1
  Nb  Nb7  1  0.65454544  0.97619060  0.84526595  1
  Nb  Nb8  1  0.34703206  0.15529636  0.02528806  1
  Nb  Nb9  1  0.84526595  0.65454544  0.97619060  1
  Nb  Nb10  1  0.97619060  0.84526595  0.65454544  1
  P  P11  1  0.28219363  0.71558959  0.49994149  1
  P  P12  1  0.49994149  0.28219363  0.71558959  1
  P  P13  1  0.71558959  0.49994149  0.28219363  1
  O  O14  1  0.02409628  0.97441668  0.49963436  1
  O  O15  1  0.99986951  0.84713126  0.15313035  1
  O  O16  1  0.13725140  0.70257905  0.58366581  1
  O  O17  1  0.06964172  0.20829887  0.31602994  1
  O  O18  1  0.15313035  0.99986951  0.84713126  1
  O  O19  1  0.29678835  0.86219187  0.41851732  1
  O  O20  1  0.24912199  0.54656966  0.36348660  1
  O  O21  1  0.45189025  0.74785491  0.63628818  1
  O  O22  1  0.20829887  0.31602994  0.06964172  1
  O  O23  1  0.41851732  0.29678835  0.86219187  1
  O  O24  1  0.36348660  0.24912199  0.54656966  1
  O  O25  1  0.31602994  0.06964172  0.20829887  1
  O  O26  1  0.49963436  0.02409628  0.97441668  1
  O  O27  1  0.68252513  0.79110633  0.92991374  1
  O  O28  1  0.63628818  0.45189025  0.74785491  1
  O  O29  1  0.58366581  0.13725140  0.70257905  1
  O  O30  1  0.79110633  0.92991374  0.68252513  1
  O  O31  1  0.54656966  0.36348660  0.24912199  1
  O  O32  1  0.74785491  0.63628818  0.45189025  1
  O  O33  1  0.70257905  0.58366581  0.13725140  1
  O  O34  1  0.92991374  0.68252513  0.79110633  1
  O  O35  1  0.86219187  0.41851732  0.29678835  1
  O  O36  1  0.84713126  0.15313035  0.99986951  1
  O  O37  1  0.97441668  0.49963436  0.02409628  1
