# generated using pymatgen
data_Ba8LiTa7O24
_symmetry_space_group_name_H-M   'P 1'
_cell_length_a   5.89850115
_cell_length_b   5.89796228
_cell_length_c   19.14726751
_cell_angle_alpha   90.00712195
_cell_angle_beta   89.99781887
_cell_angle_gamma   120.00342040
_symmetry_Int_Tables_number   1
_chemical_formula_structural   Ba8LiTa7O24
_chemical_formula_sum   'Ba8 Li1 Ta7 O24'
_cell_volume   576.85428465
_cell_formula_units_Z   1
loop_
 _symmetry_equiv_pos_site_id
 _symmetry_equiv_pos_as_xyz
  1  'x, y, z'
loop_
 _atom_site_type_symbol
 _atom_site_label
 _atom_site_symmetry_multiplicity
 _atom_site_fract_x
 _atom_site_fract_y
 _atom_site_fract_z
 _atom_site_occupancy
  Ba  Ba0  1  0.33332758  0.66661414  0.24989654  1
  Ba  Ba1  1  0.33343223  0.66688232  0.85455089  1
  Ba  Ba2  1  0.00005759  0.00015814  0.99371484  1
  Ba  Ba3  1  0.99986913  0.99985489  0.50051780  1
  Ba  Ba4  1  0.33334528  0.66671644  0.63438339  1
  Ba  Ba5  1  0.66667810  0.33334212  0.13235845  1
  Ba  Ba6  1  0.66673052  0.33346903  0.75368085  1
  Ba  Ba7  1  0.66656844  0.33323065  0.36494982  1
  Li  Li8  1  0.00006613  0.00010541  0.83284172  1
  Ta  Ta9  1  0.33336161  0.66673928  0.06084671  1
  Ta  Ta10  1  0.99999489  0.99996649  0.18210173  1
  Ta  Ta11  1  0.99997827  0.99995343  0.31798692  1
  Ta  Ta12  1  0.00003998  0.00006536  0.68870808  1
  Ta  Ta13  1  0.33330281  0.66662923  0.43921172  1
  Ta  Ta14  1  0.66666411  0.33333429  0.56009275  1
  Ta  Ta15  1  0.66673351  0.33350844  0.93607853  1
  O  O16  1  0.15806117  0.84189488  0.74260305  1
  O  O17  1  0.00070618  0.50040015  0.00490612  1
  O  O18  1  0.99856885  0.49928504  0.49886920  1
  O  O19  1  0.16982509  0.83012425  0.12444978  1
  O  O20  1  0.16914757  0.83080649  0.37670961  1
  O  O21  1  0.16983448  0.33966375  0.12445392  1
  O  O22  1  0.16912754  0.33830967  0.37669647  1
  O  O23  1  0.15822840  0.31629011  0.74262254  1
  O  O24  1  0.32185316  0.16082798  0.24966125  1
  O  O25  1  0.66163169  0.83083030  0.37669627  1
  O  O26  1  0.66028743  0.83011401  0.12445934  1
  O  O27  1  0.49972807  0.50037781  0.00491893  1
  O  O28  1  0.50072470  0.49927421  0.49885539  1
  O  O29  1  0.33654841  0.16829507  0.61991772  1
  O  O30  1  0.34890578  0.17445383  0.88229285  1
  O  O31  1  0.68385032  0.84194881  0.74260720  1
  O  O32  1  0.83179497  0.66354728  0.61990855  1
  O  O33  1  0.49947286  0.99896205  0.00482904  1
  O  O34  1  0.50072952  0.00144702  0.49885838  1
  O  O35  1  0.82557497  0.65115621  0.88224674  1
  O  O36  1  0.83902843  0.67809322  0.24963366  1
  O  O37  1  0.82558128  0.17450593  0.88229180  1
  O  O38  1  0.83173351  0.16828748  0.61992493  1
  O  O39  1  0.83901640  0.16083480  0.24966651  1
