# generated using pymatgen
data_K2Li3MnO4
_symmetry_space_group_name_H-M   'P 1'
_cell_length_a   5.54791430
_cell_length_b   8.97181196
_cell_length_c   10.98508206
_cell_angle_alpha   90.00000000
_cell_angle_beta   108.13203360
_cell_angle_gamma   90.00000000
_symmetry_Int_Tables_number   1
_chemical_formula_structural   K2Li3MnO4
_chemical_formula_sum   'K8 Li12 Mn4 O16'
_cell_volume   519.62864442
_cell_formula_units_Z   4
loop_
 _symmetry_equiv_pos_site_id
 _symmetry_equiv_pos_as_xyz
  1  'x, y, z'
loop_
 _atom_site_type_symbol
 _atom_site_label
 _atom_site_symmetry_multiplicity
 _atom_site_fract_x
 _atom_site_fract_y
 _atom_site_fract_z
 _atom_site_occupancy
  K  K0  1  0.28541612  0.77300780  0.89222750  1
  K  K1  1  0.29196896  0.50974076  0.63784503  1
  K  K2  1  0.28541612  0.72699220  0.39222750  1
  K  K3  1  0.70803104  0.00974076  0.86215497  1
  K  K4  1  0.29196896  0.99025924  0.13784503  1
  K  K5  1  0.71458388  0.27300780  0.60777250  1
  K  K6  1  0.70803104  0.49025924  0.36215497  1
  K  K7  1  0.71458388  0.22699220  0.10777250  1
  Li  Li8  1  0.09485238  0.03588451  0.70543848  1
  Li  Li9  1  0.37864632  0.26511372  0.80027223  1
  Li  Li10  1  0.09485238  0.46411549  0.20543848  1
  Li  Li11  1  0.62065175  0.49461406  0.92679109  1
  Li  Li12  1  0.37934825  0.99461406  0.57320891  1
  Li  Li13  1  0.62135368  0.76511372  0.69972777  1
  Li  Li14  1  0.37864632  0.23488628  0.30027223  1
  Li  Li15  1  0.62065175  0.00538594  0.42679109  1
  Li  Li16  1  0.37934825  0.50538594  0.07320891  1
  Li  Li17  1  0.90514762  0.53588451  0.79456152  1
  Li  Li18  1  0.62135368  0.73488628  0.19972777  1
  Li  Li19  1  0.90514762  0.96411549  0.29456152  1
  Mn  Mn20  1  0.08983347  0.29353413  0.94226724  1
  Mn  Mn21  1  0.08983347  0.20646587  0.44226724  1
  Mn  Mn22  1  0.91016653  0.79353413  0.55773276  1
  Mn  Mn23  1  0.91016653  0.70646587  0.05773276  1
  O  O24  1  0.20190240  0.10810857  0.88794169  1
  O  O25  1  0.25257922  0.46203759  0.88220793  1
  O  O26  1  0.25334680  0.19262317  0.62266148  1
  O  O27  1  0.25734060  0.82858930  0.65409520  1
  O  O28  1  0.20190240  0.39189143  0.38794169  1
  O  O29  1  0.25257922  0.03796241  0.38220793  1
  O  O30  1  0.74265940  0.32858930  0.84590480  1
  O  O31  1  0.74665320  0.69262317  0.87733852  1
  O  O32  1  0.25334680  0.30737683  0.12266048  1
  O  O33  1  0.25734060  0.67141070  0.15409520  1
  O  O34  1  0.74742078  0.96203759  0.61779207  1
  O  O35  1  0.79809760  0.60810857  0.61205831  1
  O  O36  1  0.74265940  0.17141070  0.34590480  1
  O  O37  1  0.74665320  0.80737683  0.37733952  1
  O  O38  1  0.74742078  0.53796241  0.11779207  1
  O  O39  1  0.79809760  0.89189143  0.11205831  1
