# generated using pymatgen
data_Mn2InO5
_symmetry_space_group_name_H-M   'P 1'
_cell_length_a   7.45038505
_cell_length_b   8.34657653
_cell_length_c   5.70907285
_cell_angle_alpha   90.00000000
_cell_angle_beta   90.00000000
_cell_angle_gamma   90.00000000
_symmetry_Int_Tables_number   1
_chemical_formula_structural   Mn2InO5
_chemical_formula_sum   'Mn8 In4 O20'
_cell_volume   355.01988836
_cell_formula_units_Z   4
loop_
 _symmetry_equiv_pos_site_id
 _symmetry_equiv_pos_as_xyz
  1  'x, y, z'
loop_
 _atom_site_type_symbol
 _atom_site_label
 _atom_site_symmetry_multiplicity
 _atom_site_fract_x
 _atom_site_fract_y
 _atom_site_fract_z
 _atom_site_occupancy
  Mn  Mn0  1  0.00000000  0.50000000  0.25315043  1
  Mn  Mn1  1  0.00000000  0.50000000  0.74684957  1
  Mn  Mn2  1  0.09720839  0.84687562  0.50000000  1
  Mn  Mn3  1  0.40279161  0.34687562  0.50000000  1
  Mn  Mn4  1  0.50000000  0.00000000  0.25315043  1
  Mn  Mn5  1  0.50000000  0.00000000  0.74684957  1
  Mn  Mn6  1  0.59720839  0.65312438  0.50000000  1
  Mn  Mn7  1  0.90279161  0.15312438  0.50000000  1
  In  In8  1  0.14533349  0.16208498  0.00000000  1
  In  In9  1  0.35466651  0.66208498  0.00000000  1
  In  In10  1  0.64533349  0.33791502  0.00000000  1
  In  In11  1  0.85466651  0.83791502  0.00000000  1
  O  O12  1  0.00000000  0.00000000  0.26256297  1
  O  O13  1  0.00000000  0.00000000  0.73743703  1
  O  O14  1  0.12394218  0.70057813  0.24138718  1
  O  O15  1  0.12394218  0.70057813  0.75861282  1
  O  O16  1  0.15507328  0.42989958  0.00000000  1
  O  O17  1  0.14123640  0.41609302  0.50000000  1
  O  O18  1  0.35876360  0.91609302  0.50000000  1
  O  O19  1  0.34492672  0.92989958  0.00000000  1
  O  O20  1  0.37605782  0.20057813  0.24138718  1
  O  O21  1  0.37605782  0.20057813  0.75861282  1
  O  O22  1  0.50000000  0.50000000  0.73743703  1
  O  O23  1  0.50000000  0.50000000  0.26256297  1
  O  O24  1  0.62394218  0.79942187  0.24138718  1
  O  O25  1  0.62394218  0.79942187  0.75861282  1
  O  O26  1  0.65507328  0.07010042  0.00000000  1
  O  O27  1  0.64123640  0.08390698  0.50000000  1
  O  O28  1  0.85876360  0.58390698  0.50000000  1
  O  O29  1  0.84492672  0.57010042  0.00000000  1
  O  O30  1  0.87605782  0.29942187  0.24138718  1
  O  O31  1  0.87605782  0.29942187  0.75861282  1
