# generated using pymatgen
data_Ni6OF11
_symmetry_space_group_name_H-M   'P 1'
_cell_length_a   4.69595591
_cell_length_b   4.69584112
_cell_length_c   9.33444787
_cell_angle_alpha   90.00081892
_cell_angle_beta   89.99924712
_cell_angle_gamma   89.56758585
_symmetry_Int_Tables_number   1
_chemical_formula_structural   Ni6OF11
_chemical_formula_sum   'Ni6 O1 F11'
_cell_volume   205.83236834
_cell_formula_units_Z   1
loop_
 _symmetry_equiv_pos_site_id
 _symmetry_equiv_pos_as_xyz
  1  'x, y, z'
loop_
 _atom_site_type_symbol
 _atom_site_label
 _atom_site_symmetry_multiplicity
 _atom_site_fract_x
 _atom_site_fract_y
 _atom_site_fract_z
 _atom_site_occupancy
  Ni  Ni0  1  0.00011470  -0.00011801  0.66664741  1
  Ni  Ni1  1  0.00535519  0.99465004  0.32937137  1
  Ni  Ni2  1  0.00530443  0.99469389  0.00395183  1
  Ni  Ni3  1  0.48667934  0.51332888  0.16667931  1
  Ni  Ni4  1  0.50279145  0.49720144  0.83337706  1
  Ni  Ni5  1  0.50284786  0.49714720  0.49998455  1
  O  O6  1  0.19297136  0.80704014  0.16666326  1
  F  F7  1  0.19791547  0.80210996  0.83363318  1
  F  F8  1  0.19793925  0.80207981  0.49966775  1
  F  F9  1  0.30259681  0.30469804  0.00009226  1
  F  F10  1  0.30259394  0.30466446  0.33324858  1
  F  F11  1  0.30468075  0.30244590  0.66667937  1
  F  F12  1  0.69531122  0.69738357  0.00009074  1
  F  F13  1  0.69535478  0.69739061  0.33324987  1
  F  F14  1  0.69756353  0.69530442  0.66667932  1
  F  F15  1  0.80784294  0.19214855  0.83669155  1
  F  F16  1  0.79427205  0.20570603  0.16667289  1
  F  F17  1  0.80786394  0.19212408  0.49661971  1
