# generated using pymatgen
data_V2O3F
_symmetry_space_group_name_H-M   'P 1'
_cell_length_a   4.70156092
_cell_length_b   4.70156092
_cell_length_c   2.98941405
_cell_angle_alpha   90.00000000
_cell_angle_beta   90.00000000
_cell_angle_gamma   92.55868297
_symmetry_Int_Tables_number   1
_chemical_formula_structural   V2O3F
_chemical_formula_sum   'V2 O3 F1'
_cell_volume   66.01414606
_cell_formula_units_Z   1
loop_
 _symmetry_equiv_pos_site_id
 _symmetry_equiv_pos_as_xyz
  1  'x, y, z'
loop_
 _atom_site_type_symbol
 _atom_site_label
 _atom_site_symmetry_multiplicity
 _atom_site_fract_x
 _atom_site_fract_y
 _atom_site_fract_z
 _atom_site_occupancy
  V  V0  1  0.01804793  0.98195207  0.00000000  1
  V  V1  1  0.47909440  0.52090560  0.50000000  1
  O  O2  1  0.20287548  0.79712452  0.50000000  1
  O  O3  1  0.30264623  0.30481629  0.00000000  1
  O  O4  1  0.69518371  0.69735377  0.00000000  1
  F  F5  1  0.80215326  0.19784674  0.50000000  1
