# generated using pymatgen
data_LiFeB2O5
_symmetry_space_group_name_H-M   'P 1'
_cell_length_a   7.31004021
_cell_length_b   7.31004021
_cell_length_c   9.78424726
_cell_angle_alpha   69.46284561
_cell_angle_beta   110.53715439
_cell_angle_gamma   89.02107451
_symmetry_Int_Tables_number   1
_chemical_formula_structural   LiFeB2O5
_chemical_formula_sum   'Li4 Fe4 B8 O20'
_cell_volume   452.59784309
_cell_formula_units_Z   4
loop_
 _symmetry_equiv_pos_site_id
 _symmetry_equiv_pos_as_xyz
  1  'x, y, z'
loop_
 _atom_site_type_symbol
 _atom_site_label
 _atom_site_symmetry_multiplicity
 _atom_site_fract_x
 _atom_site_fract_y
 _atom_site_fract_z
 _atom_site_occupancy
  Li  Li0  1  0.16114487  0.16114487  0.75000000  1
  Li  Li1  1  0.62121528  0.62121528  0.75000000  1
  Li  Li2  1  0.37878472  0.37878472  0.25000000  1
  Li  Li3  1  0.83885513  0.83885513  0.25000000  1
  Fe  Fe4  1  0.04249415  0.64725275  0.65105967  1
  Fe  Fe5  1  0.35274725  0.95750585  0.15105967  1
  Fe  Fe6  1  0.64725275  0.04249415  0.84894033  1
  Fe  Fe7  1  0.95750585  0.35274725  0.34894033  1
  B  B8  1  0.23882327  0.77252693  0.90538838  1
  B  B9  1  0.26308097  0.40058350  0.97458547  1
  B  B10  1  0.22747307  0.76117673  0.40538838  1
  B  B11  1  0.59941650  0.73691903  0.47458547  1
  B  B12  1  0.40058350  0.26308097  0.52541453  1
  B  B13  1  0.77252693  0.23882327  0.59461162  1
  B  B14  1  0.73691903  0.59941650  0.02541453  1
  B  B15  1  0.76117673  0.22747307  0.09461162  1
  O  O16  1  0.29366305  0.91896212  0.96140953  1
  O  O17  1  0.14467260  0.82571083  0.74647647  1
  O  O18  1  0.08103788  0.70633695  0.46140953  1
  O  O19  1  0.18360108  0.40492353  0.82502155  1
  O  O20  1  0.66599985  0.76771229  0.89047131  1
  O  O21  1  0.17428917  0.85532740  0.24647647  1
  O  O22  1  0.42690454  0.71716756  0.51250249  1
  O  O23  1  0.71716756  0.42690454  0.98749751  1
  O  O24  1  0.59507647  0.81639892  0.32502155  1
  O  O25  1  0.23228771  0.33400015  0.39047131  1
  O  O26  1  0.76771229  0.66599985  0.60952869  1
  O  O27  1  0.40492353  0.18360108  0.67497845  1
  O  O28  1  0.28283244  0.57309546  0.01250249  1
  O  O29  1  0.57309546  0.28283244  0.48749751  1
  O  O30  1  0.82571083  0.14467260  0.75352353  1
  O  O31  1  0.33400015  0.23228771  0.10952869  1
  O  O32  1  0.81639892  0.59507647  0.17497845  1
  O  O33  1  0.91896212  0.29366305  0.53859047  1
  O  O34  1  0.85532740  0.17428917  0.25352353  1
  O  O35  1  0.70633695  0.08103788  0.03859047  1
