# generated using pymatgen
data_In2WO6
_symmetry_space_group_name_H-M   'P 1'
_cell_length_a   5.00392687
_cell_length_b   9.09453299
_cell_length_c   10.28417191
_cell_angle_alpha   90.00000000
_cell_angle_beta   90.00000000
_cell_angle_gamma   90.00000000
_symmetry_Int_Tables_number   1
_chemical_formula_structural   In2WO6
_chemical_formula_sum   'In8 W4 O24'
_cell_volume   468.01598268
_cell_formula_units_Z   4
loop_
 _symmetry_equiv_pos_site_id
 _symmetry_equiv_pos_as_xyz
  1  'x, y, z'
loop_
 _atom_site_type_symbol
 _atom_site_label
 _atom_site_symmetry_multiplicity
 _atom_site_fract_x
 _atom_site_fract_y
 _atom_site_fract_z
 _atom_site_occupancy
  In  In0  1  0.98542490  0.36845820  0.07125589  1
  In  In1  1  0.00630446  0.30913772  0.64707376  1
  In  In2  1  0.49369554  0.69086228  0.14707376  1
  In  In3  1  0.51457510  0.63154180  0.57125589  1
  In  In4  1  0.48542490  0.13154180  0.92874411  1
  In  In5  1  0.50630446  0.19086228  0.35292624  1
  In  In6  1  0.99369554  0.80913772  0.85292624  1
  In  In7  1  0.01457510  0.86845820  0.42874411  1
  W  W8  1  0.01405128  0.99448246  0.13787138  1
  W  W9  1  0.48594872  0.00551754  0.63787138  1
  W  W10  1  0.51405128  0.50551754  0.86212862  1
  W  W11  1  0.98594872  0.49448246  0.36212862  1
  O  O12  1  0.18565890  0.65627662  0.44898598  1
  O  O13  1  0.19861327  0.51519667  0.20678891  1
  O  O14  1  0.23209934  0.84978064  0.67617078  1
  O  O15  1  0.22240447  0.84940659  0.23039933  1
  O  O16  1  0.22441862  0.35123682  0.44274816  1
  O  O17  1  0.28271651  0.03919543  0.47489907  1
  O  O18  1  0.21728349  0.96080457  0.97489907  1
  O  O19  1  0.27558138  0.64876318  0.94274816  1
  O  O20  1  0.27759553  0.15059341  0.73039933  1
  O  O21  1  0.26790066  0.15021936  0.17617078  1
  O  O22  1  0.30138673  0.48480333  0.70678891  1
  O  O23  1  0.31434110  0.34372338  0.94898598  1
  O  O24  1  0.68565890  0.84372338  0.55101402  1
  O  O25  1  0.69861327  0.98480333  0.79321109  1
  O  O26  1  0.73209934  0.65021936  0.32382922  1
  O  O27  1  0.72240447  0.65059341  0.76960067  1
  O  O28  1  0.72441862  0.14876318  0.55725184  1
  O  O29  1  0.78271651  0.46080457  0.52510093  1
  O  O30  1  0.71728349  0.53919543  0.02510093  1
  O  O31  1  0.77558138  0.85123682  0.05725184  1
  O  O32  1  0.77759553  0.34940659  0.26960067  1
  O  O33  1  0.76790066  0.34978064  0.82382922  1
  O  O34  1  0.80138673  0.01519667  0.29321109  1
  O  O35  1  0.81434110  0.15627662  0.05101402  1
