# generated using pymatgen
data_NaLi2FePCO7
_symmetry_space_group_name_H-M   'P 1'
_cell_length_a   8.65227705
_cell_length_b   6.64051021
_cell_length_c   10.05757008
_cell_angle_alpha   89.93611885
_cell_angle_beta   88.23028201
_cell_angle_gamma   90.21632228
_symmetry_Int_Tables_number   1
_chemical_formula_structural   NaLi2FePCO7
_chemical_formula_sum   'Na4 Li8 Fe4 P4 C4 O28'
_cell_volume   577.58287714
_cell_formula_units_Z   4
loop_
 _symmetry_equiv_pos_site_id
 _symmetry_equiv_pos_as_xyz
  1  'x, y, z'
loop_
 _atom_site_type_symbol
 _atom_site_label
 _atom_site_symmetry_multiplicity
 _atom_site_fract_x
 _atom_site_fract_y
 _atom_site_fract_z
 _atom_site_occupancy
  Na  Na0  1  0.08561880  0.25891299  0.87885581  1
  Na  Na1  1  0.08457376  0.25075708  0.37731295  1
  Na  Na2  1  0.25367782  0.99636671  0.62299876  1
  Na  Na3  1  0.74607034  0.50167333  0.37624094  1
  Li  Li4  1  0.27678856  0.47571244  0.60790692  1
  Li  Li5  1  0.27379041  0.02019322  0.11159438  1
  Li  Li6  1  0.27577883  0.47946192  0.11117680  1
  Li  Li7  1  0.72953899  0.51696830  0.88712625  1
  Li  Li8  1  0.72773069  0.98284065  0.88749164  1
  Li  Li9  1  0.72724219  0.97937299  0.38900207  1
  Li  Li10  1  0.90573410  0.74293423  0.62873086  1
  Li  Li11  1  0.90536635  0.76140855  0.12388984  1
  Fe  Fe12  1  0.35112513  0.74965807  0.88897251  1
  Fe  Fe13  1  0.35571936  0.74348883  0.38490317  1
  Fe  Fe14  1  0.64789450  0.24555525  0.61556534  1
  Fe  Fe15  1  0.65050123  0.24965656  0.11173759  1
  P  P16  1  0.41726356  0.25591013  0.85622146  1
  P  P17  1  0.41441436  0.24110553  0.35142125  1
  P  P18  1  0.59210439  0.74399042  0.64958056  1
  P  P19  1  0.58919979  0.75548316  0.14441293  1
  C  C20  1  0.03986701  0.74947899  0.86782869  1
  C  C21  1  0.04493924  0.75806388  0.36270348  1
  C  C22  1  0.94696684  0.25828699  0.63640877  1
  C  C23  1  0.95174872  0.24909129  0.13300167  1
  O  O24  1  0.09567751  0.27973313  0.64306198  1
  O  O25  1  0.10180341  0.24608354  0.13846983  1
  O  O26  1  0.07968674  0.75216592  0.99114893  1
  O  O27  1  0.07778779  0.75310555  0.48810297  1
  O  O28  1  0.14896021  0.74784475  0.77430494  1
  O  O29  1  0.15564778  0.73706146  0.27252046  1
  O  O30  1  0.32304303  0.06677057  0.90104779  1
  O  O31  1  0.32374715  0.43697980  0.91367743  1
  O  O32  1  0.31388761  0.05728649  0.39223849  1
  O  O33  1  0.32646016  0.42832324  0.40657872  1
  O  O34  1  0.42582946  0.26924470  0.70020221  1
  O  O35  1  0.42803029  0.72886408  0.59145377  1
  O  O36  1  0.42668720  0.25362074  0.19450814  1
  O  O37  1  0.42123961  0.75239011  0.09234179  1
  O  O38  1  0.58506347  0.25339212  0.90532103  1
  O  O39  1  0.57498389  0.75542317  0.80533960  1
  O  O40  1  0.57953339  0.22776238  0.40544380  1
  O  O41  1  0.57674938  0.76896010  0.29973256  1
  O  O42  1  0.69581151  0.56192891  0.61071500  1
  O  O43  1  0.68446885  0.92938196  0.59557135  1
  O  O44  1  0.68550454  0.56812194  0.10125822  1
  O  O45  1  0.68622170  0.93471249  0.08808480  1
  O  O46  1  0.85941649  0.24125699  0.74272267  1
  O  O47  1  0.86432633  0.24833924  0.24060603  1
  O  O48  1  0.88148652  0.25210675  0.52135361  1
  O  O49  1  0.88364574  0.25283621  0.01990643  1
  O  O50  1  0.89641958  0.74779623  0.83445738  1
  O  O51  1  0.90422567  0.78213791  0.32474544  1
