# generated using pymatgen
data_Li5V3P8O29
_symmetry_space_group_name_H-M   'P 1'
_cell_length_a   9.75594115
_cell_length_b   9.83193963
_cell_length_c   14.04892077
_cell_angle_alpha   90.44094555
_cell_angle_beta   90.17809643
_cell_angle_gamma   60.10118126
_symmetry_Int_Tables_number   1
_chemical_formula_structural   Li5V3P8O29
_chemical_formula_sum   'Li10 V6 P16 O58'
_cell_volume   1168.18290651
_cell_formula_units_Z   2
loop_
 _symmetry_equiv_pos_site_id
 _symmetry_equiv_pos_as_xyz
  1  'x, y, z'
loop_
 _atom_site_type_symbol
 _atom_site_label
 _atom_site_symmetry_multiplicity
 _atom_site_fract_x
 _atom_site_fract_y
 _atom_site_fract_z
 _atom_site_occupancy
  Li  Li0  1  0.77026211  0.91374195  0.56229410  1
  Li  Li1  1  0.90504670  0.32438235  0.56088513  1
  Li  Li2  1  0.76623228  0.33753420  0.05690866  1
  Li  Li3  1  0.33005315  0.90279500  0.05675642  1
  Li  Li4  1  0.32135748  0.77232873  0.56226778  1
  Li  Li5  1  0.23361426  0.67328620  0.93732311  1
  Li  Li6  1  0.33170905  0.32819424  0.10941787  1
  Li  Li7  1  0.08762890  0.68008127  0.43775719  1
  Li  Li8  1  0.22505421  0.09154775  0.44320292  1
  Li  Li9  1  0.95318575  0.01418037  0.99205923  1
  V  V10  1  0.57320131  0.42775029  0.25592645  1
  V  V11  1  0.43508676  0.56558586  0.74746533  1
  V  V12  1  0.56877668  0.00153367  0.75450153  1
  V  V13  1  0.43491256  0.99890011  0.25034909  1
  V  V14  1  0.99309236  0.56986880  0.24237679  1
  V  V15  1  0.00377745  0.43248919  0.75605618  1
  P  P16  1  0.91616925  0.77641457  0.83969859  1
  P  P17  1  0.77061816  0.91485727  0.34309213  1
  P  P18  1  0.91693466  0.32023536  0.34457144  1
  P  P19  1  0.66146314  0.66128994  0.12800186  1
  P  P20  1  0.67076748  0.66724185  0.63036900  1
  P  P21  1  0.77261844  0.31436482  0.84374350  1
  P  P22  1  0.68485451  0.22856100  0.66072745  1
  P  P23  1  0.31372578  0.91158613  0.84282848  1
  P  P24  1  0.69217283  0.08881470  0.15891427  1
  P  P25  1  0.31834740  0.76855786  0.34109617  1
  P  P26  1  0.23011023  0.68041641  0.15696289  1
  P  P27  1  0.32693459  0.33902593  0.36949125  1
  P  P28  1  0.33429393  0.33697356  0.87206174  1
  P  P29  1  0.08651420  0.67843262  0.65486810  1
  P  P30  1  0.23064785  0.08808038  0.66143060  1
  P  P31  1  0.08789091  0.22210597  0.16032000  1
  O  O32  1  0.99759760  0.75093328  0.56446804  1
  O  O33  1  0.91618763  0.74962154  0.33563316  1
  O  O34  1  0.79457636  0.00820835  0.07573237  1
  O  O35  1  0.74395088  0.91224959  0.83691883  1
  O  O36  1  0.91830986  0.61751501  0.83088091  1
  O  O37  1  0.81066772  0.66334931  0.17107080  1
  O  O38  1  0.90529121  0.47817005  0.32564798  1
  O  O39  1  0.99116986  0.21635730  0.08032650  1
  O  O40  1  0.91609457  0.34229467  0.82948697  1
  O  O41  1  0.67300758  0.81634564  0.66841899  1
  O  O42  1  0.61846219  0.90562855  0.31680574  1
  O  O43  1  0.81857424  0.51885151  0.67622141  1
  O  O44  1  0.66617396  0.64032972  0.02282739  1
  O  O45  1  0.67855387  0.65512158  0.52429422  1
  O  O46  1  0.66927848  0.51087676  0.17533819  1
  O  O47  1  0.47074388  0.90859233  0.83005862  1
  O  O48  1  0.51116164  0.81102427  0.16443982  1
  O  O49  1  0.74840044  0.33902704  0.33627074  1
  O  O50  1  0.78788044  0.20109485  0.75716535  1
  O  O51  1  0.77059355  0.24077585  0.57772062  1
  O  O52  1  0.79230868  0.23012234  0.93512110  1
  O  O53  1  0.61881578  0.46940033  0.83126590  1
  O  O54  1  0.51603941  0.67174101  0.66832207  1
  O  O55  1  0.66056703  0.26269460  0.16373164  1
  O  O56  1  0.47943018  0.61902787  0.32141343  1
  O  O57  1  0.33562349  0.91659004  0.34200329  1
  O  O58  1  0.78618877  0.01287926  0.25681535  1
  O  O59  1  0.75360597  0.99336506  0.43621197  1
  O  O60  1  0.23979904  0.00004304  0.57103035  1
  O  O61  1  0.66161748  0.08417782  0.66004639  1
  O  O62  1  0.52266239  0.38031889  0.67869209  1
  O  O63  1  0.33826927  0.74238021  0.83203031  1
  O  O64  1  0.47682205  0.33868572  0.32208225  1
  O  O65  1  0.38225062  0.51883906  0.17088725  1
  O  O66  1  0.23682233  0.76519082  0.06990299  1
  O  O67  1  0.24388648  0.75365543  0.43119590  1
  O  O68  1  0.20938803  0.78794035  0.25060762  1
  O  O69  1  0.25210781  0.66295358  0.65560872  1
  O  O70  1  0.48117536  0.19339670  0.83020134  1
  O  O71  1  0.52805466  0.10002777  0.16671765  1
  O  O72  1  0.32293386  0.49169010  0.83580265  1
  O  O73  1  0.32177552  0.34086391  0.97826470  1
  O  O74  1  0.33128083  0.34659596  0.47492613  1
  O  O75  1  0.18025695  0.48663290  0.32588769  1
  O  O76  1  0.38332590  0.09371131  0.67934192  1
  O  O77  1  0.32792413  0.18773324  0.33108298  1
  O  O78  1  0.08753647  0.65572892  0.15722247  1
  O  O79  1  0.99183277  0.79508010  0.74164665  1
  O  O80  1  0.00673461  0.79058480  0.92138025  1
  O  O81  1  0.09805363  0.52006094  0.67772775  1
  O  O82  1  0.18446208  0.33373162  0.82710593  1
  O  O83  1  0.10472066  0.37098170  0.16813499  1
  O  O84  1  0.25977299  0.07832810  0.15958731  1
  O  O85  1  0.22672899  0.98191235  0.93316365  1
  O  O86  1  0.20426914  0.00290623  0.75118778  1
  O  O87  1  0.08504048  0.25585072  0.66080921  1
  O  O88  1  0.99831613  0.24492785  0.43574099  1
  O  O89  1  0.01657672  0.20122779  0.25960147  1
