# generated using pymatgen
data_Li5V3P8O29
_symmetry_space_group_name_H-M   'P 1'
_cell_length_a   9.78692530
_cell_length_b   9.80251102
_cell_length_c   14.08415753
_cell_angle_alpha   90.25907490
_cell_angle_beta   90.75809635
_cell_angle_gamma   60.31417650
_symmetry_Int_Tables_number   1
_chemical_formula_structural   Li5V3P8O29
_chemical_formula_sum   'Li10 V6 P16 O58'
_cell_volume   1173.74063255
_cell_formula_units_Z   2
loop_
 _symmetry_equiv_pos_site_id
 _symmetry_equiv_pos_as_xyz
  1  'x, y, z'
loop_
 _atom_site_type_symbol
 _atom_site_label
 _atom_site_symmetry_multiplicity
 _atom_site_fract_x
 _atom_site_fract_y
 _atom_site_fract_z
 _atom_site_occupancy
  Li  Li0  1  0.77249078  0.90846947  0.55646261  1
  Li  Li1  1  0.91677755  0.31383156  0.56090994  1
  Li  Li2  1  0.67733074  0.67073602  0.89097029  1
  Li  Li3  1  0.76957843  0.32048596  0.06172413  1
  Li  Li4  1  0.32790553  0.90527736  0.06411992  1
  Li  Li5  1  0.68112941  0.23082255  0.43590389  1
  Li  Li6  1  0.32307873  0.77207308  0.55771478  1
  Li  Li7  1  0.66852654  0.09519442  0.94089963  1
  Li  Li8  1  0.09471550  0.68134705  0.43531275  1
  Li  Li9  1  0.03561586  0.94508426  0.99994119  1
  V  V10  1  0.56640137  0.43715786  0.24568047  1
  V  V11  1  0.42680687  0.56747204  0.75181268  1
  V  V12  1  0.56653934  0.00048953  0.74586099  1
  V  V13  1  0.42788061  0.00474263  0.25192765  1
  V  V14  1  0.99617606  0.56756549  0.24426857  1
  V  V15  1  0.00455375  0.43336067  0.75675418  1
  P  P16  1  0.91385733  0.78145766  0.84091559  1
  P  P17  1  0.77014811  0.91212341  0.33829288  1
  P  P18  1  0.91433916  0.31996316  0.34411822  1
  P  P19  1  0.66076826  0.67223192  0.12797201  1
  P  P20  1  0.66821015  0.66197872  0.63071168  1
  P  P21  1  0.77180236  0.31716458  0.84206514  1
  P  P22  1  0.67964685  0.23401501  0.65716539  1
  P  P23  1  0.31798340  0.90892611  0.84508402  1
  P  P24  1  0.68239457  0.08767629  0.15560576  1
  P  P25  1  0.32342421  0.76727645  0.34258876  1
  P  P26  1  0.22245005  0.69079527  0.16120847  1
  P  P27  1  0.33754915  0.33479729  0.36947081  1
  P  P28  1  0.33951517  0.33149203  0.87266852  1
  P  P29  1  0.08395997  0.68159312  0.65627898  1
  P  P30  1  0.22513504  0.08572036  0.66201706  1
  P  P31  1  0.08105907  0.22257834  0.16057683  1
  O  O32  1  0.00167209  0.75830485  0.56469108  1
  O  O33  1  0.91678223  0.74802294  0.33939807  1
  O  O34  1  0.76362427  0.01027709  0.06585434  1
  O  O35  1  0.74021149  0.92194935  0.83528891  1
  O  O36  1  0.90068906  0.62950890  0.83489064  1
  O  O37  1  0.80278457  0.68024603  0.17014612  1
  O  O38  1  0.90547954  0.47853086  0.32026206  1
  O  O39  1  0.99262173  0.20112858  0.08008393  1
  O  O40  1  0.91139623  0.34477864  0.84363234  1
  O  O41  1  0.67195472  0.81310822  0.66661079  1
  O  O42  1  0.61862994  0.90161385  0.31973552  1
  O  O43  1  0.81673720  0.51647748  0.67640028  1
  O  O44  1  0.65063978  0.67582316  0.02097924  1
  O  O45  1  0.66402918  0.65595537  0.52525664  1
  O  O46  1  0.67233124  0.51370946  0.16287316  1
  O  O47  1  0.48171524  0.89312688  0.83118027  1
  O  O48  1  0.50557898  0.81670792  0.16725250  1
  O  O49  1  0.74658304  0.33924328  0.33445636  1
  O  O50  1  0.79009033  0.21278932  0.74861169  1
  O  O51  1  0.75341222  0.24987781  0.56843054  1
  O  O52  1  0.76182089  0.23378130  0.92873899  1
  O  O53  1  0.61888842  0.48066631  0.82755276  1
  O  O54  1  0.51780491  0.66431560  0.67401401  1
  O  O55  1  0.65892661  0.25570984  0.16005325  1
  O  O56  1  0.48206732  0.62249868  0.32283749  1
  O  O57  1  0.34195623  0.91536934  0.33413092  1
  O  O58  1  0.79066602  0.00117597  0.24848823  1
  O  O59  1  0.75572950  0.00225316  0.42800237  1
  O  O60  1  0.23861026  0.98780866  0.57890820  1
  O  O61  1  0.66408237  0.08450717  0.65616292  1
  O  O62  1  0.52039439  0.38199315  0.67811815  1
  O  O63  1  0.33994864  0.74049836  0.82977014  1
  O  O64  1  0.48773294  0.33126067  0.32862232  1
  O  O65  1  0.38161664  0.53652545  0.16918490  1
  O  O66  1  0.20905699  0.79488101  0.08056089  1
  O  O67  1  0.24974723  0.75777389  0.43332803  1
  O  O68  1  0.20245353  0.78713156  0.25843851  1
  O  O69  1  0.25228302  0.66390779  0.66008809  1
  O  O70  1  0.48731688  0.18500176  0.83330142  1
  O  O71  1  0.52614778  0.08742501  0.17193767  1
  O  O72  1  0.33638425  0.48057118  0.82275227  1
  O  O73  1  0.34266143  0.34234199  0.97723586  1
  O  O74  1  0.34889555  0.31672460  0.47447434  1
  O  O75  1  0.18729096  0.48331094  0.33209811  1
  O  O76  1  0.37955708  0.09355330  0.68072792  1
  O  O77  1  0.33824186  0.18487092  0.31985477  1
  O  O78  1  0.08712209  0.65373443  0.16422831  1
  O  O79  1  0.99020344  0.79710008  0.74260278  1
  O  O80  1  0.99806299  0.80066164  0.92281384  1
  O  O81  1  0.09582635  0.52305051  0.67449873  1
  O  O82  1  0.18805519  0.33604564  0.82888489  1
  O  O83  1  0.08138163  0.37791163  0.16631934  1
  O  O84  1  0.25477285  0.08158367  0.16209859  1
  O  O85  1  0.23923690  0.97376153  0.93707828  1
  O  O86  1  0.20407046  0.00971930  0.75957421  1
  O  O87  1  0.08279644  0.25219778  0.66185661  1
  O  O88  1  0.98839653  0.25355044  0.43726130  1
  O  O89  1  0.01213244  0.20111406  0.25998931  1
