# generated using pymatgen
data_Li4Cr2P4H3O16
_symmetry_space_group_name_H-M   'P 1'
_cell_length_a   4.95004812
_cell_length_b   8.36833731
_cell_length_c   7.69340358
_cell_angle_alpha   90.68578422
_cell_angle_beta   103.85925820
_cell_angle_gamma   88.15120981
_symmetry_Int_Tables_number   1
_chemical_formula_structural   Li4Cr2P4H3O16
_chemical_formula_sum   'Li4 Cr2 P4 H3 O16'
_cell_volume   309.24703632
_cell_formula_units_Z   1
loop_
 _symmetry_equiv_pos_site_id
 _symmetry_equiv_pos_as_xyz
  1  'x, y, z'
loop_
 _atom_site_type_symbol
 _atom_site_label
 _atom_site_symmetry_multiplicity
 _atom_site_fract_x
 _atom_site_fract_y
 _atom_site_fract_z
 _atom_site_occupancy
  Li  Li0  1  0.11513839  0.35527679  0.67877228  1
  Li  Li1  1  0.39711162  0.87734350  0.84786780  1
  Li  Li2  1  0.58481938  0.11722268  0.15647634  1
  Li  Li3  1  0.88634725  0.64769364  0.31945842  1
  Cr  Cr4  1  0.00038208  0.99764652  0.49749142  1
  Cr  Cr5  1  0.49806621  0.50062099  0.00160772  1
  P  P6  1  0.10420021  0.32397429  0.25639478  1
  P  P7  1  0.37506981  0.84720932  0.23668180  1
  P  P8  1  0.62460681  0.15446113  0.75710091  1
  P  P9  1  0.89066059  0.67594395  0.74413820  1
  H  H10  1  0.95580070  0.01432367  0.97907401  1
  H  H11  1  0.45196195  0.39882905  0.47052368  1
  H  H12  1  0.54692162  0.61528763  0.52073806  1
  O  O13  1  0.11740577  0.55181056  0.82571537  1
  O  O14  1  0.97635303  0.17107720  0.30947064  1
  O  O15  1  0.15600903  0.82744919  0.35238763  1
  O  O16  1  0.24910353  0.41138291  0.44776248  1
  O  O17  1  0.38378476  0.05016964  0.65818772  1
  O  O18  1  0.51637618  0.31756439  0.80607822  1
  O  O19  1  0.25301357  0.93985742  0.06149191  1
  O  O20  1  0.32625504  0.29474301  0.15476129  1
  O  O21  1  0.67045668  0.70623892  0.84679352  1
  O  O22  1  0.75442940  0.06219204  0.94079911  1
  O  O23  1  0.48289053  0.67884750  0.19844400  1
  O  O24  1  0.62089857  0.94639180  0.34646505  1
  O  O25  1  0.74620469  0.58623209  0.55418238  1
  O  O26  1  0.84904640  0.17198504  0.64908255  1
  O  O27  1  0.01581384  0.82942898  0.68991778  1
  O  O28  1  0.87975336  0.44869614  0.17403790  1
