# generated using pymatgen
data_Li5GaO4
_symmetry_space_group_name_H-M   'P 1'
_cell_length_a   9.11079678
_cell_length_b   9.61796774
_cell_length_c   9.09880203
_cell_angle_alpha   90.00000000
_cell_angle_beta   90.00000000
_cell_angle_gamma   90.00000000
_symmetry_Int_Tables_number   1
_chemical_formula_structural   Li5GaO4
_chemical_formula_sum   'Li40 Ga8 O32'
_cell_volume   797.30390566
_cell_formula_units_Z   8
loop_
 _symmetry_equiv_pos_site_id
 _symmetry_equiv_pos_as_xyz
  1  'x, y, z'
loop_
 _atom_site_type_symbol
 _atom_site_label
 _atom_site_symmetry_multiplicity
 _atom_site_fract_x
 _atom_site_fract_y
 _atom_site_fract_z
 _atom_site_occupancy
  Li  Li0  1  0.16777118  0.12900530  0.39322790  1
  Li  Li1  1  0.16777118  0.37099470  0.89322790  1
  Li  Li2  1  0.11763170  0.86759916  0.10571090  1
  Li  Li3  1  0.11763170  0.63240084  0.60571090  1
  Li  Li4  1  0.15121119  0.86682540  0.37451000  1
  Li  Li5  1  0.15121119  0.63317460  0.87451000  1
  Li  Li6  1  0.11705555  0.39400406  0.16791914  1
  Li  Li7  1  0.11705555  0.10599594  0.66791914  1
  Li  Li8  1  0.09660574  0.62870405  0.14391070  1
  Li  Li9  1  0.09660574  0.87129595  0.64391070  1
  Li  Li10  1  0.40339426  0.12870405  0.14391070  1
  Li  Li11  1  0.40339426  0.37129595  0.64391070  1
  Li  Li12  1  0.38294445  0.89400406  0.16791914  1
  Li  Li13  1  0.38294445  0.60599594  0.66791914  1
  Li  Li14  1  0.34878881  0.36682540  0.37451000  1
  Li  Li15  1  0.34878881  0.13317460  0.87451000  1
  Li  Li16  1  0.38236830  0.36759916  0.10571090  1
  Li  Li17  1  0.38236830  0.13240084  0.60571090  1
  Li  Li18  1  0.33222882  0.62900530  0.39322790  1
  Li  Li19  1  0.33222882  0.87099470  0.89322790  1
  Li  Li20  1  0.66777118  0.12900530  0.10677210  1
  Li  Li21  1  0.66777118  0.37099470  0.60677210  1
  Li  Li22  1  0.61763170  0.63240084  0.89428910  1
  Li  Li23  1  0.61763170  0.86759916  0.39428910  1
  Li  Li24  1  0.65121119  0.63317460  0.62549000  1
  Li  Li25  1  0.65121119  0.86682540  0.12549000  1
  Li  Li26  1  0.61705555  0.39400406  0.33208086  1
  Li  Li27  1  0.61705555  0.10599594  0.83208086  1
  Li  Li28  1  0.59660574  0.62870405  0.35608930  1
  Li  Li29  1  0.59660574  0.87129595  0.85608930  1
  Li  Li30  1  0.90339426  0.12870405  0.35608930  1
  Li  Li31  1  0.90339426  0.37129595  0.85608930  1
  Li  Li32  1  0.88294445  0.60599594  0.83208086  1
  Li  Li33  1  0.88294445  0.89400406  0.33208086  1
  Li  Li34  1  0.84878881  0.13317460  0.62549000  1
  Li  Li35  1  0.84878881  0.36682540  0.12549000  1
  Li  Li36  1  0.88236830  0.13240084  0.89428910  1
  Li  Li37  1  0.88236830  0.36759916  0.39428910  1
  Li  Li38  1  0.83222882  0.62900530  0.10677210  1
  Li  Li39  1  0.83222882  0.87099470  0.60677210  1
  Ga  Ga40  1  0.12176365  0.13102681  0.11424566  1
  Ga  Ga41  1  0.12176365  0.36897319  0.61424566  1
  Ga  Ga42  1  0.37823635  0.63102681  0.11424566  1
  Ga  Ga43  1  0.37823635  0.86897319  0.61424566  1
  Ga  Ga44  1  0.62176365  0.13102681  0.38575434  1
  Ga  Ga45  1  0.62176365  0.36897319  0.88575434  1
  Ga  Ga46  1  0.87823635  0.63102681  0.38575434  1
  Ga  Ga47  1  0.87823635  0.86897319  0.88575434  1
  O  O48  1  0.00883186  0.26015940  0.01124255  1
  O  O49  1  0.00883186  0.23984060  0.51124255  1
  O  O50  1  0.03706331  0.00938048  0.25242345  1
  O  O51  1  0.03706331  0.49061952  0.75242345  1
  O  O52  1  0.24975528  0.24704844  0.22942441  1
  O  O53  1  0.24975528  0.25295156  0.72942441  1
  O  O54  1  0.24106821  0.98835783  0.52628339  1
  O  O55  1  0.24106821  0.51164217  0.02628339  1
  O  O56  1  0.25893179  0.01164217  0.02628339  1
  O  O57  1  0.25893179  0.48835783  0.52628339  1
  O  O58  1  0.25024472  0.74704844  0.22942441  1
  O  O59  1  0.25024472  0.75295156  0.72942441  1
  O  O60  1  0.46293669  0.50938048  0.25242345  1
  O  O61  1  0.46293669  0.99061952  0.75242345  1
  O  O62  1  0.49116814  0.76015940  0.01124255  1
  O  O63  1  0.49116814  0.73984060  0.51124255  1
  O  O64  1  0.50883186  0.26015940  0.48875745  1
  O  O65  1  0.50883186  0.23984060  0.98875745  1
  O  O66  1  0.53706331  0.00938048  0.24757655  1
  O  O67  1  0.53706331  0.49061952  0.74757655  1
  O  O68  1  0.74975528  0.24704844  0.27057559  1
  O  O69  1  0.74975528  0.25295156  0.77057559  1
  O  O70  1  0.74106821  0.51164217  0.47371661  1
  O  O71  1  0.74106821  0.98835783  0.97371661  1
  O  O72  1  0.75893179  0.48835783  0.97371661  1
  O  O73  1  0.75893179  0.01164217  0.47371661  1
  O  O74  1  0.75024472  0.74704844  0.27057559  1
  O  O75  1  0.75024472  0.75295156  0.77057559  1
  O  O76  1  0.96293669  0.50938048  0.24757655  1
  O  O77  1  0.96293669  0.99061952  0.74757655  1
  O  O78  1  0.99116814  0.76015940  0.48875745  1
  O  O79  1  0.99116814  0.73984060  0.98875745  1
