# generated using pymatgen
data_Li5V3P8O29
_symmetry_space_group_name_H-M   'P 1'
_cell_length_a   9.78497038
_cell_length_b   9.81264983
_cell_length_c   14.04449020
_cell_angle_alpha   89.86346407
_cell_angle_beta   90.07985163
_cell_angle_gamma   59.86091502
_symmetry_Int_Tables_number   1
_chemical_formula_structural   Li5V3P8O29
_chemical_formula_sum   'Li10 V6 P16 O58'
_cell_volume   1166.18880969
_cell_formula_units_Z   2
loop_
 _symmetry_equiv_pos_site_id
 _symmetry_equiv_pos_as_xyz
  1  'x, y, z'
loop_
 _atom_site_type_symbol
 _atom_site_label
 _atom_site_symmetry_multiplicity
 _atom_site_fract_x
 _atom_site_fract_y
 _atom_site_fract_z
 _atom_site_occupancy
  Li  Li0  1  0.77236580  0.90687776  0.55553672  1
  Li  Li1  1  0.90850549  0.31909059  0.55662773  1
  Li  Li2  1  0.76388638  0.33436130  0.06072475  1
  Li  Li3  1  0.33359806  0.89705096  0.06025316  1
  Li  Li4  1  0.68091374  0.22613956  0.43837678  1
  Li  Li5  1  0.31286338  0.77365897  0.56275855  1
  Li  Li6  1  0.67112604  0.09296950  0.94021868  1
  Li  Li7  1  0.22987230  0.09109772  0.43848258  1
  Li  Li8  1  0.10017852  0.23245675  0.94363741  1
  Li  Li9  1  0.01257173  0.92966878  0.00942633  1
  V  V10  1  0.56488879  0.43664312  0.25130040  1
  V  V11  1  0.42816147  0.56935063  0.75341858  1
  V  V12  1  0.56721671  0.00123762  0.74946502  1
  V  V13  1  0.43402108  0.99865320  0.24768289  1
  V  V14  1  0.99837130  0.57287274  0.24755775  1
  V  V15  1  0.00103822  0.43887734  0.75278188  1
  P  P16  1  0.91692521  0.77646845  0.84396461  1
  P  P17  1  0.77099841  0.91103659  0.33839301  1
  P  P18  1  0.91358615  0.31971188  0.34158639  1
  P  P19  1  0.66925799  0.66324954  0.12757567  1
  P  P20  1  0.66572322  0.66639386  0.63131657  1
  P  P21  1  0.77280705  0.31571952  0.84115144  1
  P  P22  1  0.68000852  0.23369226  0.65820213  1
  P  P23  1  0.31562899  0.91359847  0.84121753  1
  P  P24  1  0.68456688  0.09036656  0.15652724  1
  P  P25  1  0.31936998  0.76934925  0.34537953  1
  P  P26  1  0.22290241  0.69335810  0.16203756  1
  P  P27  1  0.33052957  0.33195699  0.36882533  1
  P  P28  1  0.33427885  0.33199299  0.87070499  1
  P  P29  1  0.08343509  0.68776684  0.65741061  1
  P  P30  1  0.22892989  0.09237311  0.65891860  1
  P  P31  1  0.08534469  0.23040453  0.15792542  1
  O  O32  1  0.98958376  0.76558849  0.57088528  1
  O  O33  1  0.91720653  0.74397188  0.33532193  1
  O  O34  1  0.77391423  0.01670646  0.06652547  1
  O  O35  1  0.74407565  0.91649125  0.83829644  1
  O  O36  1  0.91762553  0.61739564  0.82969863  1
  O  O37  1  0.81308721  0.67000217  0.17633212  1
  O  O38  1  0.90473441  0.47814517  0.32265391  1
  O  O39  1  0.99782462  0.22960042  0.06936196  1
  O  O40  1  0.92173529  0.33548587  0.83988251  1
  O  O41  1  0.67170764  0.81427210  0.66841856  1
  O  O42  1  0.62045441  0.90112866  0.32069428  1
  O  O43  1  0.81556779  0.51564989  0.67925690  1
  O  O44  1  0.67890628  0.65884269  0.02156255  1
  O  O45  1  0.68066315  0.65103955  0.52555584  1
  O  O46  1  0.67984704  0.50906431  0.16796758  1
  O  O47  1  0.47202714  0.91116009  0.82872004  1
  O  O48  1  0.51333309  0.80949587  0.16498415  1
  O  O49  1  0.74834034  0.33570089  0.34261550  1
  O  O50  1  0.79448796  0.20830997  0.74836458  1
  O  O51  1  0.75778826  0.24401681  0.56802727  1
  O  O52  1  0.77514146  0.22699605  0.92983681  1
  O  O53  1  0.62227582  0.47347424  0.82772596  1
  O  O54  1  0.51321530  0.67252352  0.66951393  1
  O  O55  1  0.65778893  0.26045602  0.16408918  1
  O  O56  1  0.48047977  0.62012248  0.32187983  1
  O  O57  1  0.33784654  0.91748966  0.33822102  1
  O  O58  1  0.79299275  0.00143661  0.24879081  1
  O  O59  1  0.75884123  0.99911204  0.42825031  1
  O  O60  1  0.24002374  0.00388305  0.56941156  1
  O  O61  1  0.66262227  0.08521598  0.65788401  1
  O  O62  1  0.52149536  0.38384489  0.67729342  1
  O  O63  1  0.34030240  0.74592904  0.83554911  1
  O  O64  1  0.48403162  0.32921124  0.33209240  1
  O  O65  1  0.38010630  0.53931970  0.16742727  1
  O  O66  1  0.20474362  0.80121304  0.08080221  1
  O  O67  1  0.25332825  0.75817159  0.43812356  1
  O  O68  1  0.20231431  0.78987223  0.25937582  1
  O  O69  1  0.25069696  0.66551510  0.65922202  1
  O  O70  1  0.49001377  0.18724121  0.83167791  1
  O  O71  1  0.52923595  0.09076543  0.16845947  1
  O  O72  1  0.32346162  0.48232158  0.82819894  1
  O  O73  1  0.32336703  0.32343942  0.97628529  1
  O  O74  1  0.32267612  0.33240906  0.47475638  1
  O  O75  1  0.18468838  0.47793728  0.31939089  1
  O  O76  1  0.37831838  0.10300896  0.67754166  1
  O  O77  1  0.32767536  0.18349450  0.32808581  1
  O  O78  1  0.08174575  0.66250841  0.16434613  1
  O  O79  1  0.99932503  0.79496482  0.74982799  1
  O  O80  1  0.99897399  0.78486159  0.92992749  1
  O  O81  1  0.09373879  0.52541119  0.67933423  1
  O  O82  1  0.18599656  0.32228560  0.82599260  1
  O  O83  1  0.08722483  0.38476313  0.17061384  1
  O  O84  1  0.25421150  0.08451943  0.15775809  1
  O  O85  1  0.22809261  0.99716642  0.93071728  1
  O  O86  1  0.20567100  0.00398845  0.74938384  1
  O  O87  1  0.07925654  0.25913918  0.65955703  1
  O  O88  1  0.00414337  0.24046179  0.43100545  1
  O  O89  1  0.00226458  0.20730643  0.25103712  1
