# generated using pymatgen
data_Mn6OF11
_symmetry_space_group_name_H-M   'P 1'
_cell_length_a   4.96321102
_cell_length_b   5.89718403
_cell_length_c   16.22683080
_cell_angle_alpha   90.00000000
_cell_angle_beta   90.77052634
_cell_angle_gamma   90.00000000
_symmetry_Int_Tables_number   1
_chemical_formula_structural   Mn6OF11
_chemical_formula_sum   'Mn12 O2 F22'
_cell_volume   474.89965681
_cell_formula_units_Z   2
loop_
 _symmetry_equiv_pos_site_id
 _symmetry_equiv_pos_as_xyz
  1  'x, y, z'
loop_
 _atom_site_type_symbol
 _atom_site_label
 _atom_site_symmetry_multiplicity
 _atom_site_fract_x
 _atom_site_fract_y
 _atom_site_fract_z
 _atom_site_occupancy
  Mn  Mn0  1  0.00329098  0.16722317  0.41616366  1
  Mn  Mn1  1  0.01513198  0.83341060  0.24526836  1
  Mn  Mn2  1  0.00747344  0.14457767  0.08609049  1
  Mn  Mn3  1  0.01513198  0.16658940  0.74526836  1
  Mn  Mn4  1  0.00747344  0.85542233  0.58609049  1
  Mn  Mn5  1  0.00329098  0.83277683  0.91616366  1
  Mn  Mn6  1  0.47461453  0.31056597  0.58760715  1
  Mn  Mn7  1  0.51457873  0.32997690  0.91920553  1
  Mn  Mn8  1  0.49558384  0.33424532  0.24915250  1
  Mn  Mn9  1  0.47461453  0.68943403  0.08760715  1
  Mn  Mn10  1  0.51457873  0.67002310  0.41920553  1
  Mn  Mn11  1  0.49558384  0.66575468  0.74915250  1
  O  O12  1  0.20502595  0.08751274  0.63541321  1
  O  O13  1  0.20502595  0.91248726  0.13541321  1
  F  F14  1  0.23586473  0.10860219  0.30926673  1
  F  F15  1  0.22412807  0.11444235  0.97637886  1
  F  F16  1  0.22412807  0.88555765  0.47637886  1
  F  F17  1  0.23586473  0.89139781  0.80926673  1
  F  F18  1  0.25764973  0.39427243  0.13773437  1
  F  F19  1  0.27359995  0.60768576  0.30844874  1
  F  F20  1  0.28510647  0.39217049  0.47273995  1
  F  F21  1  0.25764973  0.60572757  0.63773437  1
  F  F22  1  0.27359995  0.39231424  0.80844874  1
  F  F23  1  0.28510647  0.60782951  0.97273995  1
  F  F24  1  0.75213395  0.37202935  0.03257762  1
  F  F25  1  0.71224725  0.61634203  0.19369089  1
  F  F26  1  0.73068589  0.39377479  0.36072350  1
  F  F27  1  0.75213395  0.62797065  0.53257762  1
  F  F28  1  0.73068589  0.60622521  0.86072350  1
  F  F29  1  0.71224725  0.38365797  0.69369089  1
  F  F30  1  0.77037774  0.12074250  0.18986498  1
  F  F31  1  0.76312071  0.10555798  0.52377264  1
  F  F32  1  0.77938505  0.88938211  0.35590182  1
  F  F33  1  0.76312071  0.89444302  0.02377264  1
  F  F34  1  0.77938505  0.11061789  0.85590182  1
  F  F35  1  0.77037774  0.87925750  0.68986498  1
