# generated using pymatgen
data_Li4Cr3Co3(TeO8)2
_symmetry_space_group_name_H-M   'P 1'
_cell_length_a   5.94819845
_cell_length_b   5.94118592
_cell_length_c   9.68325377
_cell_angle_alpha   90.03511179
_cell_angle_beta   90.37337956
_cell_angle_gamma   119.97614827
_symmetry_Int_Tables_number   1
_chemical_formula_structural   Li4Cr3Co3(TeO8)2
_chemical_formula_sum   'Li4 Cr3 Co3 Te2 O16'
_cell_volume   296.41577718
_cell_formula_units_Z   1
loop_
 _symmetry_equiv_pos_site_id
 _symmetry_equiv_pos_as_xyz
  1  'x, y, z'
loop_
 _atom_site_type_symbol
 _atom_site_label
 _atom_site_symmetry_multiplicity
 _atom_site_fract_x
 _atom_site_fract_y
 _atom_site_fract_z
 _atom_site_occupancy
  Li  Li0  1  0.33392265  0.66690198  0.91070917  1
  Li  Li1  1  0.98887582  0.99435905  0.98305912  1
  Li  Li2  1  0.99516432  0.99750579  0.49277332  1
  Li  Li3  1  0.67389115  0.33709518  0.40967259  1
  Cr  Cr4  1  0.16821560  0.82946663  0.21310554  1
  Cr  Cr5  1  0.16816957  0.33882330  0.21309828  1
  Cr  Cr6  1  0.34657278  0.17304312  0.71310476  1
  Co  Co7  1  0.65465662  0.82736561  0.21432069  1
  Co  Co8  1  0.83113531  0.65690564  0.71361889  1
  Co  Co9  1  0.83121351  0.17465594  0.71358700  1
  Te  Te10  1  0.34494036  0.67236165  0.48515163  1
  Te  Te11  1  0.66258441  0.33106623  0.98499908  1
  O  O12  1  0.18409460  0.83904166  0.58461435  1
  O  O13  1  0.04399174  0.52210017  0.34443153  1
  O  O14  1  0.33640543  0.66822085  0.11296810  1
  O  O15  1  0.99134214  0.99573505  0.30383611  1
  O  O16  1  0.00572553  0.00265500  0.79922349  1
  O  O17  1  0.18452804  0.34549107  0.58447672  1
  O  O18  1  0.48920860  0.96179368  0.33749010  1
  O  O19  1  0.48926464  0.52763656  0.33743462  1
  O  O20  1  0.32907632  0.16459008  0.09537983  1
  O  O21  1  0.66352804  0.83192459  0.58401274  1
  O  O22  1  0.50542617  0.47149133  0.85455152  1
  O  O23  1  0.50476956  0.03378581  0.85482787  1
  O  O24  1  0.66625488  0.33314203  0.60792767  1
  O  O25  1  0.82286756  0.66620716  0.09718529  1
  O  O26  1  0.96121626  0.48025058  0.86512551  1
  O  O27  1  0.82295537  0.15668529  0.09715448  1
