# generated using pymatgen
data_Li3MnV(PO4)3
_symmetry_space_group_name_H-M   'P 1'
_cell_length_a   9.03689200
_cell_length_b   8.49580892
_cell_length_c   8.49580896
_cell_angle_alpha   120.00000297
_cell_angle_beta   89.99999741
_cell_angle_gamma   61.96164086
_symmetry_Int_Tables_number   1
_chemical_formula_structural   Li3MnV(PO4)3
_chemical_formula_sum   'Li6 Mn2 V2 P6 O24'
_cell_volume   474.43123344
_cell_formula_units_Z   2
loop_
 _symmetry_equiv_pos_site_id
 _symmetry_equiv_pos_as_xyz
  1  'x, y, z'
loop_
 _atom_site_type_symbol
 _atom_site_label
 _atom_site_symmetry_multiplicity
 _atom_site_fract_x
 _atom_site_fract_y
 _atom_site_fract_z
 _atom_site_occupancy
  Li  Li0  1  0.14986059  0.18978276  0.92184938  1
  Li  Li1  1  0.14986059  0.58220704  0.66035765  1
  Li  Li2  1  0.14986059  0.92829003  0.26793238  1
  Li  Li3  1  0.85275139  0.06697221  0.73731694  1
  Li  Li4  1  0.85275139  0.40993167  0.32965527  1
  Li  Li5  1  0.85275139  0.81759334  0.08027640  1
  Mn  Mn6  1  0.55949682  0.29366812  0.14683406  1
  Mn  Mn7  1  0.95246570  0.69835620  0.34917810  1
  V  V8  1  0.04746352  0.30169065  0.65084583  1
  V  V9  1  0.44272326  0.70485116  0.85242558  1
  P  P10  1  0.25133314  0.20249850  0.24622767  1
  P  P11  1  0.25133314  0.50243919  0.95626983  1
  P  P12  1  0.25133314  0.79239703  0.54616936  1
  P  P13  1  0.74968583  0.21346120  0.46442198  1
  P  P14  1  0.74968583  0.50127495  0.03685297  1
  P  P15  1  0.74968583  0.78589219  0.74903922  1
  O  O16  1  0.09701436  0.34953925  0.20349492  1
  O  O17  1  0.19212814  0.29199204  0.46180591  1
  O  O18  1  0.19212814  0.34606594  0.83018613  1
  O  O19  1  0.09701436  0.69949072  0.14604433  1
  O  O20  1  0.09701436  0.75694231  0.55344739  1
  O  O21  1  0.42037139  0.18739827  0.19923726  1
  O  O22  1  0.27546408  0.60491054  0.85513067  1
  O  O23  1  0.42037139  0.38039135  0.98816102  1
  O  O24  1  0.19212814  0.97768572  0.51587981  1
  O  O25  1  0.27546408  0.86940525  0.74977988  1
  O  O26  1  0.42037139  0.59146759  0.39223033  1
  O  O27  1  0.27546408  0.97475504  0.11962538  1
  O  O28  1  0.73471955  0.00354907  0.87254646  1
  O  O29  1  0.57701227  0.43036315  0.61526774  1
  O  O30  1  0.73471955  0.13427784  0.26173138  1
  O  O31  1  0.79625492  0.04500679  0.50813735  1
  O  O32  1  0.57701227  0.60789231  0.99262457  1
  O  O33  1  0.73471955  0.39273399  0.13100261  1
  O  O34  1  0.57701227  0.80772098  0.81509541  1
  O  O35  1  0.90268889  0.25677328  0.46735633  1
  O  O36  1  0.90268889  0.30789416  0.84053783  1
  O  O37  1  0.79625492  0.66687664  0.15873829  1
  O  O38  1  0.79625492  0.69560773  0.53686844  1
  O  O39  1  0.90268889  0.62995477  0.78941695  1
