# generated using pymatgen
data_Na3CoO3
_symmetry_space_group_name_H-M   'P 1'
_cell_length_a   6.03028277
_cell_length_b   5.88266219
_cell_length_c   11.05638526
_cell_angle_alpha   90.00000000
_cell_angle_beta   89.92314656
_cell_angle_gamma   90.00000000
_symmetry_Int_Tables_number   1
_chemical_formula_structural   Na3CoO3
_chemical_formula_sum   'Na12 Co4 O12'
_cell_volume   392.21514552
_cell_formula_units_Z   4
loop_
 _symmetry_equiv_pos_site_id
 _symmetry_equiv_pos_as_xyz
  1  'x, y, z'
loop_
 _atom_site_type_symbol
 _atom_site_label
 _atom_site_symmetry_multiplicity
 _atom_site_fract_x
 _atom_site_fract_y
 _atom_site_fract_z
 _atom_site_occupancy
  Na  Na0  1  0.13694502  0.98182623  0.12048767  1
  Na  Na1  1  0.20471869  0.48155572  0.09803525  1
  Na  Na2  1  0.23180607  0.93597971  0.68740495  1
  Na  Na3  1  0.26819393  0.43597971  0.81259505  1
  Na  Na4  1  0.29528131  0.98155572  0.40196475  1
  Na  Na5  1  0.36305498  0.48182623  0.37951233  1
  Na  Na6  1  0.63694502  0.51817377  0.62048767  1
  Na  Na7  1  0.70471869  0.01844428  0.59803525  1
  Na  Na8  1  0.73180607  0.56402029  0.18740495  1
  Na  Na9  1  0.76819393  0.06402029  0.31259405  1
  Na  Na10  1  0.79528131  0.51844428  0.90196475  1
  Na  Na11  1  0.86305498  0.01817377  0.87951233  1
  Co  Co12  1  0.09350196  0.35203235  0.58591756  1
  Co  Co13  1  0.40649804  0.85203235  0.91408244  1
  Co  Co14  1  0.59350196  0.14796765  0.08591756  1
  Co  Co15  1  0.90649804  0.64796765  0.41408244  1
  O  O16  1  0.06002907  0.73815145  0.28056569  1
  O  O17  1  0.07357540  0.68226625  0.56340617  1
  O  O18  1  0.12756286  0.74130347  0.93308709  1
  O  O19  1  0.37243714  0.24130347  0.56691291  1
  O  O20  1  0.42642460  0.18226625  0.93659383  1
  O  O21  1  0.43997093  0.23815145  0.21943431  1
  O  O22  1  0.56002907  0.76184855  0.78056569  1
  O  O23  1  0.57357540  0.81773375  0.06340617  1
  O  O24  1  0.62756286  0.75869653  0.43308709  1
  O  O25  1  0.87243714  0.25869653  0.06691291  1
  O  O26  1  0.92642460  0.31773375  0.43659383  1
  O  O27  1  0.93997093  0.26184855  0.71943431  1
