# generated using pymatgen
data_Li5V3P8O29
_symmetry_space_group_name_H-M   'P 1'
_cell_length_a   9.77051876
_cell_length_b   9.80169585
_cell_length_c   13.96687519
_cell_angle_alpha   90.24211397
_cell_angle_beta   90.10848186
_cell_angle_gamma   60.19531242
_symmetry_Int_Tables_number   1
_chemical_formula_structural   Li5V3P8O29
_chemical_formula_sum   'Li10 V6 P16 O58'
_cell_volume   1160.63647015
_cell_formula_units_Z   2
loop_
 _symmetry_equiv_pos_site_id
 _symmetry_equiv_pos_as_xyz
  1  'x, y, z'
loop_
 _atom_site_type_symbol
 _atom_site_label
 _atom_site_symmetry_multiplicity
 _atom_site_fract_x
 _atom_site_fract_y
 _atom_site_fract_z
 _atom_site_occupancy
  Li  Li0  1  0.76357014  0.90322730  0.56051209  1
  Li  Li1  1  0.89899030  0.33710156  0.56223724  1
  Li  Li2  1  0.76920090  0.32158798  0.05938595  1
  Li  Li3  1  0.32046439  0.90674617  0.05953286  1
  Li  Li4  1  0.33640232  0.76914752  0.56204285  1
  Li  Li5  1  0.68522750  0.08747749  0.93911710  1
  Li  Li6  1  0.22582339  0.67761602  0.93939026  1
  Li  Li7  1  0.09988281  0.66414585  0.44150802  1
  Li  Li8  1  0.09581032  0.22721065  0.93802021  1
  Li  Li9  1  0.98587451  0.03325805  0.50117129  1
  V  V10  1  0.56372785  0.42920012  0.25637951  1
  V  V11  1  0.43407693  0.56637724  0.74883551  1
  V  V12  1  0.56745314  0.99926494  0.74877253  1
  V  V13  1  0.43281296  0.00116793  0.25280869  1
  V  V14  1  0.99700598  0.56952278  0.24494499  1
  V  V15  1  0.99994626  0.43314660  0.75080542  1
  P  P16  1  0.91467148  0.77009745  0.84088332  1
  P  P17  1  0.77642066  0.91151902  0.34229641  1
  P  P18  1  0.91291424  0.31595400  0.34248875  1
  P  P19  1  0.66266991  0.66189065  0.12945322  1
  P  P20  1  0.66738178  0.66624281  0.62613153  1
  P  P21  1  0.76663378  0.31994202  0.84336840  1
  P  P22  1  0.69027539  0.22501053  0.65803081  1
  P  P23  1  0.31948625  0.91278545  0.84296528  1
  P  P24  1  0.68302076  0.08725690  0.15851084  1
  P  P25  1  0.31467026  0.77338602  0.34131264  1
  P  P26  1  0.23159672  0.68006073  0.15816349  1
  P  P27  1  0.32488357  0.33830794  0.37182714  1
  P  P28  1  0.33460945  0.33250240  0.87154574  1
  P  P29  1  0.08688480  0.68396641  0.65619722  1
  P  P30  1  0.22396807  0.08500854  0.65838171  1
  P  P31  1  0.08778346  0.22960027  0.15858282  1
  O  O32  1  0.00495088  0.77015127  0.56563146  1
  O  O33  1  0.92282736  0.74111944  0.33389867  1
  O  O34  1  0.75666104  0.01072946  0.06649506  1
  O  O35  1  0.74663377  0.91546263  0.84088100  1
  O  O36  1  0.90561475  0.61806711  0.82188670  1
  O  O37  1  0.81363677  0.66063568  0.17750735  1
  O  O38  1  0.91523843  0.47014266  0.32795770  1
  O  O39  1  0.99589086  0.24707433  0.06884226  1
  O  O40  1  0.91639733  0.33540829  0.84269867  1
  O  O41  1  0.68066370  0.80969507  0.66671764  1
  O  O42  1  0.62406139  0.90607181  0.32889923  1
  O  O43  1  0.80999678  0.51091582  0.66700469  1
  O  O44  1  0.67595138  0.65252705  0.02347798  1
  O  O45  1  0.66662968  0.66614249  0.51891510  1
  O  O46  1  0.66647760  0.51162588  0.17183764  1
  O  O47  1  0.47985980  0.90174202  0.82262513  1
  O  O48  1  0.51349933  0.81223856  0.16727142  1
  O  O49  1  0.74140062  0.34601558  0.33318663  1
  O  O50  1  0.78784428  0.20386788  0.75662985  1
  O  O51  1  0.79639432  0.21054101  0.57677342  1
  O  O52  1  0.75108662  0.24782201  0.93439692  1
  O  O53  1  0.61902923  0.48049542  0.82239331  1
  O  O54  1  0.51045617  0.68010850  0.66722371  1
  O  O55  1  0.65885069  0.25732806  0.16443811  1
  O  O56  1  0.47217426  0.61799195  0.32700573  1
  O  O57  1  0.34290729  0.91382453  0.33637584  1
  O  O58  1  0.79457507  0.00045907  0.24974667  1
  O  O59  1  0.79254686  0.98314042  0.43323273  1
  O  O60  1  0.20746603  0.99566902  0.57610880  1
  O  O61  1  0.66203859  0.08208432  0.65920358  1
  O  O62  1  0.53488265  0.38006038  0.66759694  1
  O  O63  1  0.33654630  0.74740069  0.84182419  1
  O  O64  1  0.47819563  0.33533768  0.32555259  1
  O  O65  1  0.38295031  0.52303717  0.17748614  1
  O  O66  1  0.24302132  0.75686186  0.06824651  1
  O  O67  1  0.22991211  0.77179312  0.43064872  1
  O  O68  1  0.20644878  0.79339103  0.24887112  1
  O  O69  1  0.25543094  0.66313119  0.66032189  1
  O  O70  1  0.48820172  0.18629409  0.83022768  1
  O  O71  1  0.52461064  0.09220063  0.17886284  1
  O  O72  1  0.32672970  0.48621514  0.82996879  1
  O  O73  1  0.33522525  0.33329739  0.97842756  1
  O  O74  1  0.32816599  0.35470625  0.47725833  1
  O  O75  1  0.18043594  0.49276072  0.32922137  1
  O  O76  1  0.38017296  0.08454685  0.66795972  1
  O  O77  1  0.32347009  0.19424813  0.32893125  1
  O  O78  1  0.08735517  0.65556100  0.16170858  1
  O  O79  1  0.99348901  0.79611652  0.74500326  1
  O  O80  1  0.00899994  0.76023394  0.92591132  1
  O  O81  1  0.09256525  0.52708068  0.66995878  1
  O  O82  1  0.18710356  0.32403064  0.83212320  1
  O  O83  1  0.09848920  0.37995852  0.17796252  1
  O  O84  1  0.25266752  0.08229771  0.15780545  1
  O  O85  1  0.24633526  0.99974950  0.93474498  1
  O  O86  1  0.20311816  0.00785818  0.75669631  1
  O  O87  1  0.08200467  0.25612749  0.66119623  1
  O  O88  1  0.98432503  0.23149149  0.43394795  1
  O  O89  1  0.00130774  0.20625432  0.25056596  1
