# generated using pymatgen
data_Li5Cu2Ni3O10
_symmetry_space_group_name_H-M   'P 1'
_cell_length_a   5.03398573
_cell_length_b   5.13041957
_cell_length_c   7.66011750
_cell_angle_alpha   106.90279806
_cell_angle_beta   102.89785557
_cell_angle_gamma   101.21835242
_symmetry_Int_Tables_number   1
_chemical_formula_structural   Li5Cu2Ni3O10
_chemical_formula_sum   'Li5 Cu2 Ni3 O10'
_cell_volume   177.22848036
_cell_formula_units_Z   1
loop_
 _symmetry_equiv_pos_site_id
 _symmetry_equiv_pos_as_xyz
  1  'x, y, z'
loop_
 _atom_site_type_symbol
 _atom_site_label
 _atom_site_symmetry_multiplicity
 _atom_site_fract_x
 _atom_site_fract_y
 _atom_site_fract_z
 _atom_site_occupancy
  Li  Li0  1  0.20456398  0.90055463  0.40433738  1
  Li  Li1  1  0.38477019  0.28758533  0.78431295  1
  Li  Li2  1  0.50000000  0.50000000  0.50000000  1
  Li  Li3  1  0.61522981  0.71241467  0.21568705  1
  Li  Li4  1  0.79543602  0.09944537  0.59566262  1
  Cu  Cu5  1  0.09795137  0.69798868  0.69615373  1
  Cu  Cu6  1  0.90204863  0.30201132  0.30384627  1
  Ni  Ni7  1  0.00000000  0.50000000  0.00000000  1
  Ni  Ni8  1  0.69819889  0.89686136  0.89754671  1
  Ni  Ni9  1  0.30180111  0.10313864  0.10245329  1
  O  O10  1  0.04493612  0.12031372  0.86310368  1
  O  O11  1  0.33153042  0.70193892  0.93219127  1
  O  O12  1  0.13275555  0.29801480  0.52999907  1
  O  O13  1  0.22104103  0.48095625  0.23955521  1
  O  O14  1  0.42959617  0.89483744  0.66184130  1
  O  O15  1  0.57040383  0.10516256  0.33815870  1
  O  O16  1  0.77895897  0.51904375  0.76044479  1
  O  O17  1  0.86724445  0.70198520  0.47000093  1
  O  O18  1  0.66846958  0.29806108  0.06780873  1
  O  O19  1  0.95506388  0.87968628  0.13689632  1
