# generated using pymatgen
data_Ti3Mn(PO4)6
_symmetry_space_group_name_H-M   'P 1'
_cell_length_a   8.81531309
_cell_length_b   8.81531243
_cell_length_c   8.81531309
_cell_angle_alpha   58.39762458
_cell_angle_beta   58.39762437
_cell_angle_gamma   58.39762727
_symmetry_Int_Tables_number   1
_chemical_formula_structural   Ti3Mn(PO4)6
_chemical_formula_sum   'Ti3 Mn1 P6 O24'
_cell_volume   466.62743632
_cell_formula_units_Z   1
loop_
 _symmetry_equiv_pos_site_id
 _symmetry_equiv_pos_as_xyz
  1  'x, y, z'
loop_
 _atom_site_type_symbol
 _atom_site_label
 _atom_site_symmetry_multiplicity
 _atom_site_fract_x
 _atom_site_fract_y
 _atom_site_fract_z
 _atom_site_occupancy
  Ti  Ti0  1  0.14034045  0.14034045  0.14034045  1
  Ti  Ti1  1  0.35919626  0.35919626  0.35919626  1
  Ti  Ti2  1  0.64012615  0.64012615  0.64012615  1
  Mn  Mn3  1  0.85529418  0.85529418  0.85529418  1
  P  P4  1  0.03158589  0.74952909  0.47074040  1
  P  P5  1  0.47074040  0.03158589  0.74952909  1
  P  P6  1  0.74952909  0.47074040  0.03158589  1
  P  P7  1  0.24278387  0.53827003  0.96612132  1
  P  P8  1  0.53827003  0.96612132  0.24278387  1
  P  P9  1  0.96612132  0.24278387  0.53827003  1
  O  O10  1  0.13787175  0.27475721  0.50670678  1
  O  O11  1  0.27475721  0.50670678  0.13787175  1
  O  O12  1  0.06032043  0.92323489  0.29082823  1
  O  O13  1  0.50670678  0.13787175  0.27475721  1
  O  O14  1  0.21164321  0.57523986  0.44225208  1
  O  O15  1  0.00818645  0.77490780  0.64275254  1
  O  O16  1  0.29082823  0.06032043  0.92323489  1
  O  O17  1  0.44225208  0.21164321  0.57523986  1
  O  O18  1  0.57523986  0.44225208  0.21164321  1
  O  O19  1  0.21649783  0.36459775  0.99624219  1
  O  O20  1  0.06946541  0.71986451  0.94017561  1
  O  O21  1  0.36459775  0.99624219  0.21649783  1
  O  O22  1  0.64275254  0.00818645  0.77490780  1
  O  O23  1  0.92323489  0.29082823  0.06032043  1
  O  O24  1  0.77490780  0.64275254  0.00818645  1
  O  O25  1  0.41768357  0.56695995  0.78593348  1
  O  O26  1  0.56695995  0.78593348  0.41768357  1
  O  O27  1  0.71986451  0.94017561  0.06946541  1
  O  O28  1  0.99624219  0.21649783  0.36459775  1
  O  O29  1  0.78593348  0.41768357  0.56695995  1
  O  O30  1  0.49904477  0.86074180  0.72010227  1
  O  O31  1  0.94017561  0.06946541  0.71986451  1
  O  O32  1  0.72010227  0.49904477  0.86074180  1
  O  O33  1  0.86074180  0.72010227  0.49904477  1
