# generated using pymatgen
data_Cr4OF11
_symmetry_space_group_name_H-M   'P 1'
_cell_length_a   5.08142593
_cell_length_b   5.34728025
_cell_length_c   16.91759400
_cell_angle_alpha   92.09368039
_cell_angle_beta   98.95102236
_cell_angle_gamma   61.39539067
_symmetry_Int_Tables_number   1
_chemical_formula_structural   Cr4OF11
_chemical_formula_sum   'Cr8 O2 F22'
_cell_volume   398.27806806
_cell_formula_units_Z   2
loop_
 _symmetry_equiv_pos_site_id
 _symmetry_equiv_pos_as_xyz
  1  'x, y, z'
loop_
 _atom_site_type_symbol
 _atom_site_label
 _atom_site_symmetry_multiplicity
 _atom_site_fract_x
 _atom_site_fract_y
 _atom_site_fract_z
 _atom_site_occupancy
  Cr  Cr0  1  0.74645745  0.64191561  0.12897760  1
  Cr  Cr1  1  0.74364230  0.12858108  0.62452871  1
  Cr  Cr2  1  0.49752545  0.75167318  0.74983884  1
  Cr  Cr3  1  0.51531738  0.22804494  0.24735291  1
  Cr  Cr4  1  0.27445594  0.85766860  0.37720442  1
  Cr  Cr5  1  0.24848691  0.37700642  0.87523395  1
  Cr  Cr6  1  0.97927610  0.50845081  0.49561234  1
  Cr  Cr7  1  0.99690835  0.00505204  0.00089483  1
  O  O8  1  0.74909213  0.93611977  0.18760538  1
  O  O9  1  0.68695336  0.65767511  0.40667497  1
  F  F10  1  0.81277761  0.78508286  0.03363727  1
  F  F11  1  0.74864743  0.81198778  0.56248385  1
  F  F12  1  0.75756635  0.32027526  0.06416534  1
  F  F13  1  0.68367580  0.96911453  0.71756732  1
  F  F14  1  0.68397457  0.46634724  0.21744708  1
  F  F15  1  0.81154210  0.59471382  0.84338765  1
  F  F16  1  0.82560442  0.08475011  0.34187033  1
  F  F17  1  0.81297196  0.28195937  0.53151485  1
  F  F18  1  0.31228204  0.84290832  0.09420237  1
  F  F19  1  0.74709994  0.43779797  0.68765211  1
  F  F20  1  0.26645531  0.55607937  0.31166932  1
  F  F21  1  0.68554175  0.15749523  0.90688364  1
  F  F22  1  0.18258830  0.90865549  0.65656327  1
  F  F23  1  0.18554682  0.40602602  0.15827560  1
  F  F24  1  0.18288017  0.71678790  0.46790312  1
  F  F25  1  0.31390648  0.53249796  0.78218843  1
  F  F26  1  0.30840340  0.34635053  0.58926376  1
  F  F27  1  0.31566062  0.03188806  0.28327206  1
  F  F28  1  0.24519393  0.68944982  0.93823182  1
  F  F29  1  0.24300388  0.18549948  0.43751256  1
  F  F30  1  0.25010028  0.06438247  0.81238093  1
  F  F31  1  0.18646048  0.21776486  0.96800237  1
