# generated using pymatgen
data_HfMnO3
_symmetry_space_group_name_H-M   'P 1'
_cell_length_a   5.41662298
_cell_length_b   5.61570279
_cell_length_c   7.91616303
_cell_angle_alpha   90.00000000
_cell_angle_beta   90.00000000
_cell_angle_gamma   90.00000000
_symmetry_Int_Tables_number   1
_chemical_formula_structural   HfMnO3
_chemical_formula_sum   'Hf4 Mn4 O12'
_cell_volume   240.79499316
_cell_formula_units_Z   4
loop_
 _symmetry_equiv_pos_site_id
 _symmetry_equiv_pos_as_xyz
  1  'x, y, z'
loop_
 _atom_site_type_symbol
 _atom_site_label
 _atom_site_symmetry_multiplicity
 _atom_site_fract_x
 _atom_site_fract_y
 _atom_site_fract_z
 _atom_site_occupancy
  Hf  Hf0  1  0.00000000  0.50000000  0.00000000  1
  Hf  Hf1  1  0.00000000  0.50000000  0.50000000  1
  Hf  Hf2  1  0.50000000  0.00000000  0.00000000  1
  Hf  Hf3  1  0.50000000  0.00000000  0.50000000  1
  Mn  Mn4  1  0.00869734  0.95503690  0.75000000  1
  Mn  Mn5  1  0.49130266  0.45503690  0.75000000  1
  Mn  Mn6  1  0.50869734  0.54496310  0.25000000  1
  Mn  Mn7  1  0.99130266  0.04496310  0.25000000  1
  O  O8  1  0.12361392  0.43895287  0.25000000  1
  O  O9  1  0.18195406  0.18676270  0.56622311  1
  O  O10  1  0.18195406  0.18676270  0.93377689  1
  O  O11  1  0.31804594  0.68676270  0.56622311  1
  O  O12  1  0.31804594  0.68676270  0.93377689  1
  O  O13  1  0.37638608  0.93895287  0.25000000  1
  O  O14  1  0.62361392  0.06104713  0.75000000  1
  O  O15  1  0.68195406  0.31323730  0.06622311  1
  O  O16  1  0.68195406  0.31323730  0.43377689  1
  O  O17  1  0.81804594  0.81323730  0.06622311  1
  O  O18  1  0.81804594  0.81323730  0.43377689  1
  O  O19  1  0.87638608  0.56104713  0.75000000  1
