# generated using pymatgen
data_LiMn28O56
_symmetry_space_group_name_H-M   'P 1'
_cell_length_a   10.09989012
_cell_length_b   10.09989012
_cell_length_c   10.09989012
_cell_angle_alpha   80.40707008
_cell_angle_beta   99.59292992
_cell_angle_gamma   80.40707008
_symmetry_Int_Tables_number   1
_chemical_formula_structural   LiMn28O56
_chemical_formula_sum   'Li1 Mn28 O56'
_cell_volume   981.42377656
_cell_formula_units_Z   1
loop_
 _symmetry_equiv_pos_site_id
 _symmetry_equiv_pos_as_xyz
  1  'x, y, z'
loop_
 _atom_site_type_symbol
 _atom_site_label
 _atom_site_symmetry_multiplicity
 _atom_site_fract_x
 _atom_site_fract_y
 _atom_site_fract_z
 _atom_site_occupancy
  Li  Li0  1  0.51783546  0.83930754  0.44640646  1
  Mn  Mn1  1  0.35721708  0.78577287  0.92812560  1
  Mn  Mn2  1  0.00033482  0.49965052  0.50034309  1
  Mn  Mn3  1  0.07140648  0.35708931  0.78597408  1
  Mn  Mn4  1  0.28438345  0.92935942  0.64316622  1
  Mn  Mn5  1  0.14250339  0.71408691  0.07125573  1
  Mn  Mn6  1  0.14268473  0.21463961  0.57162709  1
  Mn  Mn7  1  0.28476970  0.92856705  0.14142206  1
  Mn  Mn8  1  0.57214611  0.85742818  0.78711617  1
  Mn  Mn9  1  0.00005369  0.49974092  0.99997748  1
  Mn  Mn10  1  0.99955460  0.99992492  0.49994213  1
  Mn  Mn11  1  0.42828716  0.64157562  0.71517246  1
  Mn  Mn12  1  0.28534182  0.42836062  0.64300499  1
  Mn  Mn13  1  0.14279057  0.21435243  0.07136257  1
  Mn  Mn14  1  0.85749248  0.78537191  0.92890682  1
  Mn  Mn15  1  0.42778358  0.64254778  0.21295545  1
  Mn  Mn16  1  0.78660046  0.92885584  0.64413938  1
  Mn  Mn17  1  0.21285006  0.07237330  0.35714795  1
  Mn  Mn18  1  0.57177109  0.35680818  0.78606348  1
  Mn  Mn19  1  0.49971482  0.49859783  0.50071711  1
  Mn  Mn20  1  0.42857595  0.14429294  0.21334070  1
  Mn  Mn21  1  0.85740208  0.28573652  0.92862469  1
  Mn  Mn22  1  0.85854517  0.78499689  0.42828682  1
  Mn  Mn23  1  0.71443299  0.07180118  0.85735338  1
  Mn  Mn24  1  0.71556738  0.57054154  0.35685816  1
  Mn  Mn25  1  0.57137013  0.35758840  0.28578908  1
  Mn  Mn26  1  0.71459422  0.07275855  0.35635458  1
  Mn  Mn27  1  0.64305609  0.21445827  0.07107539  1
  Mn  Mn28  1  0.92878238  0.64271001  0.21391382  1
  O  O29  1  0.02954621  0.67650843  0.91175951  1
  O  O30  1  0.19299887  0.87854007  0.97871924  1
  O  O31  1  0.15972782  0.38658091  0.96221096  1
  O  O32  1  0.03363896  0.19741518  0.89913409  1
  O  O33  1  0.01714969  0.67248875  0.39080923  1
  O  O34  1  0.17657340  0.91196169  0.47066210  1
  O  O35  1  0.39497826  0.94538332  0.81508763  1
  O  O36  1  0.10923936  0.51686993  0.67223441  1
  O  O37  1  0.26893880  0.75631781  0.75220433  1
  O  O38  1  0.45868935  0.81958488  0.62390492  1
  O  O39  1  0.52101933  0.69333782  0.87810546  1
  O  O40  1  0.23547838  0.26470207  0.73529061  1
  O  O41  1  0.37977434  0.97736866  0.30834534  1
  O  O42  1  0.17220878  0.39083098  0.48311398  1
  O  O43  1  0.09244093  0.55042439  0.16404938  1
  O  O44  1  0.39902055  0.46648431  0.80295299  1
  O  O45  1  0.68465425  0.89490477  0.94572169  1
  O  O46  1  0.25646910  0.75217512  0.23091085  1
  O  O47  1  0.33636979  0.59235387  0.55056904  1
  O  O48  1  0.05014724  0.16414313  0.40717393  1
  O  O49  1  0.11341216  0.03766545  0.66012500  1
  O  O50  1  0.58798652  0.52945831  0.67632364  1
  O  O51  1  0.46223823  0.33999331  0.61322525  1
  O  O52  1  0.87438099  0.95812245  0.81922969  1
  O  O53  1  0.44518131  0.81505190  0.10514440  1
  O  O54  1  0.31947755  0.62559000  0.04198416  1
  O  O55  1  0.74775164  0.76915548  0.75625569  1
  O  O56  1  0.30233985  0.10067390  0.53353888  1
  O  O57  1  0.25214555  0.23104838  0.24376880  1
  O  O58  1  0.12609462  0.04194520  0.18071655  1
  O  O59  1  0.68063457  0.37395449  0.95811721  1
  O  O60  1  0.55454298  0.18493422  0.89488302  1
  O  O61  1  0.41175968  0.47062737  0.32354926  1
  O  O62  1  0.53755812  0.66180908  0.38726135  1
  O  O63  1  0.69533392  0.89845365  0.46613012  1
  O  O64  1  0.31519780  0.10499745  0.05466662  1
  O  O65  1  0.74366241  0.24790364  0.76884407  1
  O  O66  1  0.66380518  0.40760854  0.44959033  1
  O  O67  1  0.60082519  0.53351067  0.19750980  1
  O  O68  1  0.94953446  0.83612367  0.59237618  1
  O  O69  1  0.88651563  0.96216474  0.34033068  1
  O  O70  1  0.47860193  0.30699576  0.12157087  1
  O  O71  1  0.76478913  0.73514496  0.26494179  1
  O  O72  1  0.62199804  0.02077221  0.69336113  1
  O  O73  1  0.90753621  0.44960679  0.83610721  1
  O  O74  1  0.82768469  0.60939136  0.51655852  1
  O  O75  1  0.54209110  0.18056960  0.37375231  1
  O  O76  1  0.89065869  0.48276201  0.32759155  1
  O  O77  1  0.73155300  0.24372984  0.24804955  1
  O  O78  1  0.60496788  0.05480315  0.18504010  1
  O  O79  1  0.96631102  0.80260002  0.10077978  1
  O  O80  1  0.98318851  0.32759679  0.60920657  1
  O  O81  1  0.84027307  0.61348059  0.03781136  1
  O  O82  1  0.82363233  0.08820420  0.52939619  1
  O  O83  1  0.80671861  0.12166462  0.02101193  1
  O  O84  1  0.97056209  0.32350304  0.08829882  1
