# generated using pymatgen
data_Li5V3P8O29
_symmetry_space_group_name_H-M   'P 1'
_cell_length_a   9.77410847
_cell_length_b   9.78599885
_cell_length_c   14.02581664
_cell_angle_alpha   90.41370960
_cell_angle_beta   90.30443577
_cell_angle_gamma   60.14417894
_symmetry_Int_Tables_number   1
_chemical_formula_structural   Li5V3P8O29
_chemical_formula_sum   'Li10 V6 P16 O58'
_cell_volume   1163.47768740
_cell_formula_units_Z   2
loop_
 _symmetry_equiv_pos_site_id
 _symmetry_equiv_pos_as_xyz
  1  'x, y, z'
loop_
 _atom_site_type_symbol
 _atom_site_label
 _atom_site_symmetry_multiplicity
 _atom_site_fract_x
 _atom_site_fract_y
 _atom_site_fract_z
 _atom_site_occupancy
  Li  Li0  1  0.77179041  0.90552543  0.55690983  1
  Li  Li1  1  0.91334134  0.31641891  0.56092476  1
  Li  Li2  1  0.76263936  0.33901797  0.06108863  1
  Li  Li3  1  0.33199724  0.90656452  0.06317705  1
  Li  Li4  1  0.68164122  0.22700643  0.43782880  1
  Li  Li5  1  0.31832990  0.77604836  0.55594162  1
  Li  Li6  1  0.66911479  0.09279748  0.94118868  1
  Li  Li7  1  0.23420768  0.66329872  0.94193104  1
  Li  Li8  1  0.09625424  0.67456994  0.43695609  1
  Li  Li9  1  0.00139258  0.00040539  0.00372909  1
  V  V10  1  0.56721948  0.43356871  0.25179258  1
  V  V11  1  0.43147555  0.56859454  0.74783345  1
  V  V12  1  0.56514072  0.99857283  0.74922086  1
  V  V13  1  0.43227771  0.00522592  0.25301037  1
  V  V14  1  0.99412787  0.56679472  0.24267853  1
  V  V15  1  0.00568458  0.43022880  0.75692955  1
  P  P16  1  0.91621161  0.77748157  0.84010509  1
  P  P17  1  0.77203647  0.91039097  0.33850454  1
  P  P18  1  0.91490655  0.31842115  0.34590378  1
  P  P19  1  0.66328626  0.66697304  0.12777439  1
  P  P20  1  0.67194224  0.66223245  0.63053069  1
  P  P21  1  0.77163973  0.31527098  0.84105292  1
  P  P22  1  0.67924629  0.23090921  0.65784065  1
  P  P23  1  0.31383153  0.91296238  0.84610155  1
  P  P24  1  0.68659274  0.08736061  0.15621616  1
  P  P25  1  0.31907935  0.77192764  0.34123361  1
  P  P26  1  0.22612679  0.68458373  0.15915838  1
  P  P27  1  0.32977856  0.33851921  0.36942142  1
  P  P28  1  0.33583350  0.33571412  0.87283123  1
  P  P29  1  0.08552667  0.68035549  0.65480084  1
  P  P30  1  0.22693750  0.08607204  0.66231067  1
  P  P31  1  0.08268645  0.22109511  0.15984977  1
  O  O32  1  0.99791059  0.75143803  0.56364610  1
  O  O33  1  0.92166431  0.74429789  0.33767852  1
  O  O34  1  0.77605098  0.01494136  0.06588082  1
  O  O35  1  0.74475824  0.91653772  0.83969626  1
  O  O36  1  0.91724409  0.61789097  0.82996301  1
  O  O37  1  0.81056554  0.67268626  0.17537890  1
  O  O38  1  0.90475054  0.47810672  0.32068124  1
  O  O39  1  0.98672681  0.21405404  0.07825689  1
  O  O40  1  0.91706233  0.34027956  0.83551393  1
  O  O41  1  0.67577404  0.81217959  0.66956535  1
  O  O42  1  0.62493747  0.89543471  0.32218139  1
  O  O43  1  0.81834428  0.51348955  0.67677508  1
  O  O44  1  0.67446743  0.66184565  0.02161160  1
  O  O45  1  0.68017161  0.65458520  0.52418265  1
  O  O46  1  0.67611326  0.51168896  0.16707605  1
  O  O47  1  0.47042698  0.91027403  0.83185867  1
  O  O48  1  0.51065381  0.81377623  0.16670342  1
  O  O49  1  0.74843380  0.33554238  0.34103087  1
  O  O50  1  0.79184491  0.20673138  0.74850670  1
  O  O51  1  0.75438576  0.24688996  0.56862886  1
  O  O52  1  0.78026398  0.22397233  0.92938357  1
  O  O53  1  0.61901042  0.47097377  0.82996895  1
  O  O54  1  0.51613944  0.67054421  0.66768672  1
  O  O55  1  0.65836062  0.25875499  0.16386165  1
  O  O56  1  0.47843482  0.61868884  0.32165264  1
  O  O57  1  0.34320000  0.91315277  0.34019955  1
  O  O58  1  0.79505873  0.99968960  0.24878652  1
  O  O59  1  0.76204115  0.99871018  0.42919207  1
  O  O60  1  0.23281335  0.99323076  0.57678477  1
  O  O61  1  0.66265676  0.08218154  0.65669322  1
  O  O62  1  0.51862780  0.37948506  0.67813693  1
  O  O63  1  0.33848758  0.74287639  0.83424761  1
  O  O64  1  0.48674900  0.32881860  0.33250831  1
  O  O65  1  0.37952928  0.52929601  0.16912342  1
  O  O66  1  0.21679426  0.77672112  0.07065753  1
  O  O67  1  0.24443872  0.75333635  0.43016580  1
  O  O68  1  0.20560220  0.79318330  0.25108878  1
  O  O69  1  0.25052665  0.66466212  0.65563386  1
  O  O70  1  0.48832713  0.18978515  0.83395157  1
  O  O71  1  0.53148173  0.08609015  0.16681048  1
  O  O72  1  0.32183596  0.49086798  0.83235536  1
  O  O73  1  0.32444332  0.34177335  0.97894076  1
  O  O74  1  0.32464411  0.34549648  0.47567871  1
  O  O75  1  0.18274610  0.48650077  0.32434698  1
  O  O76  1  0.37956804  0.09554552  0.67869012  1
  O  O77  1  0.33136834  0.18910503  0.32390701  1
  O  O78  1  0.08242350  0.65797116  0.16400731  1
  O  O79  1  0.99017402  0.79737277  0.74156407  1
  O  O80  1  0.00874227  0.78792254  0.92207574  1
  O  O81  1  0.09558984  0.52108413  0.67807171  1
  O  O82  1  0.18845122  0.32926798  0.82485924  1
  O  O83  1  0.08125238  0.38159732  0.16972922  1
  O  O84  1  0.25226981  0.08351575  0.15782293  1
  O  O85  1  0.23001885  0.98037366  0.93814403  1
  O  O86  1  0.20110679  0.01001071  0.75801246  1
  O  O87  1  0.08199764  0.25622922  0.66287002  1
  O  O88  1  0.99552274  0.25211285  0.43799820  1
  O  O89  1  0.00982177  0.20238196  0.25869525  1
