# generated using pymatgen
data_Fe2Si
_symmetry_space_group_name_H-M   'P 1'
_cell_length_a   2.69496893
_cell_length_b   2.69496893
_cell_length_c   4.84319018
_cell_angle_alpha   106.15279364
_cell_angle_beta   106.15279364
_cell_angle_gamma   90.00467015
_symmetry_Int_Tables_number   1
_chemical_formula_structural   Fe2Si
_chemical_formula_sum   'Fe2 Si1'
_cell_volume   32.33836408
_cell_formula_units_Z   1
loop_
 _symmetry_equiv_pos_site_id
 _symmetry_equiv_pos_as_xyz
  1  'x, y, z'
loop_
 _atom_site_type_symbol
 _atom_site_label
 _atom_site_symmetry_multiplicity
 _atom_site_fract_x
 _atom_site_fract_y
 _atom_site_fract_z
 _atom_site_occupancy
  Fe  Fe0  1  0.66036854  0.66036854  0.32073609  1
  Fe  Fe1  1  0.33963146  0.33963146  0.67926391  1
  Si  Si2  1  -0.00000000  0.00000000  -0.00000000  1
