# generated using pymatgen
data_Li5Ti6FeO16
_symmetry_space_group_name_H-M   'P 1'
_cell_length_a   5.95629393
_cell_length_b   5.97180042
_cell_length_c   8.45482217
_cell_angle_alpha   90.00000000
_cell_angle_beta   89.67127907
_cell_angle_gamma   90.00000000
_symmetry_Int_Tables_number   1
_chemical_formula_structural   Li5Ti6FeO16
_chemical_formula_sum   'Li5 Ti6 Fe1 O16'
_cell_volume   300.73137194
_cell_formula_units_Z   1
loop_
 _symmetry_equiv_pos_site_id
 _symmetry_equiv_pos_as_xyz
  1  'x, y, z'
loop_
 _atom_site_type_symbol
 _atom_site_label
 _atom_site_symmetry_multiplicity
 _atom_site_fract_x
 _atom_site_fract_y
 _atom_site_fract_z
 _atom_site_occupancy
  Li  Li0  1  0.50256322  0.50000000  0.99869040  1
  Li  Li1  1  0.75997113  0.00000000  0.11772321  1
  Li  Li2  1  0.99524864  0.00000000  0.50159060  1
  Li  Li3  1  0.26289050  0.50000000  0.62230646  1
  Li  Li4  1  0.23415271  0.00000000  0.87901662  1
  Ti  Ti5  1  0.00638774  0.50000000  0.99180996  1
  Ti  Ti6  1  0.24850501  0.75873397  0.24646137  1
  Ti  Ti7  1  0.24850501  0.24126603  0.24646137  1
  Ti  Ti8  1  0.47864039  0.00000000  0.50528090  1
  Ti  Ti9  1  0.74852517  0.24861637  0.75837279  1
  Ti  Ti10  1  0.74852517  0.75138363  0.75837279  1
  Fe  Fe11  1  0.73718708  0.50000000  0.38417598  1
  O  O12  1  0.23582082  0.72618473  0.02319978  1
  O  O13  1  0.23582082  0.27381527  0.02319978  1
  O  O14  1  0.01139716  0.50000000  0.24772725  1
  O  O15  1  0.47591555  0.50000000  0.25184043  1
  O  O16  1  0.47691519  0.00000000  0.25809823  1
  O  O17  1  0.03849832  0.00000000  0.25228600  1
  O  O18  1  0.26868036  0.77054698  0.48080876  1
  O  O19  1  0.26868036  0.22945302  0.48080876  1
  O  O20  1  0.73786396  0.23733513  0.50971157  1
  O  O21  1  0.73786396  0.76266487  0.50971157  1
  O  O22  1  0.95759808  0.00000000  0.74279578  1
  O  O23  1  0.51870698  0.00000000  0.73709947  1
  O  O24  1  0.98455750  0.50000000  0.76232398  1
  O  O25  1  0.54183042  0.50000000  0.74970811  1
  O  O26  1  0.76937437  0.27059559  0.98020753  1
  O  O27  1  0.76937437  0.72940441  0.98020753  1
