# generated using pymatgen
data_Li4Ti3Cr3(FeO8)2
_symmetry_space_group_name_H-M   'P 1'
_cell_length_a   5.91625872
_cell_length_b   5.92913466
_cell_length_c   9.59886833
_cell_angle_alpha   90.32120350
_cell_angle_beta   90.03137053
_cell_angle_gamma   120.11461688
_symmetry_Int_Tables_number   1
_chemical_formula_structural   Li4Ti3Cr3(FeO8)2
_chemical_formula_sum   'Li4 Ti3 Cr3 Fe2 O16'
_cell_volume   291.25694241
_cell_formula_units_Z   1
loop_
 _symmetry_equiv_pos_site_id
 _symmetry_equiv_pos_as_xyz
  1  'x, y, z'
loop_
 _atom_site_type_symbol
 _atom_site_label
 _atom_site_symmetry_multiplicity
 _atom_site_fract_x
 _atom_site_fract_y
 _atom_site_fract_z
 _atom_site_occupancy
  Li  Li0  1  0.33336161  0.66258398  0.89270180  1
  Li  Li1  1  0.99382675  0.99817339  0.99485280  1
  Li  Li2  1  0.00047870  0.99960120  0.49733492  1
  Li  Li3  1  0.66490013  0.33294499  0.39578589  1
  Ti  Ti4  1  0.34643299  0.16642582  0.71971042  1
  Ti  Ti5  1  0.17168848  0.83263524  0.21476157  1
  Ti  Ti6  1  0.17147403  0.33971660  0.21554183  1
  Cr  Cr7  1  0.65928707  0.82998518  0.21306892  1
  Cr  Cr8  1  0.82960090  0.66040671  0.71375704  1
  Cr  Cr9  1  0.83794896  0.17219732  0.70986388  1
  Fe  Fe10  1  0.33239782  0.67277313  0.49140732  1
  Fe  Fe11  1  0.67462946  0.33703154  0.99069795  1
  O  O12  1  0.16813971  0.84236903  0.59988723  1
  O  O13  1  0.03538320  0.51891285  0.33440823  1
  O  O14  1  0.32283421  0.66090527  0.10326722  1
  O  O15  1  0.00273931  0.00254897  0.31062229  1
  O  O16  1  0.00508643  0.00505026  0.80934122  1
  O  O17  1  0.15702746  0.32770800  0.60358233  1
  O  O18  1  0.47319708  0.96165795  0.33807150  1
  O  O19  1  0.47299801  0.51438734  0.33930397  1
  O  O20  1  0.32913866  0.16365197  0.10263880  1
  O  O21  1  0.67515393  0.84932082  0.60440546  1
  O  O22  1  0.51459942  0.47381312  0.84026242  1
  O  O23  1  0.52168495  0.03502288  0.83473592  1
  O  O24  1  0.65876661  0.32677594  0.60351470  1
  O  O25  1  0.84460209  0.67517143  0.10017568  1
  O  O26  1  0.95927680  0.46939343  0.83308847  1
  O  O27  1  0.84334525  0.16913567  0.10105121  1
