# generated using pymatgen
data_Li2MnV3O8
_symmetry_space_group_name_H-M   'P 1'
_cell_length_a   8.19129427
_cell_length_b   8.70641614
_cell_length_c   8.52424689
_cell_angle_alpha   90.00217483
_cell_angle_beta   90.00450898
_cell_angle_gamma   89.97537915
_symmetry_Int_Tables_number   1
_chemical_formula_structural   Li2MnV3O8
_chemical_formula_sum   'Li8 Mn4 V12 O32'
_cell_volume   607.92209487
_cell_formula_units_Z   4
loop_
 _symmetry_equiv_pos_site_id
 _symmetry_equiv_pos_as_xyz
  1  'x, y, z'
loop_
 _atom_site_type_symbol
 _atom_site_label
 _atom_site_symmetry_multiplicity
 _atom_site_fract_x
 _atom_site_fract_y
 _atom_site_fract_z
 _atom_site_occupancy
  Li  Li0  1  0.00440808  0.00255775  0.00297013  1
  Li  Li1  1  0.24543866  0.24974374  0.24795947  1
  Li  Li2  1  0.25465065  0.75011611  0.74791762  1
  Li  Li3  1  0.49576523  0.99759176  0.50303812  1
  Li  Li4  1  0.50415469  0.49742904  0.99694987  1
  Li  Li5  1  0.74547758  0.25009310  0.75216395  1
  Li  Li6  1  0.75454013  0.74974375  0.25207911  1
  Li  Li7  1  0.99575970  0.50268885  0.49726567  1
  Mn  Mn8  1  0.12325136  0.87329591  0.37549304  1
  Mn  Mn9  1  0.37663200  0.12673679  0.87532903  1
  Mn  Mn10  1  0.62331343  0.62707502  0.62438121  1
  Mn  Mn11  1  0.87682758  0.37295815  0.12457165  1
  V  V12  1  0.12256635  0.12976872  0.62654876  1
  V  V13  1  0.12586159  0.38138676  0.87395325  1
  V  V14  1  0.12681291  0.62740169  0.12271798  1
  V  V15  1  0.37305684  0.37263727  0.62248779  1
  V  V16  1  0.37419989  0.61865155  0.37398855  1
  V  V17  1  0.37744554  0.87027616  0.12667786  1
  V  V18  1  0.62272162  0.37049316  0.37329551  1
  V  V19  1  0.62570913  0.11850495  0.12593421  1
  V  V20  1  0.62696945  0.87255513  0.87747711  1
  V  V21  1  0.87299728  0.12755185  0.37742089  1
  V  V22  1  0.87424353  0.88166044  0.62602289  1
  V  V23  1  0.87723891  0.62943884  0.87337207  1
  O  O24  1  0.10211991  0.11914562  0.38834748  1
  O  O25  1  0.10481766  0.88753861  0.61952377  1
  O  O26  1  0.12285728  0.61091239  0.88833663  1
  O  O27  1  0.13849690  0.14616773  0.86303838  1
  O  O28  1  0.11457741  0.39053451  0.10803376  1
  O  O29  1  0.13922465  0.37159499  0.63696895  1
  O  O30  1  0.14181496  0.62799026  0.35828587  1
  O  O31  1  0.13526280  0.85452467  0.13306195  1
  O  O32  1  0.36462450  0.14539134  0.63317824  1
  O  O33  1  0.35827804  0.37207349  0.85805100  1
  O  O34  1  0.36068368  0.62836783  0.13697600  1
  O  O35  1  0.38545315  0.60938275  0.60798273  1
  O  O36  1  0.36151403  0.85386212  0.36311070  1
  O  O37  1  0.37703257  0.38910772  0.38808343  1
  O  O38  1  0.39517866  0.11246403  0.11936968  1
  O  O39  1  0.39802540  0.88065474  0.88866500  1
  O  O40  1  0.60203803  0.38066515  0.61131130  1
  O  O41  1  0.60497930  0.61262452  0.38075063  1
  O  O42  1  0.62314248  0.88888705  0.11179422  1
  O  O43  1  0.63862666  0.35386808  0.13684394  1
  O  O44  1  0.61466250  0.10905991  0.89196294  1
  O  O45  1  0.63926074  0.12860769  0.36300657  1
  O  O46  1  0.64167536  0.87244282  0.64205055  1
  O  O47  1  0.63511473  0.64535480  0.86639892  1
  O  O48  1  0.86486496  0.35463658  0.36707574  1
  O  O49  1  0.85834021  0.12791101  0.14193847  1
  O  O50  1  0.86073046  0.87131285  0.86319900  1
  O  O51  1  0.88532163  0.89098273  0.39205694  1
  O  O52  1  0.86154048  0.64626890  0.63684699  1
  O  O53  1  0.87695852  0.11121352  0.61169676  1
  O  O54  1  0.89513694  0.38730974  0.88056013  1
  O  O55  1  0.89760428  0.61892435  0.11161858  1
