# generated using pymatgen
data_Li2Mn3SbO8
_symmetry_space_group_name_H-M   'P 1'
_cell_length_a   8.64574967
_cell_length_b   8.64519893
_cell_length_c   8.64681440
_cell_angle_alpha   89.99166808
_cell_angle_beta   89.99177610
_cell_angle_gamma   90.00048740
_symmetry_Int_Tables_number   1
_chemical_formula_structural   Li2Mn3SbO8
_chemical_formula_sum   'Li8 Mn12 Sb4 O32'
_cell_volume   646.29943445
_cell_formula_units_Z   4
loop_
 _symmetry_equiv_pos_site_id
 _symmetry_equiv_pos_as_xyz
  1  'x, y, z'
loop_
 _atom_site_type_symbol
 _atom_site_label
 _atom_site_symmetry_multiplicity
 _atom_site_fract_x
 _atom_site_fract_y
 _atom_site_fract_z
 _atom_site_occupancy
  Li  Li0  1  0.00741568  0.00743342  0.00749681  1
  Li  Li1  1  0.24256881  0.24253192  0.24251068  1
  Li  Li2  1  0.25745514  0.75745217  0.74261096  1
  Li  Li3  1  0.49257699  0.99255728  0.50741346  1
  Li  Li4  1  0.50744807  0.49255945  0.99255338  1
  Li  Li5  1  0.74250651  0.25746212  0.75743678  1
  Li  Li6  1  0.75746246  0.74257197  0.25742146  1
  Li  Li7  1  0.99250452  0.50749050  0.49249806  1
  Mn  Mn8  1  0.12388194  0.12612518  0.62504473  1
  Mn  Mn9  1  0.12504352  0.37618862  0.87386306  1
  Mn  Mn10  1  0.12617245  0.62505378  0.12379990  1
  Mn  Mn11  1  0.37383459  0.37498362  0.62382403  1
  Mn  Mn12  1  0.37495679  0.62381371  0.37384419  1
  Mn  Mn13  1  0.37620533  0.87378958  0.12502514  1
  Mn  Mn14  1  0.62379795  0.37387861  0.37495007  1
  Mn  Mn15  1  0.62502496  0.12379107  0.12620682  1
  Mn  Mn16  1  0.62616296  0.87495944  0.87620790  1
  Mn  Mn17  1  0.87382390  0.12503572  0.37618752  1
  Mn  Mn18  1  0.87493068  0.87619195  0.62612583  1
  Mn  Mn19  1  0.87618226  0.62616208  0.87496715  1
  Sb  Sb20  1  0.12501080  0.87500569  0.37496897  1
  Sb  Sb21  1  0.37502660  0.12502792  0.87508074  1
  Sb  Sb22  1  0.62497837  0.62504018  0.62499656  1
  Sb  Sb23  1  0.87498036  0.37498174  0.12499083  1
  O  O24  1  0.10611880  0.10857743  0.37469704  1
  O  O25  1  0.12530857  0.89392457  0.60853199  1
  O  O26  1  0.10765846  0.60772547  0.89225952  1
  O  O27  1  0.14150336  0.14388538  0.87538200  1
  O  O28  1  0.10855207  0.37467344  0.10606418  1
  O  O29  1  0.14240284  0.35765884  0.64232871  1
  O  O30  1  0.12470838  0.64148511  0.35608965  1
  O  O31  1  0.14389225  0.87535242  0.14145607  1
  O  O32  1  0.35617744  0.12468699  0.64154308  1
  O  O33  1  0.37533156  0.35853303  0.85615800  1
  O  O34  1  0.35764511  0.64233092  0.14219225  1
  O  O35  1  0.39143678  0.62532075  0.60616727  1
  O  O36  1  0.35855650  0.85601829  0.37524036  1
  O  O37  1  0.39222969  0.39243342  0.39223777  1
  O  O38  1  0.37477312  0.10602576  0.10863443  1
  O  O39  1  0.39396378  0.89141924  0.87483003  1
  O  O40  1  0.60600529  0.39142519  0.62522087  1
  O  O41  1  0.62530263  0.60608898  0.39144706  1
  O  O42  1  0.60775103  0.89223970  0.10774509  1
  O  O43  1  0.64147670  0.35613434  0.12470291  1
  O  O44  1  0.60859446  0.12527722  0.89395610  1
  O  O45  1  0.64222141  0.14238906  0.35773335  1
  O  O46  1  0.62463493  0.85853640  0.64390133  1
  O  O47  1  0.64395107  0.62468059  0.85853634  1
  O  O48  1  0.85610230  0.37527601  0.35852949  1
  O  O49  1  0.87524736  0.14144482  0.14396261  1
  O  O50  1  0.85762515  0.85770953  0.85768150  1
  O  O51  1  0.89143510  0.87472171  0.39387865  1
  O  O52  1  0.85850706  0.64392489  0.62467123  1
  O  O53  1  0.89226357  0.10768410  0.60760605  1
  O  O54  1  0.87470231  0.39389646  0.89144715  1
  O  O55  1  0.89396529  0.60857323  0.12528190  1
