# generated using pymatgen
data_Li2Ni(PS3)2
_symmetry_space_group_name_H-M   'P 1'
_cell_length_a   5.98751271
_cell_length_b   5.99243639
_cell_length_c   7.29351829
_cell_angle_alpha   82.47210427
_cell_angle_beta   105.78090739
_cell_angle_gamma   119.94497096
_symmetry_Int_Tables_number   1
_chemical_formula_structural   Li2Ni(PS3)2
_chemical_formula_sum   'Li2 Ni1 P2 S6'
_cell_volume   218.20540846
_cell_formula_units_Z   1
loop_
 _symmetry_equiv_pos_site_id
 _symmetry_equiv_pos_as_xyz
  1  'x, y, z'
loop_
 _atom_site_type_symbol
 _atom_site_label
 _atom_site_symmetry_multiplicity
 _atom_site_fract_x
 _atom_site_fract_y
 _atom_site_fract_z
 _atom_site_occupancy
  Li  Li0  1  0.66896044  0.33317001  0.99620742  1
  Li  Li1  1  0.57481053  0.99590425  0.48861529  1
  Ni  Ni2  1  0.34110182  0.66841542  0.99617314  1
  P  P3  1  0.06419672  0.00209284  0.16231994  1
  P  P4  1  0.96280548  0.99869454  0.84997909  1
  S  S5  1  0.11616404  0.68811056  0.23613397  1
  S  S6  1  0.25722167  0.97437895  0.78167139  1
  S  S7  1  0.59398891  0.68479673  0.77134984  1
  S  S8  1  0.40146059  0.34254756  0.23356084  1
  S  S9  1  0.95414085  0.33375065  0.77272481  1
  S  S10  1  0.73165795  0.97813849  0.21126226  1
