# generated using pymatgen
data_Ti3Fe(PO4)6
_symmetry_space_group_name_H-M   'P 1'
_cell_length_a   8.89232702
_cell_length_b   8.89232778
_cell_length_c   8.89232781
_cell_angle_alpha   58.38575269
_cell_angle_beta   58.38575405
_cell_angle_gamma   58.38575089
_symmetry_Int_Tables_number   1
_chemical_formula_structural   Ti3Fe(PO4)6
_chemical_formula_sum   'Ti3 Fe1 P6 O24'
_cell_volume   478.82828523
_cell_formula_units_Z   1
loop_
 _symmetry_equiv_pos_site_id
 _symmetry_equiv_pos_as_xyz
  1  'x, y, z'
loop_
 _atom_site_type_symbol
 _atom_site_label
 _atom_site_symmetry_multiplicity
 _atom_site_fract_x
 _atom_site_fract_y
 _atom_site_fract_z
 _atom_site_occupancy
  Ti  Ti0  1  0.13937179  0.13937179  0.13937179  1
  Ti  Ti1  1  0.35937933  0.35937933  0.35937933  1
  Ti  Ti2  1  0.64059364  0.64059364  0.64059364  1
  Fe  Fe3  1  0.85683003  0.85683003  0.85683003  1
  P  P4  1  0.03201575  0.74840957  0.47025562  1
  P  P5  1  0.47025562  0.03201575  0.74840957  1
  P  P6  1  0.74840957  0.47025562  0.03201575  1
  P  P7  1  0.24541004  0.53548238  0.96859634  1
  P  P8  1  0.53548238  0.96859634  0.24541004  1
  P  P9  1  0.96859634  0.24541004  0.53548238  1
  O  O10  1  0.13980851  0.27952356  0.49917580  1
  O  O11  1  0.27952356  0.49917580  0.13980851  1
  O  O12  1  0.06011419  0.92367137  0.29245078  1
  O  O13  1  0.49917580  0.13980851  0.27952356  1
  O  O14  1  0.20997440  0.57578696  0.43402590  1
  O  O15  1  0.01366232  0.76535189  0.64123851  1
  O  O16  1  0.29245078  0.06011419  0.92367137  1
  O  O17  1  0.43402590  0.20997440  0.57578696  1
  O  O18  1  0.57578696  0.43402590  0.20997440  1
  O  O19  1  0.21670990  0.36370070  0.99917030  1
  O  O20  1  0.07279616  0.71300137  0.94886521  1
  O  O21  1  0.36370070  0.99917030  0.21670990  1
  O  O22  1  0.64123851  0.01366232  0.76535189  1
  O  O23  1  0.92367137  0.29245078  0.06011419  1
  O  O24  1  0.76535189  0.64123851  0.01366232  1
  O  O25  1  0.41917037  0.56531107  0.79006025  1
  O  O26  1  0.56531107  0.79006025  0.41917037  1
  O  O27  1  0.71300137  0.94886521  0.07279616  1
  O  O28  1  0.99917030  0.21670990  0.36370070  1
  O  O29  1  0.79006025  0.41917037  0.56531107  1
  O  O30  1  0.49956870  0.86067686  0.71984046  1
  O  O31  1  0.94886521  0.07279616  0.71300137  1
  O  O32  1  0.71984046  0.49956870  0.86067686  1
  O  O33  1  0.86067686  0.71984046  0.49956870  1
