# generated using pymatgen
data_LaTa2NO5
_symmetry_space_group_name_H-M   'P 1'
_cell_length_a   11.30557797
_cell_length_b   7.74117518
_cell_length_c   5.52936276
_cell_angle_alpha   89.98394104
_cell_angle_beta   90.00226263
_cell_angle_gamma   90.03195215
_symmetry_Int_Tables_number   1
_chemical_formula_structural   LaTa2NO5
_chemical_formula_sum   'La4 Ta8 N4 O20'
_cell_volume   483.92121666
_cell_formula_units_Z   4
loop_
 _symmetry_equiv_pos_site_id
 _symmetry_equiv_pos_as_xyz
  1  'x, y, z'
loop_
 _atom_site_type_symbol
 _atom_site_label
 _atom_site_symmetry_multiplicity
 _atom_site_fract_x
 _atom_site_fract_y
 _atom_site_fract_z
 _atom_site_occupancy
  La  La0  1  0.03937579  0.75241061  0.55334116  1
  La  La1  1  0.45709477  0.24763242  0.04528588  1
  La  La2  1  0.53833936  0.75422777  0.95193483  1
  La  La3  1  0.96291413  0.24757228  0.44834790  1
  Ta  Ta4  1  0.14153836  0.99772975  0.03747655  1
  Ta  Ta5  1  0.14344511  0.50425652  0.03906398  1
  Ta  Ta6  1  0.35714664  0.00290181  0.54169506  1
  Ta  Ta7  1  0.35670330  0.49645147  0.53890662  1
  Ta  Ta8  1  0.64644895  0.00089437  0.44670945  1
  Ta  Ta9  1  0.64277000  0.49643465  0.45742865  1
  Ta  Ta10  1  0.85840215  0.49291799  0.96512071  1
  Ta  Ta11  1  0.85113762  0.99601766  0.96466780  1
  N  N12  1  0.14589984  0.74966387  0.95374849  1
  N  N13  1  0.35693297  0.25095240  0.45190587  1
  N  N14  1  0.70747002  0.94113421  0.12982751  1
  N  N15  1  0.85496556  0.25162572  0.04445145  1
  O  O16  1  0.02822161  0.03686618  0.76644228  1
  O  O17  1  0.02342972  0.46466075  0.77192550  1
  O  O18  1  0.12199891  0.25053436  0.15279829  1
  O  O19  1  0.21111199  0.55567180  0.37201278  1
  O  O20  1  0.21133563  0.94489683  0.37175718  1
  O  O21  1  0.28958922  0.05700167  0.87333218  1
  O  O22  1  0.28998516  0.44378363  0.87197407  1
  O  O23  1  0.37916300  0.74960041  0.64972229  1
  O  O24  1  0.47827519  0.53693662  0.27171232  1
  O  O25  1  0.47577358  0.96326289  0.27229685  1
  O  O26  1  0.52122824  0.03345607  0.72850064  1
  O  O27  1  0.52540317  0.46659527  0.72879125  1
  O  O28  1  0.62189534  0.25219131  0.35775461  1
  O  O29  1  0.64250118  0.74890303  0.54989783  1
  O  O30  1  0.71105295  0.55876689  0.13490704  1
  O  O31  1  0.78888973  0.05368353  0.62635322  1
  O  O32  1  0.78702875  0.44854046  0.62842358  1
  O  O33  1  0.87887260  0.75106041  0.84386573  1
  O  O34  1  0.97675362  0.53613512  0.23038536  1
  O  O35  1  0.97690583  0.96462924  0.22723712  1
