# generated using pymatgen
data_Cr2O3
_symmetry_space_group_name_H-M   'P 1'
_cell_length_a   8.17282093
_cell_length_b   9.43434667
_cell_length_c   9.44084338
_cell_angle_alpha   90.00456391
_cell_angle_beta   54.75184675
_cell_angle_gamma   54.71515041
_symmetry_Int_Tables_number   1
_chemical_formula_structural   Cr2O3
_chemical_formula_sum   'Cr16 O24'
_cell_volume   420.19806159
_cell_formula_units_Z   8
loop_
 _symmetry_equiv_pos_site_id
 _symmetry_equiv_pos_as_xyz
  1  'x, y, z'
loop_
 _atom_site_type_symbol
 _atom_site_label
 _atom_site_symmetry_multiplicity
 _atom_site_fract_x
 _atom_site_fract_y
 _atom_site_fract_z
 _atom_site_occupancy
  Cr  Cr0  1  0.99786605  0.00197335  0.00161983  1
  Cr  Cr1  1  0.99729860  0.00152870  0.50144788  1
  Cr  Cr2  1  0.99880612  0.50143542  0.00135758  1
  Cr  Cr3  1  0.99782232  0.50192615  0.50126821  1
  Cr  Cr4  1  0.99750568  0.25176927  0.28953402  1
  Cr  Cr5  1  0.99737205  0.25235968  0.78996864  1
  Cr  Cr6  1  0.49902785  0.53926113  0.75096087  1
  Cr  Cr7  1  0.49755044  0.46420424  0.25137683  1
  Cr  Cr8  1  0.42196885  0.28935548  0.03985762  1
  Cr  Cr9  1  0.42048700  0.79091117  0.54091060  1
  Cr  Cr10  1  0.57486499  0.71350510  0.96317443  1
  Cr  Cr11  1  0.57456843  0.21297094  0.46193108  1
  Cr  Cr12  1  0.49745434  0.96326540  0.25189266  1
  Cr  Cr13  1  0.49815514  0.04001169  0.75119376  1
  Cr  Cr14  1  0.99856225  0.75154028  0.71343651  1
  Cr  Cr15  1  0.99891014  0.75092037  0.21231170  1
  O  O16  1  0.18372546  0.54913774  0.27397226  1
  O  O17  1  0.18407891  0.76849839  0.77477190  1
  O  O18  1  0.18252816  0.04940521  0.54359094  1
  O  O19  1  0.18471552  0.26772277  0.04231544  1
  O  O20  1  0.26616204  0.96010803  0.22708088  1
  O  O21  1  0.26673581  0.27458055  0.72620102  1
  O  O22  1  0.26752587  0.77396752  0.00720764  1
  O  O23  1  0.26704475  0.45993020  0.50609179  1
  O  O24  1  0.27726028  0.99709073  0.76906409  1
  O  O25  1  0.27813481  0.22684317  0.26812157  1
  O  O26  1  0.28090792  0.49416283  0.95323376  1
  O  O27  1  0.27908385  0.72687356  0.45473780  1
  O  O28  1  0.71772999  0.77647122  0.73496285  1
  O  O29  1  0.71841410  0.00684816  0.23332530  1
  O  O30  1  0.71628413  0.27632936  0.54798373  1
  O  O31  1  0.71727632  0.50837007  0.04880560  1
  O  O32  1  0.72966429  0.72884551  0.27674611  1
  O  O33  1  0.73002800  0.04262321  0.77609128  1
  O  O34  1  0.72868804  0.22967749  0.99596090  1
  O  O35  1  0.72864123  0.54321009  0.49593399  1
  O  O36  1  0.81283958  0.45427595  0.72814897  1
  O  O37  1  0.81114707  0.23609558  0.22855204  1
  O  O38  1  0.81178914  0.73559246  0.96090601  1
  O  O39  1  0.81133748  0.95393384  0.45982690  1
