# generated using pymatgen
data_Li2Fe2(PO4)3
_symmetry_space_group_name_H-M   'P 1'
_cell_length_a   8.72252740
_cell_length_b   8.77100381
_cell_length_c   8.72252820
_cell_angle_alpha   59.75876818
_cell_angle_beta   60.95383822
_cell_angle_gamma   59.75876611
_symmetry_Int_Tables_number   1
_chemical_formula_structural   Li2Fe2(PO4)3
_chemical_formula_sum   'Li4 Fe4 P6 O24'
_cell_volume   473.40787084
_cell_formula_units_Z   2
loop_
 _symmetry_equiv_pos_site_id
 _symmetry_equiv_pos_as_xyz
  1  'x, y, z'
loop_
 _atom_site_type_symbol
 _atom_site_label
 _atom_site_symmetry_multiplicity
 _atom_site_fract_x
 _atom_site_fract_y
 _atom_site_fract_z
 _atom_site_occupancy
  Li  Li0  1  0.31552216  0.45339251  0.67410689  1
  Li  Li1  1  0.82589311  0.04660749  0.18447784  1
  Li  Li2  1  0.17410689  0.95339251  0.81552216  1
  Li  Li3  1  0.68447784  0.54660749  0.32589311  1
  Fe  Fe4  1  0.14278353  0.14711223  0.13553768  1
  Fe  Fe5  1  0.36446232  0.35288777  0.35721647  1
  Fe  Fe6  1  0.63553768  0.64711223  0.64278353  1
  Fe  Fe7  1  0.85721647  0.85288777  0.86446232  1
  P  P8  1  0.03397609  0.75000000  0.46602391  1
  P  P9  1  0.96602391  0.25000000  0.53397609  1
  P  P10  1  0.45718599  0.03472427  0.75357994  1
  P  P11  1  0.74642006  0.46527573  0.04281401  1
  P  P12  1  0.25357994  0.53472427  0.95718599  1
  P  P13  1  0.54281401  0.96527573  0.24642006  1
  O  O14  1  0.13425389  0.28687627  0.50553554  1
  O  O15  1  0.30652179  0.48187945  0.12359328  1
  O  O16  1  0.05155783  0.92031797  0.28188566  1
  O  O17  1  0.53183504  0.11230966  0.30352616  1
  O  O18  1  0.00553554  0.78687627  0.63425389  1
  O  O19  1  0.21811434  0.57968203  0.44844217  1
  O  O20  1  0.26769235  0.05690673  0.91478314  1
  O  O21  1  0.43482593  0.23112879  0.59626018  1
  O  O22  1  0.58521686  0.44309327  0.23230765  1
  O  O23  1  0.19647384  0.38769034  0.96816496  1
  O  O24  1  0.09626018  0.73112879  0.93482593  1
  O  O25  1  0.37640672  0.01812055  0.19347821  1
  O  O26  1  0.62359328  0.98187945  0.80652179  1
  O  O27  1  0.90373982  0.26887121  0.06517407  1
  O  O28  1  0.80352616  0.61230966  0.03183504  1
  O  O29  1  0.41478314  0.55690673  0.76769235  1
  O  O30  1  0.56517407  0.76887121  0.40373982  1
  O  O31  1  0.73230765  0.94309327  0.08521686  1
  O  O32  1  0.78188566  0.42031797  0.55155783  1
  O  O33  1  0.99446446  0.21312373  0.36574611  1
  O  O34  1  0.46816496  0.88769034  0.69647384  1
  O  O35  1  0.94844217  0.07968203  0.71811434  1
  O  O36  1  0.69347821  0.51812055  0.87640672  1
  O  O37  1  0.86574611  0.71312373  0.49446446  1
