# generated using pymatgen
data_LiFeF3
_symmetry_space_group_name_H-M   'P 1'
_cell_length_a   6.11173126
_cell_length_b   6.12676211
_cell_length_c   6.10514370
_cell_angle_alpha   89.95145565
_cell_angle_beta   89.82710885
_cell_angle_gamma   90.09645599
_symmetry_Int_Tables_number   1
_chemical_formula_structural   LiFeF3
_chemical_formula_sum   'Li4 Fe4 F12'
_cell_volume   228.60641244
_cell_formula_units_Z   4
loop_
 _symmetry_equiv_pos_site_id
 _symmetry_equiv_pos_as_xyz
  1  'x, y, z'
loop_
 _atom_site_type_symbol
 _atom_site_label
 _atom_site_symmetry_multiplicity
 _atom_site_fract_x
 _atom_site_fract_y
 _atom_site_fract_z
 _atom_site_occupancy
  Li  Li0  1  0.88099859  0.87831778  0.87973517  1
  Li  Li1  1  0.12058419  0.37610574  0.61947957  1
  Li  Li2  1  0.62299964  0.12240916  0.37490666  1
  Li  Li3  1  0.37443831  0.62022483  0.12269650  1
  Fe  Fe4  1  0.16496649  0.16456323  0.15947624  1
  Fe  Fe5  1  0.34112927  0.83893650  0.66546830  1
  Fe  Fe6  1  0.66216317  0.34197739  0.83494452  1
  Fe  Fe7  1  0.83777717  0.66607195  0.34054456  1
  F  F8  1  0.01298912  0.73143696  0.62358810  1
  F  F9  1  0.26954220  0.12345338  0.48443047  1
  F  F10  1  0.12236896  0.49114296  0.27251946  1
  F  F11  1  0.36911489  0.51160077  0.76904670  1
  F  F12  1  0.23372358  0.87292044  0.98732772  1
  F  F13  1  0.48812768  0.26839149  0.12768466  1
  F  F14  1  0.51191240  0.76908101  0.37112882  1
  F  F15  1  0.76972268  0.36992037  0.51072770  1
  F  F16  1  0.62312055  0.01637767  0.73596095  1
  F  F17  1  0.87466087  0.98792816  0.23128624  1
  F  F18  1  0.72914856  0.62010426  0.01006800  1
  F  F19  1  0.99051169  0.22903595  0.87897963  1
