# generated using pymatgen
data_V6O7F5
_symmetry_space_group_name_H-M   'P 1'
_cell_length_a   4.72711641
_cell_length_b   7.75264220
_cell_length_c   5.60508235
_cell_angle_alpha   94.40350388
_cell_angle_beta   91.43536061
_cell_angle_gamma   89.90831077
_symmetry_Int_Tables_number   1
_chemical_formula_structural   V6O7F5
_chemical_formula_sum   'V6 O7 F5'
_cell_volume   204.74241005
_cell_formula_units_Z   1
loop_
 _symmetry_equiv_pos_site_id
 _symmetry_equiv_pos_as_xyz
  1  'x, y, z'
loop_
 _atom_site_type_symbol
 _atom_site_label
 _atom_site_symmetry_multiplicity
 _atom_site_fract_x
 _atom_site_fract_y
 _atom_site_fract_z
 _atom_site_occupancy
  V  V0  1  0.51478683  0.67257670  0.15389737  1
  V  V1  1  0.45836174  0.00650242  0.51454684  1
  V  V2  1  0.54548190  0.32185835  0.81150239  1
  V  V3  1  0.98932490  0.67208289  0.68171758  1
  V  V4  1  0.98614357  0.33811673  0.33852926  1
  V  V5  1  0.00903083  0.98538239  0.99640895  1
  O  O6  1  0.80111882  0.43950181  0.62618537  1
  O  O7  1  0.80245789  0.76066761  0.96468531  1
  O  O8  1  0.70823012  0.10376788  0.80389701  1
  O  O9  1  0.68922775  0.42696143  0.11873869  1
  O  O10  1  0.29858230  0.24938533  0.54464782  1
  O  O11  1  0.30502959  0.89718358  0.20454439  1
  O  O12  1  0.19886009  0.89117304  0.70077708  1
  F  F13  1  0.79908717  0.09820216  0.30455201  1
  F  F14  1  0.69502951  0.77638221  0.46808813  1
  F  F15  1  0.30462828  0.55562990  0.86272909  1
  F  F16  1  0.19924179  0.23018352  0.03603268  1
  F  F17  1  0.19537793  0.57444305  0.36852102  1
