# generated using pymatgen
data_Fe3Ni2Te(PO4)6
_symmetry_space_group_name_H-M   'P 1'
_cell_length_a   8.52810813
_cell_length_b   8.52810838
_cell_length_c   8.52810866
_cell_angle_alpha   61.13950055
_cell_angle_beta   61.13950923
_cell_angle_gamma   61.13950543
_symmetry_Int_Tables_number   1
_chemical_formula_structural   Fe3Ni2Te(PO4)6
_chemical_formula_sum   'Fe3 Ni2 Te1 P6 O24'
_cell_volume   449.82055825
_cell_formula_units_Z   1
loop_
 _symmetry_equiv_pos_site_id
 _symmetry_equiv_pos_as_xyz
  1  'x, y, z'
loop_
 _atom_site_type_symbol
 _atom_site_label
 _atom_site_symmetry_multiplicity
 _atom_site_fract_x
 _atom_site_fract_y
 _atom_site_fract_z
 _atom_site_occupancy
  Fe  Fe0  1  0.14487131  0.14487131  0.14487131  1
  Fe  Fe1  1  0.35517128  0.35517128  0.35517128  1
  Fe  Fe2  1  0.64349515  0.64349515  0.64349515  1
  Ni  Ni3  1  0.00534600  0.00534600  0.00534600  1
  Ni  Ni4  1  0.49916070  0.49916070  0.49916070  1
  Te  Te5  1  0.85597442  0.85597442  0.85597442  1
  P  P6  1  0.25603692  0.53894769  0.95285150  1
  P  P7  1  0.53894769  0.95285150  0.25603692  1
  P  P8  1  0.95285150  0.25603692  0.53894769  1
  P  P9  1  0.05133928  0.74597508  0.44555753  1
  P  P10  1  0.44555753  0.05133928  0.74597508  1
  P  P11  1  0.74597508  0.44555753  0.05133928  1
  O  O12  1  0.10895569  0.31865894  0.50378649  1
  O  O13  1  0.31865894  0.50378649  0.10895569  1
  O  O14  1  0.06067073  0.90862225  0.25397306  1
  O  O15  1  0.50378649  0.10895569  0.31865894  1
  O  O16  1  0.02473537  0.81430429  0.60141013  1
  O  O17  1  0.24676170  0.58972892  0.43462614  1
  O  O18  1  0.25397306  0.06067073  0.90862225  1
  O  O19  1  0.43462614  0.24676170  0.58972892  1
  O  O20  1  0.17880771  0.39065319  0.99544856  1
  O  O21  1  0.58972892  0.43462614  0.24676170  1
  O  O22  1  0.09188664  0.74362941  0.94360214  1
  O  O23  1  0.39065319  0.99544856  0.17880771  1
  O  O24  1  0.60141013  0.02473537  0.81430429  1
  O  O25  1  0.90862225  0.25397306  0.06067073  1
  O  O26  1  0.40791737  0.56027153  0.75429227  1
  O  O27  1  0.81430429  0.60141013  0.02473537  1
  O  O28  1  0.56027153  0.75429227  0.40791737  1
  O  O29  1  0.74362941  0.94360214  0.09188664  1
  O  O30  1  0.75429227  0.40791737  0.56027153  1
  O  O31  1  0.99544856  0.17880771  0.39065319  1
  O  O32  1  0.50119008  0.88828947  0.68305307  1
  O  O33  1  0.94360214  0.09188664  0.74362941  1
  O  O34  1  0.68305307  0.50119008  0.88828947  1
  O  O35  1  0.88828947  0.68305307  0.50119008  1
