# generated using pymatgen
data_Li2Ti3MnO8
_symmetry_space_group_name_H-M   'P 1'
_cell_length_a   5.97764929
_cell_length_b   5.97766528
_cell_length_c   9.92521527
_cell_angle_alpha   90.00000594
_cell_angle_beta   89.99999682
_cell_angle_gamma   120.00008705
_symmetry_Int_Tables_number   1
_chemical_formula_structural   Li2Ti3MnO8
_chemical_formula_sum   'Li4 Ti6 Mn2 O16'
_cell_volume   307.13705093
_cell_formula_units_Z   2
loop_
 _symmetry_equiv_pos_site_id
 _symmetry_equiv_pos_as_xyz
  1  'x, y, z'
loop_
 _atom_site_type_symbol
 _atom_site_label
 _atom_site_symmetry_multiplicity
 _atom_site_fract_x
 _atom_site_fract_y
 _atom_site_fract_z
 _atom_site_occupancy
  Li  Li0  1  0.33332962  0.66667940  0.88826241  1
  Li  Li1  1  -0.00000023  0.00000457  0.99905964  1
  Li  Li2  1  0.00000023  0.00000480  0.49905964  1
  Li  Li3  1  0.66667038  0.33334978  0.38826241  1
  Ti  Ti4  1  0.16851304  0.83148443  0.21569492  1
  Ti  Ti5  1  0.16851261  0.33702915  0.21567556  1
  Ti  Ti6  1  0.66296719  0.83148498  0.21568172  1
  Ti  Ti7  1  0.33703281  0.16851779  0.71568172  1
  Ti  Ti8  1  0.83148696  0.66297139  0.71569492  1
  Ti  Ti9  1  0.83148739  0.16851654  0.71567556  1
  Mn  Mn10  1  0.33334914  0.66669154  0.49654572  1
  Mn  Mn11  1  0.66665086  0.33334140  0.99654572  1
  O  O12  1  0.15482115  0.84520008  0.60877000  1
  O  O13  1  0.03315778  0.51659089  0.32500177  1
  O  O14  1  0.33333004  0.66667782  0.10585345  1
  O  O15  1  0.99999585  0.00000514  0.31584107  1
  O  O16  1  0.00000415  0.00000928  0.81584107  1
  O  O17  1  0.15481110  0.30964166  0.60876806  1
  O  O18  1  0.48342607  0.96686661  0.32499676  1
  O  O19  1  0.48342573  0.51659712  0.32499738  1
  O  O20  1  0.30963103  0.15483118  0.10877154  1
  O  O21  1  0.69036897  0.84520115  0.60877154  1
  O  O22  1  0.51657393  0.48344054  0.82499676  1
  O  O23  1  0.51657327  0.03317039  0.82499738  1
  O  O24  1  0.66666996  0.33334778  0.60585345  1
  O  O25  1  0.84517885  0.69037892  0.10877000  1
  O  O26  1  0.96684222  0.48343411  0.82500177  1
  O  O27  1  0.84518890  0.15483056  0.10876806  1
