# generated using pymatgen
data_LiMn2(PO4)3
_symmetry_space_group_name_H-M   'P 1'
_cell_length_a   8.44919881
_cell_length_b   11.74528469
_cell_length_c   8.53561951
_cell_angle_alpha   90.00000000
_cell_angle_beta   90.00000000
_cell_angle_gamma   90.44498631
_symmetry_Int_Tables_number   1
_chemical_formula_structural   LiMn2(PO4)3
_chemical_formula_sum   'Li4 Mn8 P12 O48'
_cell_volume   847.03435752
_cell_formula_units_Z   4
loop_
 _symmetry_equiv_pos_site_id
 _symmetry_equiv_pos_as_xyz
  1  'x, y, z'
loop_
 _atom_site_type_symbol
 _atom_site_label
 _atom_site_symmetry_multiplicity
 _atom_site_fract_x
 _atom_site_fract_y
 _atom_site_fract_z
 _atom_site_occupancy
  Li  Li0  1  0.20881360  0.17828720  0.77901535  1
  Li  Li1  1  0.29118640  0.32171280  0.27901535  1
  Li  Li2  1  0.70881360  0.67828720  0.72098465  1
  Li  Li3  1  0.79118640  0.82171280  0.22098465  1
  Mn  Mn4  1  0.25283524  0.11396392  0.46251324  1
  Mn  Mn5  1  0.24961574  0.87854951  0.03871670  1
  Mn  Mn6  1  0.25038426  0.62145049  0.53871670  1
  Mn  Mn7  1  0.24716476  0.38603608  0.96251324  1
  Mn  Mn8  1  0.75283524  0.61396392  0.03748676  1
  Mn  Mn9  1  0.74961574  0.37854951  0.46128330  1
  Mn  Mn10  1  0.75038426  0.12145049  0.96128330  1
  Mn  Mn11  1  0.74716476  0.88603608  0.53748676  1
  P  P12  1  0.03114637  0.49949730  0.25069077  1
  P  P13  1  0.10582905  0.85194758  0.38820820  1
  P  P14  1  0.10036299  0.14343020  0.11002544  1
  P  P15  1  0.39963701  0.35656980  0.61002544  1
  P  P16  1  0.39417095  0.64805242  0.88820820  1
  P  P17  1  0.46885363  0.00050270  0.75069077  1
  P  P18  1  0.53114637  0.99949730  0.24930923  1
  P  P19  1  0.60582905  0.35194758  0.11179180  1
  P  P20  1  0.60036299  0.64343020  0.38997456  1
  P  P21  1  0.89963701  0.85656980  0.88997456  1
  P  P22  1  0.89417095  0.14805242  0.61179180  1
  P  P23  1  0.96885363  0.50050270  0.74930923  1
  O  O24  1  0.05374139  0.41881649  0.86231250  1
  O  O25  1  0.07719403  0.59378341  0.68075883  1
  O  O26  1  0.08091356  0.84878088  0.88836547  1
  O  O27  1  0.07700911  0.16122420  0.59497110  1
  O  O28  1  0.11259471  0.57491727  0.37224574  1
  O  O29  1  0.13196491  0.81909162  0.21464928  1
  O  O30  1  0.16296602  0.43172916  0.16344797  1
  O  O31  1  0.15266596  0.97593739  0.41999584  1
  O  O32  1  0.16088114  0.02651808  0.06334377  1
  O  O33  1  0.16072071  0.18139539  0.27412996  1
  O  O34  1  0.17265942  0.22801844  0.98810274  1
  O  O35  1  0.19006238  0.77742730  0.50959494  1
  O  O36  1  0.30993762  0.72257270  0.00959494  1
  O  O37  1  0.32734058  0.27198156  0.48810274  1
  O  O38  1  0.33927929  0.31860461  0.77412996  1
  O  O39  1  0.33911886  0.47348192  0.56334377  1
  O  O40  1  0.34733404  0.52406261  0.91999584  1
  O  O41  1  0.33703398  0.06827084  0.66344797  1
  O  O42  1  0.36803509  0.68090838  0.71464928  1
  O  O43  1  0.38740529  0.92508273  0.87224574  1
  O  O44  1  0.42299089  0.33877580  0.09497110  1
  O  O45  1  0.41908644  0.65121912  0.38836547  1
  O  O46  1  0.42280597  0.90621659  0.18075883  1
  O  O47  1  0.44625861  0.08118351  0.36231250  1
  O  O48  1  0.55374139  0.91881649  0.63768750  1
  O  O49  1  0.57719403  0.09378341  0.81924117  1
  O  O50  1  0.58091356  0.34878088  0.61163453  1
  O  O51  1  0.57700911  0.66122420  0.90502890  1
  O  O52  1  0.61259471  0.07491727  0.12775426  1
  O  O53  1  0.63196491  0.31909162  0.28535072  1
  O  O54  1  0.66296602  0.93172916  0.33655203  1
  O  O55  1  0.65266596  0.47593739  0.08000416  1
  O  O56  1  0.66088114  0.52651808  0.43665623  1
  O  O57  1  0.66072071  0.68139539  0.22587004  1
  O  O58  1  0.67265942  0.72801844  0.51189726  1
  O  O59  1  0.69006238  0.27742730  0.99040506  1
  O  O60  1  0.80993762  0.22257270  0.49040506  1
  O  O61  1  0.82734058  0.77198156  0.01189726  1
  O  O62  1  0.83927929  0.81860461  0.72587004  1
  O  O63  1  0.83911886  0.97348192  0.93665623  1
  O  O64  1  0.84733404  0.02406261  0.58000416  1
  O  O65  1  0.83703398  0.56827084  0.83655203  1
  O  O66  1  0.86803509  0.18090838  0.78535072  1
  O  O67  1  0.88740529  0.42508273  0.62775426  1
  O  O68  1  0.92299089  0.83877580  0.40502890  1
  O  O69  1  0.91908644  0.15121912  0.11163453  1
  O  O70  1  0.92280597  0.40621659  0.31924117  1
  O  O71  1  0.94625861  0.58118351  0.13768750  1
