# generated using pymatgen
data_LiMnP2O7
_symmetry_space_group_name_H-M   'P 1'
_cell_length_a   4.95672208
_cell_length_b   6.60390745
_cell_length_c   16.60135878
_cell_angle_alpha   89.99885340
_cell_angle_beta   88.39506496
_cell_angle_gamma   90.00061202
_symmetry_Int_Tables_number   1
_chemical_formula_structural   LiMnP2O7
_chemical_formula_sum   'Li4 Mn4 P8 O28'
_cell_volume   543.21127863
_cell_formula_units_Z   4
loop_
 _symmetry_equiv_pos_site_id
 _symmetry_equiv_pos_as_xyz
  1  'x, y, z'
loop_
 _atom_site_type_symbol
 _atom_site_label
 _atom_site_symmetry_multiplicity
 _atom_site_fract_x
 _atom_site_fract_y
 _atom_site_fract_z
 _atom_site_occupancy
  Li  Li0  1  0.25629764  0.97877868  0.24041604  1
  Li  Li1  1  0.25627705  0.52123914  0.74042305  1
  Li  Li2  1  0.74372474  0.47877113  0.25957601  1
  Li  Li3  1  0.74369985  0.02121133  0.75958438  1
  Mn  Mn4  1  0.25084269  0.58175943  0.37376410  1
  Mn  Mn5  1  0.25078625  0.91826690  0.87372027  1
  Mn  Mn6  1  0.74920550  0.08173330  0.12628113  1
  Mn  Mn7  1  0.74915724  0.41823621  0.62623687  1
  P  P8  1  0.25987132  0.79665580  0.07352284  1
  P  P9  1  0.25982356  0.70334031  0.57354513  1
  P  P10  1  0.25009671  0.40319050  0.16300215  1
  P  P11  1  0.25006875  0.09681754  0.66299915  1
  P  P12  1  0.74992836  0.90318066  0.33700710  1
  P  P13  1  0.74990417  0.59680979  0.83699289  1
  P  P14  1  0.74016075  0.29666385  0.42646903  1
  P  P15  1  0.74015278  0.20334755  0.92645005  1
  O  O16  1  0.03769965  0.34055519  0.40513596  1
  O  O17  1  0.03765181  0.15949081  0.90513675  1
  O  O18  1  0.07166754  0.23939522  0.12837193  1
  O  O19  1  0.07164103  0.26059613  0.62837900  1
  O  O20  1  0.12787827  0.51214228  0.23610813  1
  O  O21  1  0.12785161  0.98783788  0.73611753  1
  O  O22  1  0.30523513  0.55838617  0.09074331  1
  O  O23  1  0.30521159  0.94160253  0.59074945  1
  O  O24  1  0.35051143  0.67748537  0.48768665  1
  O  O25  1  0.35048414  0.82253198  0.98768032  1
  O  O26  1  0.43599197  0.90711246  0.13679844  1
  O  O27  1  0.43597441  0.59287341  0.63679561  1
  O  O28  1  0.47117480  0.80932468  0.31694756  1
  O  O29  1  0.47114570  0.69069366  0.81694430  1
  O  O30  1  0.52885654  0.30930633  0.18305433  1
  O  O31  1  0.52882874  0.19067423  0.68305418  1
  O  O32  1  0.56402295  0.40713306  0.36320480  1
  O  O33  1  0.56401124  0.09288394  0.86320381  1
  O  O34  1  0.64949249  0.17746764  0.01233504  1
  O  O35  1  0.64949616  0.32251052  0.51230682  1
  O  O36  1  0.69478461  0.05839787  0.40925121  1
  O  O37  1  0.69476848  0.44160850  0.90925388  1
  O  O38  1  0.87215292  0.01216838  0.26388241  1
  O  O39  1  0.87212516  0.48784535  0.76389026  1
  O  O40  1  0.92835971  0.73940958  0.37162281  1
  O  O41  1  0.92833694  0.76059764  0.87162174  1
  O  O42  1  0.96232712  0.84051563  0.09486558  1
  O  O43  1  0.96230349  0.65945148  0.59486498  1
