# generated using pymatgen
data_LiV4OF11
_symmetry_space_group_name_H-M   'P 1'
_cell_length_a   5.21433405
_cell_length_b   5.50148331
_cell_length_c   7.63254306
_cell_angle_alpha   85.58467122
_cell_angle_beta   89.65739295
_cell_angle_gamma   90.79564972
_symmetry_Int_Tables_number   1
_chemical_formula_structural   LiV4OF11
_chemical_formula_sum   'Li1 V4 O1 F11'
_cell_volume   218.27518388
_cell_formula_units_Z   1
loop_
 _symmetry_equiv_pos_site_id
 _symmetry_equiv_pos_as_xyz
  1  'x, y, z'
loop_
 _atom_site_type_symbol
 _atom_site_label
 _atom_site_symmetry_multiplicity
 _atom_site_fract_x
 _atom_site_fract_y
 _atom_site_fract_z
 _atom_site_occupancy
  Li  Li0  1  0.99449112  0.42209239  0.18967996  1
  V  V1  1  0.99763989  0.99798058  0.50376664  1
  V  V2  1  0.49579836  0.50132865  0.49981647  1
  V  V3  1  0.51629170  0.51475815  0.99671916  1
  V  V4  1  0.99168853  0.97796935  0.00083282  1
  O  O5  1  0.80412648  0.69244585  0.05482267  1
  F  F6  1  0.10696200  0.00676369  0.25791713  1
  F  F7  1  0.18567828  0.68814332  0.55450272  1
  F  F8  1  0.19557322  0.30574770  0.97020242  1
  F  F9  1  0.30497383  0.81286682  0.93697196  1
  F  F10  1  0.30801274  0.19200331  0.55076863  1
  F  F11  1  0.36757710  0.50230036  0.25287715  1
  F  F12  1  0.60497068  0.49291964  0.74323879  1
  F  F13  1  0.69070566  0.80619410  0.44544465  1
  F  F14  1  0.72128520  0.21003473  0.06787876  1
  F  F15  1  0.81291498  0.31692587  0.42871037  1
  F  F16  1  0.88633922  0.01292951  0.74324570  1
