# generated using pymatgen
data_Li2CrP4(H2O3)6
_symmetry_space_group_name_H-M   'P 1'
_cell_length_a   8.05978866
_cell_length_b   11.58597330
_cell_length_c   8.93652359
_cell_angle_alpha   90.00000000
_cell_angle_beta   114.77811275
_cell_angle_gamma   90.00000000
_symmetry_Int_Tables_number   1
_chemical_formula_structural   Li2CrP4(H2O3)6
_chemical_formula_sum   'Li4 Cr2 P8 H24 O36'
_cell_volume   757.67124750
_cell_formula_units_Z   2
loop_
 _symmetry_equiv_pos_site_id
 _symmetry_equiv_pos_as_xyz
  1  'x, y, z'
loop_
 _atom_site_type_symbol
 _atom_site_label
 _atom_site_symmetry_multiplicity
 _atom_site_fract_x
 _atom_site_fract_y
 _atom_site_fract_z
 _atom_site_occupancy
  Li  Li0  1  0.01866265  0.25000000  0.56951512  1
  Li  Li1  1  0.24650153  0.75000000  0.90927439  1
  Li  Li2  1  0.75349847  0.25000000  0.09072561  1
  Li  Li3  1  0.98133735  0.75000000  0.43048488  1
  Cr  Cr4  1  0.47069513  0.25000000  0.73727625  1
  Cr  Cr5  1  0.52930487  0.75000000  0.26272375  1
  P  P6  1  0.28770914  0.51502667  0.64327150  1
  P  P7  1  0.28770914  0.98497333  0.64327150  1
  P  P8  1  0.30399118  0.49800825  0.16253236  1
  P  P9  1  0.30399118  0.00199175  0.16253236  1
  P  P10  1  0.69600882  0.50199175  0.83746764  1
  P  P11  1  0.69600882  0.99800825  0.83746764  1
  P  P12  1  0.71229086  0.01502667  0.35672850  1
  P  P13  1  0.71229086  0.48497333  0.35672850  1
  H  H14  1  0.05883668  0.18313393  0.86848507  1
  H  H15  1  0.05883668  0.31686607  0.86848507  1
  H  H16  1  0.24886540  0.50982975  0.87217205  1
  H  H17  1  0.24886540  0.99017025  0.87217205  1
  H  H18  1  0.39128163  0.18155299  0.98775157  1
  H  H19  1  0.39128163  0.31844701  0.98775157  1
  H  H20  1  0.08764302  0.18208597  0.28440274  1
  H  H21  1  0.08764302  0.31791403  0.28440274  1
  H  H22  1  0.17215342  0.98335121  0.33524546  1
  H  H23  1  0.17215342  0.51664879  0.33524546  1
  H  H24  1  0.41893758  0.81684225  0.49300424  1
  H  H25  1  0.41893758  0.68315775  0.49300424  1
  H  H26  1  0.58106242  0.18315775  0.50699576  1
  H  H27  1  0.58106242  0.31684225  0.50699576  1
  H  H28  1  0.82784658  0.01664879  0.66475454  1
  H  H29  1  0.82784658  0.48335121  0.66475454  1
  H  H30  1  0.91235698  0.68208597  0.71559726  1
  H  H31  1  0.91235698  0.81791403  0.71559726  1
  H  H32  1  0.60871837  0.68155299  0.01224843  1
  H  H33  1  0.60871837  0.81844701  0.01224843  1
  H  H34  1  0.75113460  0.00982975  0.12782795  1
  H  H35  1  0.75113460  0.49017025  0.12782795  1
  H  H36  1  0.94116332  0.68313393  0.13151493  1
  H  H37  1  0.94116332  0.81686607  0.13151493  1
  O  O38  1  0.24845337  0.93011995  0.78696789  1
  O  O39  1  0.24845337  0.56988005  0.78696789  1
  O  O40  1  0.01548589  0.25000000  0.28681426  1
  O  O41  1  0.98447615  0.75000000  0.20471162  1
  O  O42  1  0.19093391  0.58537157  0.48750899  1
  O  O43  1  0.19093391  0.91462843  0.48750899  1
  O  O44  1  0.26000635  0.11443038  0.63455303  1
  O  O45  1  0.26000635  0.38556962  0.63455303  1
  O  O46  1  0.45718297  0.25000000  0.96983622  1
  O  O47  1  0.16424016  0.03467039  0.23678373  1
  O  O48  1  0.16424016  0.46532961  0.23678373  1
  O  O49  1  0.50337340  0.54408610  0.69203456  1
  O  O50  1  0.50337340  0.95591390  0.69203456  1
  O  O51  1  0.26349883  0.07605088  0.00990968  1
  O  O52  1  0.26349883  0.42394912  0.00990968  1
  O  O53  1  0.31120832  0.62562130  0.13405749  1
  O  O54  1  0.31120832  0.87437870  0.13405749  1
  O  O55  1  0.48620491  0.75000000  0.47901699  1
  O  O56  1  0.51379509  0.25000000  0.52098301  1
  O  O57  1  0.68879168  0.37437870  0.86594251  1
  O  O58  1  0.68879168  0.12562130  0.86594251  1
  O  O59  1  0.73650117  0.57605088  0.99009032  1
  O  O60  1  0.73650117  0.92394912  0.99009032  1
  O  O61  1  0.49662660  0.04408610  0.30796544  1
  O  O62  1  0.49662660  0.45591390  0.30796544  1
  O  O63  1  0.83575984  0.53467039  0.76321627  1
  O  O64  1  0.83575984  0.96532961  0.76321627  1
  O  O65  1  0.54281703  0.75000000  0.03016378  1
  O  O66  1  0.73999365  0.61443038  0.36544697  1
  O  O67  1  0.73999365  0.88556962  0.36544697  1
  O  O68  1  0.80906609  0.08537157  0.51249101  1
  O  O69  1  0.80906609  0.41462843  0.51249101  1
  O  O70  1  0.01552385  0.25000000  0.79528838  1
  O  O71  1  0.98451411  0.75000000  0.71318574  1
  O  O72  1  0.75154663  0.06988005  0.21303211  1
  O  O73  1  0.75154663  0.43011995  0.21303211  1
