# generated using pymatgen
data_CsClO3
_symmetry_space_group_name_H-M   'P 1'
_cell_length_a   5.21269780
_cell_length_b   6.15097544
_cell_length_c   7.84300369
_cell_angle_alpha   90.00000000
_cell_angle_beta   110.10598981
_cell_angle_gamma   90.00000000
_symmetry_Int_Tables_number   1
_chemical_formula_structural   CsClO3
_chemical_formula_sum   'Cs2 Cl2 O6'
_cell_volume   236.14650666
_cell_formula_units_Z   2
loop_
 _symmetry_equiv_pos_site_id
 _symmetry_equiv_pos_as_xyz
  1  'x, y, z'
loop_
 _atom_site_type_symbol
 _atom_site_label
 _atom_site_symmetry_multiplicity
 _atom_site_fract_x
 _atom_site_fract_y
 _atom_site_fract_z
 _atom_site_occupancy
  Cs  Cs0  1  0.35847237  0.25000000  0.71254373  1
  Cs  Cs1  1  0.64152763  0.75000000  0.28745627  1
  Cl  Cl2  1  0.12929734  0.25000000  0.17760017  1
  Cl  Cl3  1  0.87070266  0.75000000  0.82239983  1
  O  O4  1  0.14420907  0.05286912  0.29498047  1
  O  O5  1  0.14420907  0.44713088  0.29498047  1
  O  O6  1  0.61614424  0.75000000  0.87243555  1
  O  O7  1  0.38385576  0.25000000  0.12756445  1
  O  O8  1  0.85579093  0.55286912  0.70501953  1
  O  O9  1  0.85579093  0.94713088  0.70501953  1
