# generated using pymatgen
data_Li4Mn3Fe2Cu3O16
_symmetry_space_group_name_H-M   'P 1'
_cell_length_a   5.83178393
_cell_length_b   5.78893443
_cell_length_c   9.47805190
_cell_angle_alpha   90.02267294
_cell_angle_beta   88.93117415
_cell_angle_gamma   119.69509921
_symmetry_Int_Tables_number   1
_chemical_formula_structural   Li4Mn3Fe2Cu3O16
_chemical_formula_sum   'Li4 Mn3 Fe2 Cu3 O16'
_cell_volume   277.89313222
_cell_formula_units_Z   1
loop_
 _symmetry_equiv_pos_site_id
 _symmetry_equiv_pos_as_xyz
  1  'x, y, z'
loop_
 _atom_site_type_symbol
 _atom_site_label
 _atom_site_symmetry_multiplicity
 _atom_site_fract_x
 _atom_site_fract_y
 _atom_site_fract_z
 _atom_site_occupancy
  Li  Li0  1  0.33127318  0.66552725  0.89501730  1
  Li  Li1  1  0.99094871  0.99523343  0.99788037  1
  Li  Li2  1  0.01340417  0.00674307  0.49292973  1
  Li  Li3  1  0.67408806  0.33706729  0.39562311  1
  Mn  Mn4  1  0.65324908  0.82664245  0.21541182  1
  Mn  Mn5  1  0.83426661  0.66333404  0.71493726  1
  Mn  Mn6  1  0.83428027  0.17100633  0.71488724  1
  Fe  Fe7  1  0.33625331  0.66837978  0.49169499  1
  Fe  Fe8  1  0.65426900  0.32715541  0.99209371  1
  Cu  Cu9  1  0.16586492  0.82756128  0.21288703  1
  Cu  Cu10  1  0.16567145  0.33828128  0.21302884  1
  Cu  Cu11  1  0.34121618  0.17068415  0.71337969  1
  O  O12  1  0.15888611  0.83188736  0.59885225  1
  O  O13  1  0.04188906  0.52091202  0.33757297  1
  O  O14  1  0.33900221  0.66924247  0.10939266  1
  O  O15  1  0.98842898  0.99457732  0.30508497  1
  O  O16  1  0.99388410  0.99700296  0.80963168  1
  O  O17  1  0.15891610  0.32718880  0.59885335  1
  O  O18  1  0.49441857  0.96746248  0.34113453  1
  O  O19  1  0.49322423  0.52616062  0.34080774  1
  O  O20  1  0.31344092  0.15682106  0.09836799  1
  O  O21  1  0.68453268  0.84221345  0.60357308  1
  O  O22  1  0.52866633  0.49130826  0.83795407  1
  O  O23  1  0.52860243  0.03720368  0.83791229  1
  O  O24  1  0.68401670  0.34200089  0.60859222  1
  O  O25  1  0.81499799  0.66610809  0.09850512  1
  O  O26  1  0.96624785  0.48313600  0.83307218  1
  O  O27  1  0.81605981  0.14945879  0.09876282  1
