# generated using pymatgen
data_V3O5F
_symmetry_space_group_name_H-M   'P 1'
_cell_length_a   7.26034851
_cell_length_b   5.52145023
_cell_length_c   5.51567562
_cell_angle_alpha   73.85538686
_cell_angle_beta   71.01897097
_cell_angle_gamma   70.89633269
_symmetry_Int_Tables_number   1
_chemical_formula_structural   V3O5F
_chemical_formula_sum   'V6 O10 F2'
_cell_volume   193.89487753
_cell_formula_units_Z   2
loop_
 _symmetry_equiv_pos_site_id
 _symmetry_equiv_pos_as_xyz
  1  'x, y, z'
loop_
 _atom_site_type_symbol
 _atom_site_label
 _atom_site_symmetry_multiplicity
 _atom_site_fract_x
 _atom_site_fract_y
 _atom_site_fract_z
 _atom_site_occupancy
  V  V0  1  0.81597449  0.67731876  0.68977940  1
  V  V1  1  0.67064212  0.33484889  0.33853025  1
  V  V2  1  0.33621690  0.64350591  0.65378470  1
  V  V3  1  0.18009268  0.30674116  0.32490568  1
  V  V4  1  0.51112831  0.00289186  0.00833559  1
  V  V5  1  0.98457230  0.03372725  0.97585115  1
  O  O6  1  0.67705924  0.02572689  0.62841227  1
  O  O7  1  0.32667618  0.36854994  0.97146670  1
  O  O8  1  0.98068903  0.21752544  0.21675877  1
  O  O9  1  0.61967480  0.57665678  0.58572363  1
  O  O10  1  0.70455612  0.10193191  0.09269158  1
  O  O11  1  0.03613769  0.77551325  0.78010720  1
  O  O12  1  0.36050862  0.42860137  0.43621039  1
  O  O13  1  0.99627410  0.31874986  0.68347883  1
  O  O14  1  0.67041099  0.62796518  0.04046164  1
  O  O15  1  0.32925710  0.95933118  0.37584221  1
  F  F16  1  0.30085255  0.90154547  0.89639989  1
  F  F17  1  0.99927677  0.69886591  0.30125812  1
