# generated using pymatgen
data_Li2MnF4
_symmetry_space_group_name_H-M   'P 1'
_cell_length_a   6.16362633
_cell_length_b   5.53201454
_cell_length_c   6.29102743
_cell_angle_alpha   90.00000000
_cell_angle_beta   124.09925305
_cell_angle_gamma   90.00000000
_symmetry_Int_Tables_number   1
_chemical_formula_structural   Li2MnF4
_chemical_formula_sum   'Li4 Mn2 F8'
_cell_volume   177.62619321
_cell_formula_units_Z   2
loop_
 _symmetry_equiv_pos_site_id
 _symmetry_equiv_pos_as_xyz
  1  'x, y, z'
loop_
 _atom_site_type_symbol
 _atom_site_label
 _atom_site_symmetry_multiplicity
 _atom_site_fract_x
 _atom_site_fract_y
 _atom_site_fract_z
 _atom_site_occupancy
  Li  Li0  1  0.10430559  0.71515810  0.56187656  1
  Li  Li1  1  0.39569441  0.21515810  0.93812344  1
  Li  Li2  1  0.60430559  0.78484190  0.06187656  1
  Li  Li3  1  0.89569441  0.28484190  0.43812344  1
  Mn  Mn4  1  0.00000000  0.00000000  0.00000000  1
  Mn  Mn5  1  0.50000000  0.50000000  0.50000000  1
  F  F6  1  0.24697593  0.88826363  0.86631041  1
  F  F7  1  0.20879899  0.78572439  0.33858655  1
  F  F8  1  0.25302407  0.38826363  0.63368959  1
  F  F9  1  0.29120101  0.28572439  0.16141345  1
  F  F10  1  0.70879899  0.71427561  0.83858655  1
  F  F11  1  0.74697593  0.61173637  0.36631041  1
  F  F12  1  0.79120101  0.21427561  0.66141345  1
  F  F13  1  0.75302407  0.11173637  0.13368959  1
