# generated using pymatgen
data_Li5Cu(PO4)2
_symmetry_space_group_name_H-M   'P 1'
_cell_length_a   6.20241798
_cell_length_b   5.35645344
_cell_length_c   9.95536436
_cell_angle_alpha   89.82783920
_cell_angle_beta   90.00000000
_cell_angle_gamma   90.00000000
_symmetry_Int_Tables_number   1
_chemical_formula_structural   Li5Cu(PO4)2
_chemical_formula_sum   'Li10 Cu2 P4 O16'
_cell_volume   330.74521020
_cell_formula_units_Z   2
loop_
 _symmetry_equiv_pos_site_id
 _symmetry_equiv_pos_as_xyz
  1  'x, y, z'
loop_
 _atom_site_type_symbol
 _atom_site_label
 _atom_site_symmetry_multiplicity
 _atom_site_fract_x
 _atom_site_fract_y
 _atom_site_fract_z
 _atom_site_occupancy
  Li  Li0  1  0.99959799  0.15507487  0.74543413  1
  Li  Li1  1  0.00040201  0.15507487  0.24543413  1
  Li  Li2  1  0.24820221  0.32719870  0.99530611  1
  Li  Li3  1  0.25289362  0.67252349  0.24469081  1
  Li  Li4  1  0.25233262  0.67438218  0.74560140  1
  Li  Li5  1  0.50079415  0.84485602  0.99604608  1
  Li  Li6  1  0.49920585  0.84485602  0.49604608  1
  Li  Li7  1  0.74710638  0.67252349  0.74469081  1
  Li  Li8  1  0.74766738  0.67438218  0.24560140  1
  Li  Li9  1  0.75179779  0.32719870  0.49530611  1
  Cu  Cu10  1  0.24187403  0.33476949  0.49847791  1
  Cu  Cu11  1  0.75812597  0.33476949  0.99847791  1
  P  P12  1  0.00429115  0.82479292  0.99914974  1
  P  P13  1  0.99570885  0.82479292  0.49914974  1
  P  P14  1  0.50130337  0.17148625  0.24963506  1
  P  P15  1  0.49869663  0.17148625  0.74963506  1
  O  O16  1  -0.00001972  0.82005564  0.65549294  1
  O  O17  1  0.98486884  0.09906282  0.44613791  1
  O  O18  1  0.00001972  0.82005564  0.15549294  1
  O  O19  1  0.01513116  0.09906282  0.94613791  1
  O  O20  1  0.20719104  0.70348604  0.44305892  1
  O  O21  1  0.20710736  0.68158531  0.94782627  1
  O  O22  1  0.29702599  0.31088446  0.19699561  1
  O  O23  1  0.29009907  0.31364959  0.70417015  1
  O  O24  1  0.49513376  0.16891796  0.90607305  1
  O  O25  1  0.49835521  0.89727427  0.69720392  1
  O  O26  1  0.50486624  0.16891796  0.40607305  1
  O  O27  1  0.50164479  0.89727427  0.19720392  1
  O  O28  1  0.70297401  0.31088446  0.69699561  1
  O  O29  1  0.70990093  0.31364959  0.20417015  1
  O  O30  1  0.79289264  0.68158531  0.44782627  1
  O  O31  1  0.79280896  0.70348604  0.94305892  1
