# generated using pymatgen
data_Cr4OF11
_symmetry_space_group_name_H-M   'P 1'
_cell_length_a   5.05806836
_cell_length_b   5.34501793
_cell_length_c   16.91962046
_cell_angle_alpha   91.38091101
_cell_angle_beta   98.58105940
_cell_angle_gamma   61.72693995
_symmetry_Int_Tables_number   1
_chemical_formula_structural   Cr4OF11
_chemical_formula_sum   'Cr8 O2 F22'
_cell_volume   397.77865029
_cell_formula_units_Z   2
loop_
 _symmetry_equiv_pos_site_id
 _symmetry_equiv_pos_as_xyz
  1  'x, y, z'
loop_
 _atom_site_type_symbol
 _atom_site_label
 _atom_site_symmetry_multiplicity
 _atom_site_fract_x
 _atom_site_fract_y
 _atom_site_fract_z
 _atom_site_occupancy
  Cr  Cr0  1  0.75735475  0.63449479  0.12099174  1
  Cr  Cr1  1  0.74431084  0.12844607  0.62469861  1
  Cr  Cr2  1  0.49809167  0.75024372  0.75005504  1
  Cr  Cr3  1  0.50670599  0.25086692  0.25069011  1
  Cr  Cr4  1  0.27315874  0.86497528  0.37777418  1
  Cr  Cr5  1  0.24869219  0.37252270  0.87615476  1
  Cr  Cr6  1  0.97931188  0.51072266  0.49580870  1
  Cr  Cr7  1  0.99147963  0.98876331  0.00303378  1
  O  O8  1  0.81323023  0.78248407  0.03199002  1
  O  O9  1  0.68658920  0.65748639  0.40686263  1
  F  F10  1  0.74993141  0.93646223  0.18779708  1
  F  F11  1  0.75094257  0.81247989  0.56267068  1
  F  F12  1  0.75600463  0.31358966  0.06272452  1
  F  F13  1  0.68604793  0.96825620  0.71820889  1
  F  F14  1  0.68618553  0.46980463  0.21467628  1
  F  F15  1  0.81215921  0.59278739  0.84343153  1
  F  F16  1  0.82535019  0.08717596  0.34312260  1
  F  F17  1  0.81260652  0.28196979  0.53122541  1
  F  F18  1  0.31631040  0.84253704  0.09397077  1
  F  F19  1  0.74498161  0.43792637  0.68750464  1
  F  F20  1  0.25806768  0.56372880  0.31326576  1
  F  F21  1  0.68644524  0.15768501  0.90819842  1
  F  F22  1  0.18369798  0.90924110  0.65667527  1
  F  F23  1  0.18846742  0.40601547  0.15711305  1
  F  F24  1  0.18507986  0.71826047  0.46876925  1
  F  F25  1  0.31264582  0.53139945  0.78257774  1
  F  F26  1  0.30846467  0.34504894  0.58958877  1
  F  F27  1  0.31602111  0.03456844  0.28332929  1
  F  F28  1  0.24321647  0.68762106  0.93848713  1
  F  F29  1  0.24345632  0.18877615  0.43776936  1
  F  F30  1  0.25310475  0.06262041  0.81250999  1
  F  F31  1  0.18188655  0.21103863  0.96832098  1
