# generated using pymatgen
data_Ti17(NO4)6
_symmetry_space_group_name_H-M   'P 1'
_cell_length_a   11.47236171
_cell_length_b   9.66603563
_cell_length_c   10.04064713
_cell_angle_alpha   90.00000000
_cell_angle_beta   90.00000000
_cell_angle_gamma   89.97028242
_symmetry_Int_Tables_number   1
_chemical_formula_structural   Ti17(NO4)6
_chemical_formula_sum   'Ti34 N12 O48'
_cell_volume   1113.42987289
_cell_formula_units_Z   2
loop_
 _symmetry_equiv_pos_site_id
 _symmetry_equiv_pos_as_xyz
  1  'x, y, z'
loop_
 _atom_site_type_symbol
 _atom_site_label
 _atom_site_symmetry_multiplicity
 _atom_site_fract_x
 _atom_site_fract_y
 _atom_site_fract_z
 _atom_site_occupancy
  Ti  Ti0  1  0.00057399  0.36444564  0.42956800  1
  Ti  Ti1  1  0.00133804  0.63697946  0.93998978  1
  Ti  Ti2  1  0.00057399  0.36444564  0.07043200  1
  Ti  Ti3  1  0.99994367  0.30069550  0.75000000  1
  Ti  Ti4  1  0.00133804  0.63697946  0.56001022  1
  Ti  Ti5  1  0.17066123  0.14046954  0.92292506  1
  Ti  Ti6  1  0.16267277  0.85953046  0.42292506  1
  Ti  Ti7  1  0.17066123  0.14046954  0.57707494  1
  Ti  Ti8  1  0.16827888  0.19545675  0.25000000  1
  Ti  Ti9  1  0.16267277  0.85953046  0.07707494  1
  Ti  Ti10  1  0.16505412  0.80454325  0.75000000  1
  Ti  Ti11  1  0.33199496  0.36302054  0.06001022  1
  Ti  Ti12  1  0.33275901  0.63555436  0.57043200  1
  Ti  Ti13  1  0.33275901  0.63555436  0.92956800  1
  Ti  Ti14  1  0.33199496  0.36302054  0.43998978  1
  Ti  Ti15  1  0.33339033  0.69930450  0.25000000  1
  Ti  Ti16  1  0.49428848  0.14385755  0.57654468  1
  Ti  Ti17  1  0.49528472  0.19867782  0.25000000  1
  Ti  Ti18  1  0.49924825  0.86435576  0.06938680  1
  Ti  Ti19  1  0.49924825  0.86435576  0.43061320  1
  Ti  Ti20  1  0.49428848  0.14385755  0.92345532  1
  Ti  Ti21  1  0.49740750  0.80183375  0.75000000  1
  Ti  Ti22  1  0.66612762  0.64097347  0.57229464  1
  Ti  Ti23  1  0.66720538  0.35902653  0.07229464  1
  Ti  Ti24  1  0.66720538  0.35902653  0.42770536  1
  Ti  Ti25  1  0.66535776  0.69783616  0.25000000  1
  Ti  Ti26  1  0.66797524  0.30216384  0.75000000  1
  Ti  Ti27  1  0.66612762  0.64097347  0.92770536  1
  Ti  Ti28  1  0.83408475  0.13564424  0.56938680  1
  Ti  Ti29  1  0.83804828  0.80132218  0.75000000  1
  Ti  Ti30  1  0.83904552  0.85614245  0.42345532  1
  Ti  Ti31  1  0.83408475  0.13564424  0.93061320  1
  Ti  Ti32  1  0.83592550  0.19816625  0.25000000  1
  Ti  Ti33  1  0.83904552  0.85614245  0.07654468  1
  N  N34  1  0.00141583  0.26710794  0.25000000  1
  N  N35  1  0.00017385  0.73123166  0.75000000  1
  N  N36  1  0.15546595  0.22064481  0.75000000  1
  N  N37  1  0.17786805  0.77935519  0.25000000  1
  N  N38  1  0.33316015  0.26876834  0.25000000  1
  N  N39  1  0.33191717  0.73289206  0.75000000  1
  N  N40  1  0.51296945  0.22012587  0.75000000  1
  N  N41  1  0.50117790  0.77352923  0.25000000  1
  N  N42  1  0.66531318  0.27109105  0.25000000  1
  N  N43  1  0.66801982  0.72890895  0.75000000  1
  N  N44  1  0.82036355  0.77987413  0.25000000  1
  N  N45  1  0.83215510  0.22647077  0.75000000  1
  O  O46  1  0.99806801  0.18618149  0.56561666  1
  O  O47  1  0.99985156  0.54390644  0.39133152  1
  O  O48  1  0.00021991  0.45042963  0.87831017  1
  O  O49  1  0.99969477  0.82420010  0.05024125  1
  O  O50  1  0.99985156  0.54390644  0.10866848  1
  O  O51  1  0.99806801  0.18618149  0.93438334  1
  O  O52  1  0.00021991  0.45042963  0.62168983  1
  O  O53  1  0.99969477  0.82420010  0.44975875  1
  O  O54  1  0.16377944  0.04811498  0.11971122  1
  O  O55  1  0.16377944  0.04811498  0.38028878  1
  O  O56  1  0.16629821  0.68918617  0.56255409  1
  O  O57  1  0.16703579  0.31081383  0.43744591  1
  O  O58  1  0.16703579  0.31081383  0.06255409  1
  O  O59  1  0.16629821  0.68918617  0.93744591  1
  O  O60  1  0.16955456  0.95188502  0.88028878  1
  O  O61  1  0.16955456  0.95188502  0.61971122  1
  O  O62  1  0.33363823  0.17579990  0.55024125  1
  O  O63  1  0.33363823  0.17579990  0.94975875  1
  O  O64  1  0.33348144  0.45609356  0.89133152  1
  O  O65  1  0.33311309  0.54957037  0.12168983  1
  O  O66  1  0.33348144  0.45609356  0.60866848  1
  O  O67  1  0.33526599  0.81381851  0.06561666  1
  O  O68  1  0.33311309  0.54957037  0.37831017  1
  O  O69  1  0.33526599  0.81381851  0.43438334  1
  O  O70  1  0.49951571  0.31081410  0.43726030  1
  O  O71  1  0.49951571  0.31081410  0.06273970  1
  O  O72  1  0.49978218  0.68822118  0.56589417  1
  O  O73  1  0.49946631  0.95157390  0.61834141  1
  O  O74  1  0.50239035  0.04810051  0.12038932  1
  O  O75  1  0.50239035  0.04810051  0.37961068  1
  O  O76  1  0.49978218  0.68822118  0.93410583  1
  O  O77  1  0.49946631  0.95157390  0.88165859  1
  O  O78  1  0.66837472  0.19081145  0.56271082  1
  O  O79  1  0.66661044  0.45288676  0.61856489  1
  O  O80  1  0.66672256  0.54711324  0.38143511  1
  O  O81  1  0.66672256  0.54711324  0.11856489  1
  O  O82  1  0.66495828  0.80918855  0.43728918  1
  O  O83  1  0.66495828  0.80918855  0.06271082  1
  O  O84  1  0.66837472  0.19081145  0.93728918  1
  O  O85  1  0.66661044  0.45288676  0.88143511  1
  O  O86  1  0.83381829  0.68918590  0.56273970  1
  O  O87  1  0.83381829  0.68918590  0.93726030  1
  O  O88  1  0.83094265  0.95190049  0.62038932  1
  O  O89  1  0.83094265  0.95190049  0.87961068  1
  O  O90  1  0.83386769  0.04842610  0.11834141  1
  O  O91  1  0.83386769  0.04842610  0.38165859  1
  O  O92  1  0.83355082  0.31177882  0.43410583  1
  O  O93  1  0.83355082  0.31177882  0.06589417  1
