# generated using pymatgen
data_Mn6OF11
_symmetry_space_group_name_H-M   'P 1'
_cell_length_a   4.96169383
_cell_length_b   5.89098106
_cell_length_c   16.23566257
_cell_angle_alpha   90.25899608
_cell_angle_beta   89.66725517
_cell_angle_gamma   89.17352088
_symmetry_Int_Tables_number   1
_chemical_formula_structural   Mn6OF11
_chemical_formula_sum   'Mn12 O2 F22'
_cell_volume   474.49374640
_cell_formula_units_Z   2
loop_
 _symmetry_equiv_pos_site_id
 _symmetry_equiv_pos_as_xyz
  1  'x, y, z'
loop_
 _atom_site_type_symbol
 _atom_site_label
 _atom_site_symmetry_multiplicity
 _atom_site_fract_x
 _atom_site_fract_y
 _atom_site_fract_z
 _atom_site_occupancy
  Mn  Mn0  1  0.00597241  0.16713932  0.41454071  1
  Mn  Mn1  1  0.02814659  0.81656144  0.25047284  1
  Mn  Mn2  1  0.97185341  0.18343856  0.08286116  1
  Mn  Mn3  1  0.00692155  0.17146068  0.75128403  1
  Mn  Mn4  1  0.99307845  0.82853932  0.58204897  1
  Mn  Mn5  1  0.99402759  0.83286068  0.91879229  1
  Mn  Mn6  1  0.49756076  0.33268317  0.58220944  1
  Mn  Mn7  1  0.51238752  0.33163380  0.92337342  1
  Mn  Mn8  1  0.49059250  0.35237912  0.25201709  1
  Mn  Mn9  1  0.50940750  0.64762088  0.08131591  1
  Mn  Mn10  1  0.48761248  0.66836620  0.40996058  1
  Mn  Mn11  1  0.50243924  0.66731683  0.75112456  1
  O  O12  1  0.29251122  0.58926633  0.30094964  1
  O  O13  1  0.70748878  0.41073367  0.03238436  1
  F  F14  1  0.24254781  0.10275698  0.30322412  1
  F  F15  1  0.22933479  0.10501047  0.64002542  1
  F  F16  1  0.21056620  0.11666764  0.97484769  1
  F  F17  1  0.23980115  0.87519466  0.13330218  1
  F  F18  1  0.23308708  0.89532191  0.47344784  1
  F  F19  1  0.22650573  0.89121938  0.80888572  1
  F  F20  1  0.27039983  0.38463844  0.14502566  1
  F  F21  1  0.26564059  0.39423415  0.47343764  1
  F  F22  1  0.26668900  0.60548330  0.64190776  1
  F  F23  1  0.28079199  0.38936103  0.81266526  1
  F  F24  1  0.27133166  0.62016912  0.97922856  1
  F  F25  1  0.72960017  0.61536156  0.18830734  1
  F  F26  1  0.72866834  0.37983088  0.35410444  1
  F  F27  1  0.71920801  0.61063897  0.52066774  1
  F  F28  1  0.73435941  0.60576585  0.85989536  1
  F  F29  1  0.73331100  0.39451670  0.69142524  1
  F  F30  1  0.76019885  0.12480534  0.20003182  1
  F  F31  1  0.77349427  0.10878062  0.52444728  1
  F  F32  1  0.78943380  0.88333236  0.35848631  1
  F  F33  1  0.75745219  0.89724302  0.03010888  1
  F  F34  1  0.76691292  0.10467809  0.85988616  1
  F  F35  1  0.77066521  0.89498953  0.69330758  1
