# generated using pymatgen
data_Mn6OF11
_symmetry_space_group_name_H-M   'P 1'
_cell_length_a   4.96651966
_cell_length_b   5.89226364
_cell_length_c   16.19399264
_cell_angle_alpha   90.44177404
_cell_angle_beta   90.00000000
_cell_angle_gamma   90.00000000
_symmetry_Int_Tables_number   1
_chemical_formula_structural   Mn6OF11
_chemical_formula_sum   'Mn12 O2 F22'
_cell_volume   473.88761384
_cell_formula_units_Z   2
loop_
 _symmetry_equiv_pos_site_id
 _symmetry_equiv_pos_as_xyz
  1  'x, y, z'
loop_
 _atom_site_type_symbol
 _atom_site_label
 _atom_site_symmetry_multiplicity
 _atom_site_fract_x
 _atom_site_fract_y
 _atom_site_fract_z
 _atom_site_occupancy
  Mn  Mn0  1  0.00082062  0.17029917  0.41683219  1
  Mn  Mn1  1  0.01234427  0.82993244  0.24606595  1
  Mn  Mn2  1  0.97624919  0.18781917  0.07781462  1
  Mn  Mn3  1  0.02011227  0.17037620  0.74633458  1
  Mn  Mn4  1  0.00801585  0.85500088  0.58689010  1
  Mn  Mn5  1  0.99664309  0.83326219  0.91675085  1
  Mn  Mn6  1  0.47624919  0.31218083  0.58885238  1
  Mn  Mn7  1  0.52011227  0.32962380  0.92033242  1
  Mn  Mn8  1  0.50082062  0.32970083  0.24983481  1
  Mn  Mn9  1  0.50801585  0.64499912  0.07977590  1
  Mn  Mn10  1  0.51234427  0.67006756  0.42060105  1
  Mn  Mn11  1  0.49664309  0.66673781  0.74991615  1
  O  O12  1  0.20647365  0.08934239  0.63549856  1
  O  O13  1  0.70647365  0.41065761  0.03116844  1
  F  F14  1  0.23270777  0.10345522  0.30689974  1
  F  F15  1  0.21698459  0.11514687  0.97303218  1
  F  F16  1  0.25105724  0.87435856  0.13352412  1
  F  F17  1  0.22096881  0.88815169  0.47596614  1
  F  F18  1  0.23115402  0.89049499  0.80855106  1
  F  F19  1  0.26120555  0.39366029  0.14209617  1
  F  F20  1  0.27357420  0.60670340  0.30860939  1
  F  F21  1  0.28370398  0.39199816  0.47369760  1
  F  F22  1  0.25944184  0.60522472  0.63909620  1
  F  F23  1  0.27808954  0.39022992  0.81154639  1
  F  F24  1  0.27045252  0.61709306  0.97643110  1
  F  F25  1  0.72096881  0.61184831  0.19069986  1
  F  F26  1  0.73270777  0.39654478  0.35976726  1
  F  F27  1  0.75105724  0.62564144  0.53314188  1
  F  F28  1  0.73115402  0.60950501  0.85811594  1
  F  F29  1  0.71698459  0.38485313  0.69363482  1
  F  F30  1  0.78370398  0.10800184  0.19296940  1
  F  F31  1  0.76120555  0.10633971  0.52457083  1
  F  F32  1  0.77357420  0.89329660  0.35805661  1
  F  F33  1  0.75944184  0.89477528  0.02757080  1
  F  F34  1  0.77808954  0.10977008  0.85511961  1
  F  F35  1  0.77045252  0.88290694  0.69023590  1
