# generated using pymatgen
data_LiVP2HO8
_symmetry_space_group_name_H-M   'P 1'
_cell_length_a   9.71584416
_cell_length_b   7.98374682
_cell_length_c   7.47448618
_cell_angle_alpha   90.04382579
_cell_angle_beta   105.46432270
_cell_angle_gamma   90.04069315
_symmetry_Int_Tables_number   1
_chemical_formula_structural   LiVP2HO8
_chemical_formula_sum   'Li4 V4 P8 H4 O32'
_cell_volume   558.79658076
_cell_formula_units_Z   4
loop_
 _symmetry_equiv_pos_site_id
 _symmetry_equiv_pos_as_xyz
  1  'x, y, z'
loop_
 _atom_site_type_symbol
 _atom_site_label
 _atom_site_symmetry_multiplicity
 _atom_site_fract_x
 _atom_site_fract_y
 _atom_site_fract_z
 _atom_site_occupancy
  Li  Li0  1  0.20253161  0.86904256  0.85634925  1
  Li  Li1  1  0.45395193  0.63091641  0.35443858  1
  Li  Li2  1  0.79129707  0.13023304  0.14277903  1
  Li  Li3  1  0.95323643  0.63140464  0.35218342  1
  V  V4  1  0.24632423  0.49046998  0.99972364  1
  V  V5  1  0.49853252  0.00595282  0.49999621  1
  V  V6  1  0.74623991  0.50319778  0.98983612  1
  V  V7  1  0.99914028  0.00588150  0.50062525  1
  P  P8  1  0.06541387  0.35012149  0.26657353  1
  P  P9  1  0.18585963  0.84843388  0.23283102  1
  P  P10  1  0.31703481  0.15521648  0.76379409  1
  P  P11  1  0.43376598  0.65733585  0.73586614  1
  P  P12  1  0.56753958  0.34743432  0.26749255  1
  P  P13  1  0.68267107  0.84800371  0.23075923  1
  P  P14  1  0.81291964  0.15430083  0.76191447  1
  P  P15  1  0.93597600  0.65221493  0.73567170  1
  H  H16  1  0.25973730  0.50378672  0.50825833  1
  H  H17  1  0.48753837  0.00679838  0.99167577  1
  H  H18  1  0.75001937  0.50229435  0.49929060  1
  H  H19  1  0.98621818  0.00579234  0.99002174  1
  O  O20  1  0.06990845  0.55524119  0.85420246  1
  O  O21  1  0.01147270  0.17658347  0.31257141  1
  O  O22  1  0.07963194  0.82916522  0.35576979  1
  O  O23  1  0.12935865  0.45351623  0.44020320  1
  O  O24  1  0.18137838  0.05299452  0.65395135  1
  O  O25  1  0.27229852  0.32665244  0.81808075  1
  O  O26  1  0.11779475  0.93798128  0.05137850  1
  O  O27  1  0.16457621  0.32776278  0.13712944  1
  O  O28  1  0.32734588  0.67292130  0.85579572  1
  O  O29  1  0.37563644  0.04478245  0.93783539  1
  O  O30  1  0.24425616  0.67609216  0.19082815  1
  O  O31  1  0.31794089  0.94814660  0.35156118  1
  O  O32  1  0.37117948  0.55687464  0.55529265  1
  O  O33  1  0.41744911  0.17252107  0.63760273  1
  O  O34  1  0.48264949  0.82750029  0.68229416  1
  O  O35  1  0.56614972  0.55823123  0.85400652  1
  O  O36  1  0.43252501  0.44852608  0.15649169  1
  O  O37  1  0.52242624  0.17439216  0.31883315  1
  O  O38  1  0.57898974  0.82584447  0.35517253  1
  O  O39  1  0.63093955  0.45674813  0.43908948  1
  O  O40  1  0.67980871  0.05486005  0.65109360  1
  O  O41  1  0.76792591  0.32708410  0.81570714  1
  O  O42  1  0.62296893  0.95568108  0.06021758  1
  O  O43  1  0.66931169  0.32768262  0.13984981  1
  O  O44  1  0.83240271  0.66925705  0.85860986  1
  O  O45  1  0.87909579  0.05987809  0.94687662  1
  O  O46  1  0.74076393  0.67778040  0.18690223  1
  O  O47  1  0.81749326  0.94922966  0.35014708  1
  O  O48  1  0.87136163  0.55954130  0.55309706  1
  O  O49  1  0.91728418  0.16795214  0.63983824  1
  O  O50  1  0.99242817  0.82362241  0.68840242  1
  O  O51  1  0.92939300  0.45010336  0.15494542  1
