# generated using pymatgen
data_LiFeH12(SO7)2
_symmetry_space_group_name_H-M   'P 1'
_cell_length_a   8.99011325
_cell_length_b   11.89535839
_cell_length_c   6.02515715
_cell_angle_alpha   90.00000000
_cell_angle_beta   105.67922341
_cell_angle_gamma   90.00000000
_symmetry_Int_Tables_number   1
_chemical_formula_structural   LiFeH12(SO7)2
_chemical_formula_sum   'Li2 Fe2 H24 S4 O28'
_cell_volume   620.35824293
_cell_formula_units_Z   2
loop_
 _symmetry_equiv_pos_site_id
 _symmetry_equiv_pos_as_xyz
  1  'x, y, z'
loop_
 _atom_site_type_symbol
 _atom_site_label
 _atom_site_symmetry_multiplicity
 _atom_site_fract_x
 _atom_site_fract_y
 _atom_site_fract_z
 _atom_site_occupancy
  Li  Li0  1  0.60159969  0.10543941  0.35189237  1
  Li  Li1  1  0.89840031  0.60543941  0.64810763  1
  Fe  Fe2  1  0.00303779  0.00034502  0.00330840  1
  Fe  Fe3  1  0.49696221  0.50034502  0.99669160  1
  H  H4  1  0.11155620  0.06649946  0.66802566  1
  H  H5  1  0.03443007  0.85617218  0.34839139  1
  H  H6  1  0.21708308  0.40180948  0.93671165  1
  H  H7  1  0.25046142  0.63544620  0.90695065  1
  H  H8  1  0.35528417  0.30949840  0.00517728  1
  H  H9  1  0.21393164  0.10217764  0.33696053  1
  H  H10  1  0.28606836  0.60217764  0.66303947  1
  H  H11  1  0.14471583  0.80949840  0.99482272  1
  H  H12  1  0.24953858  0.13544620  0.09304935  1
  H  H13  1  0.28291692  0.90180948  0.06328835  1
  H  H14  1  0.46556993  0.35617218  0.65160861  1
  H  H15  1  0.38844380  0.56649946  0.33197434  1
  H  H16  1  0.60650701  0.44385554  0.65851233  1
  H  H17  1  0.53728628  0.64789712  0.34215946  1
  H  H18  1  0.72171263  0.09232936  0.93035057  1
  H  H19  1  0.75730862  0.86819177  0.90967967  1
  H  H20  1  0.85011019  0.19090708  0.00954181  1
  H  H21  1  0.71162651  0.40872159  0.33245283  1
  H  H22  1  0.78837349  0.90872159  0.66754717  1
  H  H23  1  0.64988981  0.69090708  0.99045819  1
  H  H24  1  0.74269138  0.36819177  0.09032033  1
  H  H25  1  0.77828737  0.59232936  0.06964943  1
  H  H26  1  0.96271372  0.14789712  0.65784054  1
  H  H27  1  0.89349299  0.94385554  0.34148767  1
  S  S28  1  0.08065424  0.63576777  0.26336409  1
  S  S29  1  0.41934576  0.13576777  0.73663591  1
  S  S30  1  0.60626127  0.86356301  0.26893655  1
  S  S31  1  0.89373873  0.36356301  0.73106345  1
  O  O32  1  0.00839399  0.07117873  0.70464178  1
  O  O33  1  0.04471290  0.42023163  0.78062514  1
  O  O34  1  0.17046502  0.89051761  0.97818102  1
  O  O35  1  0.06003126  0.73067960  0.41495670  1
  O  O36  1  0.09397625  0.67682440  0.03133109  1
  O  O37  1  0.16719182  0.11364371  0.16622922  1
  O  O38  1  0.27452472  0.07510420  0.61514973  1
  O  O39  1  0.22547528  0.57510420  0.38485027  1
  O  O40  1  0.33280818  0.61364371  0.83377078  1
  O  O41  1  0.40602375  0.17682440  0.96866891  1
  O  O42  1  0.43996874  0.23067960  0.58504330  1
  O  O43  1  0.32953498  0.39051761  0.02181898  1
  O  O44  1  0.50467466  0.43540985  0.69676172  1
  O  O45  1  0.55400213  0.05968608  0.77094441  1
  O  O46  1  0.45528710  0.92023163  0.21937486  1
  O  O47  1  0.49160601  0.57117873  0.29535822  1
  O  O48  1  0.67044829  0.60899853  0.96784230  1
  O  O49  1  0.62128701  0.76641358  0.42909811  1
  O  O50  1  0.64328139  0.82482685  0.05427593  1
  O  O51  1  0.66015754  0.38854528  0.16850016  1
  O  O52  1  0.77714100  0.45356092  0.61329711  1
  O  O53  1  0.72285900  0.95356092  0.38670289  1
  O  O54  1  0.83984246  0.88854528  0.83149984  1
  O  O55  1  0.85671861  0.32482685  0.94572407  1
  O  O56  1  0.87871299  0.26641358  0.57090189  1
  O  O57  1  0.82955171  0.10899853  0.03215770  1
  O  O58  1  0.94599787  0.55968608  0.22905559  1
  O  O59  1  0.99532534  0.93540985  0.30323828  1
