# generated using pymatgen
data_Na5LaO4
_symmetry_space_group_name_H-M   'P 1'
_cell_length_a   11.14442704
_cell_length_b   11.11910101
_cell_length_c   11.13595761
_cell_angle_alpha   90.00000000
_cell_angle_beta   90.00000000
_cell_angle_gamma   90.00000000
_symmetry_Int_Tables_number   1
_chemical_formula_structural   Na5LaO4
_chemical_formula_sum   'Na40 La8 O32'
_cell_volume   1379.92343407
_cell_formula_units_Z   8
loop_
 _symmetry_equiv_pos_site_id
 _symmetry_equiv_pos_as_xyz
  1  'x, y, z'
loop_
 _atom_site_type_symbol
 _atom_site_label
 _atom_site_symmetry_multiplicity
 _atom_site_fract_x
 _atom_site_fract_y
 _atom_site_fract_z
 _atom_site_occupancy
  Na  Na0  1  0.10694433  0.82987925  0.12215884  1
  Na  Na1  1  0.10694433  0.67012075  0.62215884  1
  Na  Na2  1  0.10709142  0.14037652  0.39802956  1
  Na  Na3  1  0.10709142  0.35962348  0.89802956  1
  Na  Na4  1  0.11602794  0.39865500  0.15962355  1
  Na  Na5  1  0.11602794  0.10134500  0.65962355  1
  Na  Na6  1  0.13199869  0.60572603  0.35531121  1
  Na  Na7  1  0.13199869  0.89427397  0.85531121  1
  Na  Na8  1  0.14528580  0.87438710  0.37981898  1
  Na  Na9  1  0.14528580  0.62561290  0.87981898  1
  Na  Na10  1  0.35471420  0.12561290  0.87981898  1
  Na  Na11  1  0.35471420  0.37438710  0.37981898  1
  Na  Na12  1  0.36800131  0.10572603  0.35531121  1
  Na  Na13  1  0.36800131  0.39427397  0.85531121  1
  Na  Na14  1  0.38397206  0.60134500  0.65962355  1
  Na  Na15  1  0.38397206  0.89865500  0.15962355  1
  Na  Na16  1  0.39290858  0.64037652  0.39802956  1
  Na  Na17  1  0.39290858  0.85962348  0.89802956  1
  Na  Na18  1  0.39305567  0.17012075  0.62215884  1
  Na  Na19  1  0.39305567  0.32987925  0.12215884  1
  Na  Na20  1  0.60694433  0.82987925  0.37784116  1
  Na  Na21  1  0.60694433  0.67012075  0.87784116  1
  Na  Na22  1  0.60709142  0.14037652  0.10197044  1
  Na  Na23  1  0.60709142  0.35962348  0.60197044  1
  Na  Na24  1  0.61602794  0.39865500  0.34037645  1
  Na  Na25  1  0.61602794  0.10134500  0.84037645  1
  Na  Na26  1  0.63199869  0.60572603  0.14468879  1
  Na  Na27  1  0.63199869  0.89427397  0.64468879  1
  Na  Na28  1  0.64528580  0.62561290  0.62018102  1
  Na  Na29  1  0.64528580  0.87438710  0.12018102  1
  Na  Na30  1  0.85471420  0.12561290  0.62018102  1
  Na  Na31  1  0.85471420  0.37438710  0.12018102  1
  Na  Na32  1  0.86800131  0.10572603  0.14468879  1
  Na  Na33  1  0.86800131  0.39427397  0.64468879  1
  Na  Na34  1  0.88397206  0.60134500  0.84037645  1
  Na  Na35  1  0.88397206  0.89865500  0.34037645  1
  Na  Na36  1  0.89290858  0.64037652  0.10197044  1
  Na  Na37  1  0.89290858  0.85962348  0.60197044  1
  Na  Na38  1  0.89305567  0.17012075  0.87784116  1
  Na  Na39  1  0.89305567  0.32987925  0.37784116  1
  La  La40  1  0.14835934  0.11756212  0.11428594  1
  La  La41  1  0.14835934  0.38243788  0.61428594  1
  La  La42  1  0.35164066  0.88243788  0.61428594  1
  La  La43  1  0.35164066  0.61756212  0.11428594  1
  La  La44  1  0.64835934  0.11756212  0.38571406  1
  La  La45  1  0.64835934  0.38243788  0.88571406  1
  La  La46  1  0.85164066  0.61756212  0.38571406  1
  La  La47  1  0.85164066  0.88243788  0.88571406  1
  O  O48  1  0.00406528  0.24436889  0.03749656  1
  O  O49  1  0.00406528  0.25563111  0.53749656  1
  O  O50  1  0.03641948  0.00123185  0.24025408  1
  O  O51  1  0.03641948  0.49876815  0.74025408  1
  O  O52  1  0.25433849  0.97723642  0.00614309  1
  O  O53  1  0.25433849  0.52276358  0.50614309  1
  O  O54  1  0.24666900  0.23948674  0.24841736  1
  O  O55  1  0.24666900  0.26051326  0.74841736  1
  O  O56  1  0.25333100  0.73948674  0.24841736  1
  O  O57  1  0.25333100  0.76051326  0.74841736  1
  O  O58  1  0.24566151  0.02276358  0.50614309  1
  O  O59  1  0.24566151  0.47723642  0.00614309  1
  O  O60  1  0.46358052  0.50123185  0.24025408  1
  O  O61  1  0.46358052  0.99876815  0.74025408  1
  O  O62  1  0.49593472  0.75563111  0.53749656  1
  O  O63  1  0.49593472  0.74436889  0.03749656  1
  O  O64  1  0.50406528  0.25563111  0.96250344  1
  O  O65  1  0.50406528  0.24436889  0.46250344  1
  O  O66  1  0.53641948  0.00123185  0.25974592  1
  O  O67  1  0.53641948  0.49876815  0.75974592  1
  O  O68  1  0.75433849  0.52276358  0.99385691  1
  O  O69  1  0.75433849  0.97723642  0.49385691  1
  O  O70  1  0.74666900  0.23948674  0.25158264  1
  O  O71  1  0.74666900  0.26051326  0.75158264  1
  O  O72  1  0.75333100  0.73948674  0.25158264  1
  O  O73  1  0.75333100  0.76051326  0.75158264  1
  O  O74  1  0.74566151  0.02276358  0.99385691  1
  O  O75  1  0.74566151  0.47723642  0.49385691  1
  O  O76  1  0.96358052  0.99876815  0.75974592  1
  O  O77  1  0.96358052  0.50123185  0.25974592  1
  O  O78  1  0.99593472  0.75563111  0.96250344  1
  O  O79  1  0.99593472  0.74436889  0.46250344  1
