# generated using pymatgen
data_LiCrP2HO7
_symmetry_space_group_name_H-M   'P 1'
_cell_length_a   7.02430029
_cell_length_b   6.45593350
_cell_length_c   6.52433477
_cell_angle_alpha   69.89112864
_cell_angle_beta   89.15396832
_cell_angle_gamma   97.40315821
_symmetry_Int_Tables_number   1
_chemical_formula_structural   LiCrP2HO7
_chemical_formula_sum   'Li2 Cr2 P4 H2 O14'
_cell_volume   274.96165393
_cell_formula_units_Z   2
loop_
 _symmetry_equiv_pos_site_id
 _symmetry_equiv_pos_as_xyz
  1  'x, y, z'
loop_
 _atom_site_type_symbol
 _atom_site_label
 _atom_site_symmetry_multiplicity
 _atom_site_fract_x
 _atom_site_fract_y
 _atom_site_fract_z
 _atom_site_occupancy
  Li  Li0  1  0.13696330  0.21205751  0.84755747  1
  Li  Li1  1  0.86303670  0.78794249  0.15244253  1
  Cr  Cr2  1  0.35114578  0.10497839  0.28260260  1
  Cr  Cr3  1  0.64885422  0.89502161  0.71739740  1
  P  P4  1  0.15792354  0.78412552  0.76853125  1
  P  P5  1  0.38948919  0.64672818  0.16964305  1
  P  P6  1  0.61051081  0.35327182  0.83035695  1
  P  P7  1  0.84207646  0.21587448  0.23146875  1
  H  H8  1  0.16595460  0.66231544  0.49816594  1
  H  H9  1  0.83404540  0.33768456  0.50183406  1
  O  O10  1  0.08874034  0.61467310  0.64807083  1
  O  O11  1  0.00442260  0.12434619  0.15002106  1
  O  O12  1  0.25218358  0.62475094  0.97458464  1
  O  O13  1  0.28808415  0.78121036  0.28127886  1
  O  O14  1  0.31110659  0.96750467  0.62377216  1
  O  O15  1  0.38890194  0.40890961  0.31994681  1
  O  O16  1  0.41408961  0.23165108  0.94332491  1
  O  O17  1  0.58591039  0.76834892  0.05667509  1
  O  O18  1  0.61109806  0.59109039  0.68005319  1
  O  O19  1  0.68889341  0.03249533  0.37622784  1
  O  O20  1  0.71191585  0.21878964  0.71872114  1
  O  O21  1  0.74781642  0.37524906  0.02541536  1
  O  O22  1  0.99557740  0.87565381  0.84997894  1
  O  O23  1  0.91125966  0.38532690  0.35192917  1
