# generated using pymatgen
data_La2P4O13
_symmetry_space_group_name_H-M   'P 1'
_cell_length_a   9.22125899
_cell_length_b   10.17224494
_cell_length_c   14.48132802
_cell_angle_alpha   90.00000000
_cell_angle_beta   106.38933094
_cell_angle_gamma   90.00000000
_symmetry_Int_Tables_number   1
_chemical_formula_structural   La2P4O13
_chemical_formula_sum   'La8 P16 O52'
_cell_volume   1303.16673084
_cell_formula_units_Z   4
loop_
 _symmetry_equiv_pos_site_id
 _symmetry_equiv_pos_as_xyz
  1  'x, y, z'
loop_
 _atom_site_type_symbol
 _atom_site_label
 _atom_site_symmetry_multiplicity
 _atom_site_fract_x
 _atom_site_fract_y
 _atom_site_fract_z
 _atom_site_occupancy
  La  La0  1  0.27792482  0.00126220  0.99383184  1
  La  La1  1  0.22152136  0.00589040  0.51467101  1
  La  La2  1  0.27792482  0.49873780  0.49383184  1
  La  La3  1  0.22152136  0.49410960  0.01467101  1
  La  La4  1  0.77847864  0.50589040  0.98532899  1
  La  La5  1  0.72207518  0.50126220  0.50616816  1
  La  La6  1  0.77847864  0.99410960  0.48532899  1
  La  La7  1  0.72207518  0.99873780  0.00616816  1
  P  P8  1  0.02731672  0.27602976  0.59724819  1
  P  P9  1  0.10253710  0.24639383  0.81106686  1
  P  P10  1  0.22843356  0.73358270  0.68881266  1
  P  P11  1  0.02731672  0.22397024  0.09724819  1
  P  P12  1  0.10253710  0.25360617  0.31106686  1
  P  P13  1  0.45548617  0.72189759  0.89910144  1
  P  P14  1  0.22843356  0.76641730  0.18881266  1
  P  P15  1  0.54451383  0.22189759  0.60089856  1
  P  P16  1  0.45548617  0.77810241  0.39910144  1
  P  P17  1  0.77156644  0.23358270  0.81118734  1
  P  P18  1  0.54451383  0.27810241  0.10089856  1
  P  P19  1  0.89746290  0.74639383  0.68893314  1
  P  P20  1  0.97268328  0.77602976  0.90275181  1
  P  P21  1  0.77156644  0.26641730  0.31118734  1
  P  P22  1  0.89746290  0.75360617  0.18893314  1
  P  P23  1  0.97268328  0.72397024  0.40275181  1
  O  O24  1  0.07254041  0.70046488  0.71425315  1
  O  O25  1  0.12300364  0.83804907  0.90332862  1
  O  O26  1  0.01250589  0.13120226  0.56325923  1
  O  O27  1  0.12936875  0.37037663  0.86972627  1
  O  O28  1  0.12953687  0.27487361  0.70910314  1
  O  O29  1  0.11731478  0.35668173  0.54437517  1
  O  O30  1  0.20118051  0.13070456  0.85329129  1
  O  O31  1  0.07254041  0.79953512  0.21425315  1
  O  O32  1  0.12300364  0.66195093  0.40332862  1
  O  O33  1  0.01250589  0.36879774  0.06325923  1
  O  O34  1  0.37303315  0.63621156  0.95441216  1
  O  O35  1  0.22375519  0.86948411  0.64765515  1
  O  O36  1  0.12936875  0.12962337  0.36972627  1
  O  O37  1  0.12953687  0.22512639  0.20910314  1
  O  O38  1  0.26004357  0.62275109  0.62833028  1
  O  O39  1  0.35265301  0.72935989  0.78886761  1
  O  O40  1  0.11731478  0.14331827  0.04437517  1
  O  O41  1  0.39554380  0.16105292  0.60481929  1
  O  O42  1  0.47593726  0.86597672  0.93664519  1
  O  O43  1  0.20118051  0.36929544  0.35329129  1
  O  O44  1  0.37303315  0.86378844  0.45441216  1
  O  O45  1  0.22375519  0.63051589  0.14765515  1
  O  O46  1  0.26004357  0.87724891  0.12833028  1
  O  O47  1  0.35265301  0.77064011  0.28886761  1
  O  O48  1  0.52406274  0.36597672  0.56335481  1
  O  O49  1  0.60445620  0.66105292  0.89518071  1
  O  O50  1  0.39554380  0.33894708  0.10481929  1
  O  O51  1  0.47593726  0.63402328  0.43664519  1
  O  O52  1  0.64734699  0.22935989  0.71113239  1
  O  O53  1  0.73995643  0.12275109  0.87166972  1
  O  O54  1  0.77624481  0.36948411  0.85234485  1
  O  O55  1  0.62696685  0.13621156  0.54558784  1
  O  O56  1  0.79881949  0.63070456  0.64670871  1
  O  O57  1  0.52406274  0.13402328  0.06335481  1
  O  O58  1  0.60445620  0.83894708  0.39518071  1
  O  O59  1  0.88268522  0.85668173  0.95562483  1
  O  O60  1  0.64734699  0.27064011  0.21113239  1
  O  O61  1  0.73995643  0.37724891  0.37166972  1
  O  O62  1  0.87046313  0.77487361  0.79089686  1
  O  O63  1  0.87063125  0.87037663  0.63027373  1
  O  O64  1  0.77624481  0.13051589  0.35234485  1
  O  O65  1  0.62696685  0.36378844  0.04558784  1
  O  O66  1  0.98749411  0.63120226  0.93674077  1
  O  O67  1  0.87699636  0.33804907  0.59667138  1
  O  O68  1  0.92745959  0.20046488  0.78574685  1
  O  O69  1  0.79881949  0.86929544  0.14670871  1
  O  O70  1  0.88268522  0.64331827  0.45562483  1
  O  O71  1  0.87046313  0.72512639  0.29089686  1
  O  O72  1  0.87063125  0.62962337  0.13027373  1
  O  O73  1  0.98749411  0.86879774  0.43674077  1
  O  O74  1  0.87699636  0.16195093  0.09667138  1
  O  O75  1  0.92745959  0.29953512  0.28574685  1
