# generated using pymatgen
data_Fe3W5N8
_symmetry_space_group_name_H-M   'P 1'
_cell_length_a   2.87620800
_cell_length_b   2.87550795
_cell_length_c   22.53726339
_cell_angle_alpha   90.00000000
_cell_angle_beta   90.00000000
_cell_angle_gamma   60.00805099
_symmetry_Int_Tables_number   1
_chemical_formula_structural   Fe3W5N8
_chemical_formula_sum   'Fe3 W5 N8'
_cell_volume   161.43656284
_cell_formula_units_Z   1
loop_
 _symmetry_equiv_pos_site_id
 _symmetry_equiv_pos_as_xyz
  1  'x, y, z'
loop_
 _atom_site_type_symbol
 _atom_site_label
 _atom_site_symmetry_multiplicity
 _atom_site_fract_x
 _atom_site_fract_y
 _atom_site_fract_z
 _atom_site_occupancy
  Fe  Fe0  1  -0.00000633  0.00000316  0.87500000  1
  Fe  Fe1  1  0.00001755  0.99999122  0.12171180  1
  Fe  Fe2  1  0.00001755  0.99999122  0.62828820  1
  W  W3  1  0.99988523  0.00005738  0.24565211  1
  W  W4  1  0.00000098  -0.00000049  0.75113281  1
  W  W5  1  0.00000098  -0.00000049  0.99886719  1
  W  W6  1  0.99988523  0.00005738  0.50434789  1
  W  W7  1  0.00005878  0.99997061  0.37500000  1
  N  N8  1  0.33358125  0.33320938  0.31457470  1
  N  N9  1  0.33344661  0.33327669  0.81108790  1
  N  N10  1  0.66649786  0.66675107  0.18656475  1
  N  N11  1  0.66654428  0.66672786  0.69112429  1
  N  N12  1  0.66654428  0.66672786  0.05887571  1
  N  N13  1  0.66649786  0.66675107  0.56343525  1
  N  N14  1  0.33358125  0.33320938  0.43542530  1
  N  N15  1  0.33344661  0.33327669  0.93891210  1
