# generated using pymatgen
data_Cr4OF11
_symmetry_space_group_name_H-M   'P 1'
_cell_length_a   5.09694791
_cell_length_b   5.33094804
_cell_length_c   16.88739295
_cell_angle_alpha   92.43602108
_cell_angle_beta   98.62552916
_cell_angle_gamma   61.36750907
_symmetry_Int_Tables_number   1
_chemical_formula_structural   Cr4OF11
_chemical_formula_sum   'Cr8 O2 F22'
_cell_volume   397.96072290
_cell_formula_units_Z   2
loop_
 _symmetry_equiv_pos_site_id
 _symmetry_equiv_pos_as_xyz
  1  'x, y, z'
loop_
 _atom_site_type_symbol
 _atom_site_label
 _atom_site_symmetry_multiplicity
 _atom_site_fract_x
 _atom_site_fract_y
 _atom_site_fract_z
 _atom_site_occupancy
  Cr  Cr0  1  0.74362549  0.64828232  0.12991120  1
  Cr  Cr1  1  0.74801271  0.12028374  0.62458076  1
  Cr  Cr2  1  0.49663827  0.75029518  0.75017389  1
  Cr  Cr3  1  0.50399623  0.23922690  0.24783924  1
  Cr  Cr4  1  0.24325775  0.88763591  0.37815206  1
  Cr  Cr5  1  0.24752845  0.37654570  0.87599942  1
  Cr  Cr6  1  0.00753236  0.48041734  0.49633424  1
  Cr  Cr7  1  0.99618275  0.00692345  0.00198850  1
  O  O8  1  0.74564684  0.94262222  0.18835385  1
  O  O9  1  0.24278700  0.18627559  0.43708306  1
  F  F10  1  0.81831734  0.78204593  0.03455006  1
  F  F11  1  0.75762074  0.80876315  0.55967658  1
  F  F12  1  0.75500004  0.32420682  0.06505999  1
  F  F13  1  0.68367124  0.96777801  0.71846713  1
  F  F14  1  0.68066233  0.65434223  0.40786020  1
  F  F15  1  0.67754110  0.47300634  0.21758142  1
  F  F16  1  0.81289758  0.59388834  0.84255950  1
  F  F17  1  0.80922287  0.09296347  0.34317759  1
  F  F18  1  0.81010592  0.28303065  0.53253345  1
  F  F19  1  0.31133767  0.85055177  0.09478303  1
  F  F20  1  0.74367841  0.43696901  0.68697782  1
  F  F21  1  0.26361882  0.56257820  0.31337958  1
  F  F22  1  0.68290770  0.15325245  0.90856855  1
  F  F23  1  0.18448642  0.90819713  0.65685760  1
  F  F24  1  0.18047258  0.41139420  0.15862544  1
  F  F25  1  0.18320989  0.71404787  0.46780088  1
  F  F26  1  0.31245814  0.53169861  0.78271489  1
  F  F27  1  0.31019505  0.33897435  0.59210166  1
  F  F28  1  0.31204980  0.03206948  0.28296341  1
  F  F29  1  0.24699217  0.68875998  0.93954303  1
  F  F30  1  0.24697801  0.06155956  0.81395134  1
  F  F31  1  0.18033135  0.22404908  0.96913762  1
