# generated using pymatgen
data_LiMnPH2O5
_symmetry_space_group_name_H-M   'P 1'
_cell_length_a   11.19159534
_cell_length_b   8.29690371
_cell_length_c   5.15638897
_cell_angle_alpha   90.00000000
_cell_angle_beta   90.00000000
_cell_angle_gamma   90.00000000
_symmetry_Int_Tables_number   1
_chemical_formula_structural   LiMnPH2O5
_chemical_formula_sum   'Li4 Mn4 P4 H8 O20'
_cell_volume   478.79953439
_cell_formula_units_Z   4
loop_
 _symmetry_equiv_pos_site_id
 _symmetry_equiv_pos_as_xyz
  1  'x, y, z'
loop_
 _atom_site_type_symbol
 _atom_site_label
 _atom_site_symmetry_multiplicity
 _atom_site_fract_x
 _atom_site_fract_y
 _atom_site_fract_z
 _atom_site_occupancy
  Li  Li0  1  0.18955888  0.31665547  0.70026958  1
  Li  Li1  1  0.31044112  0.81665547  0.20026958  1
  Li  Li2  1  0.68955888  0.18334453  0.70026958  1
  Li  Li3  1  0.81044112  0.68334453  0.20026958  1
  Mn  Mn4  1  0.12306067  0.12605531  0.19454643  1
  Mn  Mn5  1  0.37693933  0.62605531  0.69454643  1
  Mn  Mn6  1  0.62306067  0.37394469  0.19454643  1
  Mn  Mn7  1  0.87693933  0.87394469  0.69454643  1
  P  P8  1  0.17177697  0.91728597  0.69409402  1
  P  P9  1  0.32822303  0.41728597  0.19409402  1
  P  P10  1  0.67177697  0.58271403  0.69409402  1
  P  P11  1  0.82822303  0.08271403  0.19409402  1
  H  H12  1  0.00145643  0.55848971  0.36292225  1
  H  H13  1  0.03982600  0.68195243  0.15177937  1
  H  H14  1  0.46017400  0.18195243  0.65177937  1
  H  H15  1  0.49854357  0.05848971  0.86292225  1
  H  H16  1  0.50145643  0.94151029  0.36292225  1
  H  H17  1  0.53982600  0.81804757  0.15177937  1
  H  H18  1  0.96017400  0.31804757  0.65177937  1
  H  H19  1  0.99854357  0.44151029  0.86292225  1
  O  O20  1  0.01858339  0.40254002  0.68745863  1
  O  O21  1  0.05319541  0.83203705  0.62729181  1
  O  O22  1  0.17074314  0.09253856  0.58158829  1
  O  O23  1  0.18973359  0.92709440  0.99420007  1
  O  O24  1  0.22244801  0.32254169  0.07211955  1
  O  O25  1  0.27755199  0.82254169  0.57211955  1
  O  O26  1  0.31026641  0.42709440  0.49420007  1
  O  O27  1  0.32925686  0.59253856  0.08158829  1
  O  O28  1  0.44680459  0.33203705  0.12729181  1
  O  O29  1  0.48141661  0.90254002  0.18745863  1
  O  O30  1  0.51858339  0.09745998  0.68745863  1
  O  O31  1  0.55319541  0.66796295  0.62729181  1
  O  O32  1  0.67074314  0.40746144  0.58158829  1
  O  O33  1  0.68973359  0.57290560  0.99420007  1
  O  O34  1  0.72244801  0.17745831  0.07211955  1
  O  O35  1  0.77755199  0.67745831  0.57211955  1
  O  O36  1  0.81026641  0.07290560  0.49420007  1
  O  O37  1  0.82925686  0.90746144  0.08158829  1
  O  O38  1  0.94680459  0.16796295  0.12729181  1
  O  O39  1  0.98141661  0.59745998  0.18745863  1
