# generated using pymatgen
data_Co3OF5
_symmetry_space_group_name_H-M   'P 1'
_cell_length_a   4.71648499
_cell_length_b   4.71648499
_cell_length_c   9.48302915
_cell_angle_alpha   90.00000000
_cell_angle_beta   90.00000000
_cell_angle_gamma   87.52688053
_symmetry_Int_Tables_number   1
_chemical_formula_structural   Co3OF5
_chemical_formula_sum   'Co6 O2 F10'
_cell_volume   210.75568485
_cell_formula_units_Z   2
loop_
 _symmetry_equiv_pos_site_id
 _symmetry_equiv_pos_as_xyz
  1  'x, y, z'
loop_
 _atom_site_type_symbol
 _atom_site_label
 _atom_site_symmetry_multiplicity
 _atom_site_fract_x
 _atom_site_fract_y
 _atom_site_fract_z
 _atom_site_occupancy
  Co  Co0  1  0.00922901  0.99077099  0.00731625  1
  Co  Co1  1  0.01457924  0.98542076  0.33333300  1
  Co  Co2  1  0.00922901  0.99077099  0.65934975  1
  Co  Co3  1  0.47306854  0.52693146  0.16902400  1
  Co  Co4  1  0.50901283  0.49098717  0.83333300  1
  Co  Co5  1  0.47306854  0.52693146  0.49764200  1
  O  O6  1  0.20305870  0.79694130  0.17061774  1
  O  O7  1  0.20305870  0.79694130  0.49604826  1
  F  F8  1  0.20251422  0.79748578  0.83333300  1
  F  F9  1  0.31055581  0.30683883  0.33333300  1
  F  F10  1  0.30713293  0.30244673  0.00283279  1
  F  F11  1  0.30713293  0.30244673  0.66383321  1
  F  F12  1  0.69755327  0.69286707  0.66383321  1
  F  F13  1  0.69755327  0.69286707  0.00283279  1
  F  F14  1  0.69316117  0.68944419  0.33333300  1
  F  F15  1  0.78792405  0.21207595  0.17064595  1
  F  F16  1  0.81424370  0.18575630  0.83333300  1
  F  F17  1  0.78792405  0.21207595  0.49602105  1
