# generated using pymatgen
data_Cr4OF11
_symmetry_space_group_name_H-M   'P 1'
_cell_length_a   5.08376000
_cell_length_b   5.33189668
_cell_length_c   16.89481580
_cell_angle_alpha   91.73907019
_cell_angle_beta   98.29079468
_cell_angle_gamma   61.71092351
_symmetry_Int_Tables_number   1
_chemical_formula_structural   Cr4OF11
_chemical_formula_sum   'Cr8 O2 F22'
_cell_volume   398.66409863
_cell_formula_units_Z   2
loop_
 _symmetry_equiv_pos_site_id
 _symmetry_equiv_pos_as_xyz
  1  'x, y, z'
loop_
 _atom_site_type_symbol
 _atom_site_label
 _atom_site_symmetry_multiplicity
 _atom_site_fract_x
 _atom_site_fract_y
 _atom_site_fract_z
 _atom_site_occupancy
  Cr  Cr0  1  0.74562706  0.64385008  0.12841164  1
  Cr  Cr1  1  0.74911426  0.12184752  0.62605912  1
  Cr  Cr2  1  0.49158559  0.73897155  0.75291793  1
  Cr  Cr3  1  0.50900980  0.23281077  0.24639161  1
  Cr  Cr4  1  0.25080705  0.87005971  0.37434684  1
  Cr  Cr5  1  0.25544127  0.38641984  0.87106004  1
  Cr  Cr6  1  0.00034624  0.49770009  0.50004814  1
  Cr  Cr7  1  0.99889862  0.00833306  0.00034660  1
  O  O8  1  0.74746390  0.93813321  0.18741446  1
  O  O9  1  0.31415106  0.53188722  0.78193144  1
  F  F10  1  0.81440176  0.78497721  0.03283727  1
  F  F11  1  0.75198384  0.81135289  0.56260050  1
  F  F12  1  0.75783811  0.31939305  0.06436196  1
  F  F13  1  0.68013755  0.96247206  0.71830840  1
  F  F14  1  0.68615376  0.65716043  0.40712453  1
  F  F15  1  0.68385687  0.46824206  0.21777027  1
  F  F16  1  0.81623490  0.59323687  0.84348599  1
  F  F17  1  0.81339070  0.09077615  0.34175138  1
  F  F18  1  0.81417514  0.27975657  0.53255140  1
  F  F19  1  0.31315887  0.84327164  0.09319336  1
  F  F20  1  0.74554942  0.43772128  0.68834918  1
  F  F21  1  0.26175830  0.55566801  0.31088651  1
  F  F22  1  0.68480326  0.15789795  0.90703517  1
  F  F23  1  0.18551232  0.90732002  0.65861862  1
  F  F24  1  0.18348782  0.40822937  0.15739284  1
  F  F25  1  0.18562060  0.71795248  0.46826195  1
  F  F26  1  0.31448732  0.34244031  0.59295881  1
  F  F27  1  0.31127408  0.03157078  0.28099292  1
  F  F28  1  0.24834613  0.68962608  0.93800510  1
  F  F29  1  0.24698784  0.18540438  0.43692556  1
  F  F30  1  0.25381067  0.06395280  0.81293822  1
  F  F31  1  0.18458488  0.22156358  0.96472223  1
