# generated using pymatgen
data_Fe5O3F7
_symmetry_space_group_name_H-M   'P 1'
_cell_length_a   4.78456880
_cell_length_b   4.78361816
_cell_length_c   15.72762532
_cell_angle_alpha   89.83781621
_cell_angle_beta   90.05520359
_cell_angle_gamma   90.45244294
_symmetry_Int_Tables_number   1
_chemical_formula_structural   Fe5O3F7
_chemical_formula_sum   'Fe10 O6 F14'
_cell_volume   359.95398952
_cell_formula_units_Z   2
loop_
 _symmetry_equiv_pos_site_id
 _symmetry_equiv_pos_as_xyz
  1  'x, y, z'
loop_
 _atom_site_type_symbol
 _atom_site_label
 _atom_site_symmetry_multiplicity
 _atom_site_fract_x
 _atom_site_fract_y
 _atom_site_fract_z
 _atom_site_occupancy
  Fe  Fe0  1  0.97218997  0.96215139  0.99334884  1
  Fe  Fe1  1  0.02804088  0.02343262  0.19809086  1
  Fe  Fe2  1  0.01610643  0.01156028  0.40116322  1
  Fe  Fe3  1  0.02683041  0.01939533  0.60656600  1
  Fe  Fe4  1  0.02332641  0.97414432  0.79990970  1
  Fe  Fe5  1  0.50479043  0.49808311  0.10164682  1
  Fe  Fe6  1  0.47790480  0.47230990  0.49814052  1
  Fe  Fe7  1  0.47887233  0.47506887  0.30072129  1
  Fe  Fe8  1  0.46565177  0.51757006  0.69376183  1
  Fe  Fe9  1  0.48099493  0.53152428  0.90607086  1
  O  O10  1  0.19932969  0.80018399  0.70676406  1
  O  O11  1  0.19465735  0.79512273  0.89337223  1
  O  O12  1  0.32633589  0.31848866  0.19848841  1
  O  O13  1  0.31747359  0.31325974  0.39989532  1
  O  O14  1  0.31539007  0.31701414  0.59970373  1
  O  O15  1  0.67221270  0.66819285  0.00244756  1
  F  F16  1  0.20201896  0.78556958  0.09815562  1
  F  F17  1  0.21738202  0.79924973  0.30016634  1
  F  F18  1  0.21179411  0.79724129  0.49939908  1
  F  F19  1  0.28683433  0.28967062  -0.00029982  1
  F  F20  1  0.30336207  0.30460590  0.80028883  1
  F  F21  1  0.71119997  0.70286737  0.20105853  1
  F  F22  1  0.69956161  0.69363567  0.40068666  1
  F  F23  1  0.70073758  0.70619795  0.59945560  1
  F  F24  1  0.69090380  0.69436214  0.79983202  1
  F  F25  1  0.79170373  0.19474826  0.09666156  1
  F  F26  1  0.80193945  0.21030161  0.50250805  1
  F  F27  1  0.80481953  0.20920139  0.30168647  1
  F  F28  1  0.78454795  0.20250078  0.88973080  1
  F  F29  1  0.79308524  0.21234746  0.71057998  1
