# generated using pymatgen
data_LiFeH8(SO6)2
_symmetry_space_group_name_H-M   'P 1'
_cell_length_a   11.70714236
_cell_length_b   9.18235874
_cell_length_c   9.54801031
_cell_angle_alpha   90.00000000
_cell_angle_beta   96.40410445
_cell_angle_gamma   90.00000000
_symmetry_Int_Tables_number   1
_chemical_formula_structural   LiFeH8(SO6)2
_chemical_formula_sum   'Li4 Fe4 H32 S8 O48'
_cell_volume   1019.99846205
_cell_formula_units_Z   4
loop_
 _symmetry_equiv_pos_site_id
 _symmetry_equiv_pos_as_xyz
  1  'x, y, z'
loop_
 _atom_site_type_symbol
 _atom_site_label
 _atom_site_symmetry_multiplicity
 _atom_site_fract_x
 _atom_site_fract_y
 _atom_site_fract_z
 _atom_site_occupancy
  Li  Li0  1  0.19139386  0.29051346  0.27237493  1
  Li  Li1  1  0.30860614  0.79051346  0.72762507  1
  Li  Li2  1  0.69139386  0.20948654  0.27237493  1
  Li  Li3  1  0.80860614  0.70948654  0.72762507  1
  Fe  Fe4  1  0.00000000  0.50000000  0.50000000  1
  Fe  Fe5  1  0.00000000  0.00000000  0.00000000  1
  Fe  Fe6  1  0.50000000  0.00000000  0.50000000  1
  Fe  Fe7  1  0.50000000  0.50000000  0.00000000  1
  H  H8  1  0.06116277  0.27849811  0.95089060  1
  H  H9  1  0.06143185  0.71990694  0.97764461  1
  H  H10  1  0.07823651  0.02940687  0.73663084  1
  H  H11  1  0.05722597  0.00681663  0.27480593  1
  H  H12  1  0.07375150  0.64474248  0.74291676  1
  H  H13  1  0.07995420  0.74451774  0.60833136  1
  H  H14  1  0.09398305  0.25270615  0.60438618  1
  H  H15  1  0.09786770  0.36729596  0.73089563  1
  H  H16  1  0.40213230  0.86729596  0.26910437  1
  H  H17  1  0.40601695  0.75270615  0.39561382  1
  H  H18  1  0.42004580  0.24451774  0.39166864  1
  H  H19  1  0.42624850  0.14474248  0.25708324  1
  H  H20  1  0.44277403  0.50681663  0.72519407  1
  H  H21  1  0.42176349  0.52940687  0.26336916  1
  H  H22  1  0.43856815  0.21990694  0.02235539  1
  H  H23  1  0.43883723  0.77849811  0.04910940  1
  H  H24  1  0.56116277  0.22150189  0.95089060  1
  H  H25  1  0.56143185  0.78009306  0.97764461  1
  H  H26  1  0.57823651  0.47059313  0.73663084  1
  H  H27  1  0.55722597  0.49318337  0.27480593  1
  H  H28  1  0.57375150  0.85525752  0.74291676  1
  H  H29  1  0.57995420  0.75548226  0.60833136  1
  H  H30  1  0.59398305  0.24729385  0.60438618  1
  H  H31  1  0.59786770  0.13270404  0.73089563  1
  H  H32  1  0.90213230  0.63270404  0.26910437  1
  H  H33  1  0.90601695  0.74729385  0.39561382  1
  H  H34  1  0.92004580  0.25548226  0.39166864  1
  H  H35  1  0.92624850  0.35525752  0.25708324  1
  H  H36  1  0.94277403  0.99318337  0.72519407  1
  H  H37  1  0.92176349  0.97059313  0.26336916  1
  H  H38  1  0.93856815  0.28009306  0.02235539  1
  H  H39  1  0.93883723  0.72150189  0.04910940  1
  S  S40  1  0.20725384  0.48963747  0.96835914  1
  S  S41  1  0.21706439  0.00134180  0.52577907  1
  S  S42  1  0.28293561  0.50134180  0.47422093  1
  S  S43  1  0.29274616  0.98963747  0.03164086  1
  S  S44  1  0.70725384  0.01036253  0.96835914  1
  S  S45  1  0.71706439  0.49865820  0.52577907  1
  S  S46  1  0.78293561  0.99865820  0.47422093  1
  S  S47  1  0.79274616  0.51036253  0.03164086  1
  O  O48  1  0.01611884  0.98811031  0.78915098  1
  O  O49  1  0.03101137  0.66897301  0.64877694  1
  O  O50  1  0.05707778  0.34551886  0.63346292  1
  O  O51  1  0.99412737  0.78033985  0.99889147  1
  O  O52  1  0.15720970  0.62887259  0.90541239  1
  O  O53  1  0.15840723  0.36466405  0.88049949  1
  O  O54  1  0.14956400  0.09578634  0.61243505  1
  O  O55  1  0.15666140  0.53098590  0.43323794  1
  O  O56  1  0.19764585  0.84583785  0.56454924  1
  O  O57  1  0.18659878  0.03166545  0.37449908  1
  O  O58  1  0.16677292  0.99708294  0.04584598  1
  O  O59  1  0.18642828  0.46829665  0.11501296  1
  O  O60  1  0.31357172  0.96829665  0.88498704  1
  O  O61  1  0.33322708  0.49708294  0.95415402  1
  O  O62  1  0.31340122  0.53166545  0.62550092  1
  O  O63  1  0.30235415  0.34583785  0.43545076  1
  O  O64  1  0.34333860  0.03098590  0.56676206  1
  O  O65  1  0.35043600  0.59578634  0.38756495  1
  O  O66  1  0.34159277  0.86466405  0.11950051  1
  O  O67  1  0.34279030  0.12887259  0.09458761  1
  O  O68  1  0.50587263  0.28033985  0.00110853  1
  O  O69  1  0.44292222  0.84551886  0.36653708  1
  O  O70  1  0.46898863  0.16897301  0.35122306  1
  O  O71  1  0.51611884  0.51188969  0.78915098  1
  O  O72  1  0.48388116  0.48811031  0.21084902  1
  O  O73  1  0.53101137  0.83102699  0.64877694  1
  O  O74  1  0.55707778  0.15448114  0.63346292  1
  O  O75  1  0.49412737  0.71966015  0.99889147  1
  O  O76  1  0.65720970  0.87112741  0.90541239  1
  O  O77  1  0.65840723  0.13533595  0.88049949  1
  O  O78  1  0.64956400  0.40421366  0.61243505  1
  O  O79  1  0.65666140  0.96901410  0.43323794  1
  O  O80  1  0.69764585  0.65416215  0.56454924  1
  O  O81  1  0.68659878  0.46833455  0.37449908  1
  O  O82  1  0.66677292  0.50291706  0.04584598  1
  O  O83  1  0.68642828  0.03170335  0.11501296  1
  O  O84  1  0.81357172  0.53170335  0.88498704  1
  O  O85  1  0.83322708  0.00291706  0.95415402  1
  O  O86  1  0.81340122  0.96833455  0.62550092  1
  O  O87  1  0.80235415  0.15416215  0.43545076  1
  O  O88  1  0.84333860  0.46901410  0.56676206  1
  O  O89  1  0.85043600  0.90421366  0.38756495  1
  O  O90  1  0.84159277  0.63533595  0.11950051  1
  O  O91  1  0.84279030  0.37112741  0.09458761  1
  O  O92  1  0.00587263  0.21966015  0.00110853  1
  O  O93  1  0.94292222  0.65448114  0.36653708  1
  O  O94  1  0.96898863  0.33102699  0.35122306  1
  O  O95  1  0.98388116  0.01188969  0.21084902  1
