# generated using pymatgen
data_Li3MnV(PO4)3
_symmetry_space_group_name_H-M   'P 1'
_cell_length_a   8.55761174
_cell_length_b   12.12097946
_cell_length_c   8.75531961
_cell_angle_alpha   90.16997003
_cell_angle_beta   89.73197082
_cell_angle_gamma   91.61020297
_symmetry_Int_Tables_number   1
_chemical_formula_structural   Li3MnV(PO4)3
_chemical_formula_sum   'Li12 Mn4 V4 P12 O48'
_cell_volume   907.78765863
_cell_formula_units_Z   4
loop_
 _symmetry_equiv_pos_site_id
 _symmetry_equiv_pos_as_xyz
  1  'x, y, z'
loop_
 _atom_site_type_symbol
 _atom_site_label
 _atom_site_symmetry_multiplicity
 _atom_site_fract_x
 _atom_site_fract_y
 _atom_site_fract_z
 _atom_site_occupancy
  Li  Li0  1  0.06521082  0.34557807  0.51270240  1
  Li  Li1  1  0.08007250  0.69118947  0.08603982  1
  Li  Li2  1  0.17900351  0.17785593  0.78010981  1
  Li  Li3  1  0.32006818  0.32267593  0.27972193  1
  Li  Li4  1  0.41960588  0.80960167  0.58709652  1
  Li  Li5  1  0.43430145  0.15423086  0.01230446  1
  Li  Li6  1  0.56455198  0.84657835  0.98580580  1
  Li  Li7  1  0.58039800  0.19102681  0.41510291  1
  Li  Li8  1  0.68007008  0.67794798  0.71933320  1
  Li  Li9  1  0.81936295  0.82323751  0.21989326  1
  Li  Li10  1  0.92098122  0.30893929  0.91428385  1
  Li  Li11  1  0.93441469  0.65399502  0.48652213  1
  Mn  Mn12  1  0.25439801  0.39080211  0.96396679  1
  Mn  Mn13  1  0.74685667  0.39462368  0.47004113  1
  Mn  Mn14  1  0.75343634  0.89082515  0.53665094  1
  Mn  Mn15  1  0.75229677  0.10619544  0.97138234  1
  V  V16  1  0.24354704  0.89521437  0.02638575  1
  V  V17  1  0.24475917  0.10849411  0.46493921  1
  V  V18  1  0.25487610  0.60648990  0.52551489  1
  V  V19  1  0.74440185  0.60971910  0.03450509  1
  P  P20  1  0.04089164  0.49042787  0.24696960  1
  P  P21  1  0.11515491  0.84712974  0.38205532  1
  P  P22  1  0.11573235  0.14680197  0.11154734  1
  P  P23  1  0.38537484  0.65077559  0.88309624  1
  P  P24  1  0.38545481  0.35446221  0.61085785  1
  P  P25  1  0.45645214  0.01015487  0.74788115  1
  P  P26  1  0.54145131  0.98998176  0.24919566  1
  P  P27  1  0.61668433  0.64990670  0.39029103  1
  P  P28  1  0.61589587  0.34953180  0.12010783  1
  P  P29  1  0.88506271  0.85138887  0.89029517  1
  P  P30  1  0.88465801  0.14750033  0.61828050  1
  P  P31  1  0.95632863  0.51004441  0.74899876  1
  O  O32  1  0.05284046  0.89656988  0.89268018  1
  O  O33  1  0.04468347  0.44403867  0.86748984  1
  O  O34  1  0.05607893  0.59951232  0.66490780  1
  O  O35  1  0.05736661  0.18644289  0.57871876  1
  O  O36  1  0.10055784  0.58203734  0.35946494  1
  O  O37  1  0.12747031  0.83113444  0.20502737  1
  O  O38  1  0.14045633  0.96928386  0.42127867  1
  O  O39  1  0.12994964  0.24668850  0.99437474  1
  O  O40  1  0.17465596  0.18718900  0.27015455  1
  O  O41  1  0.18736559  0.43551806  0.17572336  1
  O  O42  1  0.23080322  0.77653975  0.47113284  1
  O  O43  1  0.23611798  0.06271277  0.04943810  1
  O  O44  1  0.26440660  0.43733504  0.55016367  1
  O  O45  1  0.27090362  0.72342349  0.97170014  1
  O  O46  1  0.31116583  0.06545554  0.67671215  1
  O  O47  1  0.32618917  0.31276155  0.77044555  1
  O  O48  1  0.36150743  0.52795693  0.91982949  1
  O  O49  1  0.37194989  0.25446108  0.49493193  1
  O  O50  1  0.37633170  0.66889966  0.70615366  1
  O  O51  1  0.39843134  0.91842725  0.85976455  1
  O  O52  1  0.44329887  0.90091340  0.16401760  1
  O  O53  1  0.44509338  0.30898414  0.08475610  1
  O  O54  1  0.44859060  0.60407015  0.39479118  1
  O  O55  1  0.44993228  0.05567392  0.36918727  1
  O  O56  1  0.54648853  0.94597119  0.62680178  1
  O  O57  1  0.55382757  0.39911675  0.61200988  1
  O  O58  1  0.55842726  0.68798051  0.92157949  1
  O  O59  1  0.55169716  0.10212248  0.83145018  1
  O  O60  1  0.59969513  0.08409777  0.13688193  1
  O  O61  1  0.62368570  0.33423874  0.29961224  1
  O  O62  1  0.62680963  0.75102509  0.50680277  1
  O  O63  1  0.63793270  0.47178844  0.08185210  1
  O  O64  1  0.66890321  0.68918820  0.22951092  1
  O  O65  1  0.68529743  0.93511845  0.31963548  1
  O  O66  1  0.73352875  0.28034729  0.03081541  1
  O  O67  1  0.73676368  0.56797245  0.45132616  1
  O  O68  1  0.76335610  0.93365281  0.95152770  1
  O  O69  1  0.77004629  0.21792457  0.53020482  1
  O  O70  1  0.81281726  0.56706794  0.82058974  1
  O  O71  1  0.83112550  0.80961791  0.73057097  1
  O  O72  1  0.87449512  0.75210347  0.00727259  1
  O  O73  1  0.86534642  0.02389539  0.58270916  1
  O  O74  1  0.87910695  0.16599920  0.79719137  1
  O  O75  1  0.89624058  0.41786661  0.63519249  1
  O  O76  1  0.94284047  0.80862359  0.41743018  1
  O  O77  1  0.94589657  0.39866659  0.33242415  1
  O  O78  1  0.94960023  0.55452628  0.12815225  1
  O  O79  1  0.94816990  0.10173280  0.11373712  1
