# generated using pymatgen
data_Ni6OF11
_symmetry_space_group_name_H-M   'P 1'
_cell_length_a   7.30872933
_cell_length_b   5.63576087
_cell_length_c   5.63576087
_cell_angle_alpha   72.70963287
_cell_angle_beta   72.74159895
_cell_angle_gamma   72.74159895
_symmetry_Int_Tables_number   1
_chemical_formula_structural   Ni6OF11
_chemical_formula_sum   'Ni6 O1 F11'
_cell_volume   206.06062953
_cell_formula_units_Z   1
loop_
 _symmetry_equiv_pos_site_id
 _symmetry_equiv_pos_as_xyz
  1  'x, y, z'
loop_
 _atom_site_type_symbol
 _atom_site_label
 _atom_site_symmetry_multiplicity
 _atom_site_fract_x
 _atom_site_fract_y
 _atom_site_fract_z
 _atom_site_occupancy
  Ni  Ni0  1  0.83343963  0.66673923  0.66673923  1
  Ni  Ni1  1  0.66049145  0.33481756  0.33481756  1
  Ni  Ni2  1  0.33186915  0.66009320  0.66009320  1
  Ni  Ni3  1  0.50010681  0.99902512  0.99902512  1
  Ni  Ni4  1  0.17154261  0.33690181  0.33690181  1
  Ni  Ni5  1  0.00060269  0.00173624  0.00173624  1
  O  O6  1  0.37036289  0.43380183  0.43380183  1
  F  F7  1  0.66701549  0.03015458  0.63781979  1
  F  F8  1  0.33302306  0.36127110  0.96965561  1
  F  F9  1  0.29913139  0.89432597  0.89432597  1
  F  F10  1  0.96342980  0.23611199  0.23611199  1
  F  F11  1  0.63134395  0.56641952  0.56641952  1
  F  F12  1  0.70257364  0.10116532  0.10116532  1
  F  F13  1  0.03499568  0.76862653  0.76862653  1
  F  F14  1  0.00001660  0.30356345  0.69777013  1
  F  F15  1  0.66701549  0.63781979  0.03015458  1
  F  F16  1  0.33302306  0.96965561  0.36127110  1
  F  F17  1  0.00001660  0.69777013  0.30356345  1
