# generated using pymatgen
data_LiV8F33
_symmetry_space_group_name_H-M   'P 1'
_cell_length_a   8.88629891
_cell_length_b   8.88450364
_cell_length_c   18.44490677
_cell_angle_alpha   89.87436513
_cell_angle_beta   90.06280583
_cell_angle_gamma   119.99331803
_symmetry_Int_Tables_number   1
_chemical_formula_structural   LiV8F33
_chemical_formula_sum   'Li2 V16 F66'
_cell_volume   1261.21572556
_cell_formula_units_Z   2
loop_
 _symmetry_equiv_pos_site_id
 _symmetry_equiv_pos_as_xyz
  1  'x, y, z'
loop_
 _atom_site_type_symbol
 _atom_site_label
 _atom_site_symmetry_multiplicity
 _atom_site_fract_x
 _atom_site_fract_y
 _atom_site_fract_z
 _atom_site_occupancy
  Li  Li0  1  0.33311282  0.66786870  0.13400698  1
  Li  Li1  1  0.66688718  0.33475588  0.63400698  1
  V  V2  1  0.00530452  0.67451030  0.24652522  1
  V  V3  1  0.00341915  0.33983063  0.87950184  1
  V  V4  1  0.33650309  0.99608417  0.87956066  1
  V  V5  1  0.00014458  0.99942137  0.00633156  1
  V  V6  1  0.99985542  0.99927679  0.50633156  1
  V  V7  1  0.33342724  0.66758389  0.61979598  1
  V  V8  1  0.32607031  0.33140727  0.24657055  1
  V  V9  1  0.33136162  0.32654537  0.74665821  1
  V  V10  1  0.66863838  0.99518376  0.24665821  1
  V  V11  1  0.66019839  0.66322759  0.87965699  1
  V  V12  1  0.66349691  0.65958108  0.37956066  1
  V  V13  1  0.33980161  0.00302920  0.37965699  1
  V  V14  1  0.66657276  0.33415665  0.11979598  1
  V  V15  1  0.99469548  0.66920578  0.74652522  1
  V  V16  1  0.67392969  0.00533696  0.74657055  1
  V  V17  1  0.99658085  0.33641148  0.37950184  1
  F  F18  1  0.06895864  0.86647756  0.05064471  1
  F  F19  1  0.06936384  0.86605347  0.19860638  1
  F  F20  1  0.13135403  0.93027642  0.43317771  1
  F  F21  1  0.14182408  0.87141799  0.81075048  1
  F  F22  1  0.20271792  0.79967899  0.31161805  1
  F  F23  1  0.06397830  0.54092441  0.81072754  1
  F  F24  1  0.12657159  0.60469719  0.18731138  1
  F  F25  1  0.20057762  0.73496242  0.69240686  1
  F  F26  1  0.25115817  0.79791103  0.92784197  1
  F  F27  1  0.13125518  0.52788488  0.42648227  1
  F  F28  1  0.13233417  0.53095437  0.57620911  1
  F  F29  1  0.39668571  0.86819294  0.42683454  1
  F  F30  1  0.06908044  0.20065823  0.43318950  1
  F  F31  1  0.40139893  0.86949980  0.57642705  1
  F  F32  1  0.20128560  0.45224580  0.92784856  1
  F  F33  1  0.12859878  0.27025362  0.81076312  1
  F  F34  1  0.47691565  0.93586019  0.81089821  1
  F  F35  1  0.20032455  0.40291512  0.31145405  1
  F  F36  1  0.47739593  0.87409583  0.18742679  1
  F  F37  1  0.13394025  0.20067882  0.05002080  1
  F  F38  1  0.13531249  0.20435852  0.19835458  1
  F  F39  1  0.26661400  0.46911140  0.69318672  1
  F  F40  1  0.53310142  0.79863576  0.69277760  1
  F  F41  1  0.20162833  0.13117442  0.55004272  1
  F  F42  1  0.20417811  0.13632171  0.69811967  1
  F  F43  1  0.39627591  0.52317323  0.18737903  1
  F  F44  1  0.20009783  0.06802635  0.93301205  1
  F  F45  1  0.46732479  0.59972622  0.57585807  1
  F  F46  1  0.54761642  0.74837829  0.92798568  1
  F  F47  1  0.47195747  0.60255379  0.42661266  1
  F  F48  1  0.45917654  0.52309823  0.81110398  1
  F  F49  1  0.59715884  0.79761286  0.31159998  1
  F  F50  1  0.27012584  0.12862441  0.31095818  1
  F  F51  1  0.40284116  0.20045402  0.81159998  1
  F  F52  1  0.72987416  0.85849857  0.81095818  1
  F  F53  1  0.52308435  0.45894354  0.31089821  1
  F  F54  1  0.79582189  0.93214360  0.19811967  1
  F  F55  1  0.52260407  0.39669889  0.68742679  1
  F  F56  1  0.79837167  0.92954609  0.05004272  1
  F  F57  1  0.46689858  0.26553434  0.19277760  1
  F  F58  1  0.45238358  0.20076287  0.42798568  1
  F  F59  1  0.60331429  0.47150724  0.92683454  1
  F  F60  1  0.59860107  0.46810187  0.07642705  1
  F  F61  1  0.79990217  0.86792853  0.43301205  1
  F  F62  1  0.52804253  0.13059732  0.92661266  1
  F  F63  1  0.86864597  0.79892239  0.93317771  1
  F  F64  1  0.53267521  0.13240243  0.07585807  1
  F  F65  1  0.74884183  0.54675286  0.42784197  1
  F  F66  1  0.85817592  0.72959391  0.31075048  1
  F  F67  1  0.54082346  0.06392169  0.31110398  1
  F  F68  1  0.79728208  0.59696107  0.81161805  1
  F  F69  1  0.60372409  0.12689731  0.68737903  1
  F  F70  1  0.93104136  0.79751992  0.55064471  1
  F  F71  1  0.93063616  0.79668863  0.69860638  1
  F  F72  1  0.79942238  0.53438479  0.19240686  1
  F  F73  1  0.73338600  0.20249740  0.19318672  1
  F  F74  1  0.87342841  0.47812460  0.68731138  1
  F  F75  1  0.86766583  0.39862020  0.07620911  1
  F  F76  1  0.79871440  0.25095920  0.42784856  1
  F  F77  1  0.86874482  0.39662970  0.92648227  1
  F  F78  1  0.93602170  0.47694611  0.31072754  1
  F  F79  1  0.79967545  0.20259057  0.81145405  1
  F  F80  1  0.87140122  0.14165484  0.31076312  1
  F  F81  1  0.86468751  0.06904603  0.69835458  1
  F  F82  1  0.86605975  0.06673757  0.55002080  1
  F  F83  1  0.93091956  0.13157879  0.93318950  1
