# generated using pymatgen
data_VOF2
_symmetry_space_group_name_H-M   'P 1'
_cell_length_a   5.15606555
_cell_length_b   11.82463852
_cell_length_c   5.35489263
_cell_angle_alpha   78.90124095
_cell_angle_beta   91.67672170
_cell_angle_gamma   102.84678665
_symmetry_Int_Tables_number   1
_chemical_formula_structural   VOF2
_chemical_formula_sum   'V6 O6 F12'
_cell_volume   312.32329432
_cell_formula_units_Z   6
loop_
 _symmetry_equiv_pos_site_id
 _symmetry_equiv_pos_as_xyz
  1  'x, y, z'
loop_
 _atom_site_type_symbol
 _atom_site_label
 _atom_site_symmetry_multiplicity
 _atom_site_fract_x
 _atom_site_fract_y
 _atom_site_fract_z
 _atom_site_occupancy
  V  V0  1  0.81169087  0.66984598  0.19927997  1
  V  V1  1  0.70478566  0.33889163  0.30256777  1
  V  V2  1  0.50000000  0.00000000  0.50000000  1
  V  V3  1  0.29521434  0.66110837  0.69743223  1
  V  V4  1  0.00000000  0.00000000  0.00000000  1
  V  V5  1  0.18830913  0.33015402  0.80072003  1
  O  O6  1  0.96842309  0.36258266  0.11386336  1
  O  O7  1  0.76268551  0.97831474  0.73734863  1
  O  O8  1  0.64405422  0.68815958  0.44205929  1
  O  O9  1  0.23731449  0.02168526  0.26265137  1
  O  O10  1  0.35594578  0.31184042  0.55794071  1
  O  O11  1  0.03157691  0.63741734  0.88613664  1
  F  F12  1  0.97701732  0.16852993  0.92389440  1
  F  F13  1  0.88161266  0.37487010  0.61494855  1
  F  F14  1  0.68132380  0.16839430  0.42136914  1
  F  F15  1  0.64637437  0.50066788  0.22317410  1
  F  F16  1  0.43012062  0.28783523  0.06879598  1
  F  F17  1  0.30061592  0.04187710  0.76084185  1
  F  F18  1  0.69938408  0.95812290  0.23915815  1
  F  F19  1  0.56987938  0.71216477  0.93120402  1
  F  F20  1  0.35362563  0.49933212  0.77682590  1
  F  F21  1  0.31867620  0.83160570  0.57863086  1
  F  F22  1  0.11838734  0.62512990  0.38505145  1
  F  F23  1  0.02298268  0.83147007  0.07610560  1
