# generated using pymatgen
data_Li8Fe7(PO4)8
_symmetry_space_group_name_H-M   'P 1'
_cell_length_a   10.37295686
_cell_length_b   12.13391260
_cell_length_c   9.53235439
_cell_angle_alpha   90.00000000
_cell_angle_beta   90.00000000
_cell_angle_gamma   90.00000000
_symmetry_Int_Tables_number   1
_chemical_formula_structural   Li8Fe7(PO4)8
_chemical_formula_sum   'Li16 Fe14 P16 O64'
_cell_volume   1199.78551426
_cell_formula_units_Z   2
loop_
 _symmetry_equiv_pos_site_id
 _symmetry_equiv_pos_as_xyz
  1  'x, y, z'
loop_
 _atom_site_type_symbol
 _atom_site_label
 _atom_site_symmetry_multiplicity
 _atom_site_fract_x
 _atom_site_fract_y
 _atom_site_fract_z
 _atom_site_occupancy
  Li  Li0  1  0.00820213  0.99738416  0.99457994  1
  Li  Li1  1  0.98304908  0.25476167  0.00547052  1
  Li  Li2  1  0.00823895  0.99446035  0.50639292  1
  Li  Li3  1  0.98304908  0.49523833  0.00547052  1
  Li  Li4  1  0.99903933  0.25259636  0.50120496  1
  Li  Li5  1  0.00820213  0.75261584  0.99457994  1
  Li  Li6  1  0.99903933  0.49740364  0.50120496  1
  Li  Li7  1  0.00823895  0.75553965  0.50639292  1
  Li  Li8  1  0.50820213  0.49738416  0.75542006  1
  Li  Li9  1  0.50820213  0.25261584  0.75542006  1
  Li  Li10  1  0.50823895  0.49446035  0.24360708  1
  Li  Li11  1  0.48304908  0.99523833  0.74452948  1
  Li  Li12  1  0.49903933  0.99740364  0.24879504  1
  Li  Li13  1  0.50823895  0.25553965  0.24360708  1
  Li  Li14  1  0.49903933  0.75259636  0.24879504  1
  Li  Li15  1  0.48304908  0.75476167  0.74452948  1
  Fe  Fe16  1  0.22362475  0.87500000  0.24239596  1
  Fe  Fe17  1  0.21736956  0.37500000  0.23830508  1
  Fe  Fe18  1  0.21259070  0.37500000  0.74728553  1
  Fe  Fe19  1  0.27776814  0.12142963  0.98824998  1
  Fe  Fe20  1  0.27776814  0.62857037  0.98824998  1
  Fe  Fe21  1  0.28244165  0.12286875  0.48855262  1
  Fe  Fe22  1  0.28244165  0.62713125  0.48855262  1
  Fe  Fe23  1  0.72362475  0.37500000  0.50760404  1
  Fe  Fe24  1  0.71259070  0.87500000  0.00271447  1
  Fe  Fe25  1  0.71736956  0.87500000  0.51169492  1
  Fe  Fe26  1  0.77776814  0.12857037  0.76175002  1
  Fe  Fe27  1  0.78244165  0.12713125  0.26144738  1
  Fe  Fe28  1  0.78244165  0.62286875  0.26144738  1
  Fe  Fe29  1  0.77776814  0.62142963  0.76175002  1
  P  P30  1  0.09518643  0.12439671  0.20725954  1
  P  P31  1  0.09542930  0.12607561  0.70716959  1
  P  P32  1  0.09518643  0.62560329  0.20725954  1
  P  P33  1  0.09542930  0.62392439  0.70716959  1
  P  P34  1  0.40329822  0.37500000  0.46157767  1
  P  P35  1  0.40189291  0.37500000  0.95922456  1
  P  P36  1  0.41444444  0.87500000  0.45944606  1
  P  P37  1  0.40015380  0.87500000  0.96015401  1
  P  P38  1  0.59518643  0.12560329  0.54274046  1
  P  P39  1  0.59542930  0.12392439  0.04283041  1
  P  P40  1  0.59542930  0.62607561  0.04283041  1
  P  P41  1  0.59518643  0.62439671  0.54274046  1
  P  P42  1  0.90329822  0.87500000  0.28842233  1
  P  P43  1  0.90189291  0.87500000  0.79077544  1
  P  P44  1  0.91444444  0.37500000  0.29055394  1
  P  P45  1  0.90015380  0.37500000  0.78984599  1
  O  O46  1  0.04403949  0.37500000  0.84934221  1
  O  O47  1  0.05042358  0.37500000  0.36324180  1
  O  O48  1  0.04322628  0.87500000  0.34676102  1
  O  O49  1  0.03497679  0.87500000  0.85716505  1
  O  O50  1  0.09802044  0.12559300  0.36770729  1
  O  O51  1  0.10251842  0.12346366  0.86884436  1
  O  O52  1  0.09802044  0.62440700  0.36770729  1
  O  O53  1  0.10251842  0.62653634  0.86884436  1
  O  O54  1  0.16766155  0.02290639  0.13999618  1
  O  O55  1  0.16937246  0.22398507  0.13887877  1
  O  O56  1  0.16766155  0.72709361  0.13999618  1
  O  O57  1  0.16749274  0.03396764  0.63002971  1
  O  O58  1  0.15794012  0.23768583  0.64783988  1
  O  O59  1  0.16937246  0.52601493  0.13887877  1
  O  O60  1  0.16749274  0.71603236  0.63002971  1
  O  O61  1  0.15794012  0.51231417  0.64783988  1
  O  O62  1  0.32077507  0.27552736  0.89208835  1
  O  O63  1  0.32077507  0.47447264  0.89208835  1
  O  O64  1  0.33847035  0.76958120  0.89844885  1
  O  O65  1  0.33497674  0.27253707  0.39463571  1
  O  O66  1  0.33497674  0.47746293  0.39463571  1
  O  O67  1  0.34108649  0.77376281  0.39279137  1
  O  O68  1  0.33847035  0.98041880  0.89844885  1
  O  O69  1  0.34108649  0.97623719  0.39279137  1
  O  O70  1  0.39355828  0.37500000  0.62399838  1
  O  O71  1  0.39924453  0.37500000  0.11996670  1
  O  O72  1  0.42540472  0.87500000  0.61724574  1
  O  O73  1  0.40164686  0.87500000  0.12225859  1
  O  O74  1  0.45735609  0.12740206  0.60594711  1
  O  O75  1  0.45318056  0.12623422  0.09703367  1
  O  O76  1  0.45318056  0.62376578  0.09703367  1
  O  O77  1  0.45735609  0.62259794  0.60594711  1
  O  O78  1  0.54322628  0.37500000  0.40323898  1
  O  O79  1  0.55042358  0.87500000  0.38675820  1
  O  O80  1  0.53497679  0.37500000  0.89283495  1
  O  O81  1  0.54403949  0.87500000  0.90065779  1
  O  O82  1  0.59802044  0.12440700  0.38229271  1
  O  O83  1  0.60251842  0.12653634  0.88115564  1
  O  O84  1  0.59802044  0.62559300  0.38229271  1
  O  O85  1  0.60251842  0.62346366  0.88115564  1
  O  O86  1  0.65794012  0.01231417  0.10216012  1
  O  O87  1  0.66937246  0.02601493  0.61112123  1
  O  O88  1  0.66749274  0.21603236  0.11997029  1
  O  O89  1  0.66766155  0.22709361  0.61000382  1
  O  O90  1  0.66749274  0.53396764  0.11997029  1
  O  O91  1  0.66766155  0.52290639  0.61000382  1
  O  O92  1  0.65794012  0.73768583  0.10216012  1
  O  O93  1  0.66937246  0.72398507  0.61112123  1
  O  O94  1  0.83497674  0.97746293  0.35536429  1
  O  O95  1  0.82077507  0.97447264  0.85791165  1
  O  O96  1  0.83847035  0.26958120  0.85155115  1
  O  O97  1  0.84108649  0.27376281  0.35720863  1
  O  O98  1  0.84108649  0.47623719  0.35720863  1
  O  O99  1  0.83847035  0.48041880  0.85155115  1
  O  O100  1  0.83497674  0.77253707  0.35536429  1
  O  O101  1  0.82077507  0.77552736  0.85791165  1
  O  O102  1  0.89355828  0.87500000  0.12600162  1
  O  O103  1  0.89924453  0.87500000  0.63003330  1
  O  O104  1  0.90164686  0.37500000  0.62774141  1
  O  O105  1  0.92540472  0.37500000  0.13275426  1
  O  O106  1  0.95735609  0.12259794  0.14405289  1
  O  O107  1  0.95318056  0.12376578  0.65296633  1
  O  O108  1  0.95735609  0.62740206  0.14405289  1
  O  O109  1  0.95318056  0.62623422  0.65296633  1
