# generated using pymatgen
data_Li5Mn6(BO3)6
_symmetry_space_group_name_H-M   'P 1'
_cell_length_a   9.34902903
_cell_length_b   5.26762160
_cell_length_c   8.29569735
_cell_angle_alpha   89.04138784
_cell_angle_beta   76.37634340
_cell_angle_gamma   105.78068572
_symmetry_Int_Tables_number   1
_chemical_formula_structural   Li5Mn6(BO3)6
_chemical_formula_sum   'Li5 Mn6 B6 O18'
_cell_volume   380.65178339
_cell_formula_units_Z   1
loop_
 _symmetry_equiv_pos_site_id
 _symmetry_equiv_pos_as_xyz
  1  'x, y, z'
loop_
 _atom_site_type_symbol
 _atom_site_label
 _atom_site_symmetry_multiplicity
 _atom_site_fract_x
 _atom_site_fract_y
 _atom_site_fract_z
 _atom_site_occupancy
  Li  Li0  1  0.70947041  0.01856496  0.36828930  1
  Li  Li1  1  0.63948622  0.66767896  0.95838439  1
  Li  Li2  1  0.35980175  0.33260098  0.04172314  1
  Li  Li3  1  0.30531620  0.99925393  0.62300315  1
  Li  Li4  1  0.02857671  0.66999628  0.70463260  1
  Mn  Mn5  1  0.79221945  0.22036556  0.02971464  1
  Mn  Mn6  1  0.88430111  0.12434641  0.63001834  1
  Mn  Mn7  1  0.54979871  0.45062052  0.30405026  1
  Mn  Mn8  1  0.45771359  0.55979704  0.69288428  1
  Mn  Mn9  1  0.10901879  0.87675487  0.35658708  1
  Mn  Mn10  1  0.21105514  0.77263360  0.97387578  1
  B  B11  1  0.88862763  0.77043477  0.14476667  1
  B  B12  1  0.77383506  0.55983284  0.51842949  1
  B  B13  1  0.44295157  0.89359077  0.18336862  1
  B  B14  1  0.55881749  0.11026079  0.81612886  1
  B  B15  1  0.22214628  0.43518959  0.49159785  1
  B  B16  1  0.11159449  0.22400806  0.84829012  1
  O  O17  1  0.87804405  0.01872443  0.17446140  1
  O  O18  1  0.98909268  0.31041138  0.81891738  1
  O  O19  1  0.89572246  0.74007712  0.56423796  1
  O  O20  1  0.77009376  0.58584568  0.09559141  1
  O  O21  1  0.76523540  0.29944214  0.50728347  1
  O  O22  1  0.65798889  0.65809410  0.48242798  1
  O  O23  1  0.56164455  0.07401670  0.23278807  1
  O  O24  1  0.68281354  0.02514399  0.84261833  1
  O  O25  1  0.45040584  0.64070359  0.15186691  1
  O  O26  1  0.55043763  0.36256498  0.84799094  1
  O  O27  1  0.31949113  0.97757858  0.15582874  1
  O  O28  1  0.43831598  0.92850599  0.76984108  1
  O  O29  1  0.35046284  0.36105038  0.51405722  1
  O  O30  1  0.21386877  0.69042370  0.51174375  1
  O  O31  1  0.22999849  0.40469138  0.89708676  1
  O  O32  1  0.10289601  0.23609626  0.45928048  1
  O  O33  1  0.01359567  0.69515430  0.17064391  1
  O  O34  1  0.11772975  0.97045739  0.81867262  1
