# generated using pymatgen
data_Cr4OF11
_symmetry_space_group_name_H-M   'P 1'
_cell_length_a   5.07503610
_cell_length_b   5.37578898
_cell_length_c   16.99463784
_cell_angle_alpha   91.72441538
_cell_angle_beta   99.20243158
_cell_angle_gamma   61.38705822
_symmetry_Int_Tables_number   1
_chemical_formula_structural   Cr4OF11
_chemical_formula_sum   'Cr8 O2 F22'
_cell_volume   401.21209414
_cell_formula_units_Z   2
loop_
 _symmetry_equiv_pos_site_id
 _symmetry_equiv_pos_as_xyz
  1  'x, y, z'
loop_
 _atom_site_type_symbol
 _atom_site_label
 _atom_site_symmetry_multiplicity
 _atom_site_fract_x
 _atom_site_fract_y
 _atom_site_fract_z
 _atom_site_occupancy
  Cr  Cr0  1  0.77405094  0.61292830  0.12805188  1
  Cr  Cr1  1  0.74406293  0.12872954  0.62473170  1
  Cr  Cr2  1  0.49831870  0.75096915  0.74993532  1
  Cr  Cr3  1  0.48533434  0.25680257  0.24724616  1
  Cr  Cr4  1  0.26513579  0.86799119  0.37739793  1
  Cr  Cr5  1  0.25072250  0.37441691  0.87522169  1
  Cr  Cr6  1  0.97762485  0.51118942  0.49572939  1
  Cr  Cr7  1  0.00514974  0.99703869  0.00109652  1
  O  O8  1  0.68403416  0.65873858  0.40709197  1
  O  O9  1  0.18684701  0.40619538  0.15751224  1
  F  F10  1  0.81612417  0.78367923  0.03405797  1
  F  F11  1  0.74385374  0.93657070  0.18798201  1
  F  F12  1  0.75116479  0.81341698  0.56237102  1
  F  F13  1  0.75855281  0.31336143  0.06303956  1
  F  F14  1  0.68495779  0.96735045  0.71729756  1
  F  F15  1  0.68470522  0.46673835  0.21798251  1
  F  F16  1  0.81230627  0.59359838  0.84365899  1
  F  F17  1  0.82000300  0.08957897  0.34009181  1
  F  F18  1  0.81300289  0.28386961  0.53196250  1
  F  F19  1  0.32581801  0.83637823  0.09339075  1
  F  F20  1  0.74443897  0.43705507  0.68783907  1
  F  F21  1  0.25477489  0.56343596  0.31314185  1
  F  F22  1  0.68887916  0.15551522  0.90732244  1
  F  F23  1  0.18363848  0.90876408  0.65633639  1
  F  F24  1  0.18274109  0.71707862  0.46800786  1
  F  F25  1  0.31331907  0.53362655  0.78251742  1
  F  F26  1  0.30754852  0.34639659  0.58966071  1
  F  F27  1  0.31466878  0.03385253  0.28344526  1
  F  F28  1  0.24634992  0.68598496  0.93785950  1
  F  F29  1  0.24136448  0.18871041  0.43818500  1
  F  F30  1  0.25341697  0.06404993  0.81213713  1
  F  F31  1  0.18708901  0.21598702  0.96769788  1
