# generated using pymatgen
data_Li3Fe2(P2O7)2
_symmetry_space_group_name_H-M   'P 1'
_cell_length_a   9.84873829
_cell_length_b   9.83933115
_cell_length_c   11.15926812
_cell_angle_alpha   90.22298189
_cell_angle_beta   102.02070454
_cell_angle_gamma   89.95872337
_symmetry_Int_Tables_number   1
_chemical_formula_structural   Li3Fe2(P2O7)2
_chemical_formula_sum   'Li12 Fe8 P16 O56'
_cell_volume   1057.66857877
_cell_formula_units_Z   4
loop_
 _symmetry_equiv_pos_site_id
 _symmetry_equiv_pos_as_xyz
  1  'x, y, z'
loop_
 _atom_site_type_symbol
 _atom_site_label
 _atom_site_symmetry_multiplicity
 _atom_site_fract_x
 _atom_site_fract_y
 _atom_site_fract_z
 _atom_site_occupancy
  Li  Li0  1  0.12226349  0.71612161  0.45198210  1
  Li  Li1  1  0.08670292  0.10734949  0.02746238  1
  Li  Li2  1  0.14827116  0.39976827  0.04033094  1
  Li  Li3  1  0.41375608  0.61353935  0.96991044  1
  Li  Li4  1  0.37959293  0.21331895  0.55115657  1
  Li  Li5  1  0.60888248  0.78288303  0.45376984  1
  Li  Li6  1  0.66162857  0.07105554  0.53389752  1
  Li  Li7  1  0.58839796  0.39629769  0.02857555  1
  Li  Li8  1  0.64677114  0.09167326  0.04413716  1
  Li  Li9  1  0.91069356  0.89544790  0.97149123  1
  Li  Li10  1  0.84272010  0.56991136  0.46587368  1
  Li  Li11  1  0.89513836  0.27921320  0.54938549  1
  Fe  Fe12  1  0.21048416  0.92579706  0.67537707  1
  Fe  Fe13  1  0.25167593  0.20791032  0.82152822  1
  Fe  Fe14  1  0.24938516  0.71058623  0.17403550  1
  Fe  Fe15  1  0.29293915  0.42369876  0.33528849  1
  Fe  Fe16  1  0.70596976  0.57510450  0.68512791  1
  Fe  Fe17  1  0.75591127  0.28964194  0.82474060  1
  Fe  Fe18  1  0.74237506  0.78639905  0.16755076  1
  Fe  Fe19  1  0.79988455  0.07095862  0.32300800  1
  P  P20  1  0.02395678  0.45013725  0.75493781  1
  P  P21  1  0.11810539  0.71258096  0.88199096  1
  P  P22  1  0.05887697  0.92378110  0.23991112  1
  P  P23  1  0.12450879  0.14688274  0.42769739  1
  P  P24  1  0.37790398  0.64866314  0.57550990  1
  P  P25  1  0.43961753  0.42695490  0.75948132  1
  P  P26  1  0.52616635  0.05215781  0.75713728  1
  P  P27  1  0.37976036  0.20955202  0.11568615  1
  P  P28  1  0.61978572  0.79653250  0.88214071  1
  P  P29  1  0.47635898  0.95020101  0.24550617  1
  P  P30  1  0.55947310  0.57230557  0.24372300  1
  P  P31  1  0.62003813  0.35301156  0.42687963  1
  P  P32  1  0.88034958  0.84844319  0.57812927  1
  P  P33  1  0.93765317  0.07030245  0.75710182  1
  P  P34  1  0.87918218  0.29305687  0.11244629  1
  P  P35  1  0.97410357  0.55055099  0.24275996  1
  O  O36  1  0.02282869  0.41358126  0.62420473  1
  O  O37  1  0.03106745  0.84063860  0.56169797  1
  O  O38  1  0.08550113  0.08016975  0.72978363  1
  O  O39  1  0.09805973  0.59697074  0.77697901  1
  O  O40  1  0.10875750  0.35936226  0.85529295  1
  O  O41  1  0.18838821  0.82635789  0.82318514  1
  O  O42  1  0.22163507  0.65077796  0.99907044  1
  O  O43  1  0.02110604  0.27162915  0.08389033  1
  O  O44  1  0.12550056  0.06113637  0.30420780  1
  O  O45  1  0.06246512  0.93815508  0.10630380  1
  O  O46  1  0.12736813  0.53245166  0.21610156  1
  O  O47  1  0.19533875  0.28185114  0.40557137  1
  O  O48  1  0.15672183  0.80405384  0.29371436  1
  O  O49  1  0.21653674  0.07169185  0.53454106  1
  O  O50  1  0.28840094  0.57204305  0.46651585  1
  O  O51  1  0.34677433  0.31017825  0.69938425  1
  O  O52  1  0.30664443  0.78421571  0.59095986  1
  O  O53  1  0.37333861  0.03423451  0.77504851  1
  O  O54  1  0.37467397  0.56614683  0.69807036  1
  O  O55  1  0.43903913  0.44078460  0.89380391  1
  O  O56  1  0.48322607  0.76589924  0.91336057  1
  O  O57  1  0.27049629  0.16015735  0.00359923  1
  O  O58  1  0.31715030  0.33195824  0.17481931  1
  O  O59  1  0.39567031  0.09344253  0.21925467  1
  O  O60  1  0.40656045  0.58523570  0.26559608  1
  O  O61  1  0.38357608  0.84620384  0.16027457  1
  O  O62  1  0.46870884  0.34613758  0.44329649  1
  O  O63  1  0.53022360  0.09755174  0.62876409  1
  O  O64  1  0.49035590  0.92458563  0.37970186  1
  O  O65  1  0.53208022  0.66082601  0.56820091  1
  O  O66  1  0.61143599  0.13999929  0.85937741  1
  O  O67  1  0.58791702  0.41811928  0.73002136  1
  O  O68  1  0.59630306  0.90414085  0.76934292  1
  O  O69  1  0.68860545  0.67765860  0.82613669  1
  O  O70  1  0.72241232  0.86547769  0.99034571  1
  O  O71  1  0.51975234  0.23288753  0.08646671  1
  O  O72  1  0.56468119  0.57076754  0.10994415  1
  O  O73  1  0.61222507  0.42446796  0.29548893  1
  O  O74  1  0.61800611  0.96214102  0.20360912  1
  O  O75  1  0.68496249  0.21396612  0.41729823  1
  O  O76  1  0.65925240  0.67760926  0.31626232  1
  O  O77  1  0.71649262  0.44158751  0.52267515  1
  O  O78  1  0.78246842  0.93189621  0.48056232  1
  O  O79  1  0.83628749  0.17625713  0.68646582  1
  O  O80  1  0.81545415  0.70691236  0.58895280  1
  O  O81  1  0.87091635  0.46542774  0.77659862  1
  O  O82  1  0.93300760  0.07128277  0.89139162  1
  O  O83  1  0.88171671  0.92195240  0.70690095  1
  O  O84  1  0.98179770  0.74256872  0.91338672  1
  O  O85  1  0.77338009  0.35152620  0.00281207  1
  O  O86  1  0.81583070  0.16952874  0.16328625  1
  O  O87  1  0.88934348  0.64595573  0.15010221  1
  O  O88  1  0.90028970  0.40334331  0.22414302  1
  O  O89  1  0.91430210  0.90673432  0.26988822  1
  O  O90  1  0.97387112  0.16430116  0.43825014  1
  O  O91  1  0.98125760  0.58574197  0.37584658  1
