# generated using pymatgen
data_Cr4OF11
_symmetry_space_group_name_H-M   'P 1'
_cell_length_a   5.09551058
_cell_length_b   5.34210761
_cell_length_c   16.93325865
_cell_angle_alpha   91.73167952
_cell_angle_beta   98.30173726
_cell_angle_gamma   61.70988521
_symmetry_Int_Tables_number   1
_chemical_formula_structural   Cr4OF11
_chemical_formula_sum   'Cr8 O2 F22'
_cell_volume   401.24219795
_cell_formula_units_Z   2
loop_
 _symmetry_equiv_pos_site_id
 _symmetry_equiv_pos_as_xyz
  1  'x, y, z'
loop_
 _atom_site_type_symbol
 _atom_site_label
 _atom_site_symmetry_multiplicity
 _atom_site_fract_x
 _atom_site_fract_y
 _atom_site_fract_z
 _atom_site_occupancy
  Cr  Cr0  1  0.74507921  0.64279837  0.12864644  1
  Cr  Cr1  1  0.75658615  0.13472117  0.62088706  1
  Cr  Cr2  1  0.50165494  0.75373448  0.74969068  1
  Cr  Cr3  1  0.50896377  0.23156550  0.24648471  1
  Cr  Cr4  1  0.24968839  0.86769472  0.37530479  1
  Cr  Cr5  1  0.24956625  0.37746138  0.87500688  1
  Cr  Cr6  1  0.99212756  0.48738976  0.50281001  1
  Cr  Cr7  1  0.99700453  0.00489471  0.00070116  1
  O  O8  1  0.74664598  0.93755466  0.18734794  1
  O  O9  1  0.81425196  0.28161174  0.53195759  1
  F  F10  1  0.81300255  0.78295956  0.03283447  1
  F  F11  1  0.75470501  0.81298840  0.56280836  1
  F  F12  1  0.75746219  0.31836026  0.06439015  1
  F  F13  1  0.68419402  0.97109576  0.71465063  1
  F  F14  1  0.68501249  0.65746738  0.40875329  1
  F  F15  1  0.68367538  0.46742470  0.21784481  1
  F  F16  1  0.81387504  0.59379417  0.84272561  1
  F  F17  1  0.81378551  0.09052407  0.34170960  1
  F  F18  1  0.31309502  0.84220123  0.09336772  1
  F  F19  1  0.75117988  0.43731588  0.68767341  1
  F  F20  1  0.26230141  0.55555713  0.31096371  1
  F  F21  1  0.68485207  0.15812932  0.90744184  1
  F  F22  1  0.18583782  0.90713038  0.65669679  1
  F  F23  1  0.18327023  0.40808369  0.15760403  1
  F  F24  1  0.17952245  0.71213829  0.46791160  1
  F  F25  1  0.31560258  0.53325586  0.78182564  1
  F  F26  1  0.31718710  0.34273419  0.59316820  1
  F  F27  1  0.31224952  0.03063574  0.28209985  1
  F  F28  1  0.24522209  0.69019417  0.93781601  1
  F  F29  1  0.24350116  0.18592900  0.43792104  1
  F  F30  1  0.25243420  0.06347186  0.81263703  1
  F  F31  1  0.18646352  0.21918246  0.96831696  1
