# generated using pymatgen
data_AgH36S8Br2(N3O4)3
_symmetry_space_group_name_H-M   'P 1'
_cell_length_a   12.52906069
_cell_length_b   12.52906069
_cell_length_c   12.52906069
_cell_angle_alpha   115.85766774
_cell_angle_beta   115.85766774
_cell_angle_gamma   97.33820134
_symmetry_Int_Tables_number   1
_chemical_formula_structural   AgH36S8Br2(N3O4)3
_chemical_formula_sum   'Ag2 H72 S16 Br4 N18 O24'
_cell_volume   1464.77388002
_cell_formula_units_Z   2
loop_
 _symmetry_equiv_pos_site_id
 _symmetry_equiv_pos_as_xyz
  1  'x, y, z'
loop_
 _atom_site_type_symbol
 _atom_site_label
 _atom_site_symmetry_multiplicity
 _atom_site_fract_x
 _atom_site_fract_y
 _atom_site_fract_z
 _atom_site_occupancy
  Ag  Ag0  1  0.00000000  0.00000000  0.00000000  1
  Ag  Ag1  1  0.75000000  0.25000000  0.50000000  1
  H  H2  1  0.80702576  0.09057984  0.10357010  1
  H  H3  1  0.82789171  0.05067994  0.22286291  1
  H  H4  1  0.92218297  0.19932006  0.27721177  1
  H  H5  1  0.79749831  0.33588971  0.02185662  1
  H  H6  1  0.95250169  0.47435831  0.03839140  1
  H  H7  1  0.76298925  0.15942016  0.21644592  1
  H  H8  1  0.69011848  0.27833008  0.04884477  1
  H  H9  1  0.90942016  0.01298925  0.71644592  1
  H  H10  1  0.84057984  0.05702576  0.60357010  1
  H  H11  1  0.27744440  0.18730799  0.00645681  1
  H  H12  1  0.74791004  0.65843438  0.00759884  1
  H  H13  1  0.80067994  0.07789171  0.72286291  1
  H  H14  1  0.94932006  0.17218297  0.77721177  1
  H  H15  1  0.35502880  0.07781703  0.27713709  1
  H  H16  1  0.39497120  0.17210829  0.22278823  1
  H  H17  1  0.52741790  0.46836882  0.06825967  1
  H  H18  1  0.56914882  0.06269201  0.59013641  1
  H  H19  1  0.34156562  0.34916346  0.08947566  1
  H  H20  1  0.93730799  0.52744440  0.50645681  1
  H  H21  1  0.81269201  0.81914882  0.09013641  1
  H  H22  1  0.53163118  0.59988985  0.05904908  1
  H  H23  1  0.45345566  0.23701075  0.39642990  1
  H  H24  1  0.29654434  0.19297424  0.28355408  1
  H  H25  1  0.68853573  0.60854077  0.33230741  1
  H  H26  1  0.93436881  0.93687923  0.39677292  1
  H  H27  1  0.81563119  0.71240511  0.50251142  1
  H  H28  1  0.94297424  0.54654434  0.78355408  1
  H  H29  1  0.39145923  0.72376664  0.07999497  1
  H  H30  1  0.68687923  0.18436881  0.89677292  1
  H  H31  1  0.06312077  0.45989370  0.99748858  1
  H  H32  1  0.92210829  0.64497120  0.72278823  1
  H  H33  1  0.72166992  0.77051469  0.41178840  1
  H  H34  1  0.08588971  0.04749831  0.52185662  1
  H  H35  1  0.66411029  0.68596690  0.46160860  1
  H  H36  1  0.52564169  0.56403310  0.47814338  1
  H  H37  1  0.22435831  0.20250169  0.53839140  1
  H  H38  1  0.39127371  0.47948531  0.45115523  1
  H  H39  1  0.35872629  0.30988152  0.58821160  1
  H  H40  1  0.82781703  0.60502880  0.77713709  1
  H  H41  1  0.46240511  0.06563119  0.00251142  1
  H  H42  1  0.28759489  0.79010630  0.10322708  1
  H  H43  1  0.64377167  0.31146427  0.92000503  1
  H  H44  1  0.10622833  0.52623336  0.16769259  1
  H  H45  1  0.98701075  0.70345566  0.89642990  1
  H  H46  1  0.54010630  0.53759489  0.60322708  1
  H  H47  1  0.20989370  0.31312077  0.49748858  1
  H  H48  1  0.05988152  0.60872629  0.08821160  1
  H  H49  1  0.27623336  0.35622833  0.66769259  1
  H  H50  1  0.47376664  0.64145923  0.57999497  1
  H  H51  1  0.20915823  0.65011015  0.43174033  1
  H  H52  1  0.54084177  0.47258210  0.94095092  1
  H  H53  1  0.02098859  0.43085118  0.49354319  1
  H  H54  1  0.72901141  0.72255560  0.90986359  1
  H  H55  1  0.25968881  0.25208996  0.91052434  1
  H  H56  1  0.49031119  0.90083654  0.49240116  1
  H  H57  1  0.47255560  0.97901141  0.40986359  1
  H  H58  1  0.00208996  0.50968881  0.41052434  1
  H  H59  1  0.40011015  0.45915823  0.93174033  1
  H  H60  1  0.34988985  0.78163118  0.55904908  1
  H  H61  1  0.22258210  0.79084177  0.44095092  1
  H  H62  1  0.09916346  0.59156562  0.58947566  1
  H  H63  1  0.65083654  0.74031119  0.99240116  1
  H  H64  1  0.18085118  0.27098859  0.99354319  1
  H  H65  1  0.40843438  0.99791004  0.50759884  1
  H  H66  1  0.21836882  0.77741790  0.56825967  1
  H  H67  1  0.06146427  0.89377167  0.42000503  1
  H  H68  1  0.52051469  0.97166992  0.91178840  1
  H  H69  1  0.22948531  0.64127371  0.95115523  1
  H  H70  1  0.35854077  0.93853573  0.83230741  1
  H  H71  1  0.43596690  0.91411029  0.96160860  1
  H  H72  1  0.31403310  0.77564169  0.97814338  1
  H  H73  1  0.02833008  0.94011848  0.54884477  1
  S  S74  1  0.99599604  0.22449535  0.05740178  1
  S  S75  1  0.58290643  0.02550465  0.27150070  1
  S  S76  1  0.97449535  0.24599604  0.55740178  1
  S  S77  1  0.06140573  0.00400396  0.22849930  1
  S  S78  1  0.68859427  0.41709357  0.44259822  1
  S  S79  1  0.75400396  0.31140573  0.72849930  1
  S  S80  1  0.77550465  0.83290643  0.77150070  1
  S  S81  1  0.16709357  0.93859427  0.94259822  1
  S  S82  1  0.60369748  0.32851406  0.22977921  1
  S  S83  1  0.62608173  0.39630252  0.72481658  1
  S  S84  1  0.12391827  0.34873586  0.27022079  1
  S  S85  1  0.67148594  0.90126414  0.27518342  1
  S  S86  1  0.14630252  0.87608173  0.22481658  1
  S  S87  1  0.09873586  0.37391827  0.77022079  1
  S  S88  1  0.65126414  0.92148594  0.77518342  1
  S  S89  1  0.07851406  0.85369748  0.72977921  1
  Br  Br90  1  0.87500000  0.61430352  0.23930352  1
  Br  Br91  1  0.38569648  0.62500000  0.26069648  1
  Br  Br92  1  0.36430352  0.12500000  0.73930352  1
  Br  Br93  1  0.37500000  0.63569648  0.76069648  1
  N  N94  1  0.83146542  0.12500000  0.20646542  1
  N  N95  1  0.87500000  0.08146542  0.70646542  1
  N  N96  1  0.26444655  0.26444655  0.00000000  1
  N  N97  1  0.50000000  0.50000000  0.00000000  1
  N  N98  1  0.73555345  0.73555345  0.00000000  1
  N  N99  1  0.37500000  0.16853458  0.29353458  1
  N  N100  1  0.72362583  0.69465603  0.42674027  1
  N  N101  1  0.30534397  0.73208424  0.02896980  1
  N  N102  1  0.91853458  0.62500000  0.79353458  1
  N  N103  1  0.70311444  0.27637417  0.97103020  1
  N  N104  1  0.04688556  0.51791576  0.07325973  1
  N  N105  1  0.48208424  0.55534397  0.52896980  1
  N  N106  1  0.26791576  0.29688556  0.57325973  1
  N  N107  1  0.01444655  0.51444655  0.50000000  1
  N  N108  1  0.48555345  0.98555345  0.50000000  1
  N  N109  1  0.25000000  0.75000000  0.50000000  1
  N  N110  1  0.02637417  0.95311444  0.47103020  1
  N  N111  1  0.44465603  0.97362583  0.92674027  1
  O  O112  1  0.69331965  0.28272221  0.19121023  1
  O  O113  1  0.48152959  0.21496401  0.15213221  1
  O  O114  1  0.57368044  0.42405296  0.19498144  1
  O  O115  1  0.68716819  0.03503599  0.76656458  1
  O  O116  1  0.57594704  0.77092848  0.14962748  1
  O  O117  1  0.25210942  0.34151299  0.30878977  1
  O  O118  1  0.49789058  0.30668035  0.58940256  1
  O  O119  1  0.96496401  0.73152959  0.65213221  1
  O  O120  1  0.78503599  0.93716819  0.26656458  1
  O  O121  1  0.07939638  0.31283181  0.34786779  1
  O  O122  1  0.67060362  0.51847041  0.73343542  1
  O  O123  1  0.71727779  0.90848701  0.41059744  1
  O  O124  1  0.62130100  0.42631956  0.85037252  1
  O  O125  1  0.12869900  0.47907152  0.30501856  1
  O  O126  1  0.05668035  0.74789058  0.08940256  1
  O  O127  1  0.26847041  0.92060362  0.23343542  1
  O  O128  1  0.22907152  0.37869900  0.80501856  1
  O  O129  1  0.52092848  0.82594704  0.64962748  1
  O  O130  1  0.17631956  0.87130100  0.35037252  1
  O  O131  1  0.06283181  0.32939638  0.84786779  1
  O  O132  1  0.09151299  0.50210942  0.80878977  1
  O  O133  1  0.65848701  0.96727779  0.91059744  1
  O  O134  1  0.17405296  0.82368044  0.69498144  1
  O  O135  1  0.03272221  0.94331965  0.69121023  1
