# generated using pymatgen
data_LiMnP3HO10
_symmetry_space_group_name_H-M   'P 1'
_cell_length_a   12.52170006
_cell_length_b   5.01687474
_cell_length_c   14.58133004
_cell_angle_alpha   90.00000000
_cell_angle_beta   90.00000000
_cell_angle_gamma   90.00000000
_symmetry_Int_Tables_number   1
_chemical_formula_structural   LiMnP3HO10
_chemical_formula_sum   'Li4 Mn4 P12 H4 O40'
_cell_volume   915.99624753
_cell_formula_units_Z   4
loop_
 _symmetry_equiv_pos_site_id
 _symmetry_equiv_pos_as_xyz
  1  'x, y, z'
loop_
 _atom_site_type_symbol
 _atom_site_label
 _atom_site_symmetry_multiplicity
 _atom_site_fract_x
 _atom_site_fract_y
 _atom_site_fract_z
 _atom_site_occupancy
  Li  Li0  1  0.20820593  0.14815545  0.04089942  1
  Li  Li1  1  0.29179307  0.14815545  0.54089942  1
  Li  Li2  1  0.70820593  0.85184455  0.04089942  1
  Li  Li3  1  0.79179407  0.85184455  0.54089942  1
  Mn  Mn4  1  0.16249576  0.98435432  0.73669547  1
  Mn  Mn5  1  0.33750424  0.98435432  0.23669547  1
  Mn  Mn6  1  0.66249576  0.01564568  0.73669547  1
  Mn  Mn7  1  0.83750424  0.01564568  0.23669547  1
  P  P8  1  0.08519478  0.25261748  0.22986158  1
  P  P9  1  0.08214543  0.48075233  0.61977793  1
  P  P10  1  0.25632686  0.48408620  0.35373233  1
  P  P11  1  0.24367314  0.48408620  0.85373233  1
  P  P12  1  0.41785457  0.48075233  0.11977793  1
  P  P13  1  0.41480522  0.25261748  0.72986158  1
  P  P14  1  0.58519478  0.74738252  0.22986158  1
  P  P15  1  0.58214543  0.51924767  0.61977793  1
  P  P16  1  0.75632686  0.51591380  0.35373233  1
  P  P17  1  0.74367314  0.51591380  0.85373233  1
  P  P18  1  0.91785457  0.51924767  0.11977793  1
  P  P19  1  0.91480522  0.74738252  0.72986158  1
  H  H20  1  0.12452346  0.50213000  0.48149568  1
  H  H21  1  0.37547654  0.50213000  0.98149568  1
  H  H22  1  0.62452346  0.49787000  0.48149568  1
  H  H23  1  0.87547654  0.49787000  0.98149568  1
  O  O24  1  0.03100722  0.48683446  0.16819668  1
  O  O25  1  0.00086760  0.91022061  0.77383366  1
  O  O26  1  0.05584591  0.54457956  0.51737599  1
  O  O27  1  0.14094565  0.43177566  0.30606936  1
  O  O28  1  0.11685920  0.18888722  0.62588261  1
  O  O29  1  0.16798621  0.11714693  0.17082306  1
  O  O30  1  0.16007779  0.30750183  0.80747167  1
  O  O31  1  0.16581052  0.67248128  0.65811887  1
  O  O32  1  0.24006653  0.41508420  0.45428264  1
  O  O33  1  0.22239337  0.78400143  0.84092006  1
  O  O34  1  0.27760663  0.78400143  0.34092006  1
  O  O35  1  0.25993347  0.41508420  0.95428264  1
  O  O36  1  0.33418948  0.67248128  0.15811887  1
  O  O37  1  0.33992221  0.30750183  0.30747167  1
  O  O38  1  0.33201379  0.11714693  0.67082306  1
  O  O39  1  0.38314080  0.18888722  0.12588261  1
  O  O40  1  0.35905435  0.43177566  0.80606936  1
  O  O41  1  0.44415409  0.54457956  0.01737599  1
  O  O42  1  0.49913240  0.91022061  0.27383366  1
  O  O43  1  0.46899278  0.48683446  0.66819668  1
  O  O44  1  0.53100722  0.51316554  0.16819668  1
  O  O45  1  0.50086760  0.08977939  0.77383366  1
  O  O46  1  0.55584591  0.45542044  0.51737599  1
  O  O47  1  0.64094565  0.56822434  0.30606936  1
  O  O48  1  0.61685920  0.81111278  0.62588261  1
  O  O49  1  0.66798621  0.88285307  0.17082306  1
  O  O50  1  0.66007779  0.69249817  0.80747167  1
  O  O51  1  0.66581052  0.32751872  0.65811887  1
  O  O52  1  0.74006653  0.58491580  0.45428264  1
  O  O53  1  0.72239337  0.21599857  0.84092006  1
  O  O54  1  0.77760663  0.21599857  0.34092006  1
  O  O55  1  0.75993347  0.58491580  0.95428264  1
  O  O56  1  0.83418948  0.32751872  0.15811887  1
  O  O57  1  0.83992221  0.69249817  0.30747167  1
  O  O58  1  0.83201379  0.88285307  0.67082306  1
  O  O59  1  0.88314080  0.81111278  0.12588261  1
  O  O60  1  0.85905435  0.56822434  0.80606936  1
  O  O61  1  0.94415409  0.45542044  0.01737599  1
  O  O62  1  0.99913240  0.08977939  0.27383366  1
  O  O63  1  0.96899278  0.51316554  0.66819668  1
