# generated using pymatgen
data_Mn6OF11
_symmetry_space_group_name_H-M   'P 1'
_cell_length_a   4.96430523
_cell_length_b   5.88844498
_cell_length_c   16.22087691
_cell_angle_alpha   90.00000000
_cell_angle_beta   90.00000000
_cell_angle_gamma   89.29102133
_symmetry_Int_Tables_number   1
_chemical_formula_structural   Mn6OF11
_chemical_formula_sum   'Mn12 O2 F22'
_cell_volume   474.13299201
_cell_formula_units_Z   2
loop_
 _symmetry_equiv_pos_site_id
 _symmetry_equiv_pos_as_xyz
  1  'x, y, z'
loop_
 _atom_site_type_symbol
 _atom_site_label
 _atom_site_symmetry_multiplicity
 _atom_site_fract_x
 _atom_site_fract_y
 _atom_site_fract_z
 _atom_site_occupancy
  Mn  Mn0  1  0.00985950  0.14366979  0.41844546  1
  Mn  Mn1  1  0.01111625  0.82929256  0.24595281  1
  Mn  Mn2  1  0.98118971  0.18708847  0.07909927  1
  Mn  Mn3  1  0.00552351  0.16923526  0.75105975  1
  Mn  Mn4  1  0.01369518  0.83283622  0.57811992  1
  Mn  Mn5  1  0.99424009  0.83024460  0.91793046  1
  Mn  Mn6  1  0.49424009  0.33024460  0.58206954  1
  Mn  Mn7  1  0.51369518  0.33283622  0.92188008  1
  Mn  Mn8  1  0.51111625  0.32929256  0.25404719  1
  Mn  Mn9  1  0.50985950  0.64366979  0.08155454  1
  Mn  Mn10  1  0.48118971  0.68708847  0.42090073  1
  Mn  Mn11  1  0.50552351  0.66923526  0.74894025  1
  O  O12  1  0.20898115  0.91046841  0.46813273  1
  O  O13  1  0.70898115  0.41046841  0.03186727  1
  F  F14  1  0.22413147  0.10974819  0.30721588  1
  F  F15  1  0.23446572  0.10566755  0.64166350  1
  F  F16  1  0.21275878  0.11463192  0.97313922  1
  F  F17  1  0.25070599  0.87426973  0.13450177  1
  F  F18  1  0.22887652  0.88970954  0.80803287  1
  F  F19  1  0.26820588  0.39169005  0.14391365  1
  F  F20  1  0.28277847  0.60811931  0.30672202  1
  F  F21  1  0.25935448  0.39212430  0.47008189  1
  F  F22  1  0.26629191  0.60268418  0.64064110  1
  F  F23  1  0.27854493  0.39135809  0.81119840  1
  F  F24  1  0.26928046  0.61716384  0.97848810  1
  F  F25  1  0.72413147  0.60974819  0.19278412  1
  F  F26  1  0.75070599  0.37426973  0.36549823  1
  F  F27  1  0.71275878  0.61463192  0.52686078  1
  F  F28  1  0.73446572  0.60566755  0.85833650  1
  F  F29  1  0.72887652  0.38970954  0.69196713  1
  F  F30  1  0.78277847  0.10811931  0.19327798  1
  F  F31  1  0.76928046  0.11716384  0.52151190  1
  F  F32  1  0.76820588  0.89169005  0.35608635  1
  F  F33  1  0.75935448  0.89212430  0.02991811  1
  F  F34  1  0.76629191  0.10268418  0.85935890  1
  F  F35  1  0.77854493  0.89135809  0.68880160  1
