# generated using pymatgen
data_HoBO3
_symmetry_space_group_name_H-M   'P 1'
_cell_length_a   6.39136893
_cell_length_b   6.38944315
_cell_length_c   6.13236271
_cell_angle_alpha   107.52607276
_cell_angle_beta   108.23586223
_cell_angle_gamma   92.76987114
_symmetry_Int_Tables_number   1
_chemical_formula_structural   HoBO3
_chemical_formula_sum   'Ho4 B4 O12'
_cell_volume   223.98313971
_cell_formula_units_Z   4
loop_
 _symmetry_equiv_pos_site_id
 _symmetry_equiv_pos_as_xyz
  1  'x, y, z'
loop_
 _atom_site_type_symbol
 _atom_site_label
 _atom_site_symmetry_multiplicity
 _atom_site_fract_x
 _atom_site_fract_y
 _atom_site_fract_z
 _atom_site_occupancy
  Ho  Ho0  1  0.21864050  0.81496101  0.43936292  1
  Ho  Ho1  1  0.34504532  0.27045917  0.05660223  1
  Ho  Ho2  1  0.65495468  0.72954083  0.94339777  1
  Ho  Ho3  1  0.78135950  0.18503899  0.56063708  1
  B  B4  1  0.21246257  0.75859972  0.97616150  1
  B  B5  1  0.27100892  0.27917861  0.49302541  1
  B  B6  1  0.72899208  0.72082139  0.50697459  1
  B  B7  1  0.78753743  0.24140028  0.02383850  1
  O  O8  1  0.16209021  0.20040521  0.62304945  1
  O  O9  1  0.02120363  0.76860909  0.03102679  1
  O  O10  1  0.28340970  0.87495485  0.84775250  1
  O  O11  1  0.26669344  0.47988143  0.45928333  1
  O  O12  1  0.38473865  0.12759047  0.37285634  1
  O  O13  1  0.36676213  0.64146099  0.08964496  1
  O  O14  1  0.63323787  0.35853901  0.91035504  1
  O  O15  1  0.61526135  0.87240953  0.62714366  1
  O  O16  1  0.73330656  0.52011857  0.54071667  1
  O  O17  1  0.71659030  0.12504515  0.15224750  1
  O  O18  1  0.97879637  0.23139091  0.96897321  1
  O  O19  1  0.83790979  0.79959479  0.37695055  1
