# generated using pymatgen
data_LiVF4
_symmetry_space_group_name_H-M   'P 1'
_cell_length_a   3.99738415
_cell_length_b   6.71346374
_cell_length_c   6.58787680
_cell_angle_alpha   73.18732308
_cell_angle_beta   90.03616564
_cell_angle_gamma   72.70084500
_symmetry_Int_Tables_number   1
_chemical_formula_structural   LiVF4
_chemical_formula_sum   'Li2 V2 F8'
_cell_volume   160.85412920
_cell_formula_units_Z   2
loop_
 _symmetry_equiv_pos_site_id
 _symmetry_equiv_pos_as_xyz
  1  'x, y, z'
loop_
 _atom_site_type_symbol
 _atom_site_label
 _atom_site_symmetry_multiplicity
 _atom_site_fract_x
 _atom_site_fract_y
 _atom_site_fract_z
 _atom_site_occupancy
  Li  Li0  1  0.19952387  0.60533317  0.80124516  1
  Li  Li1  1  0.80331987  0.39552314  0.19735118  1
  V  V2  1  0.11011916  0.78107390  0.20563415  1
  V  V3  1  0.88867694  0.21871119  0.79379761  1
  F  F4  1  0.05991771  0.88941556  0.87455891  1
  F  F5  1  0.14499518  0.72321503  0.50099321  1
  F  F6  1  0.74642493  0.50340753  0.84294902  1
  F  F7  1  0.62472562  0.75388726  0.19966972  1
  F  F8  1  0.37602172  0.24634657  0.79960713  1
  F  F9  1  0.25135028  0.49583140  0.15800249  1
  F  F10  1  0.86380342  0.27745358  0.49829032  1
  F  F11  1  0.94648631  0.11015967  0.12468810  1
