# generated using pymatgen
data_LiMnP2(HO4)2
_symmetry_space_group_name_H-M   'P 1'
_cell_length_a   9.47673605
_cell_length_b   9.47673605
_cell_length_c   8.84384387
_cell_angle_alpha   72.41213420
_cell_angle_beta   107.58786580
_cell_angle_gamma   65.67361876
_symmetry_Int_Tables_number   1
_chemical_formula_structural   LiMnP2(HO4)2
_chemical_formula_sum   'Li4 Mn4 P8 H8 O32'
_cell_volume   600.94838056
_cell_formula_units_Z   4
loop_
 _symmetry_equiv_pos_site_id
 _symmetry_equiv_pos_as_xyz
  1  'x, y, z'
loop_
 _atom_site_type_symbol
 _atom_site_label
 _atom_site_symmetry_multiplicity
 _atom_site_fract_x
 _atom_site_fract_y
 _atom_site_fract_z
 _atom_site_occupancy
  Li  Li0  1  0.21654406  0.12514786  0.65214103  1
  Li  Li1  1  0.78996130  0.59696878  0.69064494  1
  Li  Li2  1  0.87485214  0.78345594  0.15214103  1
  Li  Li3  1  0.40303122  0.21003870  0.19064494  1
  Mn  Mn4  1  0.58525048  0.63659033  0.96315547  1
  Mn  Mn5  1  0.36340967  0.41474952  0.46315547  1
  Mn  Mn6  1  0.85733663  0.86401745  0.49101732  1
  Mn  Mn7  1  0.13598255  0.14266337  0.99101732  1
  P  P8  1  0.14951972  0.83809321  0.83949037  1
  P  P9  1  0.58139375  0.95743411  0.68740434  1
  P  P10  1  0.16190679  0.85048028  0.33949037  1
  P  P11  1  0.18455572  0.43328058  0.74660590  1
  P  P12  1  0.04256589  0.41860725  0.18740434  1
  P  P13  1  0.56671942  0.81544428  0.24660590  1
  P  P14  1  0.69329456  0.35277628  0.81351635  1
  P  P15  1  0.64722372  0.30670544  0.31351635  1
  H  H16  1  0.33136976  0.51149963  0.90790413  1
  H  H17  1  0.35119768  0.78367600  0.60113445  1
  H  H18  1  0.48850037  0.66863024  0.40790413  1
  H  H19  1  0.21632400  0.64880232  0.10113445  1
  H  H20  1  0.68011588  0.08630126  0.81075528  1
  H  H21  1  0.87547679  0.13811280  0.58225746  1
  H  H22  1  0.91369874  0.31988412  0.31075528  1
  H  H23  1  0.86188720  0.12452321  0.08225746  1
  O  O24  1  0.15816904  0.99531365  0.83924380  1
  O  O25  1  0.10783679  0.75572323  0.99132506  1
  O  O26  1  0.98295541  0.91988653  0.65360832  1
  O  O27  1  -0.00008972  0.60122358  0.67104916  1
  O  O28  1  0.31929460  0.68783389  0.86622547  1
  O  O29  1  0.00468635  0.84183096  0.33924380  1
  O  O30  1  0.24427677  0.89216321  0.49132506  1
  O  O31  1  0.70561716  0.96434596  0.85393195  1
  O  O32  1  0.08011347  0.01704459  0.15360832  1
  O  O33  1  0.49414366  0.86876662  0.76619484  1
  O  O34  1  0.32444240  0.40200074  0.92784637  1
  O  O35  1  0.17703456  0.26614080  0.80246854  1
  O  O36  1  0.24839310  0.44760956  0.60868953  1
  O  O37  1  0.39877642  0.00008972  0.17104916  1
  O  O38  1  0.69429085  0.85025152  0.62326965  1
  O  O39  1  0.31216611  0.68070540  0.36622547  1
  O  O40  1  0.58058121  0.54128025  0.78528164  1
  O  O41  1  0.03565404  0.29438284  0.35393195  1
  O  O42  1  0.13123338  0.50585634  0.26619484  1
  O  O43  1  0.59799926  0.67555760  0.42784637  1
  O  O44  1  0.73223210  0.20245726  0.99095442  1
  O  O45  1  0.73385920  0.82296544  0.30246854  1
  O  O46  1  0.59297430  0.32702156  0.66143403  1
  O  O47  1  0.55239044  0.75160690  0.10868953  1
  O  O48  1  0.14974848  0.30570915  0.12326965  1
  O  O49  1  0.43094590  0.14921217  0.54031755  1
  O  O50  1  0.45871975  0.41941879  0.28528164  1
  O  O51  1  0.86996629  0.32564640  0.82502761  1
  O  O52  1  0.79754274  0.26776790  0.49095442  1
  O  O53  1  0.67297844  0.40702570  0.16143403  1
  O  O54  1  0.85078783  0.56905410  0.04031755  1
  O  O55  1  0.67435360  0.13003371  0.32502761  1
