# generated using pymatgen
data_Li5Mn6(BO3)6
_symmetry_space_group_name_H-M   'P 1'
_cell_length_a   8.21677924
_cell_length_b   12.65352668
_cell_length_c   8.85616187
_cell_angle_alpha   109.91970944
_cell_angle_beta   117.65368213
_cell_angle_gamma   71.40151847
_symmetry_Int_Tables_number   1
_chemical_formula_structural   Li5Mn6(BO3)6
_chemical_formula_sum   'Li10 Mn12 B12 O36'
_cell_volume   752.37575981
_cell_formula_units_Z   2
loop_
 _symmetry_equiv_pos_site_id
 _symmetry_equiv_pos_as_xyz
  1  'x, y, z'
loop_
 _atom_site_type_symbol
 _atom_site_label
 _atom_site_symmetry_multiplicity
 _atom_site_fract_x
 _atom_site_fract_y
 _atom_site_fract_z
 _atom_site_occupancy
  Li  Li0  1  0.29505612  0.30898472  0.59386221  1
  Li  Li1  1  0.30378514  0.55389817  0.83729105  1
  Li  Li2  1  0.97765558  0.19696354  0.89971804  1
  Li  Li3  1  0.29953854  0.80284023  0.07733359  1
  Li  Li4  1  0.71544037  0.37454697  0.39154454  1
  Li  Li5  1  0.70712216  0.12307087  0.13524351  1
  Li  Li6  1  0.71714881  0.86764664  0.88465847  1
  Li  Li7  1  0.72702160  0.61822610  0.63940036  1
  Li  Li8  1  0.98181044  0.95026299  0.64684087  1
  Li  Li9  1  0.98941171  0.70276551  0.40846661  1
  Mn  Mn10  1  0.01593806  0.40269494  0.80279971  1
  Mn  Mn11  1  0.01825307  0.15962584  0.52172577  1
  Mn  Mn12  1  0.61772762  0.09031731  0.72029727  1
  Mn  Mn13  1  0.63234544  0.34141705  0.97719808  1
  Mn  Mn14  1  0.01508311  0.65720937  0.03287896  1
  Mn  Mn15  1  0.02431848  0.91524165  0.27189133  1
  Mn  Mn16  1  0.34440715  0.25052501  0.24840036  1
  Mn  Mn17  1  0.34506322  0.50106683  0.47732844  1
  Mn  Mn18  1  0.35712223  0.00136072  0.00114528  1
  Mn  Mn19  1  0.36441342  0.75097452  0.74007962  1
  Mn  Mn20  1  0.61249306  0.84355654  0.46838306  1
  Mn  Mn21  1  0.65055008  0.58719965  0.22876501  1
  B  B22  1  0.00849241  0.50111257  0.51927056  1
  B  B23  1  0.32648107  0.20949658  0.88134685  1
  B  B24  1  0.33485493  0.95449282  0.62442621  1
  B  B25  1  0.66458198  0.54171106  0.86047505  1
  B  B26  1  0.33886715  0.71189112  0.37346058  1
  B  B27  1  0.66338108  0.29712217  0.62592967  1
  B  B28  1  0.67487606  0.03602427  0.37421600  1
  B  B29  1  0.33845906  0.45417329  0.12292287  1
  B  B30  1  0.98671308  0.25109978  0.25039299  1
  B  B31  1  0.98600244  0.99731258  0.98419428  1
  B  B32  1  0.99749537  0.75023305  0.74806674  1
  B  B33  1  0.67715095  0.79508544  0.13363912  1
  O  O34  1  0.24712141  0.17652826  0.96090272  1
  O  O35  1  0.22562896  0.01052987  0.49197657  1
  O  O36  1  0.20959151  0.27145421  0.74803244  1
  O  O37  1  0.21714282  0.49708298  0.96944820  1
  O  O38  1  0.17658735  0.23743474  0.35188742  1
  O  O39  1  0.20331509  0.47167744  0.59653552  1
  O  O40  1  0.19253448  0.71726425  0.82563770  1
  O  O41  1  0.51668503  0.18464093  0.92532436  1
  O  O42  1  0.26202422  0.92656190  0.71584225  1
  O  O43  1  0.57898612  0.26346898  0.70147743  1
  O  O44  1  0.25835947  0.67951287  0.45290372  1
  O  O45  1  0.58730092  0.51886193  0.95251240  1
  O  O46  1  0.26296555  0.42209232  0.20459934  1
  O  O47  1  0.60568557  0.99659376  0.45945373  1
  O  O48  1  0.55355099  0.58990694  0.71776149  1
  O  O49  1  0.22987755  0.75624710  0.22569688  1
  O  O50  1  0.55459619  0.08864974  0.23750589  1
  O  O51  1  0.55880213  0.34226676  0.48084686  1
  O  O52  1  0.56416544  0.83804793  0.98625212  1
  O  O53  1  0.90762313  0.04817654  0.84204454  1
  O  O54  1  0.17585966  0.95689585  0.05724305  1
  O  O55  1  0.53171742  0.92363521  0.66986870  1
  O  O56  1  0.86093971  0.28170796  0.70013463  1
  O  O57  1  0.53586558  0.70074736  0.44336956  1
  O  O58  1  0.85924498  0.51995391  0.91425247  1
  O  O59  1  0.86689135  0.02242151  0.43536657  1
  O  O60  1  0.53052976  0.44618099  0.18331010  1
  O  O61  1  0.86756521  0.23327555  0.31002697  1
  O  O62  1  0.89974779  0.47263807  0.57823135  1
  O  O63  1  0.88936707  0.73010007  0.81516000  1
  O  O64  1  0.59051446  0.77075257  0.22054166  1
  O  O65  1  0.91002939  0.28075530  0.09182134  1
  O  O66  1  0.92523040  0.56172346  0.39002462  1
  O  O67  1  0.91139040  0.80193526  0.60608711  1
  O  O68  1  0.86970947  0.77218883  0.19593271  1
  O  O69  1  0.87010838  0.98385675  0.05063452  1
