# generated using pymatgen
data_Li5Mn6(BO3)6
_symmetry_space_group_name_H-M   'P 1'
_cell_length_a   10.47346929
_cell_length_b   8.81138774
_cell_length_c   8.87269048
_cell_angle_alpha   107.88670250
_cell_angle_beta   98.84830308
_cell_angle_gamma   98.50440904
_symmetry_Int_Tables_number   1
_chemical_formula_structural   Li5Mn6(BO3)6
_chemical_formula_sum   'Li10 Mn12 B12 O36'
_cell_volume   753.21245433
_cell_formula_units_Z   2
loop_
 _symmetry_equiv_pos_site_id
 _symmetry_equiv_pos_as_xyz
  1  'x, y, z'
loop_
 _atom_site_type_symbol
 _atom_site_label
 _atom_site_symmetry_multiplicity
 _atom_site_fract_x
 _atom_site_fract_y
 _atom_site_fract_z
 _atom_site_occupancy
  Li  Li0  1  0.18924600  0.20745686  0.91372467  1
  Li  Li1  1  0.20587250  0.90630515  0.18788036  1
  Li  Li2  1  0.22731618  0.50580368  0.52274764  1
  Li  Li3  1  0.43875625  0.45543118  0.15257105  1
  Li  Li4  1  0.45258100  0.15252647  0.43720060  1
  Li  Li5  1  0.69002978  0.70385799  0.40586475  1
  Li  Li6  1  0.70492606  0.39945988  0.68357016  1
  Li  Li7  1  0.73379973  0.01361152  0.02882170  1
  Li  Li8  1  0.95330047  0.65989287  0.93866133  1
  Li  Li9  1  0.98123636  0.25889027  0.27885883  1
  Mn  Mn10  1  0.18963135  0.82010442  0.80552676  1
  Mn  Mn11  1  0.15192448  0.52363652  0.16745315  1
  Mn  Mn12  1  0.15574435  0.14649576  0.53765757  1
  Mn  Mn13  1  0.41045875  0.76933639  0.42527883  1
  Mn  Mn14  1  0.41430368  0.41809911  0.76744370  1
  Mn  Mn15  1  0.43648999  0.06887327  0.06017336  1
  Mn  Mn16  1  0.65994103  0.01543339  0.66540165  1
  Mn  Mn17  1  0.66001771  0.65502270  0.02241131  1
  Mn  Mn18  1  0.68500720  0.32311106  0.30773755  1
  Mn  Mn19  1  0.90540090  0.27175989  0.90884867  1
  Mn  Mn20  1  0.90915214  0.89931095  0.27756079  1
  Mn  Mn21  1  0.92627895  0.59101569  0.56426224  1
  B  B22  1  0.12400403  0.46404681  0.79169253  1
  B  B23  1  0.13342907  0.79741819  0.47166829  1
  B  B24  1  0.00507888  0.00286714  0.00608529  1
  B  B25  1  0.25094466  0.24626217  0.25372545  1
  B  B26  1  0.36281678  0.70719191  0.04491414  1
  B  B27  1  0.36694600  0.04124729  0.70251517  1
  B  B28  1  0.49900239  0.48983516  0.48715564  1
  B  B29  1  0.62279754  0.29020562  0.95205353  1
  B  B30  1  0.62480133  0.95767401  0.29289257  1
  B  B31  1  0.74917812  0.74416192  0.75278268  1
  B  B32  1  0.88177944  0.21911866  0.54099439  1
  B  B33  1  0.87754597  0.54221289  0.20654512  1
  O  O34  1  0.07305010  0.87362947  0.98437482  1
  O  O35  1  0.05811371  0.47903886  0.91559667  1
  O  O36  1  0.01901983  0.10533742  0.91817808  1
  O  O37  1  0.07373425  0.81496022  0.60478133  1
  O  O38  1  0.12710636  0.57428528  0.70746806  1
  O  O39  1  0.12416934  0.90944402  0.38884694  1
  O  O40  1  0.19171851  0.33652013  0.74738182  1
  O  O41  1  0.19973277  0.67334042  0.42325481  1
  O  O42  1  0.17201745  0.27517026  0.36925720  1
  O  O43  1  0.34381830  0.81260860  0.95671455  1
  O  O44  1  0.29557807  0.04337463  0.82559727  1
  O  O45  1  0.30276739  0.72229616  0.17540193  1
  O  O46  1  0.25932407  0.33972479  0.15200648  1
  O  O47  1  0.45184903  0.94010516  0.66859219  1
  O  O48  1  0.34618916  0.14754752  0.61349008  1
  O  O49  1  0.41239536  0.51841882  0.58948780  1
  O  O50  1  0.32194040  0.12275285  0.23826962  1
  O  O51  1  0.44094123  0.59361341  0.00476878  1
  O  O52  1  0.55368790  0.97413307  0.41392213  1
  O  O53  1  0.51113096  0.57826331  0.38155194  1
  O  O54  1  0.61148839  0.39575541  0.86358167  1
  O  O55  1  0.57231515  0.36877387  0.48476826  1
  O  O56  1  0.68971899  0.79481851  0.88224596  1
  O  O57  1  0.55227642  0.29872284  0.07465534  1
  O  O58  1  0.74390923  0.81537200  0.63413810  1
  O  O59  1  0.70018694  0.83858085  0.26318585  1
  O  O60  1  0.70420462  0.17824257  0.91994616  1
  O  O61  1  0.62185467  0.05887714  0.19916245  1
  O  O62  1  0.81854038  0.61636326  0.74155737  1
  O  O63  1  0.80948351  0.21996922  0.65830196  1
  O  O64  1  0.80762537  0.55607861  0.32992840  1
  O  O65  1  0.87418290  0.32455011  0.45399361  1
  O  O66  1  0.87171925  0.64949939  0.12045252  1
  O  O67  1  0.95253362  0.42327711  0.17077375  1
  O  O68  1  0.96440438  0.10701368  0.50190738  1
  O  O69  1  0.92659692  0.03098923  0.12253227  1
