# generated using pymatgen
data_LiVP2HO8
_symmetry_space_group_name_H-M   'P 1'
_cell_length_a   9.73010837
_cell_length_b   7.98595635
_cell_length_c   7.74047582
_cell_angle_alpha   90.00000000
_cell_angle_beta   68.24603074
_cell_angle_gamma   90.00000000
_symmetry_Int_Tables_number   1
_chemical_formula_structural   LiVP2HO8
_chemical_formula_sum   'Li4 V4 P8 H4 O32'
_cell_volume   558.63344915
_cell_formula_units_Z   4
loop_
 _symmetry_equiv_pos_site_id
 _symmetry_equiv_pos_as_xyz
  1  'x, y, z'
loop_
 _atom_site_type_symbol
 _atom_site_label
 _atom_site_symmetry_multiplicity
 _atom_site_fract_x
 _atom_site_fract_y
 _atom_site_fract_z
 _atom_site_occupancy
  Li  Li0  1  0.22742712  0.37018621  0.64877146  1
  Li  Li1  1  0.27257288  0.87018621  0.85122854  1
  Li  Li2  1  0.72190105  0.13165944  0.14786670  1
  Li  Li3  1  0.77809895  0.63165944  0.35213330  1
  V  V4  1  0.24693947  0.49583308  0.01344039  1
  V  V5  1  0.25306053  0.99583308  0.48655961  1
  V  V6  1  0.75120987  0.50493596  0.99264311  1
  V  V7  1  0.74879013  0.00493596  0.50735689  1
  P  P8  1  0.06613302  0.84639149  0.23132228  1
  P  P9  1  0.06793479  0.65309178  0.73657298  1
  P  P10  1  0.43386698  0.34639149  0.26867772  1
  P  P11  1  0.56895389  0.85009341  0.23172903  1
  P  P12  1  0.43206521  0.15309178  0.76342702  1
  P  P13  1  0.56548690  0.65773635  0.73755607  1
  P  P14  1  0.93104611  0.35009341  0.26827097  1
  P  P15  1  0.93451310  0.15773635  0.76244393  1
  H  H16  1  0.00861635  0.50765169  0.50815248  1
  H  H17  1  0.50856752  0.50635078  0.50976902  1
  H  H18  1  0.49138365  0.00765169  0.99184752  1
  H  H19  1  0.99143248  0.00635078  0.99023098  1
  O  O20  1  0.09174730  0.94184868  0.05127207  1
  O  O21  1  0.09577654  0.33012034  0.13887651  1
  O  O22  1  0.13959760  0.67291067  0.18379833  1
  O  O23  1  0.14039808  0.94372020  0.35113020  1
  O  O24  1  0.09492848  0.54805999  0.55876166  1
  O  O25  1  0.10083666  0.17436982  0.64429738  1
  O  O26  1  0.14545942  0.82419185  0.68809067  1
  O  O27  1  0.14686941  0.54970254  0.84600586  1
  O  O28  1  0.35960192  0.44372020  0.14886980  1
  O  O29  1  0.36040240  0.17291067  0.31620167  1
  O  O30  1  0.40422346  0.83012034  0.36112449  1
  O  O31  1  0.40825270  0.44184868  0.44872793  1
  O  O32  1  0.35313059  0.04970254  0.65399414  1
  O  O33  1  0.35454058  0.32419185  0.81190933  1
  O  O34  1  0.59310051  0.95462164  0.05879193  1
  O  O35  1  0.59969646  0.32863703  0.14368674  1
  O  O36  1  0.39916334  0.67436982  0.85570262  1
  O  O37  1  0.40507152  0.04805999  0.94123834  1
  O  O38  1  0.64564915  0.67724618  0.18934166  1
  O  O39  1  0.64711892  0.95119172  0.34679801  1
  O  O40  1  0.59422160  0.56006823  0.55373900  1
  O  O41  1  0.59692493  0.17119479  0.64026569  1
  O  O42  1  0.64166891  0.82788995  0.68293829  1
  O  O43  1  0.63870613  0.55814519  0.85443008  1
  O  O44  1  0.85288108  0.45119172  0.15320199  1
  O  O45  1  0.85435085  0.17724618  0.31065834  1
  O  O46  1  0.90030354  0.82863703  0.35631326  1
  O  O47  1  0.90689949  0.45462164  0.44120807  1
  O  O48  1  0.86129387  0.05814519  0.64556992  1
  O  O49  1  0.85833109  0.32788995  0.81706171  1
  O  O50  1  0.90307507  0.67119479  0.85973431  1
  O  O51  1  0.90577840  0.06006823  0.94626100  1
