# generated using pymatgen
data_LiFePH2O5
_symmetry_space_group_name_H-M   'P 1'
_cell_length_a   10.02267256
_cell_length_b   16.99322984
_cell_length_c   5.15687912
_cell_angle_alpha   90.00000000
_cell_angle_beta   90.00000000
_cell_angle_gamma   90.00000000
_symmetry_Int_Tables_number   1
_chemical_formula_structural   LiFePH2O5
_chemical_formula_sum   'Li8 Fe8 P8 H16 O40'
_cell_volume   878.30716394
_cell_formula_units_Z   8
loop_
 _symmetry_equiv_pos_site_id
 _symmetry_equiv_pos_as_xyz
  1  'x, y, z'
loop_
 _atom_site_type_symbol
 _atom_site_label
 _atom_site_symmetry_multiplicity
 _atom_site_fract_x
 _atom_site_fract_y
 _atom_site_fract_z
 _atom_site_occupancy
  Li  Li0  1  0.14853450  0.69463385  0.47440866  1
  Li  Li1  1  0.14853450  0.19463385  0.52559134  1
  Li  Li2  1  0.42054312  0.94538807  0.10621631  1
  Li  Li3  1  0.42054312  0.44538807  0.89378369  1
  Li  Li4  1  0.64853450  0.30536615  0.52559134  1
  Li  Li5  1  0.64853450  0.80536615  0.47440866  1
  Li  Li6  1  0.92054312  0.55461193  0.10621631  1
  Li  Li7  1  0.92054312  0.05461193  0.89378369  1
  Fe  Fe8  1  0.18207089  0.50253326  0.47463326  1
  Fe  Fe9  1  0.18207089  0.00253326  0.52536674  1
  Fe  Fe10  1  0.39601986  0.25163511  0.90376114  1
  Fe  Fe11  1  0.39601986  0.75163511  0.09623886  1
  Fe  Fe12  1  0.68207089  0.99746674  0.47463326  1
  Fe  Fe13  1  0.68207089  0.49746674  0.52536674  1
  Fe  Fe14  1  0.89601986  0.74836489  0.09623886  1
  Fe  Fe15  1  0.89601986  0.24836489  0.90376114  1
  P  P16  1  0.22917345  0.09414528  0.00783146  1
  P  P17  1  0.22917345  0.59414528  0.99216854  1
  P  P18  1  0.34092856  0.34324823  0.40730671  1
  P  P19  1  0.34092856  0.84324823  0.59269329  1
  P  P20  1  0.72917345  0.40585472  0.00783146  1
  P  P21  1  0.72917345  0.90585472  0.99216854  1
  P  P22  1  0.84092856  0.65675177  0.59269329  1
  P  P23  1  0.84092856  0.15675177  0.40730671  1
  H  H24  1  0.99370339  0.37890597  0.06752919  1
  H  H25  1  0.99370339  0.87890597  0.93247081  1
  H  H26  1  0.06599980  0.37657937  0.61039815  1
  H  H27  1  0.06599980  0.87657937  0.38960185  1
  H  H28  1  0.10204182  0.31572330  0.18109059  1
  H  H29  1  0.10204182  0.81572330  0.81890941  1
  H  H30  1  0.46014592  0.05909046  0.70854106  1
  H  H31  1  0.46014592  0.55909046  0.29145894  1
  H  H32  1  0.49370339  0.12109403  0.06752919  1
  H  H33  1  0.49370339  0.62109403  0.93247081  1
  H  H34  1  0.56599980  0.62342063  0.38960185  1
  H  H35  1  0.56599980  0.12342063  0.61039815  1
  H  H36  1  0.60204182  0.68427670  0.81890941  1
  H  H37  1  0.60204182  0.18427670  0.18109059  1
  H  H38  1  0.96014592  0.44090954  0.70854106  1
  H  H39  1  0.96014592  0.94090954  0.29145894  1
  O  O40  1  0.02537597  0.42759409  0.56664146  1
  O  O41  1  0.02537597  0.92759409  0.43335854  1
  O  O42  1  0.03773602  0.32755056  0.03466917  1
  O  O43  1  0.03773602  0.82755056  0.96533083  1
  O  O44  1  0.11686790  0.04715932  0.86427245  1
  O  O45  1  0.11686790  0.54715932  0.13572755  1
  O  O46  1  0.19645381  0.10135015  0.30084095  1
  O  O47  1  0.19645381  0.60135015  0.69915905  1
  O  O48  1  0.20421921  0.80105994  0.57562156  1
  O  O49  1  0.20421921  0.30105994  0.42437844  1
  O  O50  1  0.23642728  0.17755098  0.88211380  1
  O  O51  1  0.23642728  0.67755098  0.11788620  1
  O  O52  1  0.33306108  0.92644873  0.46385810  1
  O  O53  1  0.33306108  0.42644873  0.53614190  1
  O  O54  1  0.36336979  0.04949174  0.97032055  1
  O  O55  1  0.36336979  0.54949174  0.02967945  1
  O  O56  1  0.38210635  0.35137089  0.11778467  1
  O  O57  1  0.38210635  0.85137089  0.88221533  1
  O  O58  1  0.44963128  0.29485439  0.55518730  1
  O  O59  1  0.44963128  0.79485439  0.44481270  1
  O  O60  1  0.52537597  0.57240591  0.43335854  1
  O  O61  1  0.52537597  0.07240591  0.56664146  1
  O  O62  1  0.53773602  0.67244944  0.96533083  1
  O  O63  1  0.53773602  0.17244944  0.03466917  1
  O  O64  1  0.61686790  0.95284068  0.13572755  1
  O  O65  1  0.61686790  0.45284068  0.86427245  1
  O  O66  1  0.69645381  0.89864985  0.69915905  1
  O  O67  1  0.69645381  0.39864985  0.30084095  1
  O  O68  1  0.70421921  0.19894006  0.42437844  1
  O  O69  1  0.70421921  0.69894006  0.57562156  1
  O  O70  1  0.73642728  0.82244902  0.11788620  1
  O  O71  1  0.73642728  0.32244902  0.88211380  1
  O  O72  1  0.83306108  0.57355127  0.46385810  1
  O  O73  1  0.83306108  0.07355127  0.53614190  1
  O  O74  1  0.86336979  0.45050826  0.97032055  1
  O  O75  1  0.86336979  0.95050826  0.02967945  1
  O  O76  1  0.88210635  0.64862911  0.88221533  1
  O  O77  1  0.88210635  0.14862911  0.11778467  1
  O  O78  1  0.94963128  0.70514561  0.44481270  1
  O  O79  1  0.94963128  0.20514561  0.55518730  1
