# generated using pymatgen
data_Mn6OF11
_symmetry_space_group_name_H-M   'P 1'
_cell_length_a   4.95868183
_cell_length_b   5.88843026
_cell_length_c   16.23695906
_cell_angle_alpha   90.32656722
_cell_angle_beta   90.47215667
_cell_angle_gamma   90.84375932
_symmetry_Int_Tables_number   1
_chemical_formula_structural   Mn6OF11
_chemical_formula_sum   'Mn12 O2 F22'
_cell_volume   474.02502982
_cell_formula_units_Z   2
loop_
 _symmetry_equiv_pos_site_id
 _symmetry_equiv_pos_as_xyz
  1  'x, y, z'
loop_
 _atom_site_type_symbol
 _atom_site_label
 _atom_site_symmetry_multiplicity
 _atom_site_fract_x
 _atom_site_fract_y
 _atom_site_fract_z
 _atom_site_occupancy
  Mn  Mn0  1  0.01558943  0.16972534  0.41112686  1
  Mn  Mn1  1  0.01023289  0.85367185  0.25339667  1
  Mn  Mn2  1  0.99946429  0.17067896  0.08418499  1
  Mn  Mn3  1  0.01478519  0.16796383  0.74388605  1
  Mn  Mn4  1  0.00917988  0.85720777  0.58454282  1
  Mn  Mn5  1  0.00494513  0.83286593  0.91624700  1
  Mn  Mn6  1  0.48516828  0.31350393  0.58607788  1
  Mn  Mn7  1  0.50693852  0.33055117  0.91521358  1
  Mn  Mn8  1  0.48152013  0.31880962  0.25556565  1
  Mn  Mn9  1  0.50730652  0.66849286  0.08677395  1
  Mn  Mn10  1  0.50553104  0.66890788  0.42021936  1
  Mn  Mn11  1  0.49382778  0.66973593  0.74780832  1
  O  O12  1  0.21002364  0.09139809  0.30162470  1
  O  O13  1  0.21118308  0.08996806  0.63405436  1
  F  F14  1  0.23336049  0.10852473  0.97569369  1
  F  F15  1  0.21685968  0.88492250  0.14257110  1
  F  F16  1  0.22260330  0.88569778  0.47625064  1
  F  F17  1  0.23558876  0.89588856  0.80793018  1
  F  F18  1  0.28181549  0.39261650  0.14188312  1
  F  F19  1  0.26233313  0.60966413  0.30740282  1
  F  F20  1  0.28012017  0.39396259  0.47371273  1
  F  F21  1  0.25767755  0.60643572  0.63697622  1
  F  F22  1  0.26708972  0.39849903  0.80759260  1
  F  F23  1  0.27487564  0.60641052  0.97529594  1
  F  F24  1  0.73265321  0.39770140  0.02776350  1
  F  F25  1  0.74888814  0.62167430  0.20081525  1
  F  F26  1  0.71696308  0.38883715  0.36261529  1
  F  F27  1  0.74761456  0.62724011  0.53273066  1
  F  F28  1  0.72797218  0.60950713  0.85837494  1
  F  F29  1  0.71305800  0.38506972  0.69382893  1
  F  F30  1  0.76165648  0.10428759  0.19276485  1
  F  F31  1  0.77114709  0.10996282  0.52001095  1
  F  F32  1  0.77177688  0.88130840  0.35664340  1
  F  F33  1  0.76820672  0.89631153  0.02570028  1
  F  F34  1  0.78044493  0.10987301  0.85551140  1
  F  F35  1  0.77160099  0.88212255  0.68720931  1
