# generated using pymatgen
data_Li4MnF6
_symmetry_space_group_name_H-M   'P 1'
_cell_length_a   4.94861947
_cell_length_b   8.83609048
_cell_length_c   8.83612619
_cell_angle_alpha   59.99933905
_cell_angle_beta   89.99974301
_cell_angle_gamma   90.00038429
_symmetry_Int_Tables_number   1
_chemical_formula_structural   Li4MnF6
_chemical_formula_sum   'Li12 Mn3 F18'
_cell_volume   334.60610647
_cell_formula_units_Z   3
loop_
 _symmetry_equiv_pos_site_id
 _symmetry_equiv_pos_as_xyz
  1  'x, y, z'
loop_
 _atom_site_type_symbol
 _atom_site_label
 _atom_site_symmetry_multiplicity
 _atom_site_fract_x
 _atom_site_fract_y
 _atom_site_fract_z
 _atom_site_occupancy
  Li  Li0  1  0.49998137  0.68570823  0.31430334  1
  Li  Li1  1  0.99999886  0.64936893  0.35062457  1
  Li  Li2  1  0.49999879  0.68574372  0.00000140  1
  Li  Li3  1  0.00001536  0.34621420  0.65379205  1
  Li  Li4  1  0.50001269  0.31429371  0.68571535  1
  Li  Li5  1  0.00000507  0.65378584  0.00000953  1
  Li  Li6  1  0.00000123  0.35063062  0.99999913  1
  Li  Li7  1  0.50003799  0.00001973  0.68571919  1
  Li  Li8  1  0.00002260  0.99998463  0.64937821  1
  Li  Li9  1  0.49999754  0.31428310  0.99999951  1
  Li  Li10  1  0.99998498  0.00000173  0.34621045  1
  Li  Li11  1  0.49998206  -0.00000065  0.31427954  1
  Mn  Mn12  1  0.49191165  0.66669090  0.66667522  1
  Mn  Mn13  1  0.50811570  0.33333502  0.33332880  1
  Mn  Mn14  1  0.99998676  0.00000343  -0.00000153  1
  F  F15  1  0.22892920  0.88083764  0.88019502  1
  F  F16  1  0.72482590  0.78763082  0.78575782  1
  F  F17  1  0.25928601  0.90540432  0.54557806  1
  F  F18  1  0.25930449  0.54901575  0.90541476  1
  F  F19  1  0.72478593  0.78575740  0.42663378  1
  F  F20  1  0.22888909  0.88019178  0.23897610  1
  F  F21  1  0.77106985  0.76101803  0.11981182  1
  F  F22  1  0.72480240  0.42663991  0.78761331  1
  F  F23  1  0.25930155  0.54558354  0.54901019  1
  F  F24  1  0.22890566  0.23898400  0.88082541  1
  F  F25  1  0.27517667  0.57337390  0.21424737  1
  F  F26  1  0.74071212  0.45099204  0.45442183  1
  F  F27  1  0.74070161  0.45442261  0.09458729  1
  F  F28  1  0.27523244  0.21238250  0.57336580  1
  F  F29  1  0.77111704  0.11917958  0.76102079  1
  F  F30  1  0.27520280  0.21423910  0.21238505  1
  F  F31  1  0.74070942  0.09458593  0.45099658  1
  F  F32  1  0.77109216  0.11980398  0.11917929  1
