# generated using pymatgen
data_Li3Mn2(P2O7)2
_symmetry_space_group_name_H-M   'P 1'
_cell_length_a   9.84142961
_cell_length_b   9.85241776
_cell_length_c   11.38826365
_cell_angle_alpha   90.27423060
_cell_angle_beta   103.30305309
_cell_angle_gamma   89.63007758
_symmetry_Int_Tables_number   1
_chemical_formula_structural   Li3Mn2(P2O7)2
_chemical_formula_sum   'Li12 Mn8 P16 O56'
_cell_volume   1074.56866755
_cell_formula_units_Z   4
loop_
 _symmetry_equiv_pos_site_id
 _symmetry_equiv_pos_as_xyz
  1  'x, y, z'
loop_
 _atom_site_type_symbol
 _atom_site_label
 _atom_site_symmetry_multiplicity
 _atom_site_fract_x
 _atom_site_fract_y
 _atom_site_fract_z
 _atom_site_occupancy
  Li  Li0  1  0.16944404  0.42548688  0.54185702  1
  Li  Li1  1  0.08829055  0.10976176  0.02726801  1
  Li  Li2  1  0.34166719  0.90674457  0.95702402  1
  Li  Li3  1  0.41280365  0.60568513  0.97176586  1
  Li  Li4  1  0.33568220  0.92189704  0.45859885  1
  Li  Li5  1  0.65071065  0.06585760  0.53124497  1
  Li  Li6  1  0.58712567  0.39267819  0.03116423  1
  Li  Li7  1  0.85119208  0.58645329  0.95889091  1
  Li  Li8  1  0.65334952  0.09155824  0.04277808  1
  Li  Li9  1  0.91263245  0.89505842  0.97045897  1
  Li  Li10  1  0.82518693  0.58729613  0.45160454  1
  Li  Li11  1  0.88491662  0.28001327  0.55028611  1
  Mn  Mn12  1  0.19990127  0.92366272  0.66701512  1
  Mn  Mn13  1  0.25809732  0.21589266  0.82441813  1
  Mn  Mn14  1  0.24376946  0.71259671  0.17816406  1
  Mn  Mn15  1  0.29755786  0.42407006  0.32567956  1
  Mn  Mn16  1  0.70128904  0.57788628  0.67121083  1
  Mn  Mn17  1  0.75383415  0.28440218  0.82423463  1
  Mn  Mn18  1  0.74781333  0.78317528  0.17943935  1
  Mn  Mn19  1  0.79812790  0.07496659  0.32631949  1
  P  P20  1  0.02492223  0.45244029  0.75560711  1
  P  P21  1  0.11910318  0.70781942  0.89105290  1
  P  P22  1  0.06318465  0.93175525  0.24119885  1
  P  P23  1  0.12280952  0.15071679  0.42439707  1
  P  P24  1  0.37725019  0.64807219  0.57618653  1
  P  P25  1  0.43799179  0.43164970  0.75723335  1
  P  P26  1  0.52209392  0.04579595  0.75521916  1
  P  P27  1  0.38075732  0.20792171  0.11117034  1
  P  P28  1  0.61788877  0.79420113  0.89262988  1
  P  P29  1  0.47556124  0.95108306  0.24545668  1
  P  P30  1  0.56294219  0.57005124  0.24216952  1
  P  P31  1  0.61971591  0.35235373  0.42045558  1
  P  P32  1  0.87782966  0.85079054  0.57826225  1
  P  P33  1  0.93861026  0.06833724  0.75641675  1
  P  P34  1  0.88336353  0.29298695  0.10943643  1
  P  P35  1  0.97841294  0.54633435  0.24789846  1
  O  O36  1  0.01945967  0.41997188  0.62471757  1
  O  O37  1  0.03221698  0.84238741  0.56895653  1
  O  O38  1  0.08635929  0.08078324  0.72910284  1
  O  O39  1  0.10659506  0.34969243  0.84607282  1
  O  O40  1  0.10261691  0.59618562  0.78289419  1
  O  O41  1  0.17859489  0.83191221  0.83922724  1
  O  O42  1  0.22933417  0.65190336  0.00104893  1
  O  O43  1  0.01995985  0.26783433  0.07757334  1
  O  O44  1  0.11652187  0.07938093  0.29452547  1
  O  O45  1  0.06101968  0.93738432  0.10785308  1
  O  O46  1  0.13304146  0.53666429  0.22630288  1
  O  O47  1  0.18011007  0.29299820  0.41314153  1
  O  O48  1  0.17282648  0.82655509  0.30433454  1
  O  O49  1  0.21455357  0.05853623  0.51810917  1
  O  O50  1  0.28432902  0.55965303  0.47979385  1
  O  O51  1  0.33047243  0.32502607  0.69525360  1
  O  O52  1  0.32140089  0.79298793  0.58838184  1
  O  O53  1  0.36778001  0.03156492  0.77825233  1
  O  O54  1  0.37715806  0.57830118  0.70552104  1
  O  O55  1  0.44320713  0.43660856  0.89094907  1
  O  O56  1  0.47841973  0.77588220  0.92437086  1
  O  O57  1  0.27681212  0.13964965  0.00068656  1
  O  O58  1  0.32123391  0.33012251  0.16460535  1
  O  O59  1  0.40194510  0.09712011  0.21936215  1
  O  O60  1  0.41700703  0.58701586  0.27090835  1
  O  O61  1  0.38895756  0.85437953  0.14835736  1
  O  O62  1  0.52243330  0.08059836  0.62811512  1
  O  O63  1  0.46715785  0.34858427  0.43140952  1
  O  O64  1  0.52986824  0.65446972  0.56545881  1
  O  O65  1  0.47974341  0.92030910  0.37459828  1
  O  O66  1  0.60471964  0.13855011  0.85572554  1
  O  O67  1  0.58368400  0.41568484  0.72640431  1
  O  O68  1  0.59423474  0.89754723  0.77933304  1
  O  O69  1  0.68302917  0.66845297  0.84705526  1
  O  O70  1  0.72337448  0.86375992  0.99987080  1
  O  O71  1  0.51979342  0.22543365  0.07795319  1
  O  O72  1  0.56110989  0.56519487  0.10894965  1
  O  O73  1  0.62132481  0.42104127  0.29253249  1
  O  O74  1  0.62527455  0.96349117  0.21649166  1
  O  O75  1  0.68150708  0.20880292  0.41620527  1
  O  O76  1  0.67092738  0.67287063  0.30799974  1
  O  O77  1  0.72017488  0.43538926  0.51783832  1
  O  O78  1  0.78691767  0.94023685  0.48214378  1
  O  O79  1  0.83795579  0.17756922  0.68781871  1
  O  O80  1  0.82229214  0.70728326  0.58928495  1
  O  O81  1  0.87369119  0.47001025  0.78045395  1
  O  O82  1  0.93640750  0.06764455  0.88868762  1
  O  O83  1  0.87799181  0.92155298  0.70757782  1
  O  O84  1  0.97834086  0.72539824  0.92087335  1
  O  O85  1  0.77621366  0.36412901  0.00300304  1
  O  O86  1  0.81293729  0.17195870  0.15723505  1
  O  O87  1  0.90843077  0.39884800  0.22247885  1
  O  O88  1  0.89564311  0.63989940  0.14698070  1
  O  O89  1  0.91777673  0.91223576  0.26956939  1
  O  O90  1  0.97041003  0.16238374  0.43913853  1
  O  O91  1  0.97492153  0.58016415  0.37500518  1
