# generated using pymatgen
data_La3Nb8O24
_symmetry_space_group_name_H-M   'P 1'
_cell_length_a   7.96664726
_cell_length_b   8.91108913
_cell_length_c   8.98714262
_cell_angle_alpha   66.63137222
_cell_angle_beta   90.00000000
_cell_angle_gamma   116.55184942
_symmetry_Int_Tables_number   1
_chemical_formula_structural   La3Nb8O24
_chemical_formula_sum   'La3 Nb8 O24'
_cell_volume   511.54651272
_cell_formula_units_Z   1
loop_
 _symmetry_equiv_pos_site_id
 _symmetry_equiv_pos_as_xyz
  1  'x, y, z'
loop_
 _atom_site_type_symbol
 _atom_site_label
 _atom_site_symmetry_multiplicity
 _atom_site_fract_x
 _atom_site_fract_y
 _atom_site_fract_z
 _atom_site_occupancy
  La  La0  1  0.50000000  0.00000000  0.00000000  1
  La  La1  1  0.25067892  0.50135784  0.00007042  1
  La  La2  1  0.74932108  0.49864216  0.99992958  1
  Nb  Nb3  1  0.81218014  0.11710682  0.25905842  1
  Nb  Nb4  1  0.30492668  0.11710682  0.25905842  1
  Nb  Nb5  1  0.94179483  0.37612079  0.74095882  1
  Nb  Nb6  1  0.43432696  0.37612079  0.74095882  1
  Nb  Nb7  1  0.05820517  0.62387921  0.25904118  1
  Nb  Nb8  1  0.56567304  0.62387921  0.25904118  1
  Nb  Nb9  1  0.18781986  0.88289318  0.74094158  1
  Nb  Nb10  1  0.69507332  0.88289318  0.74094158  1
  O  O11  1  0.07265760  0.14531520  0.22936337  1
  O  O12  1  0.57044192  0.14088385  0.22223045  1
  O  O13  1  0.87031532  0.26028804  0.00001386  1
  O  O14  1  0.25093720  0.00000000  0.50000000  1
  O  O15  1  0.38997272  0.26028804  0.00001386  1
  O  O16  1  0.74906280  0.00000000  0.50000000  1
  O  O17  1  0.79608570  0.11567267  0.76859995  1
  O  O18  1  0.31958697  0.11567267  0.76859995  1
  O  O19  1  0.44356453  0.38735198  0.22537979  1
  O  O20  1  0.94378645  0.38735198  0.22537979  1
  O  O21  1  0.81269142  0.62538183  0.22937119  1
  O  O22  1  0.18730858  0.37461817  0.77062881  1
  O  O23  1  0.68145526  0.36291052  0.77782089  1
  O  O24  1  0.00000000  0.50000000  0.50000000  1
  O  O25  1  0.31854474  0.63708948  0.22217911  1
  O  O26  1  0.12968468  0.73971196  0.99998614  1
  O  O27  1  0.50000000  0.50000000  0.50000000  1
  O  O28  1  0.61002728  0.73971196  0.99998614  1
  O  O29  1  0.55643547  0.61264802  0.77462021  1
  O  O30  1  0.05621355  0.61264802  0.77462021  1
  O  O31  1  0.20391430  0.88432733  0.23140005  1
  O  O32  1  0.68041303  0.88432733  0.23140005  1
  O  O33  1  0.42955808  0.85911615  0.77776955  1
  O  O34  1  0.92734240  0.85468480  0.77063663  1
