# generated using pymatgen
data_Li5Mn6(BO3)6
_symmetry_space_group_name_H-M   'P 1'
_cell_length_a   10.48286051
_cell_length_b   8.85557496
_cell_length_c   8.79945325
_cell_angle_alpha   107.65539331
_cell_angle_beta   98.55014222
_cell_angle_gamma   98.92468123
_symmetry_Int_Tables_number   1
_chemical_formula_structural   Li5Mn6(BO3)6
_chemical_formula_sum   'Li10 Mn12 B12 O36'
_cell_volume   752.16367733
_cell_formula_units_Z   2
loop_
 _symmetry_equiv_pos_site_id
 _symmetry_equiv_pos_as_xyz
  1  'x, y, z'
loop_
 _atom_site_type_symbol
 _atom_site_label
 _atom_site_symmetry_multiplicity
 _atom_site_fract_x
 _atom_site_fract_y
 _atom_site_fract_z
 _atom_site_occupancy
  Li  Li0  1  0.18530102  0.20698494  0.90332847  1
  Li  Li1  1  0.19907217  0.89772646  0.18595179  1
  Li  Li2  1  0.48247339  0.76542792  0.77638176  1
  Li  Li3  1  0.44640563  0.45598660  0.15285798  1
  Li  Li4  1  0.45144820  0.14986749  0.43629024  1
  Li  Li5  1  0.69256003  0.70823159  0.40684982  1
  Li  Li6  1  0.73337007  0.01614789  0.03062553  1
  Li  Li7  1  0.94285675  0.96380829  0.66693247  1
  Li  Li8  1  0.96119634  0.66347269  0.93776597  1
  Li  Li9  1  0.97379969  0.25122558  0.27653910  1
  Mn  Mn10  1  0.19039585  0.81428553  0.79957622  1
  Mn  Mn11  1  0.16029369  0.51045706  0.18695513  1
  Mn  Mn12  1  0.16273623  0.16182335  0.51900247  1
  Mn  Mn13  1  0.40479929  0.76884333  0.41850100  1
  Mn  Mn14  1  0.41795535  0.40967582  0.76211574  1
  Mn  Mn15  1  0.43204007  0.07099318  0.06435099  1
  Mn  Mn16  1  0.65469422  0.03429588  0.66310878  1
  Mn  Mn17  1  0.66700023  0.65153935  0.00744331  1
  Mn  Mn18  1  0.68288989  0.31644347  0.31682050  1
  Mn  Mn19  1  0.89619077  0.29274763  0.91827257  1
  Mn  Mn20  1  0.91080429  0.89709114  0.27560440  1
  Mn  Mn21  1  0.92687829  0.56995353  0.57123370  1
  B  B22  1  0.00048641  0.00421248  -0.00006203  1
  B  B23  1  0.12838729  0.79458803  0.46358765  1
  B  B24  1  0.12314175  0.46181725  0.80515851  1
  B  B25  1  0.24867639  0.23648388  0.23993896  1
  B  B26  1  0.36687392  0.70148011  0.03590074  1
  B  B27  1  0.37022418  0.04052535  0.70597725  1
  B  B28  1  0.50185064  0.49942902  0.49077063  1
  B  B29  1  0.62693378  0.29693876  0.96049399  1
  B  B30  1  0.62463127  0.95153497  0.28715978  1
  B  B31  1  0.75268946  0.76554008  0.75214948  1
  B  B32  1  0.87314973  0.53760146  0.20685145  1
  B  B33  1  0.88395171  0.20941049  0.55144479  1
  O  O34  1  0.07659587  0.88594485  0.98333276  1
  O  O35  1  0.06667775  0.81005542  0.60001864  1
  O  O36  1  0.05013544  0.45804118  0.92645250  1
  O  O37  1  0.00223693  0.10147086  0.90116290  1
  O  O38  1  0.10912435  0.58364830  0.73807934  1
  O  O39  1  0.11184728  0.89588683  0.37293500  1
  O  O40  1  0.20338573  0.67990538  0.42727901  1
  O  O41  1  0.19902549  0.35048680  0.75912484  1
  O  O42  1  0.16112043  0.26931630  0.34150561  1
  O  O43  1  0.35518973  0.80473083  0.94004826  1
  O  O44  1  0.29714016  0.71407033  0.15852148  1
  O  O45  1  0.29011525  0.03543119  0.82170897  1
  O  O46  1  0.26730656  0.32720259  0.13592220  1
  O  O47  1  0.45574546  0.93586923  0.67995054  1
  O  O48  1  0.36112996  0.14898444  0.62260025  1
  O  O49  1  0.31610720  0.11162258  0.23682348  1
  O  O50  1  0.44254414  0.55250557  0.62102263  1
  O  O51  1  0.45011783  0.59550225  0.00379703  1
  O  O52  1  0.55440627  0.97049752  0.41186713  1
  O  O53  1  0.51313751  0.59017659  0.38442876  1
  O  O54  1  0.54994272  0.35907503  0.46104564  1
  O  O55  1  0.61485329  0.39856841  0.87276454  1
  O  O56  1  0.67257523  0.80276787  0.86644331  1
  O  O57  1  0.55513434  0.29291697  0.07968213  1
  O  O58  1  0.70038595  0.83460263  0.25607096  1
  O  O59  1  0.71639647  0.18993484  0.93100714  1
  O  O60  1  0.75712158  0.84740816  0.63886862  1
  O  O61  1  0.61917232  0.05248889  0.19353071  1
  O  O62  1  0.82963217  0.65384966  0.75419516  1
  O  O63  1  0.81263551  0.55365400  0.33849399  1
  O  O64  1  0.82348940  0.22522822  0.68483119  1
  O  O65  1  0.87133340  0.30918586  0.45841928  1
  O  O66  1  0.87014392  0.64198658  0.11826681  1
  O  O67  1  0.93960682  0.40788106  0.16062978  1
  O  O68  1  0.95445995  0.08889688  0.51139863  1
  O  O69  1  0.92066659  0.02679831  0.11512262  1
