# generated using pymatgen
data_V18Cu20O57
_symmetry_space_group_name_H-M   'P 1'
_cell_length_a   7.85389134
_cell_length_b   12.20677529
_cell_length_c   12.20615251
_cell_angle_alpha   64.03315000
_cell_angle_beta   92.77151637
_cell_angle_gamma   92.76604429
_symmetry_Int_Tables_number   1
_chemical_formula_structural   V18Cu20O57
_chemical_formula_sum   'V18 Cu20 O57'
_cell_volume   1050.36764628
_cell_formula_units_Z   1
loop_
 _symmetry_equiv_pos_site_id
 _symmetry_equiv_pos_as_xyz
  1  'x, y, z'
loop_
 _atom_site_type_symbol
 _atom_site_label
 _atom_site_symmetry_multiplicity
 _atom_site_fract_x
 _atom_site_fract_y
 _atom_site_fract_z
 _atom_site_occupancy
  V  V0  1  0.92827493  0.22079271  0.04630457  1
  V  V1  1  0.98089384  0.80938320  0.69129908  1
  V  V2  1  0.31813221  0.14380081  0.02587275  1
  V  V3  1  0.63748153  0.47175704  0.35695833  1
  V  V4  1  0.58119104  0.69906057  0.40652881  1
  V  V5  1  0.91433202  0.03256671  0.74301881  1
  V  V6  1  0.25004808  0.36488512  0.08455749  1
  V  V7  1  0.73839107  0.44587329  0.62036243  1
  V  V8  1  0.40331815  0.12280972  0.28823708  1
  V  V9  1  0.26334885  0.54385628  0.37842992  1
  V  V10  1  0.59495535  0.88446395  0.71267266  1
  V  V11  1  0.75233498  0.63410029  0.92364719  1
  V  V12  1  0.41661792  0.30178188  0.58210951  1
  V  V13  1  0.08547496  0.96760543  0.26013819  1
  V  V14  1  0.68577216  0.85728380  0.97536792  1
  V  V15  1  0.34853479  0.52286519  0.64079325  1
  V  V16  1  0.02918447  0.19490896  0.30970867  1
  V  V17  1  0.07171165  0.78220305  0.95399434  1
  Cu  Cu18  1  0.98494671  0.49939587  0.18314076  1
  Cu  Cu19  1  0.91445308  0.71621997  0.23355383  1
  Cu  Cu20  1  0.67221360  0.35302911  0.15727842  1
  Cu  Cu21  1  0.66211905  0.98090194  0.17696001  1
  Cu  Cu22  1  0.99445340  0.31363689  0.50938858  1
  Cu  Cu23  1  0.75221292  0.95044703  0.43311217  1
  Cu  Cu24  1  0.41855056  0.61523165  0.10164551  1
  Cu  Cu25  1  0.68171929  0.16727113  0.48352624  1
  Cu  Cu26  1  0.34776366  0.83313555  0.15270399  1
  Cu  Cu27  1  0.00105257  0.00095323  0.00104823  1
  Cu  Cu28  1  0.66561443  0.66571277  0.66561777  1
  Cu  Cu29  1  0.31890334  0.83353045  0.51396301  1
  Cu  Cu30  1  0.65096289  0.16747782  0.84792241  1
  Cu  Cu31  1  0.24811644  0.05143535  0.56502049  1
  Cu  Cu32  1  0.57907445  0.38380556  0.89853608  1
  Cu  Cu33  1  0.33883672  0.02174499  0.82283814  1
  Cu  Cu34  1  0.00454795  0.68576506  0.48970699  1
  Cu  Cu35  1  0.32783028  0.64492101  0.84382886  1
  Cu  Cu36  1  0.08759255  0.28286144  0.76813092  1
  Cu  Cu37  1  0.01570411  0.49918918  0.81874459  1
  O  O38  1  0.95344444  0.62712661  0.01345811  1
  O  O39  1  0.91212569  0.82178747  0.05526229  1
  O  O40  1  0.89674846  0.03982915  0.12881643  1
  O  O41  1  0.85097888  0.23573792  0.17825394  1
  O  O42  1  0.96613106  0.02766567  0.35097657  1
  O  O43  1  0.63324581  0.69334139  0.01943366  1
  O  O44  1  0.91886828  0.21778869  0.41546038  1
  O  O45  1  0.58371408  0.88378824  0.08175278  1
  O  O46  1  0.74779872  0.44887831  0.25120662  1
  O  O47  1  0.70053594  0.63900033  0.31569043  1
  O  O48  1  0.81568812  0.43092908  0.48841306  1
  O  O49  1  0.47936326  0.09429424  0.15601792  1
  O  O50  1  0.31763432  0.51514718  0.01849151  1
  O  O51  1  0.65127398  0.84868629  0.35015403  1
  O  O52  1  0.98399991  0.18175430  0.68369409  1
  O  O53  1  0.43703413  0.29133293  0.19760702  1
  O  O54  1  0.76991854  0.62683685  0.53785057  1
  O  O55  1  0.24794573  0.74997380  0.04975244  1
  O  O56  1  0.58033682  0.08412401  0.38383850  1
  O  O57  1  0.91459081  0.41583324  0.71705776  1
  O  O58  1  0.75454131  0.84487953  0.61140471  1
  O  O59  1  0.42401288  0.51740018  0.27849091  1
  O  O60  1  0.87486705  0.64151058  0.78456160  1
  O  O61  1  0.54861927  0.30948676  0.45509195  1
  O  O62  1  0.20607200  0.97428241  0.11715730  1
  O  O63  1  0.37929616  0.70675242  0.32183464  1
  O  O64  1  0.71322156  0.03954039  0.65320889  1
  O  O65  1  0.83333300  0.83333300  0.83333300  1
  O  O66  1  0.16624646  0.16612070  0.16600781  1
  O  O67  1  0.50041954  0.50054630  0.50065919  1
  O  O68  1  0.61838106  0.29514942  0.67996449  1
  O  O69  1  0.28736984  0.95991458  0.34483236  1
  O  O70  1  0.46059500  0.69238459  0.54950870  1
  O  O71  1  0.79179995  0.02515642  0.88210540  1
  O  O72  1  0.11804673  0.35718024  0.21157505  1
  O  O73  1  0.24265412  0.14926682  0.38817509  1
  O  O74  1  0.57923964  0.49013235  0.72213722  1
  O  O75  1  0.41872127  0.91669320  0.61691456  1
  O  O76  1  0.08633018  0.58254299  0.28282750  1
  O  O77  1  0.75207619  0.25083376  0.94960824  1
  O  O78  1  0.56403969  0.70688595  0.79698972  1
  O  O79  1  0.22963187  0.37533307  0.46905898  1
  O  O80  1  0.68266709  0.48491270  0.98297291  1
  O  O81  1  0.34903168  0.15151982  0.64817549  1
  O  O82  1  0.01539202  0.81798071  0.31651297  1
  O  O83  1  0.18730374  0.57237276  0.51064808  1
  O  O84  1  0.51825911  0.90445402  0.84463690  1
  O  O85  1  0.30272971  0.36006155  0.68764943  1
  O  O86  1  0.24981563  0.55122964  0.74802306  1
  O  O87  1  0.41685137  0.11543736  0.91864294  1
  O  O88  1  0.08295292  0.78287776  0.58491322  1
  O  O89  1  0.36393629  0.30660445  0.97901657  1
  O  O90  1  0.03342119  0.97332461  0.64723334  1
  O  O91  1  0.14840689  0.76221298  0.82203010  1
  O  O92  1  0.10262731  0.95978105  0.86967628  1
  O  O93  1  0.08742736  0.17653465  0.94452978  1
  O  O94  1  0.04828594  0.37151758  0.98670251  1
