# generated using pymatgen
data_DyTiFe11N
_symmetry_space_group_name_H-M   'P 1'
_cell_length_a   4.80384457
_cell_length_b   6.52626643
_cell_length_c   6.52626643
_cell_angle_alpha   97.41592332
_cell_angle_beta   111.59473984
_cell_angle_gamma   68.40526016
_symmetry_Int_Tables_number   1
_chemical_formula_structural   DyTiFe11N
_chemical_formula_sum   'Dy1 Ti1 Fe11 N1'
_cell_volume   176.88678979
_cell_formula_units_Z   1
loop_
 _symmetry_equiv_pos_site_id
 _symmetry_equiv_pos_as_xyz
  1  'x, y, z'
loop_
 _atom_site_type_symbol
 _atom_site_label
 _atom_site_symmetry_multiplicity
 _atom_site_fract_x
 _atom_site_fract_y
 _atom_site_fract_z
 _atom_site_occupancy
  Dy  Dy0  1  0.00696285  0.99303715  0.00696285  1
  Ti  Ti1  1  0.63427153  0.36572847  0.63427153  1
  Fe  Fe2  1  0.72613717  0.77386283  0.22613717  1
  Fe  Fe3  1  0.27715083  0.22284917  0.77715083  1
  Fe  Fe4  1  0.49730795  0.77996712  0.77458303  1
  Fe  Fe5  1  0.49730795  0.22541697  0.22003288  1
  Fe  Fe6  1  0.50013681  0.99731328  0.49841944  1
  Fe  Fe7  1  0.00096935  0.99731328  0.49841944  1
  Fe  Fe8  1  0.50013681  0.50158056  0.00268672  1
  Fe  Fe9  1  0.00096935  0.50158056  0.00268672  1
  Fe  Fe10  1  0.35745385  0.64254615  0.35745385  1
  Fe  Fe11  1  0.99990224  0.35956932  0.35937380  1
  Fe  Fe12  1  0.99990224  0.64062620  0.64043068  1
  N  N13  1  0.50139106  0.99860894  0.00139106  1
