# generated using pymatgen
data_Ni6OF11
_symmetry_space_group_name_H-M   'P 1'
_cell_length_a   4.69776339
_cell_length_b   7.78905712
_cell_length_c   5.63391842
_cell_angle_alpha   93.59912435
_cell_angle_beta   89.57414011
_cell_angle_gamma   90.32891336
_symmetry_Int_Tables_number   1
_chemical_formula_structural   Ni6OF11
_chemical_formula_sum   'Ni6 O1 F11'
_cell_volume   205.73638800
_cell_formula_units_Z   1
loop_
 _symmetry_equiv_pos_site_id
 _symmetry_equiv_pos_as_xyz
  1  'x, y, z'
loop_
 _atom_site_type_symbol
 _atom_site_label
 _atom_site_symmetry_multiplicity
 _atom_site_fract_x
 _atom_site_fract_y
 _atom_site_fract_z
 _atom_site_occupancy
  Ni  Ni0  1  0.51115756  0.00335997  0.49431704  1
  Ni  Ni1  1  0.49763668  0.66520890  0.16785755  1
  Ni  Ni2  1  0.49926005  0.33415519  0.83232908  1
  Ni  Ni3  1  0.00336402  0.66870942  0.66561939  1
  Ni  Ni4  1  0.99184333  0.32664713  0.33453448  1
  Ni  Ni5  1  0.99436198  0.00119491  0.00657642  1
  O  O6  1  0.80490355  0.10082903  0.29634233  1
  F  F7  1  0.80395527  0.43528886  0.63143686  1
  F  F8  1  0.80367339  0.76752047  0.96468799  1
  F  F9  1  0.69663436  0.10203135  0.79778065  1
  F  F10  1  0.69475402  0.76680090  0.46546247  1
  F  F11  1  0.69710251  0.43481541  0.12959702  1
  F  F12  1  0.30378242  0.56647901  0.86858750  1
  F  F13  1  0.30440450  0.23211101  0.53505184  1
  F  F14  1  0.30343438  0.89803587  0.20339419  1
  F  F15  1  0.19877427  0.23241926  0.03566060  1
  F  F16  1  0.19261146  0.56091161  0.36803324  1
  F  F17  1  0.19834827  0.90348269  0.70273135  1
