# generated using pymatgen
data_Mn2CrFe3(PO4)6
_symmetry_space_group_name_H-M   'P 1'
_cell_length_a   8.60971543
_cell_length_b   8.60971482
_cell_length_c   8.60971492
_cell_angle_alpha   60.22904527
_cell_angle_beta   60.22904359
_cell_angle_gamma   60.22904500
_symmetry_Int_Tables_number   1
_chemical_formula_structural   Mn2CrFe3(PO4)6
_chemical_formula_sum   'Mn2 Cr1 Fe3 P6 O24'
_cell_volume   453.62558050
_cell_formula_units_Z   1
loop_
 _symmetry_equiv_pos_site_id
 _symmetry_equiv_pos_as_xyz
  1  'x, y, z'
loop_
 _atom_site_type_symbol
 _atom_site_label
 _atom_site_symmetry_multiplicity
 _atom_site_fract_x
 _atom_site_fract_y
 _atom_site_fract_z
 _atom_site_occupancy
  Mn  Mn0  1  0.00130893  0.00130893  0.00130893  1
  Mn  Mn1  1  0.50034502  0.50034502  0.50034502  1
  Cr  Cr2  1  0.85705430  0.85705430  0.85705430  1
  Fe  Fe3  1  0.14532581  0.14532581  0.14532581  1
  Fe  Fe4  1  0.35398463  0.35398463  0.35398463  1
  Fe  Fe5  1  0.64548969  0.64548969  0.64548969  1
  P  P6  1  0.04265037  0.74946418  0.45839138  1
  P  P7  1  0.45839138  0.04265037  0.74946418  1
  P  P8  1  0.74946418  0.45839138  0.04265037  1
  P  P9  1  0.24829126  0.54433447  0.95515617  1
  P  P10  1  0.54433447  0.95515617  0.24829126  1
  P  P11  1  0.95515617  0.24829126  0.54433447  1
  O  O12  1  0.11371687  0.30618969  0.51032206  1
  O  O13  1  0.30618969  0.51032206  0.11371687  1
  O  O14  1  0.05823853  0.91173105  0.26301010  1
  O  O15  1  0.51032206  0.11371687  0.30618969  1
  O  O16  1  0.00164579  0.81374706  0.61722071  1
  O  O17  1  0.23871653  0.58731345  0.44724867  1
  O  O18  1  0.26301010  0.05823853  0.91173105  1
  O  O19  1  0.44724867  0.23871653  0.58731345  1
  O  O20  1  0.18567162  0.38781918  0.99347120  1
  O  O21  1  0.58731345  0.44724867  0.23871653  1
  O  O22  1  0.08389157  0.74140283  0.93757280  1
  O  O23  1  0.38781918  0.99347120  0.18567162  1
  O  O24  1  0.61722071  0.00164579  0.81374706  1
  O  O25  1  0.91173105  0.26301010  0.05823853  1
  O  O26  1  0.40939459  0.56214324  0.75849810  1
  O  O27  1  0.81374706  0.61722071  0.00164579  1
  O  O28  1  0.56214324  0.75849810  0.40939459  1
  O  O29  1  0.74140283  0.93757280  0.08389157  1
  O  O30  1  0.75849810  0.40939459  0.56214324  1
  O  O31  1  0.99347120  0.18567162  0.38781918  1
  O  O32  1  0.49696919  0.88851139  0.68375758  1
  O  O33  1  0.93757280  0.08389157  0.74140283  1
  O  O34  1  0.68375758  0.49696919  0.88851139  1
  O  O35  1  0.88851139  0.68375758  0.49696919  1
