# generated using pymatgen
data_Li2Mn2Si2O7
_symmetry_space_group_name_H-M   'P 1'
_cell_length_a   5.08318404
_cell_length_b   5.01710919
_cell_length_c   13.35917729
_cell_angle_alpha   90.00000000
_cell_angle_beta   90.00000000
_cell_angle_gamma   120.43662169
_symmetry_Int_Tables_number   1
_chemical_formula_structural   Li2Mn2Si2O7
_chemical_formula_sum   'Li4 Mn4 Si4 O14'
_cell_volume   293.74609881
_cell_formula_units_Z   2
loop_
 _symmetry_equiv_pos_site_id
 _symmetry_equiv_pos_as_xyz
  1  'x, y, z'
loop_
 _atom_site_type_symbol
 _atom_site_label
 _atom_site_symmetry_multiplicity
 _atom_site_fract_x
 _atom_site_fract_y
 _atom_site_fract_z
 _atom_site_occupancy
  Li  Li0  1  0.33893155  0.57688226  0.58171351  1
  Li  Li1  1  0.33893155  0.57688226  0.91828649  1
  Li  Li2  1  0.76204929  0.42311774  0.41828649  1
  Li  Li3  1  0.76204929  0.42311774  0.08171351  1
  Mn  Mn4  1  0.01764189  0.00000000  0.00000000  1
  Mn  Mn5  1  0.01764189  0.00000000  0.50000000  1
  Mn  Mn6  1  0.05390593  0.06328092  0.25000000  1
  Mn  Mn7  1  0.99062501  0.93671908  0.75000000  1
  Si  Si8  1  0.41705562  0.73824870  0.36371528  1
  Si  Si9  1  0.41705562  0.73824870  0.13628472  1
  Si  Si10  1  0.67880692  0.26175130  0.63628472  1
  Si  Si11  1  0.67880692  0.26175130  0.86371528  1
  O  O12  1  0.14100371  0.81733720  0.13081591  1
  O  O13  1  0.14100371  0.81733720  0.36918409  1
  O  O14  1  0.38833190  0.57127502  0.25000000  1
  O  O15  1  0.69608969  0.94314335  0.86895650  1
  O  O16  1  0.69608969  0.94314335  0.63104350  1
  O  O17  1  0.40434285  0.48773657  0.05669449  1
  O  O18  1  0.40434285  0.48773657  0.44330551  1
  O  O19  1  0.32366751  0.18266280  0.86918409  1
  O  O20  1  0.32366751  0.18266280  0.63081591  1
  O  O21  1  0.81705788  0.42872498  0.75000000  1
  O  O22  1  0.75294633  0.05685665  0.36895650  1
  O  O23  1  0.75294633  0.05685665  0.13104350  1
  O  O24  1  0.91660728  0.51226343  0.55669449  1
  O  O25  1  0.91660728  0.51226343  0.94330551  1
