# generated using pymatgen
data_Li2Cr2FeSbO8
_symmetry_space_group_name_H-M   'P 1'
_cell_length_a   5.98894809
_cell_length_b   10.33666099
_cell_length_c   9.66813959
_cell_angle_alpha   90.12983329
_cell_angle_beta   90.07746050
_cell_angle_gamma   90.18053584
_symmetry_Int_Tables_number   1
_chemical_formula_structural   Li2Cr2FeSbO8
_chemical_formula_sum   'Li8 Cr8 Fe4 Sb4 O32'
_cell_volume   598.50814053
_cell_formula_units_Z   4
loop_
 _symmetry_equiv_pos_site_id
 _symmetry_equiv_pos_as_xyz
  1  'x, y, z'
loop_
 _atom_site_type_symbol
 _atom_site_label
 _atom_site_symmetry_multiplicity
 _atom_site_fract_x
 _atom_site_fract_y
 _atom_site_fract_z
 _atom_site_occupancy
  Li  Li0  1  0.99975057  0.33267826  0.90930337  1
  Li  Li1  1  0.00064256  0.00276805  0.99902199  1
  Li  Li2  1  0.00041510  0.00075850  0.49668981  1
  Li  Li3  1  0.99922443  0.66643301  0.41055249  1
  Li  Li4  1  0.50059041  0.83266503  0.90990004  1
  Li  Li5  1  0.49907527  0.16609651  0.40969651  1
  Li  Li6  1  0.49975223  0.49977772  0.99862538  1
  Li  Li7  1  0.50016360  0.50006767  0.49744655  1
  Cr  Cr8  1  0.99920616  0.82919932  0.72029355  1
  Cr  Cr9  1  0.24491160  0.58464491  0.72087646  1
  Cr  Cr10  1  0.25663817  0.91710065  0.22070582  1
  Cr  Cr11  1  0.49903140  0.33028254  0.72185293  1
  Cr  Cr12  1  0.50126183  0.67048151  0.22034931  1
  Cr  Cr13  1  0.74296173  0.08463120  0.72120771  1
  Cr  Cr14  1  0.75697503  0.41389952  0.22085761  1
  Cr  Cr15  1  0.75437333  0.58455567  0.72107921  1
  Fe  Fe16  1  0.00067509  0.17224692  0.22251808  1
  Fe  Fe17  1  0.24750216  0.41232395  0.22177779  1
  Fe  Fe18  1  0.25345242  0.08482772  0.72156290  1
  Fe  Fe19  1  0.74539140  0.91829116  0.22066382  1
  Sb  Sb20  1  0.99756862  0.33300426  0.49493525  1
  Sb  Sb21  1  0.00151450  0.66712579  0.99417152  1
  Sb  Sb22  1  0.49913665  0.83200788  0.49475337  1
  Sb  Sb23  1  0.50213593  0.16696582  0.99543459  1
  O  O24  1  0.00281666  0.32967763  0.11741353  1
  O  O25  1  0.99963082  0.51833483  0.85036064  1
  O  O26  1  0.99975722  0.00559656  0.30952514  1
  O  O27  1  0.00101137  0.00072439  0.81226245  1
  O  O28  1  0.99514459  0.16661968  0.60327343  1
  O  O29  1  0.00252282  0.83458681  0.10221048  1
  O  O30  1  0.99956948  0.66551636  0.61596021  1
  O  O31  1  0.99643638  0.48090999  0.35316352  1
  O  O32  1  0.22170923  0.74107072  0.84951678  1
  O  O33  1  0.21791297  0.25536673  0.35334630  1
  O  O34  1  0.25112848  0.58341141  0.10170191  1
  O  O35  1  0.25057843  0.41678400  0.60217723  1
  O  O36  1  0.24954776  0.08455613  0.10318795  1
  O  O37  1  0.24776649  0.91441420  0.60210358  1
  O  O38  1  0.28080626  0.24298311  0.85422450  1
  O  O39  1  0.27793920  0.75906840  0.34870278  1
  O  O40  1  0.50326398  0.83510170  0.11545414  1
  O  O41  1  0.50413613  0.01797399  0.85388555  1
  O  O42  1  0.49893735  0.49894468  0.31138849  1
  O  O43  1  0.50362698  0.33393023  0.10288413  1
  O  O44  1  0.49597891  0.16548185  0.61554482  1
  O  O45  1  0.49976555  0.50063308  0.81367277  1
  O  O46  1  0.49647918  0.98144754  0.35413493  1
  O  O47  1  0.49915218  0.66476972  0.60284866  1
  O  O48  1  0.72182848  0.24112606  0.84916746  1
  O  O49  1  0.72064296  0.75783383  0.35321425  1
  O  O50  1  0.75448269  0.08639105  0.10328539  1
  O  O51  1  0.75131600  0.91661521  0.60170853  1
  O  O52  1  0.75029527  0.58270724  0.10219124  1
  O  O53  1  0.74577817  0.41675765  0.60228224  1
  O  O54  1  0.77851489  0.74064686  0.85071016  1
  O  O55  1  0.77887191  0.25748377  0.34789772  1
