# generated using pymatgen
data_Cr(SiO3)2
_symmetry_space_group_name_H-M   'P 1'
_cell_length_a   5.10079388
_cell_length_b   10.71666749
_cell_length_c   18.42517812
_cell_angle_alpha   89.98873945
_cell_angle_beta   90.02037328
_cell_angle_gamma   90.01234817
_symmetry_Int_Tables_number   1
_chemical_formula_structural   Cr(SiO3)2
_chemical_formula_sum   'Cr8 Si16 O48'
_cell_volume   1007.18483844
_cell_formula_units_Z   8
loop_
 _symmetry_equiv_pos_site_id
 _symmetry_equiv_pos_as_xyz
  1  'x, y, z'
loop_
 _atom_site_type_symbol
 _atom_site_label
 _atom_site_symmetry_multiplicity
 _atom_site_fract_x
 _atom_site_fract_y
 _atom_site_fract_z
 _atom_site_occupancy
  Cr  Cr0  1  0.43829244  0.04434997  0.12677287  1
  Cr  Cr1  1  0.56180906  0.95550127  0.87320418  1
  Cr  Cr2  1  0.93861011  0.95531151  0.37326518  1
  Cr  Cr3  1  0.06197823  0.04451403  0.62683752  1
  Cr  Cr4  1  0.43824029  0.54459879  0.37326720  1
  Cr  Cr5  1  0.56197735  0.45530118  0.62675453  1
  Cr  Cr6  1  0.93802355  0.45568097  0.12684009  1
  Cr  Cr7  1  0.06199511  0.54455457  0.87327082  1
  Si  Si8  1  0.62510944  0.66827295  0.22362539  1
  Si  Si9  1  0.76969186  0.83008823  0.52618246  1
  Si  Si10  1  0.73059863  0.83014888  0.02622929  1
  Si  Si11  1  0.87474056  0.16835929  0.77634446  1
  Si  Si12  1  0.12513913  0.33175647  0.27631813  1
  Si  Si13  1  0.37487435  0.83167476  0.72369916  1
  Si  Si14  1  0.26963759  0.66980154  0.52618614  1
  Si  Si15  1  0.76950074  0.33013394  0.97387265  1
  Si  Si16  1  0.73032767  0.33014300  0.47373465  1
  Si  Si17  1  0.87479555  0.66823469  0.72368605  1
  Si  Si18  1  0.37476346  0.33181824  0.77637183  1
  Si  Si19  1  0.62511047  0.16816555  0.27637238  1
  Si  Si20  1  0.23026246  0.16994318  0.47377418  1
  Si  Si21  1  0.12515935  0.83167109  0.22358996  1
  Si  Si22  1  0.23047864  0.66991048  0.02624797  1
  Si  Si23  1  0.26944627  0.16979173  0.97378442  1
  O  O24  1  0.80330654  0.54357990  0.67634266  1
  O  O25  1  0.33386096  0.04683271  0.92503837  1
  O  O26  1  0.19667439  0.45640700  0.32368582  1
  O  O27  1  0.77235995  0.36143748  0.06115817  1
  O  O28  1  0.27241550  0.13859538  0.06110424  1
  O  O29  1  0.97285562  0.21676636  0.95498463  1
  O  O30  1  0.86618461  0.63330591  0.81053855  1
  O  O31  1  0.13406848  0.86667764  0.31042887  1
  O  O32  1  0.77260602  0.86115848  0.43886573  1
  O  O33  1  0.86628679  0.13331941  0.68951002  1
  O  O34  1  0.30348379  0.45650436  0.82367321  1
  O  O35  1  0.72745626  0.36123227  0.56103036  1
  O  O36  1  0.66647583  0.95309483  0.07500552  1
  O  O37  1  0.36619546  0.86656028  0.81053280  1
  O  O38  1  0.69670205  0.04349658  0.32374404  1
  O  O39  1  0.33426328  0.54679245  0.57487206  1
  O  O40  1  0.30336595  0.95638078  0.67641081  1
  O  O41  1  0.16898181  0.71928113  0.70490003  1
  O  O42  1  0.33092532  0.71927555  0.20477200  1
  O  O43  1  0.52700229  0.71686034  0.04510899  1
  O  O44  1  0.72771349  0.86157345  0.93897213  1
  O  O45  1  0.63378718  0.63335553  0.31046750  1
  O  O46  1  0.83428753  0.45307388  0.92510669  1
  O  O47  1  0.16900348  0.21936344  0.79515931  1
  O  O48  1  0.22729878  0.13872804  0.56105843  1
  O  O49  1  0.63383997  0.13335663  0.18948521  1
  O  O50  1  0.66597095  0.45319938  0.42507896  1
  O  O51  1  0.27237553  0.63870117  0.43887878  1
  O  O52  1  0.16585971  0.54693977  0.07493837  1
  O  O53  1  0.66912421  0.78073466  0.70491560  1
  O  O54  1  0.19603852  0.95639154  0.17622181  1
  O  O55  1  0.83093495  0.78065683  0.20477255  1
  O  O56  1  0.83085161  0.28073313  0.29510343  1
  O  O57  1  0.83461342  0.95306228  0.57482876  1
  O  O58  1  0.22752631  0.63877099  0.93896097  1
  O  O59  1  0.16574982  0.04691185  0.42512471  1
  O  O60  1  0.33085034  0.21925387  0.29513694  1
  O  O61  1  0.02704359  0.78319447  0.04511826  1
  O  O62  1  0.47313719  0.78317358  0.54503295  1
  O  O63  1  0.66899171  0.28077609  0.79512412  1
  O  O64  1  0.47301470  0.28314938  0.95490229  1
  O  O65  1  0.52669599  0.21688987  0.45488122  1
  O  O66  1  0.02672880  0.28322169  0.45489016  1
  O  O67  1  0.36612313  0.36662274  0.68948850  1
  O  O68  1  0.69618959  0.54364787  0.17626895  1
  O  O69  1  0.97320614  0.71675645  0.54502683  1
  O  O70  1  0.13384047  0.36678000  0.18946949  1
  O  O71  1  0.80317168  0.04369330  0.82364567  1
