# generated using pymatgen
data_Li6CoNi5O12
_symmetry_space_group_name_H-M   'P 1'
_cell_length_a   4.89213482
_cell_length_b   5.04206364
_cell_length_c   9.87708629
_cell_angle_alpha   84.24268305
_cell_angle_beta   89.35298988
_cell_angle_gamma   117.78485934
_symmetry_Int_Tables_number   1
_chemical_formula_structural   Li6CoNi5O12
_chemical_formula_sum   'Li6 Co1 Ni5 O12'
_cell_volume   213.98869038
_cell_formula_units_Z   1
loop_
 _symmetry_equiv_pos_site_id
 _symmetry_equiv_pos_as_xyz
  1  'x, y, z'
loop_
 _atom_site_type_symbol
 _atom_site_label
 _atom_site_symmetry_multiplicity
 _atom_site_fract_x
 _atom_site_fract_y
 _atom_site_fract_z
 _atom_site_occupancy
  Li  Li0  1  0.85316472  0.49452112  0.24830810  1
  Li  Li1  1  0.47877428  0.16503417  0.75109118  1
  Li  Li2  1  0.81813379  0.84614659  0.74770792  1
  Li  Li3  1  0.18186938  0.15364415  0.25218890  1
  Li  Li4  1  0.52200681  0.83547817  0.24931550  1
  Li  Li5  1  0.14592780  0.50435413  0.75161345  1
  Co  Co6  1  0.99982891  0.00028072  0.00038595  1
  Ni  Ni7  1  0.66224635  0.32811153  0.99999805  1
  Ni  Ni8  1  0.83315691  0.66632606  0.49965819  1
  Ni  Ni9  1  0.49994213  0.00027906  0.49995855  1
  Ni  Ni10  1  0.33816924  0.67185467  0.00016556  1
  Ni  Ni11  1  0.16730182  0.33396008  0.49997221  1
  O  O12  1  0.82490400  0.99832886  0.39059272  1
  O  O13  1  0.84216855  0.33718851  0.60991130  1
  O  O14  1  0.02019145  0.69747624  0.89827773  1
  O  O15  1  0.68564248  0.01550045  0.88725009  1
  O  O16  1  0.31806574  0.98673761  0.11112131  1
  O  O17  1  0.65588123  0.66264183  0.10671900  1
  O  O18  1  0.49190933  0.33036724  0.38999170  1
  O  O19  1  0.50775519  0.66926357  0.61004941  1
  O  O20  1  0.34260283  0.33850323  0.89350287  1
  O  O21  1  0.17523265  0.00148600  0.60969385  1
  O  O22  1  0.97726124  0.29937637  0.10275563  1
  O  O23  1  0.15786917  0.66314866  0.38977582  1
