# generated using pymatgen
data_Dy3Mn3Ga2Si
_symmetry_space_group_name_H-M   'P 1'
_cell_length_a   4.14871617
_cell_length_b   6.97455424
_cell_length_c   6.97185731
_cell_angle_alpha   119.98053480
_cell_angle_beta   90.00000000
_cell_angle_gamma   90.00000000
_symmetry_Int_Tables_number   1
_chemical_formula_structural   Dy3Mn3Ga2Si
_chemical_formula_sum   'Dy3 Mn3 Ga2 Si1'
_cell_volume   174.74085342
_cell_formula_units_Z   1
loop_
 _symmetry_equiv_pos_site_id
 _symmetry_equiv_pos_as_xyz
  1  'x, y, z'
loop_
 _atom_site_type_symbol
 _atom_site_label
 _atom_site_symmetry_multiplicity
 _atom_site_fract_x
 _atom_site_fract_y
 _atom_site_fract_z
 _atom_site_occupancy
  Dy  Dy0  1  0.50000000  0.57805525  0.99616230  1
  Dy  Dy1  1  0.50000000  0.41841543  0.42178038  1
  Dy  Dy2  1  0.50000000  0.00349014  0.58178186  1
  Mn  Mn3  1  0.00000000  0.22970194  0.98832799  1
  Mn  Mn4  1  -0.00000000  0.75865793  0.77011278  1
  Mn  Mn5  1  -0.00000000  0.01143226  0.24128335  1
  Ga  Ga6  1  0.50000000  0.00017564  0.00061870  1
  Ga  Ga7  1  0.00000000  0.66667346  0.33332233  1
  Si  Si8  1  -0.00000000  0.33329796  0.66661031  1
