# generated using pymatgen
data_NaNiO2
_symmetry_space_group_name_H-M   'P 1'
_cell_length_a   2.99896039
_cell_length_b   2.99859483
_cell_length_c   10.67902147
_cell_angle_alpha   90.00000000
_cell_angle_beta   90.00000000
_cell_angle_gamma   120.00402083
_symmetry_Int_Tables_number   1
_chemical_formula_structural   NaNiO2
_chemical_formula_sum   'Na2 Ni2 O4'
_cell_volume   83.16354851
_cell_formula_units_Z   2
loop_
 _symmetry_equiv_pos_site_id
 _symmetry_equiv_pos_as_xyz
  1  'x, y, z'
loop_
 _atom_site_type_symbol
 _atom_site_label
 _atom_site_symmetry_multiplicity
 _atom_site_fract_x
 _atom_site_fract_y
 _atom_site_fract_z
 _atom_site_occupancy
  Na  Na0  1  0.66667606  0.33335112  0.25000000  1
  Na  Na1  1  0.33332394  0.66664888  0.75000000  1
  Ni  Ni2  1  -0.00000000  0.00000000  0.50000000  1
  Ni  Ni3  1  0.00000000  0.00000000  0.00000000  1
  O  O4  1  0.33333868  0.66667635  0.40289640  1
  O  O5  1  0.66666132  0.33332365  0.59710360  1
  O  O6  1  0.66666132  0.33332365  0.90289640  1
  O  O7  1  0.33333868  0.66667635  0.09710360  1
