# generated using pymatgen
data_Sr(BO2)2
_symmetry_space_group_name_H-M   'P 1'
_cell_length_a   9.31769080
_cell_length_b   9.31769080
_cell_length_c   9.31769080
_cell_angle_alpha   90.00000000
_cell_angle_beta   90.00000000
_cell_angle_gamma   90.00000000
_symmetry_Int_Tables_number   1
_chemical_formula_structural   Sr(BO2)2
_chemical_formula_sum   'Sr12 B24 O48'
_cell_volume   808.95596912
_cell_formula_units_Z   12
loop_
 _symmetry_equiv_pos_site_id
 _symmetry_equiv_pos_as_xyz
  1  'x, y, z'
loop_
 _atom_site_type_symbol
 _atom_site_label
 _atom_site_symmetry_multiplicity
 _atom_site_fract_x
 _atom_site_fract_y
 _atom_site_fract_z
 _atom_site_occupancy
  B  B0  1  0.81277400  0.83797217  0.38713248  1
  B  B1  1  0.61286752  0.18722600  0.16202783  1
  B  B2  1  0.11286752  0.31277400  0.83797217  1
  B  B3  1  0.38713248  0.68722600  0.33797217  1
  B  B4  1  0.31277400  0.83797217  0.11286752  1
  B  B5  1  0.33797217  0.38713248  0.68722600  1
  B  B6  1  0.83797217  0.11286752  0.31277400  1
  B  B7  1  0.18722600  0.16202783  0.61286752  1
  B  B8  1  0.16202783  0.61286752  0.18722600  1
  B  B9  1  0.68722600  0.33797217  0.38713248  1
  B  B10  1  0.81277400  0.66202783  0.88713248  1
  B  B11  1  0.66202783  0.88713248  0.81277400  1
  B  B12  1  0.11286752  0.18722600  0.33797217  1
  B  B13  1  0.33797217  0.11286752  0.18722600  1
  B  B14  1  0.18722600  0.33797217  0.11286752  1
  B  B15  1  0.31277400  0.66202783  0.61286752  1
  B  B16  1  0.83797217  0.38713248  0.81277400  1
  B  B17  1  0.88713248  0.81277400  0.66202783  1
  B  B18  1  0.16202783  0.88713248  0.68722600  1
  B  B19  1  0.66202783  0.61286752  0.31277400  1
  B  B20  1  0.68722600  0.16202783  0.88713248  1
  B  B21  1  0.61286752  0.31277400  0.66202783  1
  B  B22  1  0.88713248  0.68722600  0.16202783  1
  B  B23  1  0.38713248  0.81277400  0.83797217  1
  O  O24  1  0.59301894  0.28141150  0.50460669  1
  O  O25  1  0.90698106  0.71858850  0.00460669  1
  O  O26  1  0.00460669  0.90698106  0.71858850  1
  O  O27  1  0.71858850  0.00460669  0.90698106  1
  O  O28  1  0.78141150  0.99539331  0.40698106  1
  O  O29  1  0.50460669  0.59301894  0.28141150  1
  O  O30  1  0.28141150  0.50460669  0.59301894  1
  O  O31  1  0.49539331  0.09301894  0.21858850  1
  O  O32  1  0.99539331  0.40698106  0.78141150  1
  O  O33  1  0.21858850  0.49539331  0.09301894  1
  O  O34  1  0.40698106  0.78141150  0.99539331  1
  O  O35  1  0.09301894  0.21858850  0.49539331  1
  O  O36  1  0.32357973  0.25694403  0.11511365  1
  O  O37  1  0.11511365  0.32357973  0.25694403  1
  O  O38  1  0.25694403  0.11511365  0.32357973  1
  O  O39  1  0.24305597  0.88488635  0.82357973  1
  O  O40  1  0.61511365  0.17642027  0.74305597  1
  O  O41  1  0.74305597  0.61511365  0.17642027  1
  O  O42  1  0.38488635  0.67642027  0.75694403  1
  O  O43  1  0.88488635  0.82357973  0.24305597  1
  O  O44  1  0.75694403  0.38488635  0.67642027  1
  O  O45  1  0.82357973  0.24305597  0.88488635  1
  O  O46  1  0.67642027  0.75694403  0.38488635  1
  O  O47  1  0.17642027  0.74305597  0.61511365  1
  O  O48  1  0.67642027  0.74305597  0.88488635  1
  O  O49  1  0.88488635  0.67642027  0.74305597  1
  O  O50  1  0.74305597  0.88488635  0.67642027  1
  O  O51  1  0.75694403  0.11511365  0.17642027  1
  O  O52  1  0.38488635  0.82357973  0.25694403  1
  O  O53  1  0.25694403  0.38488635  0.82357973  1
  O  O54  1  0.61511365  0.32357973  0.24305597  1
  O  O55  1  0.11511365  0.17642027  0.75694403  1
  O  O56  1  0.24305597  0.61511365  0.32357973  1
  O  O57  1  0.17642027  0.75694403  0.11511365  1
  O  O58  1  0.32357973  0.24305597  0.61511365  1
  O  O59  1  0.82357973  0.25694403  0.38488635  1
  O  O60  1  0.09301894  0.28141150  0.99539331  1
  O  O61  1  0.99539331  0.09301894  0.28141150  1
  O  O62  1  0.28141150  0.99539331  0.09301894  1
  O  O63  1  0.40698106  0.71858850  0.49539331  1
  O  O64  1  0.49539331  0.40698106  0.71858850  1
  O  O65  1  0.71858850  0.49539331  0.40698106  1
  O  O66  1  0.50460669  0.90698106  0.78141150  1
  O  O67  1  0.00460669  0.59301894  0.21858850  1
  O  O68  1  0.78141150  0.50460669  0.90698106  1
  O  O69  1  0.59301894  0.21858850  0.00460669  1
  O  O70  1  0.90698106  0.78141150  0.50460669  1
  O  O71  1  0.21858850  0.00460669  0.59301894  1
  Sr  Sr72  1  0.37054835  0.12945165  0.87054835  1
  Sr  Sr73  1  0.12945165  0.87054835  0.37054835  1
  Sr  Sr74  1  0.87054835  0.37054835  0.12945165  1
  Sr  Sr75  1  0.62945165  0.62945165  0.62945165  1
  Sr  Sr76  1  0.62945165  0.87054835  0.12945165  1
  Sr  Sr77  1  0.87054835  0.12945165  0.62945165  1
  Sr  Sr78  1  0.12945165  0.62945165  0.87054835  1
  Sr  Sr79  1  0.37054835  0.37054835  0.37054835  1
  Sr  Sr80  1  0.00000000  0.50000000  0.50000000  1
  Sr  Sr81  1  0.50000000  0.50000000  0.00000000  1
  Sr  Sr82  1  0.50000000  0.00000000  0.50000000  1
  Sr  Sr83  1  0.00000000  0.00000000  0.00000000  1
